data_PCOD8125606
_publ_section_title
;
Structure prediction by ZEFSAII (Michael W. Deem and Ramdas Pophale) SiO2 
 PCOD8125606
Probable space group: P 21/C
;
_chemical_formula_sum "Si O2"
_cell_formula_units_Z 28
_cell_length_a 11.867562
_cell_length_b 10.520801
_cell_length_c 14.108882
_cell_angle_alpha 90.000000
_cell_angle_beta 48.866760
_cell_angle_gamma 90.000000
_cell_volume 1326.791822
_symmetry_space_group_name_H-M "P 21/C"
_symmetry_group_IT_number 14
_symmetry_cell_setting 'monoclinic'
loop_
_space_group_symop_operation_xyz
x,y,z
-x,1/2+y,1/2-z
-x,-y,-z
x,1/2-y,1/2+z
loop_
_atom_site_type_symbol
_atom_site_label
_atom_site_fract_x
_atom_site_fract_y
_atom_site_fract_z
Si Si1 0.441209 0.859865 0.510443
Si Si2 0.747771 0.755150 0.298078
Si Si3 0.831527 0.962527 0.101750
Si Si4 0.216114 0.717700 0.293656
Si Si5 0.870592 0.730959 0.428706
Si Si6 0.591894 0.135203 0.682354
Si Si7 0.647681 0.643355 0.173266
O O1 0.586742 0.771359 0.435877
O O2 0.317382 0.799882 0.645996
O O3 0.363022 0.851363 0.451646
O O4 0.500000 0.000000 0.500000
O O5 0.802520 0.882097 0.213718
O O6 0.860983 0.717164 0.320159
O O7 0.734381 0.644715 0.226513
O O8 0.746567 0.095603 0.160707
O O9 0.791396 0.887623 0.027480
O O10 0.000000 0.000000 0.000000
O O11 0.267403 0.837502 0.327718
O O12 0.044446 0.739866 0.360312
O O13 0.775068 0.852768 0.519526
O O14 0.454391 0.229663 0.780614
O O15 0.549907 0.985691 0.720593
#
# Coordination Sequence:
#
# PCOD8125606 Si02
#       7
#     4   4   4   4   4   4   4
#     4  11  21  39  67  92 125 174 224 260 323 407
#     4  10  20  40  64  93 127 172 220 269 333 392
#     4   9  20  38  62  90 125 173 214 263 332 396
#     4  11  23  40  62  99 127 172 224 269 337 398
#     4  10  22  41  65  92 136 172 214 276 339 399
#     4  11  24  43  69  95 132 170 225 279 329 398
#     4  10  24  42  67  96 128 175 218 278 332 393
#
# _framework density 21.103535999999998
#
# number of rings (size 3 to 8) (size 9 to 14) (size 15 to 20)
#    0.000    1.714    1.429    2.571    4.000    4.000 
#    7.714    2.143    0.000    0.000    0.000    0.000 
#    0.000    0.000    0.000    0.000    0.000    0.000 
#
# Total GULP energy -346902.332903 kJ/mol
# GULP energy per Si atom -12389.369032 kJ/mol
# Density = 2.105550 g / cm^3
# Si number density = 21.103536 Si / 1000 Ang^3
#
#
#
# Elastic Constant Matrix: (Units=GPa)
#
#
# Indices 1 2 3 4 5 6 
#
# 1 134.3872 38.8288 42.6992 0.0000 14.9254 0.0000
# 2 38.8288 102.5738 37.4425 0.0000 -2.9500 0.0000
# 3 42.6992 37.4425 115.8640 0.0000 -2.2361 0.0000
# 4 0.0000 0.0000 0.0000 20.5413 0.0000 0.0514
# 5 14.9254 -2.9500 -2.2361 0.0000 34.2972 0.0000
# 6 0.0000 0.0000 0.0000 0.0514 0.0000 24.6990
#
#
#
# Elastic Compliance Matrix: (Units=1/GPa)
#
#
# Indices 1 2 3 4 5 6 
#
# 1 0.009625 -0.002776 -0.002739 0.000000 -0.004606 0.000000
# 2 -0.002776 0.011871 -0.002774 0.000000 0.002048 0.000000
# 3 -0.002739 -0.002774 0.010568 0.000000 0.001642 0.000000
# 4 0.000000 0.000000 0.000000 0.048683 0.000000 -0.000101
# 5 -0.004606 0.002048 0.001642 0.000000 0.031445 0.000000
# 6 0.000000 0.000000 0.000000 -0.000101 0.000000 0.040488
#
#
# Mechanical properties :
#
#
# Convention : Reuss Voigt Hill
#
# Bulk Modulus (GPa) = 64.56973 65.64066 65.10520
# Shear Modulus (GPa) = 28.66652 31.49781 30.08216
#
# Velocity S-wave (km/s) = 3.68961 3.86753 3.77962
# Velocity P-wave (km/s) = 6.98671 7.14950 7.06857
#
# Compressibility (1/GPa) = 0.01548713
#
# Stress axis : x y z
#
# Youngs Moduli (GPa) = 103.89496 84.23605 94.62357
#
# Poissons Ratio (x) = 0.23386 0.25916
# Poissons Ratio (y) = 0.28844 0.26246
# Poissons Ratio (z) = 0.28455 0.23365
#
# Static dielectric constant tensor:
#      x y z
#    x 3.927490 0.000000 0.114720 
#    y 0.000000 4.439950 0.000000 
#    z 0.114720 0.000000 4.025740 
# 
# 
# High freq. dielectric constant tensor:
#      x y z
#    x 1.826320 0.000000 0.003000 
#    y 0.000000 1.812260 0.000000 
#    z 0.003000 0.000000 1.837710 
# 
# From -- ./inp_files/44330.got.cif
#   From: 2010.03.12/outbox.cif.g09.slc.cpg/sg14_23_cif.got.tgz:44330.got - 2010.03.31 13:35:05.
