data_PCOD8125495
_publ_section_title
;
Structure prediction by ZEFSAII (Michael W. Deem and Ramdas Pophale) SiO2 
 PCOD8125495
Probable space group: P 21/C
;
_chemical_formula_sum "Si O2"
_cell_formula_units_Z 28
_cell_length_a 12.634808
_cell_length_b 7.436052
_cell_length_c 15.400323
_cell_angle_alpha 90.000000
_cell_angle_beta 123.650264
_cell_angle_gamma 90.000000
_cell_volume 1204.457440
_symmetry_space_group_name_H-M "P 21/C"
_symmetry_group_IT_number 14
_symmetry_cell_setting 'monoclinic'
loop_
_space_group_symop_operation_xyz
x,y,z
-x,1/2+y,1/2-z
-x,-y,-z
x,1/2-y,1/2+z
loop_
_atom_site_type_symbol
_atom_site_label
_atom_site_fract_x
_atom_site_fract_y
_atom_site_fract_z
Si Si1 0.080842 0.330367 0.635967
Si Si2 0.185029 0.679979 0.414435
Si Si3 0.351073 0.603950 0.222024
Si Si4 0.598024 0.434276 0.364812
Si Si5 0.130265 0.785363 0.215603
Si Si6 0.741198 0.790466 0.424898
Si Si7 0.139687 0.218990 0.848331
O O1 0.107948 0.544774 0.642120
O O2 0.128299 0.231145 0.570829
O O3 0.160800 0.274791 0.758285
O O4 0.930728 0.277092 0.571558
O O5 0.321814 0.659633 0.521982
O O6 0.192901 0.828425 0.340179
O O7 0.141860 0.495471 0.349435
O O8 0.454802 0.494727 0.328174
O O9 0.409751 0.793806 0.218132
O O10 0.219973 0.636131 0.212608
O O11 0.324183 0.479248 0.126328
O O12 0.661890 0.616341 0.359047
O O13 0.993604 0.701090 0.176958
O O14 0.756792 0.793971 0.536230
#
# Coordination Sequence:
#
# PCOD8125495 Si02
#       7
#     4   4   4   4   4   4   4
#     4  10  20  39  63  97 136 158 204 264 315 383
#     4   9  21  39  62  90 131 164 202 259 321 372
#     4  12  24  41  64  88 123 168 219 260 310 369
#     4  11  24  42  62  89 124 167 219 261 305 369
#     4  10  21  37  63  94 125 167 206 256 320 378
#     4  11  23  40  67  93 125 169 209 260 322 374
#     4   9  21  38  61  95 132 163 203 260 320 378
#
# _framework density 23.246981999999999
#
# number of rings (size 3 to 8) (size 9 to 14) (size 15 to 20)
#    0.000    1.714    2.857    0.857    4.000    4.000 
#    0.000    0.000    0.000    4.286    0.000    0.000 
#    0.000    0.000    0.000    0.000    0.000    0.000 
#
# Total GULP energy -346954.030463 kJ/mol
# GULP energy per Si atom -12391.215374 kJ/mol
# Density = 2.319407 g / cm^3
# Si number density = 23.246982 Si / 1000 Ang^3
#
#
#
# Elastic Constant Matrix: (Units=GPa)
#
#
# Indices 1 2 3 4 5 6 
#
# 1 20.0333 3.1434 -0.5700 0.0000 5.0347 0.0000
# 2 3.1434 48.4528 4.8064 0.0000 4.8214 0.0000
# 3 -0.5700 4.8064 77.0412 0.0000 9.2061 0.0000
# 4 0.0000 0.0000 0.0000 36.1593 0.0000 -4.5595
# 5 5.0347 4.8214 9.2061 0.0000 31.9675 0.0000
# 6 0.0000 0.0000 0.0000 -4.5595 0.0000 33.1116
#
#
#
# Elastic Compliance Matrix: (Units=1/GPa)
#
#
# Indices 1 2 3 4 5 6 
#
# 1 0.052475 -0.002732 0.001550 0.000000 -0.008299 0.000000
# 2 -0.002732 0.021165 -0.001047 0.000000 -0.002460 0.000000
# 3 0.001550 -0.001047 0.013533 0.000000 -0.003984 0.000000
# 4 0.000000 0.000000 0.000000 0.028144 0.000000 0.003875
# 5 -0.008299 -0.002460 -0.003984 0.000000 0.034107 0.000000
# 6 0.000000 0.000000 0.000000 0.003875 0.000000 0.030735
#
#
# Mechanical properties :
#
#
# Convention : Reuss Voigt Hill
#
# Bulk Modulus (GPa) = 12.08960 17.80965 14.94962
# Shear Modulus (GPa) = 23.56405 29.45750 26.51078
#
# Velocity S-wave (km/s) = 3.18722 3.56357 3.38064
# Velocity P-wave (km/s) = 4.33086 4.96082 4.65650
#
# Compressibility (1/GPa) = 0.08271570
#
# Stress axis : x y z
#
# Youngs Moduli (GPa) = 19.05653 47.24882 73.89431
#
# Poissons Ratio (x) = 0.12910 -0.11457
# Poissons Ratio (y) = 0.05207 0.07734
# Poissons Ratio (z) = -0.02955 0.04945
#
# Static dielectric constant tensor:
#      x y z
#    x 3.970050 0.000000 0.143320 
#    y 0.000000 4.191890 0.000000 
#    z 0.143320 0.000000 4.121100 
# 
# 
# High freq. dielectric constant tensor:
#      x y z
#    x 1.888500 0.000000 0.006400 
#    y 0.000000 1.920420 0.000000 
#    z 0.006400 0.000000 1.915650 
# 
# From -- ./inp_files/43830.got.cif
#   From: 2010.03.12/outbox.cif.g09.slc.cpg/sg14_22_cif.got.tgz:43830.got - 2010.03.31 13:35:05.
