data_PCOD8125354
_publ_section_title
;
Structure prediction by ZEFSAII (Michael W. Deem and Ramdas Pophale) SiO2 
 PCOD8125354
Probable space group: P 21/C
;
_chemical_formula_sum "Si O2"
_cell_formula_units_Z 32
_cell_length_a 22.238338
_cell_length_b 14.030946
_cell_length_c 15.668103
_cell_angle_alpha 90.000000
_cell_angle_beta 160.528322
_cell_angle_gamma 90.000000
_cell_volume 1629.649653
_symmetry_space_group_name_H-M "P 21/C"
_symmetry_group_IT_number 14
_symmetry_cell_setting 'monoclinic'
loop_
_space_group_symop_operation_xyz
x,y,z
-x,1/2+y,1/2-z
-x,-y,-z
x,1/2-y,1/2+z
loop_
_atom_site_type_symbol
_atom_site_label
_atom_site_fract_x
_atom_site_fract_y
_atom_site_fract_z
Si Si1 0.175430 0.386789 0.107598
Si Si2 0.072228 0.990334 0.002520
Si Si3 0.548524 0.708437 0.825937
Si Si4 0.761907 0.416999 0.539487
Si Si5 0.380857 0.592525 0.836124
Si Si6 0.282370 0.321581 0.767464
Si Si7 0.414902 0.074641 0.090337
Si Si8 0.281327 0.062631 0.565578
O O1 0.176939 0.272772 0.100798
O O2 0.279066 0.421042 0.329692
O O3 0.273434 0.433466 0.157365
O O4 0.969877 0.418079 0.843530
O O5 0.150689 0.090085 0.071660
O O6 0.919291 0.954709 0.735089
O O7 0.235789 0.911146 0.219665
O O8 0.000000 0.000000 0.000000
O O9 0.343188 0.670317 0.555681
O O10 0.541969 0.822281 0.812397
O O11 0.643553 0.663196 0.869854
O O12 0.664398 0.672637 0.061828
O O13 0.743480 0.407049 0.413996
O O14 0.673856 0.516041 0.451805
O O15 0.500000 0.500000 0.000000
O O16 0.527422 0.678076 0.032065
O O17 0.598153 0.026050 0.303313
#
# Coordination Sequence:
#
# PCOD8125354 Si02
#       8
#     4   4   4   4   4   4   4   4
#     4  11  22  40  59  88 126 159 205 243 292 367
#     4  11  20  36  62  91 120 149 200 257 307 346
#     4   9  20  39  57  85 117 154 198 249 299 358
#     4  10  20  38  62  86 117 159 201 245 294 360
#     4   9  19  36  59  87 116 149 193 247 304 349
#     4   9  20  37  58  84 121 155 190 249 305 349
#     4  10  23  40  62  82 124 166 198 244 308 359
#     4  11  22  39  61  90 121 157 204 251 297 365
#
# _framework density 19.636122
#
# number of rings (size 3 to 8) (size 9 to 14) (size 15 to 20)
#    0.000    2.000    2.500    0.750    3.500    2.000 
#    0.000    0.000    2.750    0.000    0.000    0.000 
#    0.000    0.000    0.000    0.000    0.000    0.000 
#
# Total GULP energy -396706.819575 kJ/mol
# GULP energy per Si atom -12397.088112 kJ/mol
# Density = 1.959143 g / cm^3
# Si number density = 19.636122 Si / 1000 Ang^3
#
#
#
# Elastic Constant Matrix: (Units=GPa)
#
#
# Indices 1 2 3 4 5 6 
#
# 1 83.4575 24.2885 20.5810 0.0000 25.5603 0.0000
# 2 24.2885 105.0646 26.0205 0.0000 19.2475 0.0000
# 3 20.5810 26.0205 79.5677 0.0000 28.2451 0.0000
# 4 0.0000 0.0000 0.0000 24.8709 0.0000 -4.2786
# 5 25.5603 19.2475 28.2451 0.0000 32.7754 0.0000
# 6 0.0000 0.0000 0.0000 -4.2786 0.0000 21.1532
#
#
#
# Elastic Compliance Matrix: (Units=1/GPa)
#
#
# Indices 1 2 3 4 5 6 
#
# 1 0.016000 -0.001654 0.000702 0.000000 -0.012111 0.000000
# 2 -0.001654 0.011023 -0.001926 0.000000 -0.003524 0.000000
# 3 0.000702 -0.001926 0.018455 0.000000 -0.015320 0.000000
# 4 0.000000 0.000000 0.000000 0.041657 0.000000 0.008426
# 5 -0.012111 -0.003524 -0.015320 0.000000 0.055227 0.000000
# 6 0.000000 0.000000 0.000000 0.008426 0.000000 0.048978
#
#
# Mechanical properties :
#
#
# Convention : Reuss Voigt Hill
#
# Bulk Modulus (GPa) = 25.17618 45.54110 35.35864
# Shear Modulus (GPa) = 23.77144 28.90656 26.33900
#
# Velocity S-wave (km/s) = 3.48314 3.84097 3.66642
# Velocity P-wave (km/s) = 5.38754 6.55085 5.99746
#
# Compressibility (1/GPa) = 0.03972009
#
# Stress axis : x y z
#
# Youngs Moduli (GPa) = 62.50149 90.72093 54.18715
#
# Poissons Ratio (x) = 0.15004 -0.03801
# Poissons Ratio (y) = 0.10337 0.10437
# Poissons Ratio (z) = -0.04385 0.17474
#
# Static dielectric constant tensor:
#      x y z
#    x 3.546990 0.000000 0.204160 
#    y 0.000000 3.542710 0.000000 
#    z 0.204160 0.000000 3.757550 
# 
# 
# High freq. dielectric constant tensor:
#      x y z
#    x 1.767220 0.000000 0.011230 
#    y 0.000000 1.752890 0.000000 
#    z 0.011230 0.000000 1.774420 
# 
# From -- ./inp_files/45101.got.cif
#   From: 2010.03.12/outbox.cif.g09.slc.cpg/sg14_23_cif.got.tgz:45101.got - 2010.03.31 13:35:05.
