data_PCOD8125807
_publ_section_title
;
Structure prediction by ZEFSAII (Michael W. Deem and Ramdas Pophale) SiO2 
 PCOD8125807
Probable space group: P 21/C
;
_chemical_formula_sum "Si O2"
_cell_formula_units_Z 32
_cell_length_a 8.415193
_cell_length_b 19.654417
_cell_length_c 16.346399
_cell_angle_alpha 90.000000
_cell_angle_beta 145.178229
_cell_angle_gamma 90.000000
_cell_volume 1543.838538
_symmetry_space_group_name_H-M "P 21/C"
_symmetry_group_IT_number 14
_symmetry_cell_setting 'monoclinic'
loop_
_space_group_symop_operation_xyz
x,y,z
-x,1/2+y,1/2-z
-x,-y,-z
x,1/2-y,1/2+z
loop_
_atom_site_type_symbol
_atom_site_label
_atom_site_fract_x
_atom_site_fract_y
_atom_site_fract_z
Si Si1 0.361112 0.590007 0.862754
Si Si2 0.971121 0.592286 0.163109
Si Si3 0.833388 0.208837 0.152095
Si Si4 0.503896 0.099949 0.924895
Si Si5 0.861680 0.508316 0.631650
Si Si6 0.888787 0.182962 0.417912
Si Si7 0.023820 0.846125 0.363654
Si Si8 0.508630 0.226967 0.657490
O O1 0.370751 0.650865 0.801300
O O2 0.176082 0.530462 0.742152
O O3 0.222783 0.609494 0.890741
O O4 0.667783 0.562728 0.013004
O O5 0.943808 0.661167 0.206520
O O6 0.141693 0.535889 0.284964
O O7 0.126746 0.615410 0.145612
O O8 0.588214 0.232328 0.109355
O O9 0.006589 0.270565 0.186653
O O10 0.678693 0.167550 0.015680
O O11 0.324936 0.075219 0.929163
O O12 0.283618 0.118554 0.760355
O O13 0.723499 0.037704 0.000734
O O14 0.845696 0.156934 0.491490
O O15 0.177548 0.223854 0.528183
O O16 0.643399 0.236089 0.292975
#
# Coordination Sequence:
#
# PCOD8125807 Si02
#       8
#     4   4   4   4   4   4   4   4
#     4   9  18  32  55  79 103 133 184 218 262 305
#     4   9  18  34  52  80 103 138 177 221 260 315
#     4   9  19  31  54  76 105 133 178 215 262 316
#     4   9  19  32  51  78 106 132 175 219 261 302
#     4   9  17  33  55  78  99 140 182 222 250 305
#     4  10  21  34  50  79 113 140 173 214 283 325
#     4  10  21  31  53  79 107 140 167 219 269 321
#     4   9  20  33  52  76 107 142 170 219 265 328
#
# _framework density 20.727556
#
# number of rings (size 3 to 8) (size 9 to 14) (size 15 to 20)
#    0.000    2.750    0.000    0.375   12.250    0.000 
#    0.000    2.500    0.000    3.000    3.250    0.000 
#    0.000    0.000    0.000    0.000    0.000    0.000 
#
# Total GULP energy -396544.574909 kJ/mol
# GULP energy per Si atom -12392.017966 kJ/mol
# Density = 2.068038 g / cm^3
# Si number density = 20.727556 Si / 1000 Ang^3
#
#
#
# Elastic Constant Matrix: (Units=GPa)
#
#
# Indices 1 2 3 4 5 6 
#
# 1 25.3158 0.8785 0.8545 0.0000 -1.1383 0.0000
# 2 0.8785 57.0928 9.6163 0.0000 1.9182 0.0000
# 3 0.8545 9.6163 60.9422 0.0000 0.2368 0.0000
# 4 0.0000 0.0000 0.0000 44.8768 0.0000 6.7510
# 5 -1.1383 1.9182 0.2368 0.0000 33.3052 0.0000
# 6 0.0000 0.0000 0.0000 6.7510 0.0000 12.9427
#
#
#
# Elastic Compliance Matrix: (Units=1/GPa)
#
#
# Indices 1 2 3 4 5 6 
#
# 1 0.039599 -0.000577 -0.000470 0.000000 0.001390 0.000000
# 2 -0.000577 0.018036 -0.002834 0.000000 -0.001038 0.000000
# 3 -0.000470 -0.002834 0.016863 0.000000 0.000027 0.000000
# 4 0.000000 0.000000 0.000000 0.024181 0.000000 -0.012613
# 5 0.001390 -0.001038 0.000027 0.000000 0.030132 0.000000
# 6 0.000000 0.000000 0.000000 -0.012613 0.000000 0.083842
#
#
# Mechanical properties :
#
#
# Convention : Reuss Voigt Hill
#
# Bulk Modulus (GPa) = 14.98407 18.44993 16.71700
# Shear Modulus (GPa) = 20.60493 27.02507 23.81500
#
# Velocity S-wave (km/s) = 3.15633 3.61477 3.39330
# Velocity P-wave (km/s) = 4.53078 5.13250 4.84100
#
# Compressibility (1/GPa) = 0.06673753
#
# Stress axis : x y z
#
# Youngs Moduli (GPa) = 25.25296 55.44339 59.30270
#
# Poissons Ratio (x) = 0.03199 0.02785
# Poissons Ratio (y) = 0.01457 0.16806
# Poissons Ratio (z) = 0.01186 0.15712
#
# Static dielectric constant tensor:
#      x y z
#    x 3.269700 0.000000 0.177050 
#    y 0.000000 3.912930 0.000000 
#    z 0.177050 0.000000 3.884500 
# 
# 
# High freq. dielectric constant tensor:
#      x y z
#    x 1.757840 0.000000 0.022560 
#    y 0.000000 1.813730 0.000000 
#    z 0.022560 0.000000 1.816680 
# 
# From -- ./inp_files/42066.got.cif
#   From: 2010.03.12/outbox.cif.g09.slc.cpg/sg14_22_cif.got.tgz:42066.got - 2010.03.31 13:35:05.
