data_PCOD8125103
_publ_section_title
;
Structure prediction by ZEFSAII (Michael W. Deem and Ramdas Pophale) SiO2 
 PCOD8125103
Probable space group: P 21/C
;
_chemical_formula_sum "Si O2"
_cell_formula_units_Z 28
_cell_length_a 9.450146
_cell_length_b 15.946685
_cell_length_c 18.588138
_cell_angle_alpha 90.000000
_cell_angle_beta 153.282049
_cell_angle_gamma 90.000000
_cell_volume 1259.418406
_symmetry_space_group_name_H-M "P 21/C"
_symmetry_group_IT_number 14
_symmetry_cell_setting 'monoclinic'
loop_
_space_group_symop_operation_xyz
x,y,z
-x,1/2+y,1/2-z
-x,-y,-z
x,1/2-y,1/2+z
loop_
_atom_site_type_symbol
_atom_site_label
_atom_site_fract_x
_atom_site_fract_y
_atom_site_fract_z
Si Si1 0.964619 0.652040 0.298563
Si Si2 0.311696 0.790732 0.529755
Si Si3 0.075764 0.088183 0.067780
Si Si4 0.761002 0.143708 0.226687
Si Si5 0.304362 0.981712 0.683877
Si Si6 0.671907 0.833120 0.299433
Si Si7 0.160649 0.228531 0.997428
O O1 0.054749 0.598228 0.410694
O O2 0.113790 0.615007 0.294178
O O3 0.125577 0.742756 0.381941
O O4 0.584525 0.653325 0.116857
O O5 0.500844 0.729523 0.668609
O O6 0.046732 0.843277 0.452178
O O7 0.973681 0.167964 0.970755
O O8 0.460847 0.085839 0.246959
O O9 0.000000 0.000000 0.000000
O O10 0.939864 0.224118 0.340948
O O11 0.394207 0.169856 0.057208
O O12 0.808324 0.058623 0.292808
O O13 0.478970 0.072981 0.775539
O O14 0.000000 0.000000 0.500000
O O15 0.647477 0.797792 0.369466
#
# Coordination Sequence:
#
# PCOD8125103 Si02
#       7
#     4   4   4   4   4   4   4
#     4  11  22  41  62  93 135 162 209 263 321 373
#     4  10  20  36  66  94 116 169 211 255 312 372
#     4  11  24  40  65  94 123 167 215 260 307 380
#     4  11  25  41  61  97 131 167 206 268 321 378
#     4  11  23  39  61  93 124 163 213 258 312 372
#     4  11  20  38  67  93 119 159 218 263 300 368
#     4  11  22  40  67  92 125 165 220 255 310 383
#
# _framework density 22.232482999999998
#
# number of rings (size 3 to 8) (size 9 to 14) (size 15 to 20)
#    0.000    1.143    4.286    3.429    2.000    0.000 
#    0.000   12.143    0.000    0.000    0.000    0.000 
#    0.000    0.000    0.000    0.000    0.000    0.000 
#
# Total GULP energy -347111.292246 kJ/mol
# GULP energy per Si atom -12396.831866 kJ/mol
# Density = 2.218188 g / cm^3
# Si number density = 22.232483 Si / 1000 Ang^3
#
#
#
# Elastic Constant Matrix: (Units=GPa)
#
#
# Indices 1 2 3 4 5 6 
#
# 1 169.1654 38.8266 13.6403 0.0000 -10.1728 0.0000
# 2 38.8266 106.4067 4.1478 0.0000 -8.8736 0.0000
# 3 13.6403 4.1478 39.1667 0.0000 -5.4375 0.0000
# 4 0.0000 0.0000 0.0000 39.4235 0.0000 2.6470
# 5 -10.1728 -8.8736 -5.4375 0.0000 27.5790 0.0000
# 6 0.0000 0.0000 0.0000 2.6470 0.0000 25.0928
#
#
#
# Elastic Compliance Matrix: (Units=1/GPa)
#
#
# Indices 1 2 3 4 5 6 
#
# 1 0.006661 -0.002243 -0.001893 0.000000 0.001362 0.000000
# 2 -0.002243 0.010426 0.000029 0.000000 0.002533 0.000000
# 3 -0.001893 0.000029 0.026827 0.000000 0.004600 0.000000
# 4 0.000000 0.000000 0.000000 0.025547 0.000000 -0.002695
# 5 0.001362 0.002533 0.004600 0.000000 0.038484 0.000000
# 6 0.000000 0.000000 0.000000 -0.002695 0.000000 0.040136
#
#
# Mechanical properties :
#
#
# Convention : Reuss Voigt Hill
#
# Bulk Modulus (GPa) = 28.01193 47.55203 37.78198
# Shear Modulus (GPa) = 29.72733 35.62732 32.67733
#
# Velocity S-wave (km/s) = 3.66062 4.00745 3.83796
# Velocity P-wave (km/s) = 5.52212 6.54583 6.05564
#
# Compressibility (1/GPa) = 0.03569907
#
# Stress axis : x y z
#
# Youngs Moduli (GPa) = 150.13335 95.90951 37.27618
#
# Poissons Ratio (x) = 0.21513 0.07057
# Poissons Ratio (y) = 0.33676 -0.00107
# Poissons Ratio (z) = 0.28421 -0.00275
#
# Static dielectric constant tensor:
#      x y z
#    x 4.072850 0.000000 0.636190 
#    y 0.000000 4.388340 0.000000 
#    z 0.636190 0.000000 4.664790 
# 
# 
# High freq. dielectric constant tensor:
#      x y z
#    x 1.858740 0.000000 0.026570 
#    y 0.000000 1.865810 0.000000 
#    z 0.026570 0.000000 1.896760 
# 
# From -- ./inp_files/56158.got.cif
#   From: 2010.03.12/outbox.cif.g09.slc.cpg/sg14_29_cif.got.tgz:56158.got - 2010.03.31 13:35:05.
