data_PCOD8125548
_publ_section_title
;
Structure prediction by ZEFSAII (Michael W. Deem and Ramdas Pophale) SiO2 
 PCOD8125548
Probable space group: P 21/C
;
_chemical_formula_sum "Si O2"
_cell_formula_units_Z 32
_cell_length_a 18.468921
_cell_length_b 11.574515
_cell_length_c 7.890895
_cell_angle_alpha 90.000000
_cell_angle_beta 60.625482
_cell_angle_gamma 90.000000
_cell_volume 1469.955271
_symmetry_space_group_name_H-M "P 21/C"
_symmetry_group_IT_number 14
_symmetry_cell_setting 'monoclinic'
loop_
_space_group_symop_operation_xyz
x,y,z
-x,1/2+y,1/2-z
-x,-y,-z
x,1/2-y,1/2+z
loop_
_atom_site_type_symbol
_atom_site_label
_atom_site_fract_x
_atom_site_fract_y
_atom_site_fract_z
Si Si1 0.055419 0.643466 0.077777
Si Si2 0.066796 0.898279 0.941010
Si Si3 0.395517 0.927777 0.779230
Si Si4 0.457963 0.975213 0.226001
Si Si5 0.628489 0.818695 0.770785
Si Si6 0.883686 0.992110 0.788257
Si Si7 0.284848 0.121160 0.993996
Si Si8 0.554842 0.232579 0.564544
O O1 0.100686 0.628642 0.211106
O O2 0.967655 0.580201 0.187922
O O3 0.034538 0.776786 0.056679
O O4 0.114142 0.586615 0.866044
O O5 0.130852 0.946599 0.010641
O O6 0.000000 0.000000 0.000000
O O7 0.479582 0.003739 0.687272
O O8 0.398360 0.852721 0.951451
O O9 0.392607 0.844158 0.623522
O O10 0.314087 0.006818 0.860210
O O11 0.381546 0.066719 0.336040
O O12 0.436489 0.839542 0.265474
O O13 0.500000 0.000000 0.000000
O O14 0.705743 0.738108 0.626330
O O15 0.541600 0.749172 0.876019
O O16 0.649495 0.864969 0.931218
O O17 0.809637 0.900330 0.841118
#
# Coordination Sequence:
#
# PCOD8125548 Si02
#       8
#     4   4   4   4   4   4   4   4
#     4  10  20  43  75  98 130 179 228 273 317 406
#     4  10  20  39  73 105 132 167 228 273 320 391
#     4  11  23  38  60  88 120 163 217 265 317 381
#     4  11  19  38  66  86 121 166 224 268 316 383
#     4  11  23  41  63  92 127 171 216 278 331 393
#     4  10  24  44  65  99 138 179 220 272 338 397
#     4  12  26  44  60  95 138 164 210 274 345 397
#     4  11  22  39  66  88 117 169 225 272 316 384
#
# _framework density 21.769371
#
# number of rings (size 3 to 8) (size 9 to 14) (size 15 to 20)
#    0.000    1.250    3.750    3.375    1.750    2.000 
#    4.500    0.000    0.000    0.000    0.000    0.000 
#    0.000    0.000    0.000    0.000    0.000    0.000 
#
# Total GULP energy -396437.622782 kJ/mol
# GULP energy per Si atom -12388.675712 kJ/mol
# Density = 2.171982 g / cm^3
# Si number density = 21.769371 Si / 1000 Ang^3
#
#
#
# Elastic Constant Matrix: (Units=GPa)
#
#
# Indices 1 2 3 4 5 6 
#
# 1 58.0059 30.0788 40.2753 0.0000 10.1402 0.0000
# 2 30.0788 135.2935 34.0523 0.0000 -2.9020 0.0000
# 3 40.2753 34.0523 78.5124 0.0000 13.6358 0.0000
# 4 0.0000 0.0000 0.0000 37.0237 0.0000 3.7180
# 5 10.1402 -2.9020 13.6358 0.0000 32.4335 0.0000
# 6 0.0000 0.0000 0.0000 3.7180 0.0000 32.5936
#
#
#
# Elastic Compliance Matrix: (Units=1/GPa)
#
#
# Indices 1 2 3 4 5 6 
#
# 1 0.028198 -0.003236 -0.012385 0.000000 -0.003899 0.000000
# 2 -0.003236 0.008850 -0.002688 0.000000 0.002934 0.000000
# 3 -0.012385 -0.002688 0.021171 0.000000 -0.005269 0.000000
# 4 0.000000 0.000000 0.000000 0.027323 0.000000 -0.003117
# 5 -0.003899 0.002934 -0.005269 0.000000 0.034529 0.000000
# 6 0.000000 0.000000 0.000000 -0.003117 0.000000 0.031036
#
#
# Mechanical properties :
#
#
# Convention : Reuss Voigt Hill
#
# Bulk Modulus (GPa) = 46.29106 53.40272 49.84689
# Shear Modulus (GPa) = 25.65092 31.57053 28.61072
#
# Velocity S-wave (km/s) = 3.43637 3.81232 3.62921
# Velocity P-wave (km/s) = 6.08731 6.63044 6.36467
#
# Compressibility (1/GPa) = 0.02160244
#
# Stress axis : x y z
#
# Youngs Moduli (GPa) = 35.46356 112.99172 47.23450
#
# Poissons Ratio (x) = 0.36559 0.58498
# Poissons Ratio (y) = 0.11474 0.12698
# Poissons Ratio (z) = 0.43920 0.30375
#
# Static dielectric constant tensor:
#      x y z
#    x 3.727150 0.000000 0.555720 
#    y 0.000000 4.779430 0.000000 
#    z 0.555720 0.000000 3.948220 
# 
# 
# High freq. dielectric constant tensor:
#      x y z
#    x 1.819030 0.000000 0.046620 
#    y 0.000000 1.888720 0.000000 
#    z 0.046620 0.000000 1.838340 
# 
# From -- ./inp_files/17841.got.cif
#   From: 2010.03.12/outbox.cif.g09.slc.cpg/sg14_9_cif.got.tgz:17841.got - 2010.03.31 13:35:05.
