data_PCOD8125613
_publ_section_title
;
Structure prediction by ZEFSAII (Michael W. Deem and Ramdas Pophale) SiO2 
 PCOD8125613
Probable space group: P 21/C
;
_chemical_formula_sum "Si O2"
_cell_formula_units_Z 32
_cell_length_a 8.386194
_cell_length_b 20.969027
_cell_length_c 17.592521
_cell_angle_alpha 90.000000
_cell_angle_beta 147.888090
_cell_angle_gamma 90.000000
_cell_volume 1644.506258
_symmetry_space_group_name_H-M "P 21/C"
_symmetry_group_IT_number 14
_symmetry_cell_setting 'monoclinic'
loop_
_space_group_symop_operation_xyz
x,y,z
-x,1/2+y,1/2-z
-x,-y,-z
x,1/2-y,1/2+z
loop_
_atom_site_type_symbol
_atom_site_label
_atom_site_fract_x
_atom_site_fract_y
_atom_site_fract_z
Si Si1 0.828320 0.929491 0.248968
Si Si2 0.739280 0.131055 0.934850
Si Si3 0.972170 0.425982 0.002814
Si Si4 0.479437 0.256249 0.909834
Si Si5 0.341279 0.380310 0.764233
Si Si6 0.253671 0.003825 0.335058
Si Si7 0.097311 0.692436 0.790118
Si Si8 0.587699 0.383455 0.201302
O O1 0.469769 0.926339 0.116173
O O2 0.001262 0.915953 0.396883
O O3 0.947036 0.875308 0.241814
O O4 0.932446 0.994568 0.248873
O O5 0.603648 0.197392 0.910421
O O6 0.738605 0.126739 0.843912
O O7 0.078064 0.119493 0.096500
O O8 0.225640 0.385511 0.061293
O O9 0.644133 0.402852 0.843812
O O10 0.000000 0.500000 0.000000
O O11 0.388592 0.309609 0.813239
O O12 0.181671 0.239570 0.839008
O O13 0.731589 0.280545 0.068169
O O14 0.254570 0.426531 0.798853
O O15 0.500000 0.000000 0.500000
O O16 0.308385 0.950674 0.292452
O O17 0.323500 0.679686 0.811346
#
# Coordination Sequence:
#
# PCOD8125613 Si02
#       8
#     4   4   4   4   4   4   4   4
#     4   9  19  37  61  86 125 163 198 252 323 356
#     4  10  24  40  61  92 128 174 204 255 332 377
#     4  11  19  36  61  92 119 161 203 250 305 379
#     4  11  21  42  64  88 118 163 223 259 306 378
#     4  12  22  37  68  92 122 166 219 254 311 391
#     4  11  19  37  68  97 124 163 215 260 306 379
#     4  10  20  40  65  84 117 161 207 264 305 363
#     4  10  22  41  61  90 132 161 201 263 328 361
#
# _framework density 19.458727
#
# number of rings (size 3 to 8) (size 9 to 14) (size 15 to 20)
#    0.000    1.500    5.000    0.750    0.000    1.000 
#    4.500    0.000    5.500    0.000    0.000    0.000 
#    0.000    0.000    0.000    0.000    0.000    0.000 
#
# Total GULP energy -396636.992166 kJ/mol
# GULP energy per Si atom -12394.906005 kJ/mol
# Density = 1.941444 g / cm^3
# Si number density = 19.458727 Si / 1000 Ang^3
#
#
#
# Elastic Constant Matrix: (Units=GPa)
#
#
# Indices 1 2 3 4 5 6 
#
# 1 110.3243 35.2049 48.6934 0.0000 9.6768 0.0000
# 2 35.2049 71.3876 36.7311 0.0000 6.8031 0.0000
# 3 48.6934 36.7311 132.9250 0.0000 14.2389 0.0000
# 4 0.0000 0.0000 0.0000 20.2353 0.0000 -3.2816
# 5 9.6768 6.8031 14.2389 0.0000 34.7505 0.0000
# 6 0.0000 0.0000 0.0000 -3.2816 0.0000 35.6098
#
#
#
# Elastic Compliance Matrix: (Units=1/GPa)
#
#
# Indices 1 2 3 4 5 6 
#
# 1 0.011848 -0.004150 -0.003061 0.000000 -0.001232 0.000000
# 2 -0.004150 0.017850 -0.003307 0.000000 -0.000984 0.000000
# 3 -0.003061 -0.003307 0.009829 0.000000 -0.002528 0.000000
# 4 0.000000 0.000000 0.000000 0.050168 0.000000 0.004623
# 5 -0.001232 -0.000984 -0.002528 0.000000 0.030348 0.000000
# 6 0.000000 0.000000 0.000000 0.004623 0.000000 0.028508
#
#
# Mechanical properties :
#
#
# Convention : Reuss Voigt Hill
#
# Bulk Modulus (GPa) = 54.08274 61.76618 57.92446
# Shear Modulus (GPa) = 28.44933 31.05294 29.75114
#
# Velocity S-wave (km/s) = 3.82780 3.99913 3.91440
# Velocity P-wave (km/s) = 6.88404 7.28938 7.08961
#
# Compressibility (1/GPa) = 0.01849019
#
# Stress axis : x y z
#
# Youngs Moduli (GPa) = 84.40419 56.02280 101.74013
#
# Poissons Ratio (x) = 0.23250 0.31145
# Poissons Ratio (y) = 0.35029 0.33643
# Poissons Ratio (z) = 0.25838 0.18525
#
# Static dielectric constant tensor:
#      x y z
#    x 4.043520 0.000000 0.325440 
#    y 0.000000 3.682000 0.000000 
#    z 0.325440 0.000000 3.522210 
# 
# 
# High freq. dielectric constant tensor:
#      x y z
#    x 1.762500 0.000000 0.012380 
#    y 0.000000 1.751580 0.000000 
#    z 0.012380 0.000000 1.753880 
# 
# From -- ./inp_files/56243.got.cif
#   From: 2010.03.12/outbox.cif.g09.slc.cpg/sg14_29_cif.got.tgz:56243.got - 2010.03.31 13:35:05.
