data_PCOD8125844
_publ_section_title
;
Structure prediction by ZEFSAII (Michael W. Deem and Ramdas Pophale) SiO2 
 PCOD8125844
Probable space group: P 21/C
;
_chemical_formula_sum "Si O2"
_cell_formula_units_Z 24
_cell_length_a 15.987409
_cell_length_b 12.198714
_cell_length_c 13.723768
_cell_angle_alpha 90.000000
_cell_angle_beta 154.803640
_cell_angle_gamma 90.000000
_cell_volume 1139.439838
_symmetry_space_group_name_H-M "P 21/C"
_symmetry_group_IT_number 14
_symmetry_cell_setting 'monoclinic'
loop_
_space_group_symop_operation_xyz
x,y,z
-x,1/2+y,1/2-z
-x,-y,-z
x,1/2-y,1/2+z
loop_
_atom_site_type_symbol
_atom_site_label
_atom_site_fract_x
_atom_site_fract_y
_atom_site_fract_z
Si Si1 0.048936 0.212809 0.350734
Si Si2 0.650344 0.468183 0.526932
Si Si3 0.574611 0.837191 0.821073
Si Si4 0.246005 0.768736 0.615750
Si Si5 0.736200 0.221491 0.644667
Si Si6 0.206035 0.008527 0.622099
O O1 0.259876 0.253989 0.539912
O O2 0.064116 0.094993 0.420150
O O3 0.953902 0.300199 0.328666
O O4 0.906911 0.197181 0.107605
O O5 0.667075 0.545810 0.449480
O O6 0.694137 0.341465 0.552542
O O7 0.805276 0.514621 0.771434
O O8 0.430227 0.468521 0.333343
O O9 0.459493 0.781015 0.790475
O O10 0.423774 0.859614 0.572337
O O11 0.276484 0.711891 0.752920
O O12 0.146420 0.887695 0.523364
#
# Coordination Sequence:
#
# PCOD8125844 Si02
#       6
#     4   4   4   4   4   4
#     4  11  22  32  57  90 112 144 183 231 283 331
#     4   9  18  35  60  83 108 144 185 234 277 324
#     4  10  21  35  56  86 114 146 182 229 284 329
#     4   9  22  38  56  84 115 142 186 233 274 329
#     4  10  21  38  57  86 115 142 186 237 274 328
#     4   9  18  35  59  84 110 142 186 231 279 327
#
# _framework density 21.062981000000001
#
# number of rings (size 3 to 8) (size 9 to 14) (size 15 to 20)
#    0.000    2.333    1.667    1.000    4.667    1.333 
#    0.000    0.000    0.000   15.000    0.000    0.000 
#    0.000    0.000    0.000    0.000    0.000    0.000 
#
# Total GULP energy -297482.345491 kJ/mol
# GULP energy per Si atom -12395.097729 kJ/mol
# Density = 2.101504 g / cm^3
# Si number density = 21.062981 Si / 1000 Ang^3
#
#
#
# Elastic Constant Matrix: (Units=GPa)
#
#
# Indices 1 2 3 4 5 6 
#
# 1 100.3079 0.8437 33.3641 0.0000 -15.1256 0.0000
# 2 0.8437 51.4520 28.2541 0.0000 -7.0516 0.0000
# 3 33.3641 28.2541 106.5888 0.0000 -19.7300 0.0000
# 4 0.0000 0.0000 0.0000 38.1417 0.0000 -9.1346
# 5 -15.1256 -7.0516 -19.7300 0.0000 23.9712 0.0000
# 6 0.0000 0.0000 0.0000 -9.1346 0.0000 26.5322
#
#
#
# Elastic Compliance Matrix: (Units=1/GPa)
#
#
# Indices 1 2 3 4 5 6 
#
# 1 0.011883 0.002388 -0.003344 0.000000 0.005448 0.000000
# 2 0.002388 0.023311 -0.006345 0.000000 0.003142 0.000000
# 3 -0.003344 -0.006345 0.013419 0.000000 0.007068 0.000000
# 4 0.000000 0.000000 0.000000 0.028574 0.000000 0.009838
# 5 0.005448 0.003142 0.007068 0.000000 0.051896 0.000000
# 6 0.000000 0.000000 0.000000 0.009838 0.000000 0.041077
#
#
# Mechanical properties :
#
#
# Convention : Reuss Voigt Hill
#
# Bulk Modulus (GPa) = 29.40228 42.58582 35.99405
# Shear Modulus (GPa) = 25.49718 30.78814 28.14266
#
# Velocity S-wave (km/s) = 3.48303 3.82739 3.65926
# Velocity P-wave (km/s) = 5.49225 6.30826 5.91434
#
# Compressibility (1/GPa) = 0.03401097
#
# Stress axis : x y z
#
# Youngs Moduli (GPa) = 84.15327 42.89737 74.52164
#
# Poissons Ratio (x) = -0.10245 0.24922
# Poissons Ratio (y) = -0.20098 0.47286
# Poissons Ratio (z) = 0.28143 0.27220
#
# Static dielectric constant tensor:
#      x y z
#    x 3.982300 0.000000 0.023960 
#    y 0.000000 3.549780 0.000000 
#    z 0.023960 0.000000 3.964200 
# 
# 
# High freq. dielectric constant tensor:
#      x y z
#    x 1.839870 0.000000 0.012750 
#    y 0.000000 1.779630 0.000000 
#    z 0.012750 0.000000 1.837980 
# 
# From -- ./inp_files/32636.got.cif
#   From: 2010.03.12/outbox.cif.g09.slc.cpg/sg14_17_cif.got.tgz:32636.got - 2010.03.31 13:35:05.
