data_PCOD8125190
_publ_section_title
;
Structure prediction by ZEFSAII (Michael W. Deem and Ramdas Pophale) SiO2 
 PCOD8125190
Probable space group: P 21/C
;
_chemical_formula_sum "Si O2"
_cell_formula_units_Z 28
_cell_length_a 9.083718
_cell_length_b 19.685478
_cell_length_c 10.762661
_cell_angle_alpha 90.000000
_cell_angle_beta 131.937427
_cell_angle_gamma 90.000000
_cell_volume 1431.625139
_symmetry_space_group_name_H-M "P 21/C"
_symmetry_group_IT_number 14
_symmetry_cell_setting 'monoclinic'
loop_
_space_group_symop_operation_xyz
x,y,z
-x,1/2+y,1/2-z
-x,-y,-z
x,1/2-y,1/2+z
loop_
_atom_site_type_symbol
_atom_site_label
_atom_site_fract_x
_atom_site_fract_y
_atom_site_fract_z
Si Si1 0.758031 0.638286 0.428843
Si Si2 0.618171 0.496658 0.438562
Si Si3 0.212841 0.642679 0.427347
Si Si4 0.506257 0.053154 0.615325
Si Si5 0.500677 0.225908 0.059832
Si Si6 0.779420 0.657451 0.156017
Si Si7 0.806895 0.333889 0.309478
O O1 0.727556 0.567250 0.479887
O O2 0.583224 0.691825 0.361507
O O3 0.767520 0.625834 0.287178
O O4 0.963684 0.667314 0.599782
O O5 0.500000 0.500000 0.500000
O O6 0.782860 0.438217 0.547103
O O7 0.483747 0.481064 0.239380
O O8 0.417322 0.663839 0.476114
O O9 0.211640 0.682273 0.555882
O O10 0.008420 0.661375 0.240797
O O11 0.330637 0.108156 0.502906
O O12 0.714069 0.093074 0.721825
O O13 0.500000 0.000000 0.500000
O O14 0.691784 0.273117 0.179393
O O15 0.320728 0.268065 0.897100
#
# Coordination Sequence:
#
# PCOD8125190 Si02
#       7
#     4   4   4   4   4   4   4
#     4  11  21  37  63  85 118 158 198 239 299 362
#     4  11  22  39  61  88 121 160 193 246 310 346
#     4  10  21  37  59  85 121 153 197 245 292 360
#     4  10  20  37  61  85 116 152 201 241 283 352
#     4  11  20  38  58  85 122 151 197 245 299 344
#     4  10  22  37  62  89 113 159 201 246 287 348
#     4   9  22  35  57  87 111 155 199 240 287 354
#
# _framework density 19.558191999999998
#
# number of rings (size 3 to 8) (size 9 to 14) (size 15 to 20)
#    0.000    1.714    2.857    1.714    2.000    1.714 
#    0.000    0.714    6.286    0.000    0.000    0.000 
#    0.000    0.000    0.000    0.000    0.000    0.000 
#
# Total GULP energy -347095.749470 kJ/mol
# GULP energy per Si atom -12396.276767 kJ/mol
# Density = 1.951368 g / cm^3
# Si number density = 19.558192 Si / 1000 Ang^3
#
#
#
# Elastic Constant Matrix: (Units=GPa)
#
#
# Indices 1 2 3 4 5 6 
#
# 1 99.1477 37.6082 42.9038 0.0000 2.4093 0.0000
# 2 37.6082 88.8049 33.5855 0.0000 7.6705 0.0000
# 3 42.9038 33.5855 98.6700 0.0000 9.8035 0.0000
# 4 0.0000 0.0000 0.0000 27.6120 0.0000 -1.0982
# 5 2.4093 7.6705 9.8035 0.0000 32.6487 0.0000
# 6 0.0000 0.0000 0.0000 -1.0982 0.0000 29.7075
#
#
#
# Elastic Compliance Matrix: (Units=1/GPa)
#
#
# Indices 1 2 3 4 5 6 
#
# 1 0.013635 -0.004130 -0.004658 0.000000 0.001363 0.000000
# 2 -0.004130 0.014275 -0.002845 0.000000 -0.002195 0.000000
# 3 -0.004658 -0.002845 0.013429 0.000000 -0.003020 0.000000
# 4 0.000000 0.000000 0.000000 0.036270 0.000000 0.001341
# 5 0.001363 -0.002195 -0.003020 0.000000 0.031951 0.000000
# 6 0.000000 0.000000 0.000000 0.001341 0.000000 0.033711
#
#
# Mechanical properties :
#
#
# Convention : Reuss Voigt Hill
#
# Bulk Modulus (GPa) = 55.33473 57.20197 56.26835
# Shear Modulus (GPa) = 28.97492 29.49530 29.23511
#
# Velocity S-wave (km/s) = 3.85317 3.88761 3.87043
# Velocity P-wave (km/s) = 6.93899 7.03292 6.98611
#
# Compressibility (1/GPa) = 0.01807183
#
# Stress axis : x y z
#
# Youngs Moduli (GPa) = 73.33846 70.05067 74.46648
#
# Poissons Ratio (x) = 0.28934 0.34690
# Poissons Ratio (y) = 0.30292 0.21186
# Poissons Ratio (z) = 0.34164 0.19930
#
# Static dielectric constant tensor:
#      x y z
#    x 3.501120 0.000000 0.082410 
#    y 0.000000 3.636580 0.000000 
#    z 0.082410 0.000000 3.626750 
# 
# 
# High freq. dielectric constant tensor:
#      x y z
#    x 1.752830 0.000000 0.005150 
#    y 0.000000 1.772550 0.000000 
#    z 0.005150 0.000000 1.755640 
# 
# From -- ./inp_files/26673.got.cif
#   From: 2010.03.12/outbox.cif.g09.slc.cpg/sg14_14_cif.got.tgz:26673.got - 2010.03.31 13:35:05.
