data_PCOD8125756
_publ_section_title
;
Structure prediction by ZEFSAII (Michael W. Deem and Ramdas Pophale) SiO2 
 PCOD8125756
Probable space group: P 21/C
;
_chemical_formula_sum "Si O2"
_cell_formula_units_Z 20
_cell_length_a 15.473702
_cell_length_b 5.513560
_cell_length_c 18.846724
_cell_angle_alpha 90.000000
_cell_angle_beta 32.092857
_cell_angle_gamma 90.000000
_cell_volume 854.272193
_symmetry_space_group_name_H-M "P 21/C"
_symmetry_group_IT_number 14
_symmetry_cell_setting 'monoclinic'
loop_
_space_group_symop_operation_xyz
x,y,z
-x,1/2+y,1/2-z
-x,-y,-z
x,1/2-y,1/2+z
loop_
_atom_site_type_symbol
_atom_site_label
_atom_site_fract_x
_atom_site_fract_y
_atom_site_fract_z
Si Si1 0.639250 0.397202 0.728559
Si Si2 0.973615 0.608604 0.810415
Si Si3 0.465684 0.723722 0.442951
Si Si4 0.261757 0.644283 0.709774
Si Si5 0.671829 0.634049 0.567320
O O1 0.510704 0.562995 0.859527
O O2 0.766699 0.287130 0.696445
O O3 0.738517 0.513459 0.594277
O O4 0.515792 0.195983 0.783306
O O5 0.976806 0.362626 0.762417
O O6 0.087865 0.572064 0.799360
O O7 0.789258 0.641699 0.966634
O O8 0.367870 0.811690 0.581284
O O9 0.633794 0.596172 0.348471
O O10 0.333800 0.547034 0.495878
#
# Coordination Sequence:
#
# PCOD8125756 Si02
#       5
#     4   4   4   4   4
#     4  11  22  39  68  98 135 176 234 283 341 412
#     4  12  27  46  70 102 142 185 232 287 349 411
#     4  10  20  42  65  97 131 176 234 275 337 410
#     4  10  23  39  67  98 134 178 229 284 335 412
#     4  11  23  40  69  98 136 183 228 286 345 411
#
# _framework density 23.411742
#
# number of rings (size 3 to 8) (size 9 to 14) (size 15 to 20)
#    0.000    1.200    4.000    1.800    2.800    0.800 
#    0.000    1.000    0.000    0.000    0.000    0.000 
#    0.000    0.000    0.000    0.000    0.000    0.000 
#
# Total GULP energy -247913.719225 kJ/mol
# GULP energy per Si atom -12395.685961 kJ/mol
# Density = 2.335846 g / cm^3
# Si number density = 23.411742 Si / 1000 Ang^3
#
#
#
# Elastic Constant Matrix: (Units=GPa)
#
#
# Indices 1 2 3 4 5 6 
#
# 1 144.5889 20.2938 25.5706 0.0000 -6.3414 0.0000
# 2 20.2938 59.4783 -2.5885 0.0000 2.0785 0.0000
# 3 25.5706 -2.5885 41.6949 0.0000 -1.1751 0.0000
# 4 0.0000 0.0000 0.0000 29.0619 0.0000 1.9088
# 5 -6.3414 2.0785 -1.1751 0.0000 39.8485 0.0000
# 6 0.0000 0.0000 0.0000 1.9088 0.0000 18.9009
#
#
#
# Elastic Compliance Matrix: (Units=1/GPa)
#
#
# Indices 1 2 3 4 5 6 
#
# 1 0.008346 -0.003124 -0.005275 0.000000 0.001336 0.000000
# 2 -0.003124 0.018056 0.002999 0.000000 -0.001351 0.000000
# 3 -0.005275 0.002999 0.027399 0.000000 -0.000188 0.000000
# 4 0.000000 0.000000 0.000000 0.034639 0.000000 -0.003498
# 5 0.001336 -0.001351 -0.000188 0.000000 0.025373 0.000000
# 6 0.000000 0.000000 0.000000 -0.003498 0.000000 0.053261
#
#
# Mechanical properties :
#
#
# Convention : Reuss Voigt Hill
#
# Bulk Modulus (GPa) = 23.25464 36.92375 30.08919
# Shear Modulus (GPa) = 26.01348 31.06134 28.53741
#
# Velocity S-wave (km/s) = 3.33698 3.64640 3.49511
# Velocity P-wave (km/s) = 4.98013 5.79085 5.40073
#
# Compressibility (1/GPa) = 0.04300217
#
# Stress axis : x y z
#
# Youngs Moduli (GPa) = 119.81759 55.38197 36.49704
#
# Poissons Ratio (x) = 0.17301 0.19251
# Poissons Ratio (y) = 0.37429 -0.10944
# Poissons Ratio (z) = 0.63200 -0.16607
#
# Static dielectric constant tensor:
#      x y z
#    x 4.471660 0.000000 0.049730 
#    y 0.000000 4.068240 0.000000 
#    z 0.049730 0.000000 3.796850 
# 
# 
# High freq. dielectric constant tensor:
#      x y z
#    x 1.948180 0.000000 0.003230 
#    y 0.000000 1.914740 0.000000 
#    z 0.003230 0.000000 1.897370 
# 
# From -- ./inp_files/56466.got.cif
#   From: 2010.03.12/outbox.cif.g09.slc.cpg/sg14_29_cif.got.tgz:56466.got - 2010.03.31 13:35:05.
