data_PCOD8125291
_publ_section_title
;
Structure prediction by ZEFSAII (Michael W. Deem and Ramdas Pophale) SiO2 
 PCOD8125291
Probable space group: P 21/C
;
_chemical_formula_sum "Si O2"
_cell_formula_units_Z 32
_cell_length_a 19.781588
_cell_length_b 8.336922
_cell_length_c 14.129768
_cell_angle_alpha 90.000000
_cell_angle_beta 138.890322
_cell_angle_gamma 90.000000
_cell_volume 1532.143156
_symmetry_space_group_name_H-M "P 21/C"
_symmetry_group_IT_number 14
_symmetry_cell_setting 'monoclinic'
loop_
_space_group_symop_operation_xyz
x,y,z
-x,1/2+y,1/2-z
-x,-y,-z
x,1/2-y,1/2+z
loop_
_atom_site_type_symbol
_atom_site_label
_atom_site_fract_x
_atom_site_fract_y
_atom_site_fract_z
Si Si1 0.216596 0.050399 0.561674
Si Si2 0.173914 0.289387 0.347921
Si Si3 0.557886 0.615488 0.705262
Si Si4 0.597959 0.648614 0.406969
Si Si5 0.794797 0.824369 0.816824
Si Si6 0.026520 0.490345 0.416146
Si Si7 0.037991 0.671411 0.826311
Si Si8 0.565687 0.656722 0.051332
O O1 0.180922 0.165451 0.440672
O O2 0.338157 0.005916 0.679298
O O3 0.205304 0.139048 0.650015
O O4 0.140614 0.897900 0.483328
O O5 0.280277 0.388754 0.449308
O O6 0.155834 0.176890 0.236080
O O7 0.073367 0.404284 0.256637
O O8 0.461589 0.517335 0.642413
O O9 0.576542 0.781283 0.781275
O O10 0.531454 0.684103 0.573466
O O11 0.558483 0.787994 0.435371
O O12 0.681027 0.896015 0.697786
O O13 0.855875 0.930822 0.956942
O O14 0.025133 0.647357 0.349072
O O15 0.000000 0.500000 0.500000
O O16 0.958925 0.357531 0.285215
O O17 0.500000 0.500000 0.000000
#
# Coordination Sequence:
#
# PCOD8125291 Si02
#       8
#     4   4   4   4   4   4   4   4
#     4  10  21  39  58  86 120 158 203 252 305 368
#     4  10  20  38  60  81 123 159 200 245 314 360
#     4  10  21  39  61  86 122 158 202 253 310 366
#     4  10  21  38  60  86 119 160 199 253 308 368
#     4  10  20  39  60  84 120 165 194 251 318 361
#     4  12  23  41  64  91 125 161 209 258 307 378
#     4  12  22  40  63  90 124 163 205 255 309 371
#     4  10  21  37  64  86 119 158 202 255 309 371
#
# _framework density 20.885776
#
# number of rings (size 3 to 8) (size 9 to 14) (size 15 to 20)
#    0.000    1.500    3.750    1.125    0.000    1.500 
#    4.500    0.000    0.000    0.000    0.000    0.000 
#    0.000    0.000    0.000    0.000    0.000    0.000 
#
# Total GULP energy -396471.537692 kJ/mol
# GULP energy per Si atom -12389.735553 kJ/mol
# Density = 2.083824 g / cm^3
# Si number density = 20.885776 Si / 1000 Ang^3
#
#
#
# Elastic Constant Matrix: (Units=GPa)
#
#
# Indices 1 2 3 4 5 6 
#
# 1 78.1774 27.5040 22.6542 0.0000 4.5948 0.0000
# 2 27.5040 60.2764 32.6098 0.0000 5.3697 0.0000
# 3 22.6542 32.6098 89.0613 0.0000 9.1388 0.0000
# 4 0.0000 0.0000 0.0000 39.5895 0.0000 8.3223
# 5 4.5948 5.3697 9.1388 0.0000 42.1364 0.0000
# 6 0.0000 0.0000 0.0000 8.3223 0.0000 27.1980
#
#
#
# Elastic Compliance Matrix: (Units=1/GPa)
#
#
# Indices 1 2 3 4 5 6 
#
# 1 0.015449 -0.006116 -0.001634 0.000000 -0.000551 0.000000
# 2 -0.006116 0.023153 -0.006839 0.000000 -0.000800 0.000000
# 3 -0.001634 -0.006839 0.014360 0.000000 -0.002065 0.000000
# 4 0.000000 0.000000 0.000000 0.026996 0.000000 -0.008260
# 5 -0.000551 -0.000800 -0.002065 0.000000 0.024342 0.000000
# 6 0.000000 0.000000 0.000000 -0.008260 0.000000 0.039295
#
#
# Mechanical properties :
#
#
# Convention : Reuss Voigt Hill
#
# Bulk Modulus (GPa) = 42.04773 43.67233 42.86003
# Shear Modulus (GPa) = 27.67000 31.43458 29.55229
#
# Velocity S-wave (km/s) = 3.64376 3.88373 3.76566
# Velocity P-wave (km/s) = 6.15456 6.40833 6.28273
#
# Compressibility (1/GPa) = 0.02378250
#
# Stress axis : x y z
#
# Youngs Moduli (GPa) = 64.72878 43.19167 69.63850
#
# Poissons Ratio (x) = 0.26418 0.11376
# Poissons Ratio (y) = 0.39591 0.47629
# Poissons Ratio (z) = 0.10574 0.29540
#
# Static dielectric constant tensor:
#      x y z
#    x 4.086160 0.000000 0.042260 
#    y 0.000000 3.319290 0.000000 
#    z 0.042260 0.000000 4.211520 
# 
# 
# High freq. dielectric constant tensor:
#      x y z
#    x 1.829400 0.000000 -0.003750 
#    y 0.000000 1.772390 0.000000 
#    z -0.003750 0.000000 1.840630 
# 
# From -- ./inp_files/50097.got.cif
#   From: 2010.03.12/outbox.cif.g09.slc.cpg/sg14_26_cif.got.tgz:50097.got - 2010.03.31 13:35:05.
