data_PCOD8125759
_publ_section_title
;
Structure prediction by ZEFSAII (Michael W. Deem and Ramdas Pophale) SiO2 
 PCOD8125759
Probable space group: P 21/C
;
_chemical_formula_sum "Si O2"
_cell_formula_units_Z 32
_cell_length_a 13.762023
_cell_length_b 10.581841
_cell_length_c 17.122872
_cell_angle_alpha 90.000000
_cell_angle_beta 144.967764
_cell_angle_gamma 90.000000
_cell_volume 1431.397235
_symmetry_space_group_name_H-M "P 21/C"
_symmetry_group_IT_number 14
_symmetry_cell_setting 'monoclinic'
loop_
_space_group_symop_operation_xyz
x,y,z
-x,1/2+y,1/2-z
-x,-y,-z
x,1/2-y,1/2+z
loop_
_atom_site_type_symbol
_atom_site_label
_atom_site_fract_x
_atom_site_fract_y
_atom_site_fract_z
Si Si1 0.085208 0.403188 0.145554
Si Si2 0.761514 0.761861 0.106481
Si Si3 0.844070 0.940886 0.025128
Si Si4 0.585254 0.169028 0.666107
Si Si5 0.215563 0.036748 0.282697
Si Si6 0.705272 0.715633 0.297469
Si Si7 0.238033 0.895622 0.651510
Si Si8 0.527756 0.418826 0.294841
O O1 0.164077 0.352553 0.277424
O O2 0.155132 0.325197 0.116811
O O3 0.147023 0.544886 0.168262
O O4 0.881725 0.394449 0.004898
O O5 0.847395 0.821771 0.086289
O O6 0.803587 0.610127 0.145982
O O7 0.557774 0.762990 0.962920
O O8 0.771094 0.893327 0.895983
O O9 0.028290 0.999081 0.132841
O O10 0.710909 0.053926 0.956321
O O11 0.730275 0.252410 0.801657
O O12 0.520827 0.081363 0.695335
O O13 0.661736 0.084933 0.644609
O O14 0.307959 0.148434 0.295070
O O15 0.530926 0.781284 0.211362
O O16 0.410567 0.965840 0.744026
#
# Coordination Sequence:
#
# PCOD8125759 Si02
#       8
#     4   4   4   4   4   4   4   4
#     4   9  22  41  68  97 136 177 225 289 338 420
#     4  11  25  46  64 104 143 171 235 292 356 407
#     4  12  23  45  68 104 138 186 233 290 351 417
#     4  12  23  42  71  97 138 177 232 280 352 413
#     4  11  26  44  69 100 139 188 220 289 353 422
#     4  10  20  42  66 101 132 173 234 273 335 419
#     4  10  21  42  66 101 126 184 234 273 345 412
#     4  11  22  38  71 102 133 175 233 293 326 415
#
# _framework density 22.355779999999999
#
# number of rings (size 3 to 8) (size 9 to 14) (size 15 to 20)
#    0.000    1.250    3.750    1.500    3.500    1.500 
#    6.750    1.250    0.000    0.000    0.000    0.000 
#    0.000    0.000    0.000    0.000    0.000    0.000 
#
# Total GULP energy -396451.348603 kJ/mol
# GULP energy per Si atom -12389.104644 kJ/mol
# Density = 2.230490 g / cm^3
# Si number density = 22.355780 Si / 1000 Ang^3
#
#
#
# Elastic Constant Matrix: (Units=GPa)
#
#
# Indices 1 2 3 4 5 6 
#
# 1 46.0079 24.7490 25.4102 0.0000 9.1110 0.0000
# 2 24.7490 77.5232 27.7340 0.0000 4.0435 0.0000
# 3 25.4102 27.7340 92.4074 0.0000 2.1771 0.0000
# 4 0.0000 0.0000 0.0000 37.0859 0.0000 -5.5333
# 5 9.1110 4.0435 2.1771 0.0000 27.3921 0.0000
# 6 0.0000 0.0000 0.0000 -5.5333 0.0000 39.2774
#
#
#
# Elastic Compliance Matrix: (Units=1/GPa)
#
#
# Indices 1 2 3 4 5 6 
#
# 1 0.030659 -0.007162 -0.006077 0.000000 -0.008657 0.000000
# 2 -0.007162 0.016212 -0.002902 0.000000 0.000220 0.000000
# 3 -0.006077 -0.002902 0.013331 0.000000 0.001390 0.000000
# 4 0.000000 0.000000 0.000000 0.027543 0.000000 0.003880
# 5 -0.008657 0.000220 0.001390 0.000000 0.039244 0.000000
# 6 0.000000 0.000000 0.000000 0.003880 0.000000 0.026007
#
#
# Mechanical properties :
#
#
# Convention : Reuss Voigt Hill
#
# Bulk Modulus (GPa) = 35.81573 41.30277 38.55925
# Shear Modulus (GPa) = 25.69586 29.95411 27.82498
#
# Velocity S-wave (km/s) = 3.39397 3.66441 3.53178
# Velocity P-wave (km/s) = 5.60484 6.03483 5.82381
#
# Compressibility (1/GPa) = 0.02792069
#
# Stress axis : x y z
#
# Youngs Moduli (GPa) = 32.61693 61.68114 75.01420
#
# Poissons Ratio (x) = 0.44177 0.45587
# Poissons Ratio (y) = 0.23361 0.21766
# Poissons Ratio (z) = 0.19822 0.17897
#
# Static dielectric constant tensor:
#      x y z
#    x 4.051220 0.000000 0.125180 
#    y 0.000000 4.247720 0.000000 
#    z 0.125180 0.000000 3.915760 
# 
# 
# High freq. dielectric constant tensor:
#      x y z
#    x 1.863810 0.000000 0.011160 
#    y 0.000000 1.893040 0.000000 
#    z 0.011160 0.000000 1.873340 
# 
# From -- ./inp_files/59492.got.cif
#   From: 2010.03.12/outbox.cif.g09.slc.cpg/sg14_30_cif.got.tgz:59492.got - 2010.03.31 13:35:05.
