data_PCOD8125464
_publ_section_title
;
Structure prediction by ZEFSAII (Michael W. Deem and Ramdas Pophale) SiO2 
 PCOD8125464
Probable space group: P 21/C
;
_chemical_formula_sum "Si O2"
_cell_formula_units_Z 28
_cell_length_a 8.111143
_cell_length_b 32.763504
_cell_length_c 5.506218
_cell_angle_alpha 90.000000
_cell_angle_beta 59.247581
_cell_angle_gamma 90.000000
_cell_volume 1257.515894
_symmetry_space_group_name_H-M "P 21/C"
_symmetry_group_IT_number 14
_symmetry_cell_setting 'monoclinic'
loop_
_space_group_symop_operation_xyz
x,y,z
-x,1/2+y,1/2-z
-x,-y,-z
x,1/2-y,1/2+z
loop_
_atom_site_type_symbol
_atom_site_label
_atom_site_fract_x
_atom_site_fract_y
_atom_site_fract_z
Si Si1 0.594740 0.578192 0.333324
Si Si2 0.840005 0.445939 0.281782
Si Si3 0.145134 0.398344 0.254432
Si Si4 0.918844 0.968586 0.823265
Si Si5 0.295851 0.159987 0.981876
Si Si6 0.402667 0.726714 0.812065
Si Si7 0.044981 0.273489 0.863213
O O1 0.377074 0.565394 0.513961
O O2 0.729525 0.540339 0.300821
O O3 0.628920 0.617301 0.476780
O O4 0.647845 0.591963 0.019830
O O5 0.894649 0.483801 0.428856
O O6 0.967771 0.403821 0.199717
O O7 0.884976 0.464639 0.982521
O O8 0.079494 0.434138 0.479227
O O9 0.156149 0.353016 0.362005
O O10 0.478725 0.185262 0.753880
O O11 0.167778 0.184855 0.272404
O O12 0.457265 0.747705 0.513111
O O13 0.178677 0.715987 0.976173
O O14 0.102112 0.250273 0.567696
#
# Coordination Sequence:
#
# PCOD8125464 Si02
#       7
#     4   4   4   4   4   4   4
#     4  10  23  37  57  92 121 161 205 254 320 376
#     4  10  20  39  62  84 121 162 210 260 309 377
#     4  10  23  37  56  92 121 161 207 249 320 375
#     4   9  20  39  60  85 119 162 210 262 309 371
#     4  11  24  39  62  86 129 159 196 258 317 378
#     4  10  23  42  66  97 122 163 217 258 314 381
#     4  10  23  43  69  97 124 168 216 262 315 382
#
# _framework density 22.266119
#
# number of rings (size 3 to 8) (size 9 to 14) (size 15 to 20)
#    0.000    2.000    0.000    1.714    4.000    7.429 
#    2.571    0.000    0.000    0.000    0.000    0.000 
#    0.000    0.000    0.000    0.000    0.000    0.000 
#
# Total GULP energy -346939.392404 kJ/mol
# GULP energy per Si atom -12390.692586 kJ/mol
# Density = 2.221544 g / cm^3
# Si number density = 22.266119 Si / 1000 Ang^3
#
#
#
# Elastic Constant Matrix: (Units=GPa)
#
#
# Indices 1 2 3 4 5 6 
#
# 1 31.4347 9.0022 9.8512 0.0000 -16.0724 0.0000
# 2 9.0022 75.9593 17.2734 0.0000 -14.2174 0.0000
# 3 9.8512 17.2734 100.8640 0.0000 -19.8726 0.0000
# 4 0.0000 0.0000 0.0000 28.3697 0.0000 -3.7639
# 5 -16.0724 -14.2174 -19.8726 0.0000 38.2370 0.0000
# 6 0.0000 0.0000 0.0000 -3.7639 0.0000 34.2095
#
#
#
# Elastic Compliance Matrix: (Units=1/GPa)
#
#
# Indices 1 2 3 4 5 6 
#
# 1 0.040756 -0.001676 -0.000491 0.000000 0.016252 0.000000
# 2 -0.001676 0.014438 -0.001549 0.000000 0.003859 0.000000
# 3 -0.000491 -0.001549 0.011223 0.000000 0.005050 0.000000
# 4 0.000000 0.000000 0.000000 0.035771 0.000000 0.003936
# 5 0.016252 0.003859 0.005050 0.000000 0.037044 0.000000
# 6 0.000000 0.000000 0.000000 0.003936 0.000000 0.029665
#
#
# Mechanical properties :
#
#
# Convention : Reuss Voigt Hill
#
# Bulk Modulus (GPa) = 16.95379 31.16797 24.06088
# Shear Modulus (GPa) = 25.51153 31.63866 28.57510
#
# Velocity S-wave (km/s) = 3.38857 3.77362 3.58627
# Velocity P-wave (km/s) = 4.78964 5.74589 5.28942
#
# Compressibility (1/GPa) = 0.05898385
#
# Stress axis : x y z
#
# Youngs Moduli (GPa) = 24.53637 69.26143 89.10631
#
# Poissons Ratio (x) = 0.11611 0.04378
# Poissons Ratio (y) = 0.04113 0.13798
# Poissons Ratio (z) = 0.01206 0.10725
#
# Static dielectric constant tensor:
#      x y z
#    x 4.135080 0.000000 0.225250 
#    y 0.000000 4.096260 0.000000 
#    z 0.225250 0.000000 4.236660 
# 
# 
# High freq. dielectric constant tensor:
#      x y z
#    x 1.871910 0.000000 -0.000580 
#    y 0.000000 1.878190 0.000000 
#    z -0.000580 0.000000 1.889540 
# 
# From -- ./inp_files/2069.got.cif
#   From: 2010.03.12/outbox.cif.g09.slc.cpg/sg14_2_cif.got.tgz:2069.got - 2010.03.31 13:35:05.
