data_PCOD8125736
_publ_section_title
;
Structure prediction by ZEFSAII (Michael W. Deem and Ramdas Pophale) SiO2 
 PCOD8125736
Probable space group: P 21/C
;
_chemical_formula_sum "Si O2"
_cell_formula_units_Z 28
_cell_length_a 8.197926
_cell_length_b 4.995098
_cell_length_c 31.210441
_cell_angle_alpha 90.000000
_cell_angle_beta 121.551657
_cell_angle_gamma 90.000000
_cell_volume 1089.114429
_symmetry_space_group_name_H-M "P 21/C"
_symmetry_group_IT_number 14
_symmetry_cell_setting 'monoclinic'
loop_
_space_group_symop_operation_xyz
x,y,z
-x,1/2+y,1/2-z
-x,-y,-z
x,1/2-y,1/2+z
loop_
_atom_site_type_symbol
_atom_site_label
_atom_site_fract_x
_atom_site_fract_y
_atom_site_fract_z
Si Si1 0.866436 0.346497 0.405571
Si Si2 0.448945 0.184059 0.553053
Si Si3 0.200226 0.828977 0.007631
Si Si4 0.870332 0.408841 0.086477
Si Si5 0.045784 0.310872 0.199944
Si Si6 0.615141 0.667799 0.860749
Si Si7 0.761844 0.312815 0.239462
O O1 0.915732 0.387265 0.463713
O O2 0.786667 0.622758 0.373665
O O3 0.696061 0.131732 0.375338
O O4 0.055279 0.214140 0.409780
O O5 0.368542 0.459027 0.522117
O O6 0.640492 0.085320 0.555896
O O7 0.487819 0.241712 0.608644
O O8 0.286072 0.965267 0.524944
O O9 0.071231 0.792004 0.945892
O O10 0.951957 0.282875 0.140721
O O11 0.176980 0.571731 0.221517
O O12 0.875900 0.309354 0.210688
O O13 0.191992 0.071835 0.226743
O O14 0.462769 0.690399 0.801601
#
# Coordination Sequence:
#
# PCOD8125736 Si02
#       7
#     4   4   4   4   4   4   4
#     4  10  24  38  64  92 129 172 213 251 332 390
#     4  10  22  39  64  93 121 171 217 264 324 388
#     4  10  23  41  62  90 131 174 211 257 333 394
#     4  12  23  42  61  99 130 164 216 283 309 387
#     4  10  23  35  65  95 119 157 212 273 327 374
#     4  10  20  43  63  88 125 175 208 257 325 402
#     4  10  20  42  61  91 123 160 208 266 334 385
#
# _framework density 25.708962
#
# number of rings (size 3 to 8) (size 9 to 14) (size 15 to 20)
#    0.000    1.714    1.429    2.143    0.000    5.714 
#    0.000    7.143    0.000    0.000    0.000    0.000 
#    0.000    0.000    0.000    0.000    0.000    0.000 
#
# Total GULP energy -347327.424483 kJ/mol
# GULP energy per Si atom -12404.550874 kJ/mol
# Density = 2.565045 g / cm^3
# Si number density = 25.708962 Si / 1000 Ang^3
#
#
#
# Elastic Constant Matrix: (Units=GPa)
#
#
# Indices 1 2 3 4 5 6 
#
# 1 82.4054 -0.5214 17.5178 0.0000 2.2320 0.0000
# 2 -0.5214 124.5522 43.7017 0.0000 10.1832 0.0000
# 3 17.5178 43.7017 164.7492 0.0000 21.7618 0.0000
# 4 0.0000 0.0000 0.0000 31.6256 0.0000 -11.9346
# 5 2.2320 10.1832 21.7618 0.0000 40.5583 0.0000
# 6 0.0000 0.0000 0.0000 -11.9346 0.0000 82.7572
#
#
#
# Elastic Compliance Matrix: (Units=1/GPa)
#
#
# Indices 1 2 3 4 5 6 
#
# 1 0.012452 0.000571 -0.001470 0.000000 -0.000040 0.000000
# 2 0.000571 0.008920 -0.002289 0.000000 -0.001043 0.000000
# 3 -0.001470 -0.002289 0.007261 0.000000 -0.003241 0.000000
# 4 0.000000 0.000000 0.000000 0.033440 0.000000 0.004822
# 5 -0.000040 -0.001043 -0.003241 0.000000 0.026659 0.000000
# 6 0.000000 0.000000 0.000000 0.004822 0.000000 0.012779
#
#
# Mechanical properties :
#
#
# Convention : Reuss Voigt Hill
#
# Bulk Modulus (GPa) = 44.92937 54.78924 49.85930
# Shear Modulus (GPa) = 43.36287 51.72212 47.54250
#
# Velocity S-wave (km/s) = 4.11138 4.49021 4.30496
# Velocity P-wave (km/s) = 6.32867 6.94552 6.64426
#
# Compressibility (1/GPa) = 0.02225716
#
# Stress axis : x y z
#
# Youngs Moduli (GPa) = 80.30586 112.11320 137.71434
#
# Poissons Ratio (x) = -0.06405 0.20249
# Poissons Ratio (y) = -0.04588 0.31523
# Poissons Ratio (z) = 0.11808 0.25663
#
# Static dielectric constant tensor:
#      x y z
#    x 4.513970 0.000000 -0.084160 
#    y 0.000000 4.737640 0.000000 
#    z -0.084160 0.000000 4.713140 
# 
# 
# High freq. dielectric constant tensor:
#      x y z
#    x 2.027580 0.000000 0.006020 
#    y 0.000000 2.045150 0.000000 
#    z 0.006020 0.000000 2.046680 
# 
# From -- ./inp_files/79175.got.cif
#   From: 2010.03.12/outbox.cif.g09.slc.cpg/sg14_40_cif.got.tgz:79175.got - 2010.03.31 13:35:05.
