data_PCOD8125278
_publ_section_title
;
Structure prediction by ZEFSAII (Michael W. Deem and Ramdas Pophale) SiO2 
 PCOD8125278
Probable space group: P 21/C
;
_chemical_formula_sum "Si O2"
_cell_formula_units_Z 20
_cell_length_a 9.879333
_cell_length_b 13.432326
_cell_length_c 17.421181
_cell_angle_alpha 90.000000
_cell_angle_beta 27.050562
_cell_angle_gamma 90.000000
_cell_volume 1051.367537
_symmetry_space_group_name_H-M "P 21/C"
_symmetry_group_IT_number 14
_symmetry_cell_setting 'monoclinic'
loop_
_space_group_symop_operation_xyz
x,y,z
-x,1/2+y,1/2-z
-x,-y,-z
x,1/2-y,1/2+z
loop_
_atom_site_type_symbol
_atom_site_label
_atom_site_fract_x
_atom_site_fract_y
_atom_site_fract_z
Si Si1 0.140042 0.355189 0.478440
Si Si2 0.914074 0.557736 0.649003
Si Si3 0.615610 0.249057 0.825342
Si Si4 0.776236 0.073138 0.848482
Si Si5 0.374358 0.040938 0.485326
O O1 0.127339 0.467805 0.515436
O O2 0.924140 0.285068 0.635444
O O3 0.073579 0.354241 0.420547
O O4 0.463956 0.311475 0.332411
O O5 0.567492 0.519307 0.824515
O O6 0.043473 0.596874 0.664105
O O7 0.658645 0.178015 0.876967
O O8 0.421893 0.341256 0.952892
O O9 0.015116 0.024089 0.667284
O O10 0.500000 0.000000 0.000000
O O11 0.500000 0.000000 0.500000
#
# Coordination Sequence:
#
# PCOD8125278 Si02
#       5
#     4   4   4   4   4
#     4  10  20  38  59  83 119 159 191 243 302 354
#     4   9  20  39  58  82 123 157 191 243 302 348
#     4  11  20  37  61  85 119 155 200 239 298 356
#     4  11  20  36  63  94 114 154 201 245 291 358
#     4   9  20  37  59  85 118 157 193 245 293 345
#
# _framework density 19.022843999999999
#
# number of rings (size 3 to 8) (size 9 to 14) (size 15 to 20)
#    0.000    2.000    4.000    0.000    0.000    0.000 
#    7.200    3.000    0.000    0.000    0.000    0.000 
#    0.000    0.000    0.000    0.000    0.000    0.000 
#
# Total GULP energy -247848.353707 kJ/mol
# GULP energy per Si atom -12392.417685 kJ/mol
# Density = 1.897955 g / cm^3
# Si number density = 19.022844 Si / 1000 Ang^3
#
#
#
# Elastic Constant Matrix: (Units=GPa)
#
#
# Indices 1 2 3 4 5 6 
#
# 1 112.0801 52.4061 20.4817 0.0000 -0.4141 0.0000
# 2 52.4061 87.7024 33.7406 0.0000 1.2637 0.0000
# 3 20.4817 33.7406 86.8756 0.0000 -4.9385 0.0000
# 4 0.0000 0.0000 0.0000 21.7812 0.0000 6.8629
# 5 -0.4141 1.2637 -4.9385 0.0000 26.1735 0.0000
# 6 0.0000 0.0000 0.0000 6.8629 0.0000 33.0732
#
#
#
# Elastic Compliance Matrix: (Units=1/GPa)
#
#
# Indices 1 2 3 4 5 6 
#
# 1 0.012390 -0.007406 -0.000013 0.000000 0.000551 0.000000
# 2 -0.007406 0.017903 -0.005320 0.000000 -0.001985 0.000000
# 3 -0.000013 -0.005320 0.013742 0.000000 0.002850 0.000000
# 4 0.000000 0.000000 0.000000 0.049123 0.000000 -0.010193
# 5 0.000551 -0.001985 0.002850 0.000000 0.038849 0.000000
# 6 0.000000 0.000000 0.000000 -0.010193 0.000000 0.032351
#
#
# Mechanical properties :
#
#
# Convention : Reuss Voigt Hill
#
# Bulk Modulus (GPa) = 53.89130 55.54612 54.71871
# Shear Modulus (GPa) = 25.50743 28.20757 26.85750
#
# Velocity S-wave (km/s) = 3.66578 3.85493 3.76154
# Velocity P-wave (km/s) = 6.80504 7.00550 6.90600
#
# Compressibility (1/GPa) = 0.01855587
#
# Stress axis : x y z
#
# Youngs Moduli (GPa) = 80.71273 55.85652 72.76986
#
# Poissons Ratio (x) = 0.41369 0.00096
# Poissons Ratio (y) = 0.59778 0.38713
# Poissons Ratio (z) = 0.00107 0.29715
#
# Static dielectric constant tensor:
#      x y z
#    x 3.415030 0.000000 0.089410 
#    y 0.000000 3.413140 0.000000 
#    z 0.089410 0.000000 4.091990 
# 
# 
# High freq. dielectric constant tensor:
#      x y z
#    x 1.724700 0.000000 0.001010 
#    y 0.000000 1.725530 0.000000 
#    z 0.001010 0.000000 1.753650 
# 
# From -- ./inp_files/7882.got.cif
#   From: 2010.03.12/outbox.cif.g09.slc.cpg/sg14_4_cif.got.tgz:7882.got - 2010.03.31 13:35:05.
