data_PCOD8125114
_publ_section_title
;
Structure prediction by ZEFSAII (Michael W. Deem and Ramdas Pophale) SiO2 
 PCOD8125114
Probable space group: P 21/C
;
_chemical_formula_sum "Si O2"
_cell_formula_units_Z 28
_cell_length_a 32.086043
_cell_length_b 8.262023
_cell_length_c 11.534894
_cell_angle_alpha 90.000000
_cell_angle_beta 156.366010
_cell_angle_gamma 90.000000
_cell_volume 1225.869359
_symmetry_space_group_name_H-M "P 21/C"
_symmetry_group_IT_number 14
_symmetry_cell_setting 'monoclinic'
loop_
_space_group_symop_operation_xyz
x,y,z
-x,1/2+y,1/2-z
-x,-y,-z
x,1/2-y,1/2+z
loop_
_atom_site_type_symbol
_atom_site_label
_atom_site_fract_x
_atom_site_fract_y
_atom_site_fract_z
Si Si1 0.899189 0.962880 0.876736
Si Si2 0.143867 0.053711 0.965561
Si Si3 0.383920 0.450448 0.782572
Si Si4 0.719238 0.735606 0.825832
Si Si5 0.046701 0.754080 0.624349
Si Si6 0.515657 0.534955 0.343304
Si Si7 0.552274 0.267743 0.621886
O O1 0.807376 0.898006 0.561304
O O2 0.910831 0.151785 0.876132
O O3 0.866874 0.940895 0.925449
O O4 0.006481 0.867443 0.123257
O O5 0.049924 0.141832 0.663387
O O6 0.139167 0.867182 0.909850
O O7 0.252264 0.144327 0.208965
O O8 0.281478 0.352156 0.560660
O O9 0.358077 0.627820 0.662396
O O10 0.450806 0.468721 0.071662
O O11 0.445783 0.339103 0.847603
O O12 0.608447 0.646944 0.530627
O O13 0.560973 0.385223 0.533712
O O14 0.439883 0.636509 0.237032
#
# Coordination Sequence:
#
# PCOD8125114 Si02
#       7
#     4   4   4   4   4   4   4
#     4  10  20  38  61  86 120 151 185 239 284 337
#     4  10  20  37  62  87 119 154 182 234 290 338
#     4  10  20  37  56  79 111 148 192 241 288 341
#     4  10  23  36  54  87 115 144 200 244 281 344
#     4   9  20  38  61  91 117 151 196 220 277 362
#     4  10  20  37  56  79 112 149 191 241 289 340
#     4   9  19  33  56  77  98 146 192 226 283 342
#
# _framework density 22.840934000000001
#
# number of rings (size 3 to 8) (size 9 to 14) (size 15 to 20)
#    0.000    2.286    0.000    2.571    0.000    8.000 
#    0.000    2.857    0.000    0.000    0.000    0.000 
#    0.000    0.000    0.000    0.000    0.000    0.000 
#
# Total GULP energy -346958.783277 kJ/mol
# GULP energy per Si atom -12391.385117 kJ/mol
# Density = 2.278895 g / cm^3
# Si number density = 22.840934 Si / 1000 Ang^3
#
#
#
# Elastic Constant Matrix: (Units=GPa)
#
#
# Indices 1 2 3 4 5 6 
#
# 1 122.8849 45.3653 11.7977 0.0000 7.1778 0.0000
# 2 45.3653 136.2019 14.0547 0.0000 10.0731 0.0000
# 3 11.7977 14.0547 28.1441 0.0000 3.8282 0.0000
# 4 0.0000 0.0000 0.0000 15.6773 0.0000 5.2830
# 5 7.1778 10.0731 3.8282 0.0000 24.1332 0.0000
# 6 0.0000 0.0000 0.0000 5.2830 0.0000 47.8029
#
#
#
# Elastic Compliance Matrix: (Units=1/GPa)
#
#
# Indices 1 2 3 4 5 6 
#
# 1 0.009482 -0.002817 -0.002396 0.000000 -0.001264 0.000000
# 2 -0.002817 0.008751 -0.002868 0.000000 -0.002360 0.000000
# 3 -0.002396 -0.002868 0.038540 0.000000 -0.004204 0.000000
# 4 0.000000 0.000000 0.000000 0.066254 0.000000 -0.007322
# 5 -0.001264 -0.002360 -0.004204 0.000000 0.043464 0.000000
# 6 0.000000 0.000000 0.000000 -0.007322 0.000000 0.021728
#
#
# Mechanical properties :
#
#
# Convention : Reuss Voigt Hill
#
# Bulk Modulus (GPa) = 24.62447 47.74069 36.18258
# Shear Modulus (GPa) = 22.94440 31.92356 27.43398
#
# Velocity S-wave (km/s) = 3.17287 3.74257 3.46943
# Velocity P-wave (km/s) = 4.92210 6.29464 5.65020
#
# Compressibility (1/GPa) = 0.04061002
#
# Stress axis : x y z
#
# Youngs Moduli (GPa) = 105.46713 114.27383 25.94719
#
# Poissons Ratio (x) = 0.32195 0.06216
# Poissons Ratio (y) = 0.29714 0.07442
# Poissons Ratio (z) = 0.25267 0.32775
#
# Static dielectric constant tensor:
#      x y z
#    x 4.308140 0.000000 0.285840 
#    y 0.000000 4.809060 0.000000 
#    z 0.285840 0.000000 3.510600 
# 
# 
# High freq. dielectric constant tensor:
#      x y z
#    x 1.914740 0.000000 0.009330 
#    y 0.000000 1.932470 0.000000 
#    z 0.009330 0.000000 1.838390 
# 
# From -- ./inp_files/36395.got.cif
#   From: 2010.03.12/outbox.cif.g09.slc.cpg/sg14_19_cif.got.tgz:36395.got - 2010.03.31 13:35:05.
