data_PCOD8125442
_publ_section_title
;
Structure prediction by ZEFSAII (Michael W. Deem and Ramdas Pophale) SiO2 
 PCOD8125442
Probable space group: P 21/C
;
_chemical_formula_sum "Si O2"
_cell_formula_units_Z 28
_cell_length_a 20.311936
_cell_length_b 5.152581
_cell_length_c 14.422987
_cell_angle_alpha 90.000000
_cell_angle_beta 132.309030
_cell_angle_gamma 90.000000
_cell_volume 1116.308494
_symmetry_space_group_name_H-M "P 21/C"
_symmetry_group_IT_number 14
_symmetry_cell_setting 'monoclinic'
loop_
_space_group_symop_operation_xyz
x,y,z
-x,1/2+y,1/2-z
-x,-y,-z
x,1/2-y,1/2+z
loop_
_atom_site_type_symbol
_atom_site_label
_atom_site_fract_x
_atom_site_fract_y
_atom_site_fract_z
Si Si1 0.813920 0.696263 0.788482
Si Si2 0.066483 0.248426 0.425525
Si Si3 0.783774 0.409933 0.512433
Si Si4 0.109815 0.973953 0.289503
Si Si5 0.611556 0.671520 0.367582
Si Si6 0.716716 0.209809 0.754187
Si Si7 0.559619 0.324877 0.706654
O O1 0.858531 0.761560 0.731605
O O2 0.763125 0.423384 0.733271
O O3 0.743759 0.922278 0.748423
O O4 0.892708 0.663360 0.937915
O O5 0.123517 0.477491 0.435140
O O6 0.067663 0.016560 0.351506
O O7 0.964804 0.338611 0.345993
O O8 0.717795 0.640705 0.488010
O O9 0.804441 0.212754 0.616315
O O10 0.742700 0.249601 0.387000
O O11 0.549234 0.695864 0.401391
O O12 0.594237 0.896822 0.276716
O O13 0.584788 0.391926 0.304427
O O14 0.608735 0.259103 0.654584
#
# Coordination Sequence:
#
# PCOD8125442 Si02
#       7
#     4   4   4   4   4   4   4
#     4  11  25  40  64  90 123 162 208 251 305 368
#     4  11  23  43  60  90 119 164 206 260 308 360
#     4  10  21  37  60  86 123 159 206 255 306 359
#     4  12  24  40  63  88 122 164 207 259 308 364
#     4   9  18  29  56  91 117 155 202 252 298 366
#     4  10  20  39  60  89 122 160 198 254 304 362
#     4   9  16  32  55  88 123 152 200 250 303 360
#
# _framework density 25.082671000000001
#
# number of rings (size 3 to 8) (size 9 to 14) (size 15 to 20)
#    0.000    1.714    2.857    3.000    4.000    0.000 
#    0.000    2.857    0.000    1.714    0.000    0.000 
#    0.000    0.000    0.000    0.000    0.000    0.000 
#
# Total GULP energy -346954.041673 kJ/mol
# GULP energy per Si atom -12391.215774 kJ/mol
# Density = 2.502558 g / cm^3
# Si number density = 25.082671 Si / 1000 Ang^3
#
#
#
# Elastic Constant Matrix: (Units=GPa)
#
#
# Indices 1 2 3 4 5 6 
#
# 1 87.2289 -1.8948 19.7194 0.0000 13.3785 0.0000
# 2 -1.8948 76.1695 4.0238 0.0000 7.9196 0.0000
# 3 19.7194 4.0238 27.2582 0.0000 -3.5494 0.0000
# 4 0.0000 0.0000 0.0000 20.2272 0.0000 -9.4755
# 5 13.3785 7.9196 -3.5494 0.0000 24.3644 0.0000
# 6 0.0000 0.0000 0.0000 -9.4755 0.0000 6.4758
#
#
#
# Elastic Compliance Matrix: (Units=1/GPa)
#
#
# Indices 1 2 3 4 5 6 
#
# 1 0.016441 0.002364 -0.013780 0.000000 -0.011804 0.000000
# 2 0.002364 0.014115 -0.004649 0.000000 -0.006564 0.000000
# 3 -0.013780 -0.004649 0.049461 0.000000 0.016283 0.000000
# 4 0.000000 0.000000 0.000000 0.157169 0.000000 0.229970
# 5 -0.011804 -0.006564 0.016283 0.000000 0.052030 0.000000
# 6 0.000000 0.000000 0.000000 0.229970 0.000000 0.490915
#
#
# Mechanical properties :
#
#
# Convention : Reuss Voigt Hill
#
# Bulk Modulus (GPa) = 20.88156 26.03928 23.46042
# Shear Modulus (GPa) = 6.03702 21.46737 13.75219
#
# Velocity S-wave (km/s) = 1.55308 2.92869 2.34407
# Velocity P-wave (km/s) = 3.39989 4.67335 4.08653
#
# Compressibility (1/GPa) = 0.04788915
#
# Stress axis : x y z
#
# Youngs Moduli (GPa) = 60.82382 70.84443 20.21775
#
# Poissons Ratio (x) = -0.16749 0.27860
# Poissons Ratio (y) = -0.14380 0.09399
# Poissons Ratio (z) = 0.83814 0.32933
#
# Static dielectric constant tensor:
#      x y z
#    x 5.364810 0.000000 0.796460 
#    y 0.000000 4.363110 0.000000 
#    z 0.796460 0.000000 4.588820 
# 
# 
# High freq. dielectric constant tensor:
#      x y z
#    x 2.013460 0.000000 0.021150 
#    y 0.000000 2.006200 0.000000 
#    z 0.021150 0.000000 1.958060 
# 
# From -- ./inp_files/49709.got.cif
#   From: 2010.03.12/outbox.cif.g09.slc.cpg/sg14_25_cif.got.tgz:49709.got - 2010.03.31 13:35:05.
