data_PCOD8125234
_publ_section_title
;
Structure prediction by ZEFSAII (Michael W. Deem and Ramdas Pophale) SiO2 
 PCOD8125234
Probable space group: P 21/C
;
_chemical_formula_sum "Si O2"
_cell_formula_units_Z 24
_cell_length_a 8.423699
_cell_length_b 19.620510
_cell_length_c 11.543673
_cell_angle_alpha 90.000000
_cell_angle_beta 36.257151
_cell_angle_gamma 90.000000
_cell_volume 1128.355702
_symmetry_space_group_name_H-M "P 21/C"
_symmetry_group_IT_number 14
_symmetry_cell_setting 'monoclinic'
loop_
_space_group_symop_operation_xyz
x,y,z
-x,1/2+y,1/2-z
-x,-y,-z
x,1/2-y,1/2+z
loop_
_atom_site_type_symbol
_atom_site_label
_atom_site_fract_x
_atom_site_fract_y
_atom_site_fract_z
Si Si1 0.667454 0.171830 0.193975
Si Si2 0.743050 0.018544 0.777447
Si Si3 0.124076 0.599441 0.003115
Si Si4 0.921020 0.719035 0.975330
Si Si5 0.026889 0.870644 0.202965
Si Si6 0.472257 0.918993 0.513152
O O1 0.933938 0.209112 0.086311
O O2 0.597126 0.108360 0.317941
O O3 0.406692 0.221835 0.334135
O O4 0.736677 0.139868 0.028301
O O5 0.663973 0.066464 0.713825
O O6 0.948339 0.060632 0.736235
O O7 0.866389 0.949316 0.656534
O O8 0.500000 0.000000 0.000000
O O9 0.018360 0.672166 0.024150
O O10 0.244763 0.605786 0.059162
O O11 0.026246 0.693963 0.788956
O O12 0.740944 0.881550 0.308960
O O13 0.500000 0.000000 0.500000
#
# Coordination Sequence:
#
# PCOD8125234 Si02
#       6
#     4   4   4   4   4   4
#     4  11  26  44  69  94 133 177 221 280 331 406
#     4  10  20  37  63  92 123 169 212 261 333 386
#     4  10  22  40  63  91 132 166 211 278 319 393
#     4  10  25  45  64  93 128 173 224 270 334 396
#     4  10  23  42  63  95 130 171 218 273 325 398
#     4  11  24  43  65  99 138 172 222 279 336 387
#
# _framework density 21.269888000000002
#
# number of rings (size 3 to 8) (size 9 to 14) (size 15 to 20)
#    0.000    1.667    1.667    1.000    9.333    3.333 
#    3.000    0.000    0.000    0.000    0.000    0.000 
#    0.000    0.000    0.000    0.000    0.000    0.000 
#
# Total GULP energy -297550.456413 kJ/mol
# GULP energy per Si atom -12397.935684 kJ/mol
# Density = 2.122148 g / cm^3
# Si number density = 21.269888 Si / 1000 Ang^3
#
#
#
# Elastic Constant Matrix: (Units=GPa)
#
#
# Indices 1 2 3 4 5 6 
#
# 1 90.0943 17.1071 21.7512 0.0000 2.2691 0.0000
# 2 17.1071 82.7070 26.5148 0.0000 -0.1345 0.0000
# 3 21.7512 26.5148 129.6434 0.0000 12.4265 0.0000
# 4 0.0000 0.0000 0.0000 26.4349 0.0000 2.1995
# 5 2.2691 -0.1345 12.4265 0.0000 28.5426 0.0000
# 6 0.0000 0.0000 0.0000 2.1995 0.0000 26.8750
#
#
#
# Elastic Compliance Matrix: (Units=1/GPa)
#
#
# Indices 1 2 3 4 5 6 
#
# 1 0.011854 -0.001951 -0.001564 0.000000 -0.000271 0.000000
# 2 -0.001951 0.013304 -0.002520 0.000000 0.001315 0.000000
# 3 -0.001564 -0.002520 0.008850 0.000000 -0.003740 0.000000
# 4 0.000000 0.000000 0.000000 0.038088 0.000000 -0.003117
# 5 -0.000271 0.001315 -0.003740 0.000000 0.036692 0.000000
# 6 0.000000 0.000000 0.000000 -0.003117 0.000000 0.037464
#
#
# Mechanical properties :
#
#
# Convention : Reuss Voigt Hill
#
# Bulk Modulus (GPa) = 45.58066 48.13230 46.85648
# Shear Modulus (GPa) = 30.18689 32.17527 31.18108
#
# Velocity S-wave (km/s) = 3.77136 3.89358 3.83296
# Velocity P-wave (km/s) = 6.35927 6.54918 6.45492
#
# Compressibility (1/GPa) = 0.02193913
#
# Stress axis : x y z
#
# Youngs Moduli (GPa) = 84.35735 75.16343 112.99801
#
# Poissons Ratio (x) = 0.14664 0.17672
# Poissons Ratio (y) = 0.16458 0.28472
# Poissons Ratio (z) = 0.13193 0.18939
#
# Static dielectric constant tensor:
#      x y z
#    x 3.439660 0.000000 0.174760 
#    y 0.000000 3.454930 0.000000 
#    z 0.174760 0.000000 3.877880 
# 
# 
# High freq. dielectric constant tensor:
#      x y z
#    x 1.836790 0.000000 0.008090 
#    y 0.000000 1.826820 0.000000 
#    z 0.008090 0.000000 1.836750 
# 
# From -- ./inp_files/26544.got.cif
#   From: 2010.03.12/outbox.cif.g09.slc.cpg/sg14_14_cif.got.tgz:26544.got - 2010.03.31 13:35:05.
