data_PCOD8125998
_publ_section_title
;
Structure prediction by ZEFSAII (Michael W. Deem and Ramdas Pophale) SiO2 
 PCOD8125998
Probable space group: P 21/C
;
_chemical_formula_sum "Si O2"
_cell_formula_units_Z 24
_cell_length_a 22.816165
_cell_length_b 8.152478
_cell_length_c 18.366123
_cell_angle_alpha 90.000000
_cell_angle_beta 18.723895
_cell_angle_gamma 90.000000
_cell_volume 1096.643881
_symmetry_space_group_name_H-M "P 21/C"
_symmetry_group_IT_number 14
_symmetry_cell_setting 'monoclinic'
loop_
_space_group_symop_operation_xyz
x,y,z
-x,1/2+y,1/2-z
-x,-y,-z
x,1/2-y,1/2+z
loop_
_atom_site_type_symbol
_atom_site_label
_atom_site_fract_x
_atom_site_fract_y
_atom_site_fract_z
Si Si1 0.936160 0.994099 0.892089
Si Si2 0.424602 0.877457 0.407939
Si Si3 0.363192 0.693013 0.343049
Si Si4 0.212152 0.325347 0.987206
Si Si5 0.364926 0.590948 0.711996
Si Si6 0.691380 0.415020 0.799160
O O1 0.937069 0.810815 0.859457
O O2 0.136726 0.077356 0.647885
O O3 0.808159 0.107263 0.992128
O O4 0.859578 0.984783 0.065131
O O5 0.307870 0.794566 0.480712
O O6 0.294540 0.906562 0.630512
O O7 0.493411 0.054737 0.301174
O O8 0.592082 0.757230 0.231077
O O9 0.456467 0.819320 0.175090
O O10 0.220798 0.457637 0.911370
O O11 0.500000 0.500000 0.500000
O O12 0.274774 0.731681 0.769509
O O13 0.500000 0.500000 0.000000
#
# Coordination Sequence:
#
# PCOD8125998 Si02
#       6
#     4   4   4   4   4   4
#     4  10  21  37  59  84 118 150 199 237 290 341
#     4  11  21  37  60  85 121 151 196 238 292 340
#     4  10  22  35  57  86 117 151 192 239 287 343
#     4  11  21  36  61  86 116 155 193 242 287 347
#     4  11  19  33  59  85 110 149 198 231 280 344
#     4  11  18  37  58  86 113 152 196 240 279 347
#
# _framework density 21.884951999999998
#
# number of rings (size 3 to 8) (size 9 to 14) (size 15 to 20)
#    0.000    1.333    6.667    3.000    0.000    0.000 
#    0.000    0.000    3.667    6.000    0.000    0.000 
#    0.000    0.000    0.000    0.000    0.000    0.000 
#
# Total GULP energy -297364.859561 kJ/mol
# GULP energy per Si atom -12390.202482 kJ/mol
# Density = 2.183514 g / cm^3
# Si number density = 21.884952 Si / 1000 Ang^3
#
#
#
# Elastic Constant Matrix: (Units=GPa)
#
#
# Indices 1 2 3 4 5 6 
#
# 1 56.6352 15.5557 7.8869 0.0000 27.0269 0.0000
# 2 15.5557 129.9678 33.0636 0.0000 16.1447 0.0000
# 3 7.8869 33.0636 124.5238 0.0000 34.8210 0.0000
# 4 0.0000 0.0000 0.0000 46.8165 0.0000 8.2634
# 5 27.0269 16.1447 34.8210 0.0000 43.2982 0.0000
# 6 0.0000 0.0000 0.0000 8.2634 0.0000 33.3148
#
#
#
# Elastic Compliance Matrix: (Units=1/GPa)
#
#
# Indices 1 2 3 4 5 6 
#
# 1 0.026886 -0.001876 0.004248 0.000000 -0.019499 0.000000
# 2 -0.001876 0.008480 -0.002033 0.000000 -0.000355 0.000000
# 3 0.004248 -0.002033 0.011393 0.000000 -0.011056 0.000000
# 4 0.000000 0.000000 0.000000 0.022338 0.000000 -0.005541
# 5 -0.019499 -0.000355 -0.011056 0.000000 0.044290 0.000000
# 6 0.000000 0.000000 0.000000 -0.005541 0.000000 0.031391
#
#
# Mechanical properties :
#
#
# Convention : Reuss Voigt Hill
#
# Bulk Modulus (GPa) = 21.08157 47.12658 34.10408
# Shear Modulus (GPa) = 31.26684 41.66062 36.46373
#
# Velocity S-wave (km/s) = 3.78390 4.36778 4.08629
# Velocity P-wave (km/s) = 5.36138 6.85691 6.15474
#
# Compressibility (1/GPa) = 0.04743480
#
# Stress axis : x y z
#
# Youngs Moduli (GPa) = 37.19460 117.92095 87.77320
#
# Poissons Ratio (x) = 0.22127 -0.37285
# Poissons Ratio (y) = 0.06979 0.17848
# Poissons Ratio (z) = -0.15800 0.23978
#
# Static dielectric constant tensor:
#      x y z
#    x 3.619440 0.000000 0.402600 
#    y 0.000000 4.830970 0.000000 
#    z 0.402600 0.000000 4.156450 
# 
# 
# High freq. dielectric constant tensor:
#      x y z
#    x 1.813130 0.000000 0.030310 
#    y 0.000000 1.894330 0.000000 
#    z 0.030310 0.000000 1.859470 
# 
# From -- ./inp_files/54633.got.cif
#   From: 2010.03.12/outbox.cif.g09.slc.cpg/sg14_28_cif.got.tgz:54633.got - 2010.03.31 13:35:05.
