data_PCOD8125995
_publ_section_title
;
Structure prediction by ZEFSAII (Michael W. Deem and Ramdas Pophale) SiO2 
 PCOD8125995
Probable space group: P 21/C
;
_chemical_formula_sum "Si O2"
_cell_formula_units_Z 28
_cell_length_a 14.106287
_cell_length_b 19.869451
_cell_length_c 9.284333
_cell_angle_alpha 90.000000
_cell_angle_beta 146.792856
_cell_angle_gamma 90.000000
_cell_volume 1425.168790
_symmetry_space_group_name_H-M "P 21/C"
_symmetry_group_IT_number 14
_symmetry_cell_setting 'monoclinic'
loop_
_space_group_symop_operation_xyz
x,y,z
-x,1/2+y,1/2-z
-x,-y,-z
x,1/2-y,1/2+z
loop_
_atom_site_type_symbol
_atom_site_label
_atom_site_fract_x
_atom_site_fract_y
_atom_site_fract_z
Si Si1 0.182735 0.032011 0.768802
Si Si2 0.053650 0.325981 0.166628
Si Si3 0.446135 0.955934 0.296273
Si Si4 0.918293 0.799845 0.625560
Si Si5 0.307336 0.686490 0.645923
Si Si6 0.640631 0.911214 0.276940
Si Si7 0.663638 0.314497 0.648941
O O1 0.158656 0.104765 0.811335
O O2 0.291589 0.037786 0.759099
O O3 0.000000 0.000000 0.500000
O O4 0.275423 0.984546 0.001668
O O5 0.136550 0.273365 0.384277
O O6 0.074557 0.293818 0.036317
O O7 0.851029 0.339417 0.943464
O O8 0.402898 0.882774 0.305284
O O9 0.597040 0.952286 0.367429
O O10 0.500000 0.000000 0.500000
O O11 0.783232 0.856274 0.503154
O O12 0.104704 0.819683 0.929208
O O13 0.397080 0.747003 0.847171
O O14 0.329735 0.704667 0.508742
O O15 0.471434 0.874539 0.996301
#
# Coordination Sequence:
#
# PCOD8125995 Si02
#       7
#     4   4   4   4   4   4   4
#     4  11  22  40  60  79 114 160 194 223 276 357
#     4   9  19  34  55  79 107 143 186 230 283 333
#     4  11  24  38  55  85 121 149 187 239 282 333
#     4   9  18  34  55  81 107 139 186 238 279 331
#     4   9  19  37  55  79 113 146 181 229 288 331
#     4  10  21  37  59  81 108 150 197 233 279 336
#     4   9  18  34  57  82 107 139 187 244 281 323
#
# _framework density 19.646795999999998
#
# number of rings (size 3 to 8) (size 9 to 14) (size 15 to 20)
#    0.000    2.286    0.000    3.857    0.000    8.000 
#    0.000    7.143    0.000    0.000    0.000    0.000 
#    0.000    0.000    0.000    0.000    0.000    0.000 
#
# Total GULP energy -347246.276931 kJ/mol
# GULP energy per Si atom -12401.652748 kJ/mol
# Density = 1.960208 g / cm^3
# Si number density = 19.646796 Si / 1000 Ang^3
#
#
#
# Elastic Constant Matrix: (Units=GPa)
#
#
# Indices 1 2 3 4 5 6 
#
# 1 89.9763 46.9002 33.3588 0.0000 10.5247 0.0000
# 2 46.9002 77.2865 18.0486 0.0000 -10.7638 0.0000
# 3 33.3588 18.0486 65.7510 0.0000 0.7246 0.0000
# 4 0.0000 0.0000 0.0000 36.5434 0.0000 -5.9629
# 5 10.5247 -10.7638 0.7246 0.0000 16.5818 0.0000
# 6 0.0000 0.0000 0.0000 -5.9629 0.0000 43.3799
#
#
#
# Elastic Compliance Matrix: (Units=1/GPa)
#
#
# Indices 1 2 3 4 5 6 
#
# 1 0.027433 -0.018742 -0.008452 0.000000 -0.029209 0.000000
# 2 -0.018742 0.028169 0.001444 0.000000 0.030118 0.000000
# 3 -0.008452 0.001444 0.019040 0.000000 0.005470 0.000000
# 4 0.000000 0.000000 0.000000 0.027993 0.000000 0.003848
# 5 -0.029209 0.030118 0.005470 0.000000 0.098158 0.000000
# 6 0.000000 0.000000 0.000000 0.003848 0.000000 0.023581
#
#
# Mechanical properties :
#
#
# Convention : Reuss Voigt Hill
#
# Bulk Modulus (GPa) = 43.20729 47.73658 45.47193
# Shear Modulus (GPa) = 17.63121 28.28145 22.95633
#
# Velocity S-wave (km/s) = 2.99893 3.79818 3.42197
# Velocity P-wave (km/s) = 5.83363 6.60190 6.22962
#
# Compressibility (1/GPa) = 0.02314424
#
# Stress axis : x y z
#
# Youngs Moduli (GPa) = 36.45200 35.49951 52.52046
#
# Poissons Ratio (x) = 0.66532 0.44389
# Poissons Ratio (y) = 0.68317 -0.07585
# Poissons Ratio (z) = 0.30809 -0.05127
#
# Static dielectric constant tensor:
#      x y z
#    x 3.868150 0.000000 0.147990 
#    y 0.000000 3.741040 0.000000 
#    z 0.147990 0.000000 3.578040 
# 
# 
# High freq. dielectric constant tensor:
#      x y z
#    x 1.768540 0.000000 0.012770 
#    y 0.000000 1.770920 0.000000 
#    z 0.012770 0.000000 1.750480 
# 
# From -- ./inp_files/16888.got.cif
#   From: 2010.03.12/outbox.cif.g09.slc.cpg/sg14_9_cif.got.tgz:16888.got - 2010.03.31 13:35:05.
