data_PCOD8125566
_publ_section_title
;
Structure prediction by ZEFSAII (Michael W. Deem and Ramdas Pophale) SiO2 
 PCOD8125566
Probable space group: P 21/C
;
_chemical_formula_sum "Si O2"
_cell_formula_units_Z 24
_cell_length_a 20.692253
_cell_length_b 10.137009
_cell_length_c 15.183492
_cell_angle_alpha 90.000000
_cell_angle_beta 157.372143
_cell_angle_gamma 90.000000
_cell_volume 1225.353200
_symmetry_space_group_name_H-M "P 21/C"
_symmetry_group_IT_number 14
_symmetry_cell_setting 'monoclinic'
loop_
_space_group_symop_operation_xyz
x,y,z
-x,1/2+y,1/2-z
-x,-y,-z
x,1/2-y,1/2+z
loop_
_atom_site_type_symbol
_atom_site_label
_atom_site_fract_x
_atom_site_fract_y
_atom_site_fract_z
Si Si1 0.455454 0.212082 0.922574
Si Si2 0.342330 0.954722 0.115416
Si Si3 0.511805 0.534823 0.376125
Si Si4 0.779210 0.335691 0.078055
Si Si5 0.159266 0.390113 0.524416
Si Si6 0.664652 0.060891 0.613618
O O1 0.273561 0.259743 0.661223
O O2 0.524437 0.101340 0.944019
O O3 0.438257 0.157590 0.999607
O O4 0.585604 0.334135 0.082869
O O5 0.359783 0.031222 0.044290
O O6 0.188566 0.020515 0.974795
O O7 0.515696 0.969750 0.387878
O O8 0.304830 0.802957 0.050865
O O9 0.321843 0.552469 0.102349
O O10 0.765507 0.362256 0.164861
O O11 0.969906 0.340944 0.287248
O O12 0.203997 0.470612 0.669087
#
# Coordination Sequence:
#
# PCOD8125566 Si02
#       6
#     4   4   4   4   4   4
#     4  10  20  40  61  84 115 152 202 230 295 349
#     4  10  21  40  61  84 117 155 202 236 284 351
#     4  10  21  38  63  85 111 160 197 240 276 358
#     4  11  22  37  60  89 120 146 199 244 296 334
#     4  11  23  37  60  88 122 150 191 247 300 338
#     4  10  20  40  63  85 114 162 194 233 286 362
#
# _framework density 19.586190999999999
#
# number of rings (size 3 to 8) (size 9 to 14) (size 15 to 20)
#    0.000    1.667    1.667    4.500    2.333    0.000 
#    0.000    4.167    0.000    0.000    0.000    0.000 
#    0.000    0.000    0.000    0.000    0.000    0.000 
#
# Total GULP energy -297662.162179 kJ/mol
# GULP energy per Si atom -12402.590091 kJ/mol
# Density = 1.954161 g / cm^3
# Si number density = 19.586191 Si / 1000 Ang^3
#
#
#
# Elastic Constant Matrix: (Units=GPa)
#
#
# Indices 1 2 3 4 5 6 
#
# 1 115.9547 35.0751 23.2272 0.0000 -4.3034 0.0000
# 2 35.0751 84.7314 20.3642 0.0000 -8.0580 0.0000
# 3 23.2272 20.3642 52.5915 0.0000 10.5056 0.0000
# 4 0.0000 0.0000 0.0000 17.9232 0.0000 -1.6931
# 5 -4.3034 -8.0580 10.5056 0.0000 31.7611 0.0000
# 6 0.0000 0.0000 0.0000 -1.6931 0.0000 28.2688
#
#
#
# Elastic Compliance Matrix: (Units=1/GPa)
#
#
# Indices 1 2 3 4 5 6 
#
# 1 0.010416 -0.003249 -0.003704 0.000000 0.001812 0.000000
# 2 -0.003249 0.014924 -0.005367 0.000000 0.005121 0.000000
# 3 -0.003704 -0.005367 0.024735 0.000000 -0.010045 0.000000
# 4 0.000000 0.000000 0.000000 0.056111 0.000000 0.003361
# 5 0.001812 0.005121 -0.010045 0.000000 0.036352 0.000000
# 6 0.000000 0.000000 0.000000 0.003361 0.000000 0.035576
#
#
# Mechanical properties :
#
#
# Convention : Reuss Voigt Hill
#
# Bulk Modulus (GPa) = 39.31608 45.62341 42.46974
# Shear Modulus (GPa) = 23.67051 27.23137 25.45094
#
# Velocity S-wave (km/s) = 3.48016 3.73276 3.60868
# Velocity P-wave (km/s) = 6.02210 6.47474 6.25252
#
# Compressibility (1/GPa) = 0.02543489
#
# Stress axis : x y z
#
# Youngs Moduli (GPa) = 96.00461 67.00660 40.42832
#
# Poissons Ratio (x) = 0.21772 0.14975
# Poissons Ratio (y) = 0.31194 0.21697
# Poissons Ratio (z) = 0.35562 0.35961
#
# Static dielectric constant tensor:
#      x y z
#    x 3.834390 0.000000 -0.082110 
#    y 0.000000 3.591840 0.000000 
#    z -0.082110 0.000000 3.263090 
# 
# 
# High freq. dielectric constant tensor:
#      x y z
#    x 1.782200 0.000000 -0.007100 
#    y 0.000000 1.772430 0.000000 
#    z -0.007100 0.000000 1.734110 
# 
# From -- ./inp_files/61732.got.cif
#   From: 2010.03.12/outbox.cif.g09.slc.cpg/sg14_31_cif.got.tgz:61732.got - 2010.03.31 13:35:05.
