data_PCOD8125504
_publ_section_title
;
Structure prediction by ZEFSAII (Michael W. Deem and Ramdas Pophale) SiO2 
 PCOD8125504
Probable space group: P 21/C
;
_chemical_formula_sum "Si O2"
_cell_formula_units_Z 24
_cell_length_a 8.830703
_cell_length_b 8.601891
_cell_length_c 15.310990
_cell_angle_alpha 90.000000
_cell_angle_beta 76.695399
_cell_angle_gamma 90.000000
_cell_volume 1131.818825
_symmetry_space_group_name_H-M "P 21/C"
_symmetry_group_IT_number 14
_symmetry_cell_setting 'monoclinic'
loop_
_space_group_symop_operation_xyz
x,y,z
-x,1/2+y,1/2-z
-x,-y,-z
x,1/2-y,1/2+z
loop_
_atom_site_type_symbol
_atom_site_label
_atom_site_fract_x
_atom_site_fract_y
_atom_site_fract_z
Si Si1 0.600240 0.876266 0.293083
Si Si2 0.307878 0.804397 0.783935
Si Si3 0.810245 0.724816 0.924879
Si Si4 0.032462 0.515325 0.370284
Si Si5 0.796743 0.732510 0.119096
Si Si6 0.074088 0.556211 0.799257
O O1 0.428388 0.803680 0.321318
O O2 0.686000 0.806062 0.365952
O O3 0.667855 0.825432 0.190358
O O4 0.605715 0.066525 0.289764
O O5 0.189458 0.885150 0.869166
O O6 0.197614 0.683085 0.745192
O O7 0.868898 0.905213 0.917804
O O8 0.963704 0.622724 0.889535
O O9 0.737854 0.686198 0.029779
O O10 0.051013 0.346035 0.413062
O O11 0.037175 0.495468 0.264505
O O12 0.833611 0.584963 0.171961
#
# Coordination Sequence:
#
# PCOD8125504 Si02
#       6
#     4   4   4   4   4   4
#     4  11  22  41  60  88 127 163 204 250 312 370
#     4  10  22  38  65  86 123 168 203 250 311 364
#     4  11  22  37  63  92 124 161 209 253 302 367
#     4  10  20  39  64  90 123 164 206 252 305 365
#     4  11  21  37  64  92 125 160 205 255 308 359
#     4  11  19  40  63  91 119 164 208 252 306 358
#
# _framework density 21.204806000000001
#
# number of rings (size 3 to 8) (size 9 to 14) (size 15 to 20)
#    0.000    1.333    5.000    3.000    0.000    0.000 
#    0.000    6.667    7.333    0.000    0.000    0.000 
#    0.000    0.000    0.000    0.000    0.000    0.000 
#
# Total GULP energy -297359.307894 kJ/mol
# GULP energy per Si atom -12389.971162 kJ/mol
# Density = 2.115654 g / cm^3
# Si number density = 21.204806 Si / 1000 Ang^3
#
#
#
# Elastic Constant Matrix: (Units=GPa)
#
#
# Indices 1 2 3 4 5 6 
#
# 1 104.1601 46.4101 57.1752 0.0000 11.1988 0.0000
# 2 46.4101 115.3012 41.7602 0.0000 1.5527 0.0000
# 3 57.1752 41.7602 257.6933 0.0000 17.8444 0.0000
# 4 0.0000 0.0000 0.0000 17.9178 0.0000 5.2548
# 5 11.1988 1.5527 17.8444 0.0000 13.8057 0.0000
# 6 0.0000 0.0000 0.0000 5.2548 0.0000 10.9533
#
#
#
# Elastic Compliance Matrix: (Units=1/GPa)
#
#
# Indices 1 2 3 4 5 6 
#
# 1 0.013506 -0.004724 -0.001657 0.000000 -0.008282 0.000000
# 2 -0.004724 0.010878 -0.000983 0.000000 0.003880 0.000000
# 3 -0.001657 -0.000983 0.004730 0.000000 -0.004659 0.000000
# 4 0.000000 0.000000 0.000000 0.064948 0.000000 -0.031159
# 5 -0.008282 0.003880 -0.004659 0.000000 0.084738 0.000000
# 6 0.000000 0.000000 0.000000 -0.031159 0.000000 0.106245
#
#
# Mechanical properties :
#
#
# Convention : Reuss Voigt Hill
#
# Bulk Modulus (GPa) = 69.52096 85.31619 77.41857
# Shear Modulus (GPa) = 16.41654 30.65596 23.53625
#
# Velocity S-wave (km/s) = 2.78544 3.80637 3.33520
# Velocity P-wave (km/s) = 6.57279 7.72267 7.17082
#
# Compressibility (1/GPa) = 0.01438415
#
# Stress axis : x y z
#
# Youngs Moduli (GPa) = 74.04167 91.92459 211.40263
#
# Poissons Ratio (x) = 0.43429 0.35040
# Poissons Ratio (y) = 0.34981 0.20788
# Poissons Ratio (z) = 0.12272 0.09039
#
# Static dielectric constant tensor:
#      x y z
#    x 3.781560 0.000000 0.076150 
#    y 0.000000 4.333770 0.000000 
#    z 0.076150 0.000000 3.476310 
# 
# 
# High freq. dielectric constant tensor:
#      x y z
#    x 1.820060 0.000000 0.007330 
#    y 0.000000 1.853130 0.000000 
#    z 0.007330 0.000000 1.794300 
# 
# From -- ./inp_files/38905.got.cif
#   From: 2010.03.12/outbox.cif.g09.slc.cpg/sg14_20_cif.got.tgz:38905.got - 2010.03.31 13:35:05.
