data_PCOD8125340
_publ_section_title
;
Structure prediction by ZEFSAII (Michael W. Deem and Ramdas Pophale) SiO2 
 PCOD8125340
Probable space group: P 21/C
;
_chemical_formula_sum "Si O2"
_cell_formula_units_Z 24
_cell_length_a 20.675613
_cell_length_b 5.084534
_cell_length_c 14.178377
_cell_angle_alpha 90.000000
_cell_angle_beta 45.607277
_cell_angle_gamma 90.000000
_cell_volume 1065.064000
_symmetry_space_group_name_H-M "P 21/C"
_symmetry_group_IT_number 14
_symmetry_cell_setting 'monoclinic'
loop_
_space_group_symop_operation_xyz
x,y,z
-x,1/2+y,1/2-z
-x,-y,-z
x,1/2-y,1/2+z
loop_
_atom_site_type_symbol
_atom_site_label
_atom_site_fract_x
_atom_site_fract_y
_atom_site_fract_z
Si Si1 0.788274 0.384991 0.839145
Si Si2 0.283201 0.163360 0.752935
Si Si3 0.056752 0.589190 0.175982
Si Si4 0.570481 0.673822 0.272560
Si Si5 0.179719 0.673188 0.884725
Si Si6 0.617989 0.170689 0.110932
O O1 0.734437 0.625635 0.841568
O O2 0.858696 0.489921 0.843968
O O3 0.843322 0.220345 0.702641
O O4 0.714254 0.200302 0.963111
O O5 0.387192 0.248396 0.668132
O O6 0.219519 0.386564 0.861165
O O7 0.254333 0.895413 0.838108
O O8 0.998226 0.327638 0.221009
O O9 0.090179 0.692902 0.039921
O O10 0.601344 0.383017 0.210562
O O11 0.462000 0.703869 0.386019
O O12 0.614435 0.876276 0.153554
#
# Coordination Sequence:
#
# PCOD8125340 Si02
#       6
#     4   4   4   4   4   4
#     4  10  26  41  67  93 126 165 210 252 320 366
#     4  10  21  39  63  91 128 165 198 256 300 365
#     4  12  27  44  68  92 122 164 206 261 320 378
#     4  10  20  38  61  94 128 169 210 251 297 357
#     4  10  24  43  64  94 124 162 201 263 307 375
#     4  10  22  37  64  91 128 168 210 253 299 367
#
# _framework density 22.533856
#
# number of rings (size 3 to 8) (size 9 to 14) (size 15 to 20)
#    1.000    0.667    0.000    4.000    4.667    2.000 
#    0.000    0.833    0.000    0.000    0.000    0.000 
#    0.000    0.000    0.000    0.000    0.000    0.000 
#
# Total GULP energy -297458.022997 kJ/mol
# GULP energy per Si atom -12394.084292 kJ/mol
# Density = 2.248257 g / cm^3
# Si number density = 22.533856 Si / 1000 Ang^3
#
#
#
# Elastic Constant Matrix: (Units=GPa)
#
#
# Indices 1 2 3 4 5 6 
#
# 1 96.0361 4.5539 36.1369 0.0000 -0.0969 0.0000
# 2 4.5539 88.7369 -12.6278 0.0000 1.4354 0.0000
# 3 36.1369 -12.6278 51.6544 0.0000 1.6252 0.0000
# 4 0.0000 0.0000 0.0000 24.9301 0.0000 -7.9341
# 5 -0.0969 1.4354 1.6252 0.0000 21.0188 0.0000
# 6 0.0000 0.0000 0.0000 -7.9341 0.0000 19.1660
#
#
#
# Elastic Compliance Matrix: (Units=1/GPa)
#
#
# Indices 1 2 3 4 5 6 
#
# 1 0.014587 -0.002303 -0.010802 0.000000 0.001060 0.000000
# 2 -0.002303 0.012061 0.004597 0.000000 -0.001190 0.000000
# 3 -0.010802 0.004597 0.028120 0.000000 -0.002538 0.000000
# 4 0.000000 0.000000 0.000000 0.046199 0.000000 0.019125
# 5 0.001060 -0.001190 -0.002538 0.000000 0.047859 0.000000
# 6 0.000000 0.000000 0.000000 0.019125 0.000000 0.060093
#
#
# Mechanical properties :
#
#
# Convention : Reuss Voigt Hill
#
# Bulk Modulus (GPa) = 26.48779 32.50592 29.49686
# Shear Modulus (GPa) = 20.96282 26.91395 23.93839
#
# Velocity S-wave (km/s) = 3.05336 3.45973 3.26288
# Velocity P-wave (km/s) = 4.92045 5.51510 5.22624
#
# Compressibility (1/GPa) = 0.03775324
#
# Stress axis : x y z
#
# Youngs Moduli (GPa) = 68.55192 82.91264 35.56214
#
# Poissons Ratio (x) = 0.19094 0.38413
# Poissons Ratio (y) = 0.15787 -0.16348
# Poissons Ratio (z) = 0.74047 -0.38115
#
# Static dielectric constant tensor:
#      x y z
#    x 4.104700 0.000000 -0.098920 
#    y 0.000000 3.984530 0.000000 
#    z -0.098920 0.000000 3.660330 
# 
# 
# High freq. dielectric constant tensor:
#      x y z
#    x 1.885790 0.000000 -0.005080 
#    y 0.000000 1.896870 0.000000 
#    z -0.005080 0.000000 1.860870 
# 
# From -- ./inp_files/49598.got.cif
#   From: 2010.03.12/outbox.cif.g09.slc.cpg/sg14_25_cif.got.tgz:49598.got - 2010.03.31 13:35:05.
