data_PCOD8125961
_publ_section_title
;
Structure prediction by ZEFSAII (Michael W. Deem and Ramdas Pophale) SiO2 
 PCOD8125961
Probable space group: P 21/C
;
_chemical_formula_sum "Si O2"
_cell_formula_units_Z 32
_cell_length_a 15.846876
_cell_length_b 17.947488
_cell_length_c 5.242783
_cell_angle_alpha 90.000000
_cell_angle_beta 87.364744
_cell_angle_gamma 90.000000
_cell_volume 1489.531494
_symmetry_space_group_name_H-M "P 21/C"
_symmetry_group_IT_number 14
_symmetry_cell_setting 'monoclinic'
loop_
_space_group_symop_operation_xyz
x,y,z
-x,1/2+y,1/2-z
-x,-y,-z
x,1/2-y,1/2+z
loop_
_atom_site_type_symbol
_atom_site_label
_atom_site_fract_x
_atom_site_fract_y
_atom_site_fract_z
Si Si1 0.360022 0.219148 0.755238
Si Si2 0.828414 0.784324 0.736041
Si Si3 0.600373 0.951307 0.236173
Si Si4 0.653229 0.288839 0.210561
Si Si5 0.401316 0.543123 0.763972
Si Si6 0.043588 0.916560 0.220915
Si Si7 0.850386 0.285822 0.175387
Si Si8 0.060622 0.416461 0.750446
O O1 0.409120 0.247208 0.494508
O O2 0.270565 0.263571 0.755193
O O3 0.353444 0.129498 0.768226
O O4 0.872028 0.756774 0.469602
O O5 0.850131 0.871857 0.762675
O O6 0.500466 0.939692 0.249369
O O7 0.627671 0.996653 0.483809
O O8 0.627785 0.997066 0.981416
O O9 0.611919 0.247419 0.461728
O O10 0.642567 0.377195 0.226507
O O11 0.751510 0.271644 0.185679
O O12 0.127724 0.870860 0.270134
O O13 0.978889 0.910199 0.463877
O O14 0.080843 0.998762 0.178244
O O15 0.000926 0.886800 0.965644
O O16 0.890792 0.236682 0.398546
#
# Coordination Sequence:
#
# PCOD8125961 Si02
#       8
#     4   4   4   4   4   4   4   4
#     4  10  21  38  57  82 122 158 196 244 289 350
#     4  10  21  37  55  80 115 151 188 235 285 342
#     4  10  21  38  59  88 122 154 201 240 284 355
#     4  10  21  38  59  85 118 146 193 244 292 350
#     4  10  21  38  61  88 118 158 196 241 294 345
#     4  10  21  37  56  83 106 150 187 236 288 338
#     4  10  21  37  56  82 111 140 186 236 286 343
#     4  10  21  37  57  78 116 141 193 236 278 347
#
# _framework density 21.483264999999999
#
# number of rings (size 3 to 8) (size 9 to 14) (size 15 to 20)
#    0.000    2.000    0.000    3.000    0.000    4.000 
#    9.000    0.000    0.000    0.000    0.000    0.000 
#    0.000    0.000    0.000    0.000    0.000    0.000 
#
# Total GULP energy -396568.761072 kJ/mol
# GULP energy per Si atom -12392.773783 kJ/mol
# Density = 2.143437 g / cm^3
# Si number density = 21.483265 Si / 1000 Ang^3
#
#
#
# Elastic Constant Matrix: (Units=GPa)
#
#
# Indices 1 2 3 4 5 6 
#
# 1 28.3625 22.4589 11.7456 0.0000 2.6679 0.0000
# 2 22.4589 122.9473 54.0065 0.0000 5.5900 0.0000
# 3 11.7456 54.0065 196.5984 0.0000 8.4608 0.0000
# 4 0.0000 0.0000 0.0000 39.7189 0.0000 3.4667
# 5 2.6679 5.5900 8.4608 0.0000 7.8489 0.0000
# 6 0.0000 0.0000 0.0000 3.4667 0.0000 31.3645
#
#
#
# Elastic Compliance Matrix: (Units=1/GPa)
#
#
# Indices 1 2 3 4 5 6 
#
# 1 0.041839 -0.007172 -0.000144 0.000000 -0.008958 0.000000
# 2 -0.007172 0.010603 -0.002374 0.000000 -0.002554 0.000000
# 3 -0.000144 -0.002374 0.005948 0.000000 -0.004672 0.000000
# 4 0.000000 0.000000 0.000000 0.025422 0.000000 -0.002810
# 5 -0.008958 -0.002554 -0.004672 0.000000 0.137307 0.000000
# 6 0.000000 0.000000 0.000000 -0.002810 0.000000 0.032194
#
#
# Mechanical properties :
#
#
# Convention : Reuss Voigt Hill
#
# Bulk Modulus (GPa) = 25.63458 58.25891 41.94674
# Shear Modulus (GPa) = 17.50099 33.09961 25.30030
#
# Velocity S-wave (km/s) = 2.85728 3.92945 3.43545
# Velocity P-wave (km/s) = 4.77950 6.91120 5.94173
#
# Compressibility (1/GPa) = 0.03900980
#
# Stress axis : x y z
#
# Youngs Moduli (GPa) = 23.90088 94.31497 168.11280
#
# Poissons Ratio (x) = 0.67646 0.02419
# Poissons Ratio (y) = 0.17143 0.39913
# Poissons Ratio (z) = 0.00344 0.22392
#
# Static dielectric constant tensor:
#      x y z
#    x 3.363610 0.000000 0.145820 
#    y 0.000000 3.863280 0.000000 
#    z 0.145820 0.000000 5.507120 
# 
# 
# High freq. dielectric constant tensor:
#      x y z
#    x 1.799640 0.000000 0.007160 
#    y 0.000000 1.848630 0.000000 
#    z 0.007160 0.000000 1.880170 
# 
# From -- ./inp_files/4152.got.cif
#   From: 2010.03.12/outbox.cif.g09.slc.cpg/sg14_3_cif.got.tgz:4152.got - 2010.03.31 13:35:05.
