data_PCOD8125502
_publ_section_title
;
Structure prediction by ZEFSAII (Michael W. Deem and Ramdas Pophale) SiO2 
 PCOD8125502
Probable space group: P 21/C
;
_chemical_formula_sum "Si O2"
_cell_formula_units_Z 32
_cell_length_a 24.096323
_cell_length_b 12.356157
_cell_length_c 12.780582
_cell_angle_alpha 90.000000
_cell_angle_beta 156.317684
_cell_angle_gamma 90.000000
_cell_volume 1528.442026
_symmetry_space_group_name_H-M "P 21/C"
_symmetry_group_IT_number 14
_symmetry_cell_setting 'monoclinic'
loop_
_space_group_symop_operation_xyz
x,y,z
-x,1/2+y,1/2-z
-x,-y,-z
x,1/2-y,1/2+z
loop_
_atom_site_type_symbol
_atom_site_label
_atom_site_fract_x
_atom_site_fract_y
_atom_site_fract_z
Si Si1 0.463317 0.501153 0.315042
Si Si2 0.189929 0.855807 0.513771
Si Si3 0.087416 0.290606 0.543183
Si Si4 0.813970 0.919113 0.604483
Si Si5 0.740223 0.795402 0.859686
Si Si6 0.692580 0.399913 0.573862
Si Si7 0.567442 0.232990 0.204878
Si Si8 0.861202 0.571396 0.753266
O O1 0.500000 0.500000 0.500000
O O2 0.316708 0.444809 0.047998
O O3 0.560504 0.429384 0.413058
O O4 0.471270 0.626707 0.293788
O O5 0.191358 0.862791 0.642387
O O6 0.335198 0.806659 0.723449
O O7 0.149135 0.973716 0.396804
O O8 0.063213 0.777905 0.268129
O O9 0.204807 0.321045 0.661464
O O10 0.123983 0.174269 0.648942
O O11 0.076294 0.378601 0.618886
O O12 0.787618 0.823976 0.475944
O O13 0.571223 0.796432 0.571932
O O14 0.809854 0.889457 0.050417
O O15 0.662383 0.304250 0.442571
O O16 0.736473 0.502036 0.582668
O O17 0.000000 0.500000 0.000000
#
# Coordination Sequence:
#
# PCOD8125502 Si02
#       8
#     4   4   4   4   4   4   4   4
#     4  11  19  40  67  90 126 161 205 257 315 373
#     4  11  22  41  62  89 128 166 208 266 310 382
#     4  11  23  38  65  90 121 169 216 256 323 380
#     4  10  20  39  64  90 121 161 211 258 310 383
#     4  11  22  40  63  93 125 161 211 266 312 386
#     4  12  23  40  65  89 127 167 202 257 330 369
#     4  11  23  39  65  95 123 163 216 255 318 384
#     4  11  25  43  61  89 128 167 212 263 323 385
#
# _framework density 20.936353
#
# number of rings (size 3 to 8) (size 9 to 14) (size 15 to 20)
#    0.000    1.000    3.750    4.125    0.000    4.500 
#    0.000    8.750    0.000    0.000    0.000    0.000 
#    0.000    0.000    0.000    0.000    0.000    0.000 
#
# Total GULP energy -396659.080341 kJ/mol
# GULP energy per Si atom -12395.596261 kJ/mol
# Density = 2.088870 g / cm^3
# Si number density = 20.936353 Si / 1000 Ang^3
#
#
#
# Elastic Constant Matrix: (Units=GPa)
#
#
# Indices 1 2 3 4 5 6 
#
# 1 81.1707 42.9052 23.2574 0.0000 -17.2648 0.0000
# 2 42.9052 95.2697 32.8022 0.0000 -23.4552 0.0000
# 3 23.2574 32.8022 97.6093 0.0000 -14.1482 0.0000
# 4 0.0000 0.0000 0.0000 33.7817 0.0000 7.9149
# 5 -17.2648 -23.4552 -14.1482 0.0000 33.6266 0.0000
# 6 0.0000 0.0000 0.0000 7.9149 0.0000 24.0235
#
#
#
# Elastic Compliance Matrix: (Units=1/GPa)
#
#
# Indices 1 2 3 4 5 6 
#
# 1 0.016763 -0.006154 -0.001385 0.000000 0.003731 0.000000
# 2 -0.006154 0.015926 -0.002911 0.000000 0.006724 0.000000
# 3 -0.001385 -0.002911 0.011880 0.000000 0.002257 0.000000
# 4 0.000000 0.000000 0.000000 0.032078 0.000000 -0.010569
# 5 0.003731 0.006724 0.002257 0.000000 0.037294 0.000000
# 6 0.000000 0.000000 0.000000 -0.010569 0.000000 0.045108
#
#
# Mechanical properties :
#
#
# Convention : Reuss Voigt Hill
#
# Bulk Modulus (GPa) = 42.24928 52.44217 47.34572
# Shear Modulus (GPa) = 26.61864 29.95869 28.28867
#
# Velocity S-wave (km/s) = 3.56955 3.78688 3.67982
# Velocity P-wave (km/s) = 6.10021 6.65007 6.38106
#
# Compressibility (1/GPa) = 0.02366904
#
# Stress axis : x y z
#
# Youngs Moduli (GPa) = 59.65520 62.79195 84.17232
#
# Poissons Ratio (x) = 0.38640 0.11660
# Poissons Ratio (y) = 0.36710 0.24503
# Poissons Ratio (z) = 0.08264 0.18279
#
# Static dielectric constant tensor:
#      x y z
#    x 3.938690 0.000000 -0.138730 
#    y 0.000000 2.615730 0.000000 
#    z -0.138730 0.000000 4.009170 
# 
# 
# High freq. dielectric constant tensor:
#      x y z
#    x 1.814170 0.000000 -0.001350 
#    y 0.000000 1.823120 0.000000 
#    z -0.001350 0.000000 1.826970 
# 
# From -- ./inp_files/35287.got.cif
#   From: 2010.03.12/outbox.cif.g09.slc.cpg/sg14_18_cif.got.tgz:35287.got - 2010.03.31 13:35:05.
