data_PCOD8125228
_publ_section_title
;
Structure prediction by ZEFSAII (Michael W. Deem and Ramdas Pophale) SiO2 
 PCOD8125228
Probable space group: P 21/C
;
_chemical_formula_sum "Si O2"
_cell_formula_units_Z 24
_cell_length_a 9.193980
_cell_length_b 14.496700
_cell_length_c 15.795331
_cell_angle_alpha 90.000000
_cell_angle_beta 36.275063
_cell_angle_gamma 90.000000
_cell_volume 1245.590755
_symmetry_space_group_name_H-M "P 21/C"
_symmetry_group_IT_number 14
_symmetry_cell_setting 'monoclinic'
loop_
_space_group_symop_operation_xyz
x,y,z
-x,1/2+y,1/2-z
-x,-y,-z
x,1/2-y,1/2+z
loop_
_atom_site_type_symbol
_atom_site_label
_atom_site_fract_x
_atom_site_fract_y
_atom_site_fract_z
Si Si1 0.643745 0.432344 0.872678
Si Si2 0.216596 0.049749 0.850296
Si Si3 0.467211 0.440476 0.401420
Si Si4 0.947524 0.686780 0.707385
Si Si5 0.893591 0.493471 0.296861
Si Si6 0.523862 0.259386 0.486586
O O1 0.659209 0.477428 0.772540
O O2 0.915045 0.422429 0.788766
O O3 0.500000 0.500000 0.000000
O O4 0.531905 0.330471 0.922241
O O5 0.420851 0.076991 0.824541
O O6 0.119187 0.143894 0.853205
O O7 0.000000 0.000000 0.000000
O O8 0.724183 0.496613 0.292777
O O9 0.262368 0.504167 0.542124
O O10 0.490208 0.345285 0.441088
O O11 0.719182 0.753744 0.839782
O O12 0.954329 0.602460 0.771429
O O13 0.219716 0.734449 0.579859
#
# Coordination Sequence:
#
# PCOD8125228 Si02
#       6
#     4   4   4   4   4   4
#     4  11  20  39  64  85 124 168 206 252 316 376
#     4  11  21  41  63  91 124 166 210 258 318 380
#     4  10  20  37  63  91 123 162 212 257 307 380
#     4  10  21  38  64  90 124 165 215 255 316 378
#     4   9  18  37  61  86 118 166 207 240 317 388
#     4  11  22  40  63  93 124 168 215 262 312 381
#
# _framework density 19.267966999999999
#
# number of rings (size 3 to 8) (size 9 to 14) (size 15 to 20)
#    0.000    1.667    6.667    1.000    0.000    0.000 
#    3.000    0.833    0.000    0.000    0.000    0.000 
#    0.000    0.000    0.000    0.000    0.000    0.000 
#
# Total GULP energy -297315.785248 kJ/mol
# GULP energy per Si atom -12388.157719 kJ/mol
# Density = 1.922411 g / cm^3
# Si number density = 19.267967 Si / 1000 Ang^3
#
#
#
# Elastic Constant Matrix: (Units=GPa)
#
#
# Indices 1 2 3 4 5 6 
#
# 1 156.3207 31.1624 58.7598 0.0000 2.3995 0.0000
# 2 31.1624 68.2762 23.9047 0.0000 5.1741 0.0000
# 3 58.7598 23.9047 91.0426 0.0000 -5.0282 0.0000
# 4 0.0000 0.0000 0.0000 35.0041 0.0000 -2.4653
# 5 2.3995 5.1741 -5.0282 0.0000 34.6016 0.0000
# 6 0.0000 0.0000 0.0000 -2.4653 0.0000 30.1260
#
#
#
# Elastic Compliance Matrix: (Units=1/GPa)
#
#
# Indices 1 2 3 4 5 6 
#
# 1 0.008777 -0.002118 -0.005166 0.000000 -0.001043 0.000000
# 2 -0.002118 0.016966 -0.003246 0.000000 -0.002862 0.000000
# 3 -0.005166 -0.003246 0.015340 0.000000 0.003073 0.000000
# 4 0.000000 0.000000 0.000000 0.028734 0.000000 0.002351
# 5 -0.001043 -0.002862 0.003073 0.000000 0.029847 0.000000
# 6 0.000000 0.000000 0.000000 0.002351 0.000000 0.033386
#
#
# Mechanical properties :
#
#
# Convention : Reuss Voigt Hill
#
# Bulk Modulus (GPa) = 49.94185 60.36593 55.15389
# Shear Modulus (GPa) = 31.09712 33.40051 32.24881
#
# Velocity S-wave (km/s) = 4.02173 4.16802 4.09553
# Velocity P-wave (km/s) = 6.89505 7.38653 7.14502
#
# Compressibility (1/GPa) = 0.02002329
#
# Stress axis : x y z
#
# Youngs Moduli (GPa) = 113.92878 58.93978 65.18795
#
# Poissons Ratio (x) = 0.12485 0.33679
# Poissons Ratio (y) = 0.24133 0.21158
# Poissons Ratio (z) = 0.58860 0.19130
#
# Static dielectric constant tensor:
#      x y z
#    x 3.802520 0.000000 -0.467450 
#    y 0.000000 3.650430 0.000000 
#    z -0.467450 0.000000 3.716920 
# 
# 
# High freq. dielectric constant tensor:
#      x y z
#    x 1.746270 0.000000 -0.031410 
#    y 0.000000 1.748530 0.000000 
#    z -0.031410 0.000000 1.736850 
# 
# From -- ./inp_files/41532.got.cif
#   From: 2010.03.12/outbox.cif.g09.slc.cpg/sg14_21_cif.got.tgz:41532.got - 2010.03.31 13:35:05.
