data_PCOD8125069
_publ_section_title
;
Structure prediction by ZEFSAII (Michael W. Deem and Ramdas Pophale) SiO2 
 PCOD8125069
Probable space group: P 21/C
;
_chemical_formula_sum "Si O2"
_cell_formula_units_Z 28
_cell_length_a 8.744901
_cell_length_b 8.831311
_cell_length_c 28.039168
_cell_angle_alpha 90.000000
_cell_angle_beta 137.369806
_cell_angle_gamma 90.000000
_cell_volume 1466.570868
_symmetry_space_group_name_H-M "P 21/C"
_symmetry_group_IT_number 14
_symmetry_cell_setting 'monoclinic'
loop_
_space_group_symop_operation_xyz
x,y,z
-x,1/2+y,1/2-z
-x,-y,-z
x,1/2-y,1/2+z
loop_
_atom_site_type_symbol
_atom_site_label
_atom_site_fract_x
_atom_site_fract_y
_atom_site_fract_z
Si Si1 0.189937 0.014197 0.691994
Si Si2 0.347048 0.453340 0.755005
Si Si3 0.012066 0.195628 0.829431
Si Si4 0.917093 0.788831 0.886102
Si Si5 0.746605 0.550742 0.432352
Si Si6 0.354246 0.319501 0.320362
Si Si7 0.267137 0.031613 0.969469
O O1 0.435699 0.990771 0.726213
O O2 0.053625 0.864500 0.672215
O O3 0.054738 0.111404 0.620399
O O4 0.208224 0.096857 0.746823
O O5 0.212463 0.605773 0.739559
O O6 0.178656 0.358140 0.684173
O O7 0.410891 0.351939 0.815970
O O8 0.206626 0.187727 0.834497
O O9 0.101208 0.130444 0.899665
O O10 0.742717 0.820643 0.890197
O O11 0.154980 0.866557 0.953362
O O12 0.588105 0.408933 0.381934
O O13 0.673129 0.616947 0.466932
O O14 0.000000 0.500000 0.500000
O O15 0.500000 0.000000 0.000000
#
# Coordination Sequence:
#
# PCOD8125069 Si02
#       7
#     4   4   4   4   4   4   4
#     4  11  22  38  61  87 124 154 194 256 308 359
#     4  10  21  35  59  87 116 154 196 242 305 362
#     4  11  22  38  59  90 121 154 201 249 309 357
#     4   9  20  37  57  87 112 150 201 242 291 363
#     4  10  20  36  62  82 117 156 204 238 291 358
#     4  11  21  37  60  90 118 155 198 256 302 357
#     4  10  20  38  62  83 113 161 202 243 296 363
#
# _framework density 19.092157
#
# number of rings (size 3 to 8) (size 9 to 14) (size 15 to 20)
#    0.000    1.714    2.857    2.571    4.000    0.000 
#    0.000    2.857    0.000    0.000    0.000    0.000 
#    0.000    0.000    0.000    0.000    0.000    0.000 
#
# Total GULP energy -346937.948438 kJ/mol
# GULP energy per Si atom -12390.641016 kJ/mol
# Density = 1.904870 g / cm^3
# Si number density = 19.092157 Si / 1000 Ang^3
#
#
#
# Elastic Constant Matrix: (Units=GPa)
#
#
# Indices 1 2 3 4 5 6 
#
# 1 126.5161 53.5176 35.9361 0.0000 -8.6143 0.0000
# 2 53.5176 128.6313 46.0099 0.0000 -6.4840 0.0000
# 3 35.9361 46.0099 74.3477 0.0000 -8.1029 0.0000
# 4 0.0000 0.0000 0.0000 22.6795 0.0000 -7.2701
# 5 -8.6143 -6.4840 -8.1029 0.0000 34.3885 0.0000
# 6 0.0000 0.0000 0.0000 -7.2701 0.0000 31.6818
#
#
#
# Elastic Compliance Matrix: (Units=1/GPa)
#
#
# Indices 1 2 3 4 5 6 
#
# 1 0.010117 -0.003141 -0.002807 0.000000 0.001281 0.000000
# 2 -0.003141 0.010966 -0.005264 0.000000 0.000041 0.000000
# 3 -0.002807 -0.005264 0.018351 0.000000 0.002628 0.000000
# 4 0.000000 0.000000 0.000000 0.047594 0.000000 0.010921
# 5 0.001281 0.000041 0.002628 0.000000 0.030027 0.000000
# 6 0.000000 0.000000 0.000000 0.010921 0.000000 0.034070
#
#
# Mechanical properties :
#
#
# Convention : Reuss Voigt Hill
#
# Bulk Modulus (GPa) = 58.78469 66.71357 62.74913
# Shear Modulus (GPa) = 27.89905 30.68538 29.29221
#
# Velocity S-wave (km/s) = 3.82682 4.01337 3.92120
# Velocity P-wave (km/s) = 7.09809 7.51631 7.31019
#
# Compressibility (1/GPa) = 0.01701123
#
# Stress axis : x y z
#
# Youngs Moduli (GPa) = 98.84166 91.19398 54.49333
#
# Poissons Ratio (x) = 0.28642 0.15296
# Poissons Ratio (y) = 0.31043 0.28683
# Poissons Ratio (z) = 0.27744 0.48001
#
# Static dielectric constant tensor:
#      x y z
#    x 3.762520 0.000000 -0.223980 
#    y 0.000000 3.679270 0.000000 
#    z -0.223980 0.000000 3.582890 
# 
# 
# High freq. dielectric constant tensor:
#      x y z
#    x 1.759980 0.000000 -0.010020 
#    y 0.000000 1.724830 0.000000 
#    z -0.010020 0.000000 1.736140 
# 
# From -- ./inp_files/54800.got.cif
#   From: 2010.03.12/outbox.cif.g09.slc.cpg/sg14_28_cif.got.tgz:54800.got - 2010.03.31 13:35:05.
