data_PCOD8125240
_publ_section_title
;
Structure prediction by ZEFSAII (Michael W. Deem and Ramdas Pophale) SiO2 
 PCOD8125240
Probable space group: P 21/C
;
_chemical_formula_sum "Si O2"
_cell_formula_units_Z 32
_cell_length_a 22.992856
_cell_length_b 8.430137
_cell_length_c 14.434808
_cell_angle_alpha 90.000000
_cell_angle_beta 146.414549
_cell_angle_gamma 90.000000
_cell_volume 1547.765125
_symmetry_space_group_name_H-M "P 21/C"
_symmetry_group_IT_number 14
_symmetry_cell_setting 'monoclinic'
loop_
_space_group_symop_operation_xyz
x,y,z
-x,1/2+y,1/2-z
-x,-y,-z
x,1/2-y,1/2+z
loop_
_atom_site_type_symbol
_atom_site_label
_atom_site_fract_x
_atom_site_fract_y
_atom_site_fract_z
Si Si1 0.184522 0.179989 0.677281
Si Si2 0.404857 0.101388 0.193629
Si Si3 0.738716 0.401905 0.597266
Si Si4 0.139570 0.649062 0.424376
Si Si5 0.638478 0.400293 0.999464
Si Si6 0.226222 0.352324 0.909979
Si Si7 0.917634 0.518363 0.122469
Si Si8 0.688903 0.559252 0.247815
O O1 0.157345 0.304815 0.725463
O O2 0.092021 0.101220 0.492425
O O3 0.256730 0.271825 0.699531
O O4 0.240291 0.031588 0.797756
O O5 0.520437 0.148342 0.310811
O O6 0.404480 0.090372 0.303859
O O7 0.308043 0.212599 0.035900
O O8 0.370274 0.935027 0.102634
O O9 0.831850 0.370250 0.646649
O O10 0.712156 0.247292 0.621520
O O11 0.230541 0.576051 0.609631
O O12 0.039137 0.537268 0.310904
O O13 0.116543 0.833132 0.420561
O O14 0.701340 0.492591 0.003029
O O15 0.628412 0.508546 0.075758
O O16 0.148101 0.379156 0.890805
#
# Coordination Sequence:
#
# PCOD8125240 Si02
#       8
#     4   4   4   4   4   4   4   4
#     4  10  22  40  66  89 127 166 203 258 307 371
#     4  10  20  37  64  85 125 165 203 251 313 364
#     4  10  22  40  59  93 126 156 208 261 302 369
#     4  11  25  41  67  90 123 165 206 260 314 371
#     4  11  20  38  60  92 121 164 207 253 310 365
#     4  10  22  40  63  91 128 162 207 262 306 373
#     4  12  23  44  65  90 125 168 208 255 324 369
#     4  10  21  40  60  91 122 161 206 258 303 371
#
# _framework density 20.674973000000001
#
# number of rings (size 3 to 8) (size 9 to 14) (size 15 to 20)
#    0.000    1.500    2.500    2.625    3.500    0.500 
#    2.250    2.500    0.000    0.000    0.000    0.000 
#    0.000    0.000    0.000    0.000    0.000    0.000 
#
# Total GULP energy -396437.896603 kJ/mol
# GULP energy per Si atom -12388.684269 kJ/mol
# Density = 2.062792 g / cm^3
# Si number density = 20.674973 Si / 1000 Ang^3
#
#
#
# Elastic Constant Matrix: (Units=GPa)
#
#
# Indices 1 2 3 4 5 6 
#
# 1 71.8381 36.6369 38.4189 0.0000 2.6583 0.0000
# 2 36.6369 87.2110 9.5516 0.0000 11.8370 0.0000
# 3 38.4189 9.5516 60.7455 0.0000 11.8541 0.0000
# 4 0.0000 0.0000 0.0000 21.1560 0.0000 0.8313
# 5 2.6583 11.8370 11.8541 0.0000 30.4944 0.0000
# 6 0.0000 0.0000 0.0000 0.8313 0.0000 26.9905
#
#
#
# Elastic Compliance Matrix: (Units=1/GPa)
#
#
# Indices 1 2 3 4 5 6 
#
# 1 0.029406 -0.011561 -0.018564 0.000000 0.009140 0.000000
# 2 -0.011561 0.016713 0.006225 0.000000 -0.007900 0.000000
# 3 -0.018564 0.006225 0.029627 0.000000 -0.012315 0.000000
# 4 0.000000 0.000000 0.000000 0.047325 0.000000 -0.001458
# 5 0.009140 -0.007900 -0.012315 0.000000 0.039850 0.000000
# 6 0.000000 0.000000 0.000000 -0.001458 0.000000 0.037095
#
#
# Mechanical properties :
#
#
# Convention : Reuss Voigt Hill
#
# Bulk Modulus (GPa) = 35.78071 43.22327 39.50199
# Shear Modulus (GPa) = 19.44539 24.74066 22.09303
#
# Velocity S-wave (km/s) = 3.07013 3.46301 3.27247
# Velocity P-wave (km/s) = 5.46914 6.07794 5.78156
#
# Compressibility (1/GPa) = 0.02794802
#
# Stress axis : x y z
#
# Youngs Moduli (GPa) = 34.00716 59.83210 33.75282
#
# Poissons Ratio (x) = 0.69170 0.62657
# Poissons Ratio (y) = 0.39314 -0.21012
# Poissons Ratio (z) = 0.63130 -0.37246
#
# Static dielectric constant tensor:
#      x y z
#    x 3.778680 0.000000 -0.180700 
#    y 0.000000 4.020590 0.000000 
#    z -0.180700 0.000000 3.631160 
# 
# 
# High freq. dielectric constant tensor:
#      x y z
#    x 1.809410 0.000000 -0.009190 
#    y 0.000000 1.823020 0.000000 
#    z -0.009190 0.000000 1.795660 
# 
# From -- ./inp_files/51396.got.cif
#   From: 2010.03.12/outbox.cif.g09.slc.cpg/sg14_26_cif.got.tgz:51396.got - 2010.03.31 13:35:05.
