data_PCOD8125483
_publ_section_title
;
Structure prediction by ZEFSAII (Michael W. Deem and Ramdas Pophale) SiO2 
 PCOD8125483
Probable space group: P 21/C
;
_chemical_formula_sum "Si O2"
_cell_formula_units_Z 28
_cell_length_a 6.453852
_cell_length_b 13.361396
_cell_length_c 18.766339
_cell_angle_alpha 90.000000
_cell_angle_beta 58.502986
_cell_angle_gamma 90.000000
_cell_volume 1379.844194
_symmetry_space_group_name_H-M "P 21/C"
_symmetry_group_IT_number 14
_symmetry_cell_setting 'monoclinic'
loop_
_space_group_symop_operation_xyz
x,y,z
-x,1/2+y,1/2-z
-x,-y,-z
x,1/2-y,1/2+z
loop_
_atom_site_type_symbol
_atom_site_label
_atom_site_fract_x
_atom_site_fract_y
_atom_site_fract_z
Si Si1 0.378117 0.419734 0.202160
Si Si2 0.668029 0.063361 0.023462
Si Si3 0.185864 0.402740 0.389129
Si Si4 0.485165 0.294307 0.833192
Si Si5 0.089832 0.596859 0.187974
Si Si6 0.156788 0.032864 0.406383
Si Si7 0.609099 0.690866 0.314745
O O1 0.271432 0.442793 0.298406
O O2 0.224371 0.494022 0.181237
O O3 0.669531 0.441677 0.151844
O O4 0.328049 0.307469 0.183608
O O5 0.547757 0.153483 0.090147
O O6 0.763646 0.985273 0.062487
O O7 0.894066 0.115402 0.940987
O O8 0.500000 0.000000 0.000000
O O9 0.348316 0.306496 0.377993
O O10 0.748120 0.304092 0.823748
O O11 0.335781 0.380531 0.899496
O O12 0.512154 0.314403 0.742811
O O13 0.024585 0.583296 0.117457
O O14 0.842024 0.617999 0.275364
O O15 0.000000 0.000000 0.500000
#
# Coordination Sequence:
#
# PCOD8125483 Si02
#       7
#     4   4   4   4   4   4   4
#     4  10  22  40  62  89 119 165 210 253 311 373
#     4  11  23  38  60  92 127 162 204 262 317 373
#     4  10  22  40  59  87 124 162 203 259 309 372
#     4   9  21  39  62  86 119 164 207 253 309 375
#     4  10  20  39  63  88 119 161 209 247 313 372
#     4  10  22  38  59  87 123 156 196 267 308 362
#     4  10  22  39  62  91 122 163 206 258 307 373
#
# _framework density 20.292144
#
# number of rings (size 3 to 8) (size 9 to 14) (size 15 to 20)
#    0.000    2.000    0.000    3.429    2.000   10.286 
#    2.571    0.000    0.000    0.000    0.000    0.000 
#    0.000    0.000    0.000    0.000    0.000    0.000 
#
# Total GULP energy -346911.930017 kJ/mol
# GULP energy per Si atom -12389.711786 kJ/mol
# Density = 2.024596 g / cm^3
# Si number density = 20.292144 Si / 1000 Ang^3
#
#
#
# Elastic Constant Matrix: (Units=GPa)
#
#
# Indices 1 2 3 4 5 6 
#
# 1 104.8926 28.2514 45.8588 0.0000 -14.3318 0.0000
# 2 28.2514 85.3318 30.9364 0.0000 -3.4359 0.0000
# 3 45.8588 30.9364 141.4797 0.0000 -23.5315 0.0000
# 4 0.0000 0.0000 0.0000 31.0570 0.0000 -3.8501
# 5 -14.3318 -3.4359 -23.5315 0.0000 17.4621 0.0000
# 6 0.0000 0.0000 0.0000 -3.8501 0.0000 31.8257
#
#
#
# Elastic Compliance Matrix: (Units=1/GPa)
#
#
# Indices 1 2 3 4 5 6 
#
# 1 0.012185 -0.002966 -0.002236 0.000000 0.006404 0.000000
# 2 -0.002966 0.013485 -0.002514 0.000000 -0.003169 0.000000
# 3 -0.002236 -0.002514 0.010253 0.000000 0.011487 0.000000
# 4 0.000000 0.000000 0.000000 0.032689 0.000000 0.003955
# 5 0.006404 -0.003169 0.011487 0.000000 0.077379 0.000000
# 6 0.000000 0.000000 0.000000 0.003955 0.000000 0.031900
#
#
# Mechanical properties :
#
#
# Convention : Reuss Voigt Hill
#
# Bulk Modulus (GPa) = 48.80223 60.19971 54.50097
# Shear Modulus (GPa) = 24.98085 31.17945 28.08015
#
# Velocity S-wave (km/s) = 3.51245 3.92411 3.72397
# Velocity P-wave (km/s) = 6.36803 7.08960 6.73848
#
# Compressibility (1/GPa) = 0.02049087
#
# Stress axis : x y z
#
# Youngs Moduli (GPa) = 82.06907 74.15747 97.52919
#
# Poissons Ratio (x) = 0.21992 0.21807
# Poissons Ratio (y) = 0.24339 0.24523
# Poissons Ratio (z) = 0.18350 0.18647
#
# Static dielectric constant tensor:
#      x y z
#    x 4.369950 0.000000 -0.054140 
#    y 0.000000 3.384620 0.000000 
#    z -0.054140 0.000000 4.170610 
# 
# 
# High freq. dielectric constant tensor:
#      x y z
#    x 1.795950 0.000000 -0.011440 
#    y 0.000000 1.798910 0.000000 
#    z -0.011440 0.000000 1.789400 
# 
# From -- ./inp_files/53403.got.cif
#   From: 2010.03.12/outbox.cif.g09.slc.cpg/sg14_27_cif.got.tgz:53403.got - 2010.03.31 13:35:05.
