data_PCOD8125737
_publ_section_title
;
Structure prediction by ZEFSAII (Michael W. Deem and Ramdas Pophale) SiO2 
 PCOD8125737
Probable space group: P 21/C
;
_chemical_formula_sum "Si O2"
_cell_formula_units_Z 32
_cell_length_a 22.978925
_cell_length_b 9.212716
_cell_length_c 17.573819
_cell_angle_alpha 90.000000
_cell_angle_beta 155.337487
_cell_angle_gamma 90.000000
_cell_volume 1552.399093
_symmetry_space_group_name_H-M "P 21/C"
_symmetry_group_IT_number 14
_symmetry_cell_setting 'monoclinic'
loop_
_space_group_symop_operation_xyz
x,y,z
-x,1/2+y,1/2-z
-x,-y,-z
x,1/2-y,1/2+z
loop_
_atom_site_type_symbol
_atom_site_label
_atom_site_fract_x
_atom_site_fract_y
_atom_site_fract_z
Si Si1 0.624126 0.591010 0.116630
Si Si2 0.528693 0.382504 0.596548
Si Si3 0.139451 0.828208 0.325791
Si Si4 0.386206 0.020938 0.564046
Si Si5 0.115410 0.997192 0.797015
Si Si6 0.393237 0.358077 0.593751
Si Si7 0.877736 0.499599 0.512910
Si Si8 0.854162 0.177706 0.491239
O O1 0.750249 0.587500 0.325347
O O2 0.500000 0.500000 0.000000
O O3 0.568003 0.751428 0.042994
O O4 0.666706 0.527151 0.085213
O O5 0.500000 0.500000 0.500000
O O6 0.479857 0.419821 0.624057
O O7 0.693674 0.359316 0.788390
O O8 0.139350 0.664983 0.291497
O O9 0.108814 0.806517 0.377279
O O10 0.281068 0.917258 0.484469
O O11 0.014695 0.922619 0.142661
O O12 0.400953 0.184363 0.614264
O O13 0.536624 0.941417 0.750876
O O14 0.134380 0.004007 0.910405
O O15 0.962862 0.056522 0.588624
O O16 0.231441 0.099039 0.896002
O O17 0.881419 0.334811 0.485815
#
# Coordination Sequence:
#
# PCOD8125737 Si02
#       8
#     4   4   4   4   4   4   4   4
#     4  11  23  40  61  91 121 167 204 254 312 371
#     4  11  25  41  64  90 130 159 205 255 315 370
#     4  10  21  39  64  93 120 163 208 256 305 365
#     4  11  23  39  64  89 127 159 210 256 309 365
#     4  10  22  38  68  93 122 162 210 254 307 363
#     4  11  23  41  63  93 124 162 206 260 300 373
#     4  10  21  39  64  88 128 157 209 254 308 364
#     4  10  20  42  61  92 125 161 204 257 303 368
#
# _framework density 20.613256
#
# number of rings (size 3 to 8) (size 9 to 14) (size 15 to 20)
#    0.000    1.500    2.500    2.250    5.250    4.500 
#    0.000    0.625    0.000    0.000    0.000    0.000 
#    0.000    0.000    0.000    0.000    0.000    0.000 
#
# Total GULP energy -396673.204962 kJ/mol
# GULP energy per Si atom -12396.037655 kJ/mol
# Density = 2.056634 g / cm^3
# Si number density = 20.613256 Si / 1000 Ang^3
#
#
#
# Elastic Constant Matrix: (Units=GPa)
#
#
# Indices 1 2 3 4 5 6 
#
# 1 44.5247 41.1807 25.5888 0.0000 7.7097 0.0000
# 2 41.1807 125.1395 51.9580 0.0000 10.5156 0.0000
# 3 25.5888 51.9580 134.8847 0.0000 14.4031 0.0000
# 4 0.0000 0.0000 0.0000 38.3991 0.0000 5.4864
# 5 7.7097 10.5156 14.4031 0.0000 31.5490 0.0000
# 6 0.0000 0.0000 0.0000 5.4864 0.0000 31.5044
#
#
#
# Elastic Compliance Matrix: (Units=1/GPa)
#
#
# Indices 1 2 3 4 5 6 
#
# 1 0.033416 -0.009771 -0.002156 0.000000 -0.003925 0.000000
# 2 -0.009771 0.012445 -0.002893 0.000000 -0.000439 0.000000
# 3 -0.002156 -0.002893 0.009228 0.000000 -0.002722 0.000000
# 4 0.000000 0.000000 0.000000 0.026707 0.000000 -0.004651
# 5 -0.003925 -0.000439 -0.002722 0.000000 0.034045 0.000000
# 6 0.000000 0.000000 0.000000 -0.004651 0.000000 0.032552
#
#
# Mechanical properties :
#
#
# Convention : Reuss Voigt Hill
#
# Bulk Modulus (GPa) = 39.29748 60.22266 49.76007
# Shear Modulus (GPa) = 26.80748 32.67860 29.74304
#
# Velocity S-wave (km/s) = 3.61015 3.98593 3.80268
# Velocity P-wave (km/s) = 6.04013 7.10369 6.59339
#
# Compressibility (1/GPa) = 0.02544693
#
# Stress axis : x y z
#
# Youngs Moduli (GPa) = 29.92601 80.35505 108.36757
#
# Poissons Ratio (x) = 0.78518 0.23367
# Poissons Ratio (y) = 0.29242 0.31352
# Poissons Ratio (z) = 0.06453 0.23248
#
# Static dielectric constant tensor:
#      x y z
#    x 1.296910 0.000000 1.474680 
#    y 0.000000 3.908950 0.000000 
#    z 1.474680 0.000000 2.874340 
# 
# 
# High freq. dielectric constant tensor:
#      x y z
#    x 1.781820 0.000000 0.012260 
#    y 0.000000 1.819770 0.000000 
#    z 0.012260 0.000000 1.817810 
# 
# From -- ./inp_files/70517.got.cif
#   From: 2010.03.12/outbox.cif.g09.slc.cpg/sg14_36_cif.got.tgz:70517.got - 2010.03.31 13:35:05.
