data_PCOD8125714
_publ_section_title
;
Structure prediction by ZEFSAII (Michael W. Deem and Ramdas Pophale) SiO2 
 PCOD8125714
Probable space group: P 21/C
;
_chemical_formula_sum "Si O2"
_cell_formula_units_Z 32
_cell_length_a 8.233265
_cell_length_b 26.459905
_cell_length_c 11.701479
_cell_angle_alpha 90.000000
_cell_angle_beta 34.345877
_cell_angle_gamma 90.000000
_cell_volume 1438.217141
_symmetry_space_group_name_H-M "P 21/C"
_symmetry_group_IT_number 14
_symmetry_cell_setting 'monoclinic'
loop_
_space_group_symop_operation_xyz
x,y,z
-x,1/2+y,1/2-z
-x,-y,-z
x,1/2-y,1/2+z
loop_
_atom_site_type_symbol
_atom_site_label
_atom_site_fract_x
_atom_site_fract_y
_atom_site_fract_z
Si Si1 0.492807 0.331057 0.084419
Si Si2 0.454234 0.026881 0.756345
Si Si3 0.530692 0.594630 0.545872
Si Si4 0.856533 0.423033 0.860711
Si Si5 0.609442 0.699451 0.611212
Si Si6 0.887035 0.354657 0.381159
Si Si7 0.160028 0.927044 0.898717
Si Si8 0.835931 0.256410 0.280862
O O1 0.364658 0.301436 0.267722
O O2 0.232629 0.358362 0.167743
O O3 0.724965 0.372087 0.992502
O O4 0.643420 0.292078 0.913922
O O5 0.697684 0.030602 0.516315
O O6 0.383853 0.968136 0.818890
O O7 0.571980 0.052268 0.804492
O O8 0.164366 0.055420 0.884062
O O9 0.667140 0.643339 0.530196
O O10 0.258424 0.607914 0.626056
O O11 0.801095 0.573141 0.315222
O O12 0.787923 0.422102 0.765865
O O13 0.289394 0.716886 0.759954
O O14 0.837193 0.739456 0.428214
O O15 0.789212 0.373608 0.564656
O O16 0.804305 0.296107 0.405158
#
# Coordination Sequence:
#
# PCOD8125714 Si02
#       8
#     4   4   4   4   4   4   4   4
#     4  12  23  40  66  88 125 169 209 262 320 382
#     4  10  20  41  67  97 128 177 213 264 323 384
#     4  10  22  41  64  92 134 164 214 264 320 379
#     4  11  20  40  67  94 125 174 218 258 314 389
#     4  11  23  41  60  90 123 164 208 263 316 383
#     4  11  24  45  60  95 131 168 210 271 321 380
#     4  10  22  39  68  98 133 167 219 267 319 387
#     4  11  25  41  62  90 124 164 212 258 326 381
#
# _framework density 22.249770999999999
#
# number of rings (size 3 to 8) (size 9 to 14) (size 15 to 20)
#    0.000    1.250    5.000    1.125    1.750    0.500 
#    2.250    0.625    0.000    0.000    0.000    0.000 
#    0.000    0.000    0.000    0.000    0.000    0.000 
#
# Total GULP energy -396776.676185 kJ/mol
# GULP energy per Si atom -12399.271131 kJ/mol
# Density = 2.219913 g / cm^3
# Si number density = 22.249771 Si / 1000 Ang^3
#
#
#
# Elastic Constant Matrix: (Units=GPa)
#
#
# Indices 1 2 3 4 5 6 
#
# 1 80.3363 8.2847 30.3365 0.0000 -6.5569 0.0000
# 2 8.2847 66.5682 16.1682 0.0000 -1.0823 0.0000
# 3 30.3365 16.1682 87.1903 0.0000 4.2703 0.0000
# 4 0.0000 0.0000 0.0000 27.1971 0.0000 3.3960
# 5 -6.5569 -1.0823 4.2703 0.0000 19.6110 0.0000
# 6 0.0000 0.0000 0.0000 3.3960 0.0000 33.4207
#
#
#
# Elastic Compliance Matrix: (Units=1/GPa)
#
#
# Indices 1 2 3 4 5 6 
#
# 1 0.015062 -0.000447 -0.005461 0.000000 0.006201 0.000000
# 2 -0.000447 0.015789 -0.002838 0.000000 0.001340 0.000000
# 3 -0.005461 -0.002838 0.014144 0.000000 -0.005062 0.000000
# 4 0.000000 0.000000 0.000000 0.037241 0.000000 -0.003784
# 5 0.006201 0.001340 -0.005062 0.000000 0.054241 0.000000
# 6 0.000000 0.000000 0.000000 -0.003784 0.000000 0.030306
#
#
# Mechanical properties :
#
#
# Convention : Reuss Voigt Hill
#
# Bulk Modulus (GPa) = 36.36146 38.18596 37.27371
# Shear Modulus (GPa) = 25.84737 27.99946 26.92341
#
# Velocity S-wave (km/s) = 3.41206 3.55126 3.48236
# Velocity P-wave (km/s) = 5.64807 5.83223 5.74089
#
# Compressibility (1/GPa) = 0.02750165
#
# Stress axis : x y z
#
# Youngs Moduli (GPa) = 66.39137 63.33571 70.70366
#
# Poissons Ratio (x) = 0.02833 0.38614
# Poissons Ratio (y) = 0.02970 0.20064
# Poissons Ratio (z) = 0.36259 0.17973
#
# Static dielectric constant tensor:
#      x y z
#    x 3.837960 0.000000 -0.092840 
#    y 0.000000 4.092340 0.000000 
#    z -0.092840 0.000000 3.869210 
# 
# 
# High freq. dielectric constant tensor:
#      x y z
#    x 1.865500 0.000000 -0.004740 
#    y 0.000000 1.876660 0.000000 
#    z -0.004740 0.000000 1.865160 
# 
# From -- ./inp_files/27148.got.cif
#   From: 2010.03.12/outbox.cif.g09.slc.cpg/sg14_14_cif.got.tgz:27148.got - 2010.03.31 13:35:05.
