data_PCOD8125418
_publ_section_title
;
Structure prediction by ZEFSAII (Michael W. Deem and Ramdas Pophale) SiO2 
 PCOD8125418
Probable space group: P 21/C
;
_chemical_formula_sum "Si O2"
_cell_formula_units_Z 20
_cell_length_a 14.777023
_cell_length_b 5.081254
_cell_length_c 13.106224
_cell_angle_alpha 90.000000
_cell_angle_beta 100.082295
_cell_angle_gamma 90.000000
_cell_volume 968.894403
_symmetry_space_group_name_H-M "P 21/C"
_symmetry_group_IT_number 14
_symmetry_cell_setting 'monoclinic'
loop_
_space_group_symop_operation_xyz
x,y,z
-x,1/2+y,1/2-z
-x,-y,-z
x,1/2-y,1/2+z
loop_
_atom_site_type_symbol
_atom_site_label
_atom_site_fract_x
_atom_site_fract_y
_atom_site_fract_z
Si Si1 0.113131 0.010671 0.817084
Si Si2 0.024826 0.984430 0.387663
Si Si3 0.485333 0.678458 0.899674
Si Si4 0.384926 0.059132 0.208166
Si Si5 0.314115 0.926475 0.788395
O O1 0.067983 0.801069 0.883048
O O2 0.219135 0.932203 0.829594
O O3 0.068393 0.990916 0.696167
O O4 0.098042 0.295183 0.865787
O O5 0.000000 0.000000 0.500000
O O6 0.573893 0.867297 0.895380
O O7 0.474309 0.481062 0.800258
O O8 0.393482 0.860041 0.888582
O O9 0.500000 0.500000 0.000000
O O10 0.322753 0.293294 0.237585
O O11 0.320489 0.798246 0.199869
#
# Coordination Sequence:
#
# PCOD8125418 Si02
#       5
#     4   4   4   4   4
#     4  10  21  39  64  88 124 154 195 257 294 354
#     4  10  21  40  64  88 120 161 195 240 314 365
#     4  10  21  39  62  82 123 164 197 245 306 353
#     4  10  20  39  56  84 122 155 199 245 289 358
#     4  10  20  39  58  85 124 149 201 252 287 351
#
# _framework density 20.642084000000001
#
# number of rings (size 3 to 8) (size 9 to 14) (size 15 to 20)
#    1.200    0.800    2.000    1.800    0.000    0.800 
#    3.600    0.000    0.000    0.000    0.000    0.000 
#    0.000    0.000    0.000    0.000    0.000    0.000 
#
# Total GULP energy -247847.347408 kJ/mol
# GULP energy per Si atom -12392.367370 kJ/mol
# Density = 2.059510 g / cm^3
# Si number density = 20.642084 Si / 1000 Ang^3
#
#
#
# Elastic Constant Matrix: (Units=GPa)
#
#
# Indices 1 2 3 4 5 6 
#
# 1 89.6333 9.3258 22.7688 0.0000 -17.7261 0.0000
# 2 9.3258 102.2668 15.0573 0.0000 -1.8983 0.0000
# 3 22.7688 15.0573 92.5969 0.0000 -12.8809 0.0000
# 4 0.0000 0.0000 0.0000 27.0017 0.0000 -6.8469
# 5 -17.7261 -1.8983 -12.8809 0.0000 15.0489 0.0000
# 6 0.0000 0.0000 0.0000 -6.8469 0.0000 26.6895
#
#
#
# Elastic Compliance Matrix: (Units=1/GPa)
#
#
# Indices 1 2 3 4 5 6 
#
# 1 0.014770 -0.000864 -0.001233 0.000000 0.016233 0.000000
# 2 -0.000864 0.010069 -0.001578 0.000000 -0.001098 0.000000
# 3 -0.001233 -0.001578 0.012634 0.000000 0.009162 0.000000
# 4 0.000000 0.000000 0.000000 0.039611 0.000000 0.010162
# 5 0.016233 -0.001098 0.009162 0.000000 0.093275 0.000000
# 6 0.000000 0.000000 0.000000 0.010162 0.000000 0.040075
#
#
# Mechanical properties :
#
#
# Convention : Reuss Voigt Hill
#
# Bulk Modulus (GPa) = 33.19692 42.08896 37.64294
# Shear Modulus (GPa) = 21.94669 29.57102 25.75886
#
# Velocity S-wave (km/s) = 3.26421 3.78902 3.53637
# Velocity P-wave (km/s) = 5.50671 6.29098 5.91186
#
# Compressibility (1/GPa) = 0.03012327
#
# Stress axis : x y z
#
# Youngs Moduli (GPa) = 67.70483 99.31442 79.15271
#
# Poissons Ratio (x) = 0.08581 0.09761
# Poissons Ratio (y) = 0.05850 0.12487
# Poissons Ratio (z) = 0.08349 0.15668
#
# Static dielectric constant tensor:
#      x y z
#    x 3.553230 0.000000 -0.073100 
#    y 0.000000 4.046100 0.000000 
#    z -0.073100 0.000000 3.358070 
# 
# 
# High freq. dielectric constant tensor:
#      x y z
#    x 1.789360 0.000000 -0.023150 
#    y 0.000000 1.832630 0.000000 
#    z -0.023150 0.000000 1.779930 
# 
# From -- ./inp_files/31071.got.cif
#   From: 2010.03.12/outbox.cif.g09.slc.cpg/sg14_16_cif.got.tgz:31071.got - 2010.03.31 13:35:05.
