data_PCOD8125530
_publ_section_title
;
Structure prediction by ZEFSAII (Michael W. Deem and Ramdas Pophale) SiO2 
 PCOD8125530
Probable space group: P 21/C
;
_chemical_formula_sum "Si O2"
_cell_formula_units_Z 32
_cell_length_a 20.395908
_cell_length_b 8.863166
_cell_length_c 14.568486
_cell_angle_alpha 90.000000
_cell_angle_beta 39.369673
_cell_angle_gamma 90.000000
_cell_volume 1670.535542
_symmetry_space_group_name_H-M "P 21/C"
_symmetry_group_IT_number 14
_symmetry_cell_setting 'monoclinic'
loop_
_space_group_symop_operation_xyz
x,y,z
-x,1/2+y,1/2-z
-x,-y,-z
x,1/2-y,1/2+z
loop_
_atom_site_type_symbol
_atom_site_label
_atom_site_fract_x
_atom_site_fract_y
_atom_site_fract_z
Si Si1 0.794501 0.523234 0.103157
Si Si2 0.290363 0.729946 0.391070
Si Si3 0.880115 0.287916 0.140758
Si Si4 0.535715 0.165624 0.443366
Si Si5 0.338303 0.694344 0.540175
Si Si6 0.914960 0.096525 0.926764
Si Si7 0.964832 0.754706 0.363626
Si Si8 0.602021 0.918822 0.926258
O O1 0.763216 0.392174 0.065622
O O2 0.865682 0.448167 0.105243
O O3 0.688870 0.594926 0.254416
O O4 0.856033 0.658524 0.988651
O O5 0.366606 0.685000 0.227617
O O6 0.352039 0.732488 0.419067
O O7 0.200346 0.604440 0.490422
O O8 0.770158 0.241616 0.304114
O O9 0.962439 0.308446 0.132118
O O10 0.916281 0.158720 0.029834
O O11 0.567053 0.229304 0.508887
O O12 0.436546 0.251439 0.505955
O O13 0.500000 0.000000 0.500000
O O14 0.348866 0.512518 0.542243
O O15 0.988691 0.201870 0.785229
O O16 0.951574 0.924558 0.883734
O O17 0.500000 0.000000 0.000000
#
# Coordination Sequence:
#
# PCOD8125530 Si02
#       8
#     4   4   4   4   4   4   4   4
#     4  10  21  38  64  89 120 160 202 250 303 364
#     4  11  21  41  63  86 128 162 197 252 309 359
#     4  10  20  41  63  86 122 166 200 250 308 359
#     4  11  23  40  64  91 122 157 204 258 302 358
#     4  10  20  39  66  84 121 163 199 246 308 363
#     4  11  23  40  59  90 124 162 205 253 306 358
#     4  12  24  38  64  91 122 164 206 252 303 374
#     4   9  18  40  62  83 116 159 196 240 306 354
#
# _framework density 19.155533999999999
#
# number of rings (size 3 to 8) (size 9 to 14) (size 15 to 20)
#    0.000    1.500    6.250    2.250    1.750    1.000 
#    0.000    1.250    0.000    0.000    0.000    0.000 
#    0.000    0.000    0.000    0.000    0.000    0.000 
#
# Total GULP energy -396683.353214 kJ/mol
# GULP energy per Si atom -12396.354788 kJ/mol
# Density = 1.911193 g / cm^3
# Si number density = 19.155534 Si / 1000 Ang^3
#
#
#
# Elastic Constant Matrix: (Units=GPa)
#
#
# Indices 1 2 3 4 5 6 
#
# 1 81.2866 21.1730 39.5118 0.0000 4.5096 0.0000
# 2 21.1730 110.4565 46.0631 0.0000 -10.3387 0.0000
# 3 39.5118 46.0631 80.0486 0.0000 -14.3329 0.0000
# 4 0.0000 0.0000 0.0000 33.1313 0.0000 -8.4675
# 5 4.5096 -10.3387 -14.3329 0.0000 28.9722 0.0000
# 6 0.0000 0.0000 0.0000 -8.4675 0.0000 17.2829
#
#
#
# Elastic Compliance Matrix: (Units=1/GPa)
#
#
# Indices 1 2 3 4 5 6 
#
# 1 0.017638 0.000136 -0.010168 0.000000 -0.007727 0.000000
# 2 0.000136 0.011936 -0.006777 0.000000 0.000886 0.000000
# 3 -0.010168 -0.006777 0.023328 0.000000 0.010705 0.000000
# 4 0.000000 0.000000 0.000000 0.034503 0.000000 0.016904
# 5 -0.007727 0.000886 0.010705 0.000000 0.041330 0.000000
# 6 0.000000 0.000000 0.000000 0.016904 0.000000 0.066143
#
#
# Mechanical properties :
#
#
# Convention : Reuss Voigt Hill
#
# Bulk Modulus (GPa) = 51.85645 53.92082 52.88863
# Shear Modulus (GPa) = 21.28349 26.88023 24.08186
#
# Velocity S-wave (km/s) = 3.33692 3.75008 3.54951
# Velocity P-wave (km/s) = 6.47894 6.85280 6.66849
#
# Compressibility (1/GPa) = 0.01928400
#
# Stress axis : x y z
#
# Youngs Moduli (GPa) = 56.69672 83.77704 42.86726
#
# Poissons Ratio (x) = -0.01140 0.43586
# Poissons Ratio (y) = -0.00771 0.29052
# Poissons Ratio (z) = 0.57648 0.56778
#
# Static dielectric constant tensor:
#      x y z
#    x 3.373120 0.000000 0.020610 
#    y 0.000000 3.142070 0.000000 
#    z 0.020610 0.000000 3.595820 
# 
# 
# High freq. dielectric constant tensor:
#      x y z
#    x 1.735570 0.000000 -0.007660 
#    y 0.000000 1.736020 0.000000 
#    z -0.007660 0.000000 1.755840 
# 
# From -- ./inp_files/50084.got.cif
#   From: 2010.03.12/outbox.cif.g09.slc.cpg/sg14_26_cif.got.tgz:50084.got - 2010.03.31 13:35:05.
