data_PCOD8125260
_publ_section_title
;
Structure prediction by ZEFSAII (Michael W. Deem and Ramdas Pophale) SiO2 
 PCOD8125260
Probable space group: P 21/C
;
_chemical_formula_sum "Si O2"
_cell_formula_units_Z 32
_cell_length_a 8.489071
_cell_length_b 31.863485
_cell_length_c 10.836774
_cell_angle_alpha 90.000000
_cell_angle_beta 28.582199
_cell_angle_gamma 90.000000
_cell_volume 1402.367788
_symmetry_space_group_name_H-M "P 21/C"
_symmetry_group_IT_number 14
_symmetry_cell_setting 'monoclinic'
loop_
_space_group_symop_operation_xyz
x,y,z
-x,1/2+y,1/2-z
-x,-y,-z
x,1/2-y,1/2+z
loop_
_atom_site_type_symbol
_atom_site_label
_atom_site_fract_x
_atom_site_fract_y
_atom_site_fract_z
Si Si1 0.406136 0.876672 0.021907
Si Si2 0.073835 0.910763 0.495967
Si Si3 0.828829 0.137207 0.078171
Si Si4 0.521013 0.345495 0.161922
Si Si5 0.396643 0.203091 0.974363
Si Si6 0.699293 0.209320 0.331412
Si Si7 0.296500 0.554089 0.221146
Si Si8 0.447060 0.468644 0.219760
O O1 0.679775 0.910476 0.785959
O O2 0.591811 0.833431 0.930669
O O3 0.164016 0.866935 0.074431
O O4 0.183611 0.894189 0.285941
O O5 0.250754 0.955623 0.397038
O O6 0.201871 0.880926 0.520058
O O7 0.174739 0.130363 0.911621
O O8 0.717210 0.185000 0.188266
O O9 0.610428 0.099708 0.287247
O O10 0.599443 0.312312 0.216405
O O11 0.471616 0.320930 0.068704
O O12 0.030412 0.212996 0.182994
O O13 0.556769 0.244780 0.917039
O O14 0.446932 0.519119 0.210428
O O15 0.901365 0.546833 0.484090
O O16 0.485173 0.551043 0.961710
#
# Coordination Sequence:
#
# PCOD8125260 Si02
#       8
#     4   4   4   4   4   4   4   4
#     4  11  26  41  64  92 134 170 212 262 322 388
#     4  11  21  43  65  92 128 173 213 257 321 384
#     4  11  25  41  62  96 125 172 213 268 322 384
#     4  10  22  40  64  86 121 168 215 261 316 380
#     4  10  25  40  58  92 118 169 214 262 322 377
#     4  11  24  41  65  84 127 165 216 271 316 381
#     4  10  21  37  65 101 128 162 219 268 316 379
#     4  10  20  37  68  97 128 166 213 271 312 381
#
# _framework density 22.818550999999999
#
# number of rings (size 3 to 8) (size 9 to 14) (size 15 to 20)
#    0.000    1.500    2.500    1.500    7.000    2.000 
#    0.000    1.250    0.000    0.000    0.000    0.000 
#    0.000    0.000    0.000    0.000    0.000    0.000 
#
# Total GULP energy -396554.817059 kJ/mol
# GULP energy per Si atom -12392.338033 kJ/mol
# Density = 2.276661 g / cm^3
# Si number density = 22.818551 Si / 1000 Ang^3
#
#
#
# Elastic Constant Matrix: (Units=GPa)
#
#
# Indices 1 2 3 4 5 6 
#
# 1 77.4924 5.3932 -0.7934 0.0000 8.1470 0.0000
# 2 5.3932 56.1364 -4.1863 0.0000 -6.6859 0.0000
# 3 -0.7934 -4.1863 70.1001 0.0000 9.2449 0.0000
# 4 0.0000 0.0000 0.0000 25.4727 0.0000 -0.9987
# 5 8.1470 -6.6859 9.2449 0.0000 20.2441 0.0000
# 6 0.0000 0.0000 0.0000 -0.9987 0.0000 16.6352
#
#
#
# Elastic Compliance Matrix: (Units=1/GPa)
#
#
# Indices 1 2 3 4 5 6 
#
# 1 0.013752 -0.002042 0.000907 0.000000 -0.006623 0.000000
# 2 -0.002042 0.018853 0.000184 0.000000 0.006964 0.000000
# 3 0.000907 0.000184 0.015245 0.000000 -0.007266 0.000000
# 4 0.000000 0.000000 0.000000 0.039350 0.000000 0.002362
# 5 -0.006623 0.006964 -0.007266 0.000000 0.057681 0.000000
# 6 0.000000 0.000000 0.000000 0.002362 0.000000 0.060255
#
#
# Mechanical properties :
#
#
# Convention : Reuss Voigt Hill
#
# Bulk Modulus (GPa) = 21.76355 22.72844 22.24599
# Shear Modulus (GPa) = 22.48657 26.02475 24.25566
#
# Velocity S-wave (km/s) = 3.14260 3.38081 3.26387
# Velocity P-wave (km/s) = 4.76720 5.02214 4.89633
#
# Compressibility (1/GPa) = 0.04594838
#
# Stress axis : x y z
#
# Youngs Moduli (GPa) = 72.71540 53.04145 65.59585
#
# Poissons Ratio (x) = 0.10833 -0.05951
# Poissons Ratio (y) = 0.14852 -0.01209
# Poissons Ratio (z) = -0.06596 -0.00978
#
# Static dielectric constant tensor:
#      x y z
#    x 3.954110 0.000000 0.058170 
#    y 0.000000 4.193970 0.000000 
#    z 0.058170 0.000000 4.029810 
# 
# 
# High freq. dielectric constant tensor:
#      x y z
#    x 1.890790 0.000000 0.006440 
#    y 0.000000 1.901680 0.000000 
#    z 0.006440 0.000000 1.896470 
# 
# From -- ./inp_files/27174.got.cif
#   From: 2010.03.12/outbox.cif.g09.slc.cpg/sg14_14_cif.got.tgz:27174.got - 2010.03.31 13:35:05.
