data_PCOD8125246
_publ_section_title
;
Structure prediction by ZEFSAII (Michael W. Deem and Ramdas Pophale) SiO2 
 PCOD8125246
Probable space group: P 21/C
;
_chemical_formula_sum "Si O2"
_cell_formula_units_Z 28
_cell_length_a 9.408647
_cell_length_b 15.042485
_cell_length_c 13.214886
_cell_angle_alpha 90.000000
_cell_angle_beta 46.638770
_cell_angle_gamma 90.000000
_cell_volume 1359.778434
_symmetry_space_group_name_H-M "P 21/C"
_symmetry_group_IT_number 14
_symmetry_cell_setting 'monoclinic'
loop_
_space_group_symop_operation_xyz
x,y,z
-x,1/2+y,1/2-z
-x,-y,-z
x,1/2-y,1/2+z
loop_
_atom_site_type_symbol
_atom_site_label
_atom_site_fract_x
_atom_site_fract_y
_atom_site_fract_z
Si Si1 0.129891 0.868410 0.852296
Si Si2 0.817149 0.967260 0.890446
Si Si3 0.591965 0.477080 0.321045
Si Si4 0.386916 0.143417 0.575387
Si Si5 0.981002 0.354646 0.361604
Si Si6 0.484425 0.017337 0.360684
Si Si7 0.315362 0.782570 0.141602
O O1 0.294559 0.945325 0.763062
O O2 0.218047 0.774298 0.778130
O O3 0.943988 0.884689 0.868661
O O4 0.045956 0.860155 0.005444
O O5 0.724923 0.955099 0.823029
O O6 0.966633 0.048732 0.818484
O O7 0.638209 0.994086 0.051301
O O8 0.634266 0.500533 0.184569
O O9 0.633662 0.376149 0.332832
O O10 0.353348 0.087289 0.488189
O O11 0.494542 0.234624 0.495250
O O12 0.195986 0.177931 0.726413
O O13 0.511756 0.078345 0.586652
O O14 0.824232 0.289714 0.387452
#
# Coordination Sequence:
#
# PCOD8125246 Si02
#       7
#     4   4   4   4   4   4   4
#     4  11  21  41  65  91 117 172 212 250 311 389
#     4  10  20  37  65  89 118 159 215 254 297 378
#     4  10  21  39  62  95 124 159 206 266 311 366
#     4  10  22  40  63  92 126 163 208 262 309 377
#     4  11  21  41  62  91 123 166 211 257 305 380
#     4  10  20  40  69  89 119 163 214 255 314 369
#     4  10  26  39  57  94 137 155 207 264 319 360
#
# _framework density 20.591591000000001
#
# number of rings (size 3 to 8) (size 9 to 14) (size 15 to 20)
#    0.000    1.714    2.857    1.286    4.000    0.000 
#    0.000    4.286    0.000    0.000    0.000    0.000 
#    0.000    0.000    0.000    0.000    0.000    0.000 
#
# Total GULP energy -347099.262442 kJ/mol
# GULP energy per Si atom -12396.402230 kJ/mol
# Density = 2.054472 g / cm^3
# Si number density = 20.591591 Si / 1000 Ang^3
#
#
#
# Elastic Constant Matrix: (Units=GPa)
#
#
# Indices 1 2 3 4 5 6 
#
# 1 103.9905 35.5788 43.9425 0.0000 18.6980 0.0000
# 2 35.5788 58.1997 26.8958 0.0000 4.9576 0.0000
# 3 43.9425 26.8958 120.3324 0.0000 10.7808 0.0000
# 4 0.0000 0.0000 0.0000 19.4219 0.0000 3.5889
# 5 18.6980 4.9576 10.7808 0.0000 36.9190 0.0000
# 6 0.0000 0.0000 0.0000 3.5889 0.0000 22.0728
#
#
#
# Elastic Compliance Matrix: (Units=1/GPa)
#
#
# Indices 1 2 3 4 5 6 
#
# 1 0.014257 -0.006774 -0.003211 0.000000 -0.005373 0.000000
# 2 -0.006774 0.022447 -0.002650 0.000000 0.001190 0.000000
# 3 -0.003211 -0.002650 0.010163 0.000000 -0.000986 0.000000
# 4 0.000000 0.000000 0.000000 0.053083 0.000000 -0.008631
# 5 -0.005373 0.001190 -0.000986 0.000000 0.029936 0.000000
# 6 0.000000 0.000000 0.000000 -0.008631 0.000000 0.046708
#
#
# Mechanical properties :
#
#
# Convention : Reuss Voigt Hill
#
# Bulk Modulus (GPa) = 46.30227 55.03963 50.67095
# Shear Modulus (GPa) = 23.91634 27.42312 25.66973
#
# Velocity S-wave (km/s) = 3.41172 3.65329 3.53457
# Velocity P-wave (km/s) = 6.16884 6.67702 6.42795
#
# Compressibility (1/GPa) = 0.02159721
#
# Stress axis : x y z
#
# Youngs Moduli (GPa) = 70.14225 44.55029 98.39180
#
# Poissons Ratio (x) = 0.30178 0.31591
# Poissons Ratio (y) = 0.47514 0.26074
# Poissons Ratio (z) = 0.22521 0.11806
#
# Static dielectric constant tensor:
#      x y z
#    x 3.773550 0.000000 0.052040 
#    y 0.000000 3.611570 0.000000 
#    z 0.052040 0.000000 3.728240 
# 
# 
# High freq. dielectric constant tensor:
#      x y z
#    x 1.804890 0.000000 0.004800 
#    y 0.000000 1.795320 0.000000 
#    z 0.004800 0.000000 1.805720 
# 
# From -- ./inp_files/41157.got.cif
#   From: 2010.03.12/outbox.cif.g09.slc.cpg/sg14_21_cif.got.tgz:41157.got - 2010.03.31 13:35:05.
