data_PCOD8125379
_publ_section_title
;
Structure prediction by ZEFSAII (Michael W. Deem and Ramdas Pophale) SiO2 
 PCOD8125379
Probable space group: P 21/C
;
_chemical_formula_sum "Si O2"
_cell_formula_units_Z 28
_cell_length_a 9.163033
_cell_length_b 11.289052
_cell_length_c 17.795215
_cell_angle_alpha 90.000000
_cell_angle_beta 52.130563
_cell_angle_gamma 90.000000
_cell_volume 1453.126737
_symmetry_space_group_name_H-M "P 21/C"
_symmetry_group_IT_number 14
_symmetry_cell_setting 'monoclinic'
loop_
_space_group_symop_operation_xyz
x,y,z
-x,1/2+y,1/2-z
-x,-y,-z
x,1/2-y,1/2+z
loop_
_atom_site_type_symbol
_atom_site_label
_atom_site_fract_x
_atom_site_fract_y
_atom_site_fract_z
Si Si1 0.349541 0.708926 0.568310
Si Si2 0.488422 0.377711 0.095217
Si Si3 0.224896 0.057841 0.546630
Si Si4 0.009401 0.630439 0.191791
Si Si5 0.271313 0.299203 0.465500
Si Si6 0.098779 0.490080 0.622298
Si Si7 0.225552 0.333142 0.306170
O O1 0.415306 0.758376 0.466529
O O2 0.199944 0.800466 0.649455
O O3 0.518844 0.702610 0.572066
O O4 0.266747 0.579809 0.582894
O O5 0.314640 0.409665 0.098120
O O6 0.416216 0.358024 0.202118
O O7 0.633177 0.485392 0.050502
O O8 0.168421 0.176256 0.519871
O O9 0.044896 0.980102 0.624132
O O10 0.923113 0.588396 0.296789
O O11 0.864047 0.714362 0.197360
O O12 0.152929 0.405806 0.536759
O O13 0.278691 0.314489 0.374790
O O14 0.911176 0.556210 0.659987
#
# Coordination Sequence:
#
# PCOD8125379 Si02
#       7
#     4   4   4   4   4   4   4
#     4   9  21  39  62  85 112 159 202 233 284 358
#     4   9  17  38  61  80 112 157 196 233 278 357
#     4   9  18  36  62  82 110 154 199 232 281 352
#     4  10  20  38  64  87 110 156 206 234 281 355
#     4  11  23  38  56  91 123 150 188 247 303 339
#     4  11  22  39  63  86 118 159 196 241 286 354
#     4  11  23  38  58  90 120 150 192 250 300 336
#
# _framework density 19.268794
#
# number of rings (size 3 to 8) (size 9 to 14) (size 15 to 20)
#    0.000    2.000    1.429    3.429    2.000    0.571 
#    5.143    4.286    0.000    0.000    0.000    0.000 
#    0.000    0.000    0.000    0.000    0.000    0.000 
#
# Total GULP energy -347279.759896 kJ/mol
# GULP energy per Si atom -12402.848568 kJ/mol
# Density = 1.922494 g / cm^3
# Si number density = 19.268794 Si / 1000 Ang^3
#
#
#
# Elastic Constant Matrix: (Units=GPa)
#
#
# Indices 1 2 3 4 5 6 
#
# 1 41.7594 21.4775 15.8626 0.0000 13.4410 0.0000
# 2 21.4775 101.5642 38.8897 0.0000 12.7387 0.0000
# 3 15.8626 38.8897 73.2217 0.0000 28.1668 0.0000
# 4 0.0000 0.0000 0.0000 33.2903 0.0000 -2.8423
# 5 13.4410 12.7387 28.1668 0.0000 24.9092 0.0000
# 6 0.0000 0.0000 0.0000 -2.8423 0.0000 17.3759
#
#
#
# Elastic Compliance Matrix: (Units=1/GPa)
#
#
# Indices 1 2 3 4 5 6 
#
# 1 0.031261 -0.005514 0.002762 0.000000 -0.017171 0.000000
# 2 -0.005514 0.013386 -0.007834 0.000000 0.004988 0.000000
# 3 0.002762 -0.007834 0.028763 0.000000 -0.030009 0.000000
# 4 0.000000 0.000000 0.000000 0.030464 0.000000 0.004983
# 5 -0.017171 0.004988 -0.030009 0.000000 0.080794 0.000000
# 6 0.000000 0.000000 0.000000 0.004983 0.000000 0.058366
#
#
# Mechanical properties :
#
#
# Convention : Reuss Voigt Hill
#
# Bulk Modulus (GPa) = 19.14337 41.00055 30.07196
# Shear Modulus (GPa) = 17.75445 24.46945 21.11195
#
# Velocity S-wave (km/s) = 3.03877 3.56743 3.31366
# Velocity P-wave (km/s) = 4.71896 6.18815 5.50281
#
# Compressibility (1/GPa) = 0.05223741
#
# Stress axis : x y z
#
# Youngs Moduli (GPa) = 31.98920 74.70430 34.76649
#
# Poissons Ratio (x) = 0.41196 -0.09603
# Poissons Ratio (y) = 0.17640 0.27236
# Poissons Ratio (z) = -0.08836 0.58522
#
# Static dielectric constant tensor:
#      x y z
#    x 3.222310 0.000000 -0.196050 
#    y 0.000000 3.815090 0.000000 
#    z -0.196050 0.000000 3.549950 
# 
# 
# High freq. dielectric constant tensor:
#      x y z
#    x 1.718420 0.000000 -0.014520 
#    y 0.000000 1.769280 0.000000 
#    z -0.014520 0.000000 1.755230 
# 
# From -- ./inp_files/40222.got.cif
#   From: 2010.03.12/outbox.cif.g09.slc.cpg/sg14_21_cif.got.tgz:40222.got - 2010.03.31 13:35:05.
