data_PCOD8125641
_publ_section_title
;
Structure prediction by ZEFSAII (Michael W. Deem and Ramdas Pophale) SiO2 
 PCOD8125641
Probable space group: P 21/C
;
_chemical_formula_sum "Si O2"
_cell_formula_units_Z 24
_cell_length_a 7.571570
_cell_length_b 30.707375
_cell_length_c 8.880847
_cell_angle_alpha 90.000000
_cell_angle_beta 34.187048
_cell_angle_gamma 90.000000
_cell_volume 1160.217122
_symmetry_space_group_name_H-M "P 21/C"
_symmetry_group_IT_number 14
_symmetry_cell_setting 'monoclinic'
loop_
_space_group_symop_operation_xyz
x,y,z
-x,1/2+y,1/2-z
-x,-y,-z
x,1/2-y,1/2+z
loop_
_atom_site_type_symbol
_atom_site_label
_atom_site_fract_x
_atom_site_fract_y
_atom_site_fract_z
Si Si1 0.359449 0.724624 0.677335
Si Si2 0.422048 0.153304 0.748594
Si Si3 0.048979 0.220641 0.823839
Si Si4 0.909776 0.405924 0.734883
Si Si5 0.950677 0.497175 0.860529
Si Si6 0.729520 0.469012 0.628500
O O1 0.390506 0.686197 0.776113
O O2 0.150407 0.708657 0.684034
O O3 0.701310 0.740829 0.382965
O O4 0.187192 0.764726 0.878750
O O5 0.658951 0.123757 0.491585
O O6 0.217732 0.177749 0.766438
O O7 0.220660 0.122370 0.997553
O O8 0.989028 0.447536 0.781299
O O9 0.782612 0.420867 0.659533
O O10 0.213404 0.528162 0.592547
O O11 0.601077 0.514265 0.075806
O O12 0.000000 0.500000 0.000000
O O13 0.000000 0.500000 0.500000
#
# Coordination Sequence:
#
# PCOD8125641 Si02
#       6
#     4   4   4   4   4   4
#     4  12  23  43  69  92 126 170 223 257 316 395
#     4  12  24  41  66  96 134 163 212 279 322 364
#     4  12  23  43  69  93 122 175 218 260 315 397
#     4  11  23  42  63  93 130 163 207 268 327 363
#     4  11  22  41  68  94 125 167 215 257 310 394
#     4  10  20  40  67  86 119 173 207 239 310 395
#
# _framework density 20.685782
#
# number of rings (size 3 to 8) (size 9 to 14) (size 15 to 20)
#    0.000    0.667    3.333    7.500    0.000    0.000 
#    9.000    0.000    0.000    0.000    0.000    0.000 
#    0.000    0.000    0.000    0.000    0.000    0.000 
#
# Total GULP energy -297610.303201 kJ/mol
# GULP energy per Si atom -12400.429300 kJ/mol
# Density = 2.063870 g / cm^3
# Si number density = 20.685782 Si / 1000 Ang^3
#
#
#
# Elastic Constant Matrix: (Units=GPa)
#
#
# Indices 1 2 3 4 5 6 
#
# 1 120.0924 32.4277 19.4811 0.0000 16.0646 0.0000
# 2 32.4277 89.0364 41.9292 0.0000 2.2940 0.0000
# 3 19.4811 41.9292 124.7908 0.0000 3.0957 0.0000
# 4 0.0000 0.0000 0.0000 45.9306 0.0000 4.4129
# 5 16.0646 2.2940 3.0957 0.0000 39.0388 0.0000
# 6 0.0000 0.0000 0.0000 4.4129 0.0000 28.9266
#
#
#
# Elastic Compliance Matrix: (Units=1/GPa)
#
#
# Indices 1 2 3 4 5 6 
#
# 1 0.009783 -0.003315 -0.000319 0.000000 -0.003806 0.000000
# 2 -0.003315 0.014473 -0.004367 0.000000 0.000860 0.000000
# 3 -0.000319 -0.004367 0.009540 0.000000 -0.000369 0.000000
# 4 0.000000 0.000000 0.000000 0.022096 0.000000 -0.003371
# 5 -0.003806 0.000860 -0.000369 0.000000 0.027160 0.000000
# 6 0.000000 0.000000 0.000000 -0.003371 0.000000 0.035085
#
#
# Mechanical properties :
#
#
# Convention : Reuss Voigt Hill
#
# Bulk Modulus (GPa) = 56.19772 57.95506 57.07639
# Shear Modulus (GPa) = 35.69696 38.78464 37.24080
#
# Velocity S-wave (km/s) = 4.15863 4.33476 4.24761
# Velocity P-wave (km/s) = 7.09121 7.28911 7.19084
#
# Compressibility (1/GPa) = 0.01779432
#
# Stress axis : x y z
#
# Youngs Moduli (GPa) = 102.22045 69.09519 104.82674
#
# Poissons Ratio (x) = 0.22903 0.03345
# Poissons Ratio (y) = 0.33882 0.45774
# Poissons Ratio (z) = 0.03262 0.30172
#
# Static dielectric constant tensor:
#      x y z
#    x 3.967130 0.000000 0.191820 
#    y 0.000000 3.755760 0.000000 
#    z 0.191820 0.000000 6.507380 
# 
# 
# High freq. dielectric constant tensor:
#      x y z
#    x 1.809960 0.000000 0.003930 
#    y 0.000000 1.797680 0.000000 
#    z 0.003930 0.000000 1.840860 
# 
# From -- ./inp_files/11289.got.cif
#   From: 2010.03.12/outbox.cif.g09.slc.cpg/sg14_6_cif.got.tgz:11289.got - 2010.03.31 13:35:05.
