data_PCOD8125769
_publ_section_title
;
Structure prediction by ZEFSAII (Michael W. Deem and Ramdas Pophale) SiO2 
 PCOD8125769
Probable space group: P 21/C
;
_chemical_formula_sum "Si O2"
_cell_formula_units_Z 20
_cell_length_a 7.930129
_cell_length_b 18.635388
_cell_length_c 7.647748
_cell_angle_alpha 90.000000
_cell_angle_beta 58.848721
_cell_angle_gamma 90.000000
_cell_volume 967.223415
_symmetry_space_group_name_H-M "P 21/C"
_symmetry_group_IT_number 14
_symmetry_cell_setting 'monoclinic'
loop_
_space_group_symop_operation_xyz
x,y,z
-x,1/2+y,1/2-z
-x,-y,-z
x,1/2-y,1/2+z
loop_
_atom_site_type_symbol
_atom_site_label
_atom_site_fract_x
_atom_site_fract_y
_atom_site_fract_z
Si Si1 0.227541 0.672657 0.881146
Si Si2 0.006370 0.887559 0.202705
Si Si3 0.389516 0.065581 0.472628
Si Si4 0.738996 0.172982 0.239639
Si Si5 0.315145 0.973590 0.204275
O O1 0.037546 0.665294 0.854172
O O2 0.333265 0.747457 0.776308
O O3 0.368636 0.603681 0.767115
O O4 0.168743 0.671540 0.116083
O O5 0.127334 0.961938 0.176498
O O6 0.773451 0.902024 0.307450
O O7 0.087586 0.852670 0.981903
O O8 0.544471 0.124880 0.327280
O O9 0.500000 0.000000 0.500000
O O10 0.266908 0.034583 0.372976
O O11 0.500000 0.000000 0.000000
#
# Coordination Sequence:
#
# PCOD8125769 Si02
#       5
#     4   4   4   4   4
#     4  10  22  43  67  92 137 176 222 281 325 398
#     4  10  24  42  66  94 134 173 219 272 335 389
#     4  12  23  43  67 102 133 172 228 269 337 398
#     4  12  22  45  66  94 136 178 223 277 333 397
#     4  10  20  42  67  96 133 174 217 283 328 388
#
# _framework density 20.677745999999999
#
# number of rings (size 3 to 8) (size 9 to 14) (size 15 to 20)
#    1.200    0.000    6.000    0.600    0.000    0.800 
#    7.200    0.000    0.000    0.000    0.000    0.000 
#    0.000    0.000    0.000    0.000    0.000    0.000 
#
# Total GULP energy -247823.438925 kJ/mol
# GULP energy per Si atom -12391.171946 kJ/mol
# Density = 2.063068 g / cm^3
# Si number density = 20.677746 Si / 1000 Ang^3
#
#
#
# Elastic Constant Matrix: (Units=GPa)
#
#
# Indices 1 2 3 4 5 6 
#
# 1 69.7511 35.8049 52.9151 0.0000 12.4866 0.0000
# 2 35.8049 137.6784 73.0065 0.0000 -8.3955 0.0000
# 3 52.9151 73.0065 158.6279 0.0000 6.7326 0.0000
# 4 0.0000 0.0000 0.0000 39.7955 0.0000 6.9038
# 5 12.4866 -8.3955 6.7326 0.0000 42.2851 0.0000
# 6 0.0000 0.0000 0.0000 6.9038 0.0000 27.0817
#
#
#
# Elastic Compliance Matrix: (Units=1/GPa)
#
#
# Indices 1 2 3 4 5 6 
#
# 1 0.021013 -0.002968 -0.005392 0.000000 -0.005936 0.000000
# 2 -0.002968 0.010327 -0.003913 0.000000 0.003550 0.000000
# 3 -0.005392 -0.003913 0.009936 0.000000 -0.000767 0.000000
# 4 0.000000 0.000000 0.000000 0.026291 0.000000 -0.006702
# 5 -0.005936 0.003550 -0.000767 0.000000 0.026229 0.000000
# 6 0.000000 0.000000 0.000000 -0.006702 0.000000 0.038634
#
#
# Mechanical properties :
#
#
# Convention : Reuss Voigt Hill
#
# Bulk Modulus (GPa) = 59.77156 76.61224 68.19190
# Shear Modulus (GPa) = 30.75934 35.45452 33.10693
#
# Velocity S-wave (km/s) = 3.86107 4.14529 4.00570
# Velocity P-wave (km/s) = 6.98900 7.74869 7.37863
#
# Compressibility (1/GPa) = 0.01673036
#
# Stress axis : x y z
#
# Youngs Moduli (GPa) = 47.58973 96.83635 100.64066
#
# Poissons Ratio (x) = 0.28736 0.54263
# Poissons Ratio (y) = 0.14122 0.39386
# Poissons Ratio (z) = 0.25659 0.37897
#
# Static dielectric constant tensor:
#      x y z
#    x 3.599650 0.000000 0.387530 
#    y 0.000000 4.097380 0.000000 
#    z 0.387530 0.000000 3.710500 
# 
# 
# High freq. dielectric constant tensor:
#      x y z
#    x 1.785870 0.000000 0.026100 
#    y 0.000000 1.816310 0.000000 
#    z 0.026100 0.000000 1.806080 
# 
# From -- ./inp_files/9805.got.cif
#   From: 2010.03.12/outbox.cif.g09.slc.cpg/sg14_5_cif.got.tgz:9805.got - 2010.03.31 13:35:05.
