data_PCOD8125535
_publ_section_title
;
Structure prediction by ZEFSAII (Michael W. Deem and Ramdas Pophale) SiO2 
 PCOD8125535
Probable space group: P 21/C
;
_chemical_formula_sum "Si O2"
_cell_formula_units_Z 32
_cell_length_a 20.786937
_cell_length_b 8.309700
_cell_length_c 26.185455
_cell_angle_alpha 90.000000
_cell_angle_beta 160.803987
_cell_angle_gamma 90.000000
_cell_volume 1487.198734
_symmetry_space_group_name_H-M "P 21/C"
_symmetry_group_IT_number 14
_symmetry_cell_setting 'monoclinic'
loop_
_space_group_symop_operation_xyz
x,y,z
-x,1/2+y,1/2-z
-x,-y,-z
x,1/2-y,1/2+z
loop_
_atom_site_type_symbol
_atom_site_label
_atom_site_fract_x
_atom_site_fract_y
_atom_site_fract_z
Si Si1 0.457077 0.902579 0.372355
Si Si2 0.837449 0.083330 0.673028
Si Si3 0.144753 0.456455 0.153765
Si Si4 0.550858 0.066251 0.190075
Si Si5 0.830313 0.542447 0.411456
Si Si6 0.814795 0.153560 0.070395
Si Si7 0.151811 0.733769 0.015589
Si Si8 0.885445 0.272570 0.317261
O O1 0.505364 0.737801 0.377722
O O2 0.292040 0.871422 0.290847
O O3 0.648487 0.972850 0.542507
O O4 0.374718 0.044667 0.272821
O O5 0.787221 0.218701 0.594402
O O6 0.907779 0.175207 0.776079
O O7 0.003924 0.960657 0.779751
O O8 0.354452 0.449926 0.282870
O O9 0.154982 0.584794 0.207606
O O10 0.000000 0.500000 0.000000
O O11 0.066926 0.297638 0.124361
O O12 0.696716 0.102911 0.347205
O O13 0.368438 0.966444 0.074279
O O14 0.796293 0.412412 0.429856
O O15 0.000000 0.500000 0.500000
O O16 0.904002 0.702201 0.495711
O O17 0.848070 0.265309 0.045470
#
# Coordination Sequence:
#
# PCOD8125535 Si02
#       8
#     4   4   4   4   4   4   4   4
#     4   9  20  40  67  94 127 163 218 274 321 386
#     4  12  26  43  61  89 135 179 215 255 326 399
#     4   9  19  39  67  98 125 159 211 278 326 373
#     4   9  21  44  64  94 131 163 219 272 329 380
#     4   9  17  35  66  97 122 156 206 277 322 365
#     4  12  27  44  61  93 135 185 214 263 329 401
#     4  10  21  40  66  97 126 163 219 271 321 379
#     4  10  20  39  66  97 127 164 219 270 325 380
#
# _framework density 21.516964000000002
#
# number of rings (size 3 to 8) (size 9 to 14) (size 15 to 20)
#    0.000    2.000    1.250    3.375    1.750    6.000 
#    6.750    1.250    0.000    0.000    0.000    0.000 
#    0.000    0.000    0.000    0.000    0.000    0.000 
#
# Total GULP energy -396432.013947 kJ/mol
# GULP energy per Si atom -12388.500436 kJ/mol
# Density = 2.146799 g / cm^3
# Si number density = 21.516964 Si / 1000 Ang^3
#
#
#
# Elastic Constant Matrix: (Units=GPa)
#
#
# Indices 1 2 3 4 5 6 
#
# 1 84.2880 26.3518 10.5561 0.0000 -7.1617 0.0000
# 2 26.3518 58.4168 24.5190 0.0000 2.4351 0.0000
# 3 10.5561 24.5190 75.2056 0.0000 8.8183 0.0000
# 4 0.0000 0.0000 0.0000 36.7512 0.0000 3.7099
# 5 -7.1617 2.4351 8.8183 0.0000 29.0551 0.0000
# 6 0.0000 0.0000 0.0000 3.7099 0.0000 36.9845
#
#
#
# Elastic Compliance Matrix: (Units=1/GPa)
#
#
# Indices 1 2 3 4 5 6 
#
# 1 0.014286 -0.006455 -0.000391 0.000000 0.004181 0.000000
# 2 -0.006455 0.022751 -0.006326 0.000000 -0.001578 0.000000
# 3 -0.000391 -0.006326 0.015930 0.000000 -0.004401 0.000000
# 4 0.000000 0.000000 0.000000 0.027488 0.000000 -0.002757
# 5 0.004181 -0.001578 -0.004401 0.000000 0.036916 0.000000
# 6 0.000000 0.000000 0.000000 -0.002757 0.000000 0.027315
#
#
# Mechanical properties :
#
#
# Convention : Reuss Voigt Hill
#
# Bulk Modulus (GPa) = 37.56101 37.86270 37.71185
# Shear Modulus (GPa) = 27.79225 30.99039 29.39132
#
# Velocity S-wave (km/s) = 3.59784 3.79922 3.69990
# Velocity P-wave (km/s) = 5.89522 6.07291 5.98473
#
# Compressibility (1/GPa) = 0.02662335
#
# Stress axis : x y z
#
# Youngs Moduli (GPa) = 69.99708 43.95374 62.77289
#
# Poissons Ratio (x) = 0.28371 0.02455
# Poissons Ratio (y) = 0.45181 0.39713
# Poissons Ratio (z) = 0.02738 0.27807
#
# Static dielectric constant tensor:
#      x y z
#    x 3.901450 0.000000 0.032850 
#    y 0.000000 3.922710 0.000000 
#    z 0.032850 0.000000 4.003970 
# 
# 
# High freq. dielectric constant tensor:
#      x y z
#    x 1.841000 0.000000 0.000080 
#    y 0.000000 1.839950 0.000000 
#    z 0.000080 0.000000 1.833230 
# 
# From -- ./inp_files/77995.got.cif
#   From: 2010.03.12/outbox.cif.g09.slc.cpg/sg14_39_cif.got.tgz:77995.got - 2010.03.31 13:35:05.
