data_PCOD8125058
_publ_section_title
;
Structure prediction by ZEFSAII (Michael W. Deem and Ramdas Pophale) SiO2 
 PCOD8125058
Probable space group: P 21/C
;
_chemical_formula_sum "Si O2"
_cell_formula_units_Z 32
_cell_length_a 11.609340
_cell_length_b 15.873185
_cell_length_c 12.431700
_cell_angle_alpha 90.000000
_cell_angle_beta 132.349370
_cell_angle_gamma 90.000000
_cell_volume 1693.076118
_symmetry_space_group_name_H-M "P 21/C"
_symmetry_group_IT_number 14
_symmetry_cell_setting 'monoclinic'
loop_
_space_group_symop_operation_xyz
x,y,z
-x,1/2+y,1/2-z
-x,-y,-z
x,1/2-y,1/2+z
loop_
_atom_site_type_symbol
_atom_site_label
_atom_site_fract_x
_atom_site_fract_y
_atom_site_fract_z
Si Si1 0.966387 0.213485 0.799383
Si Si2 0.405190 0.466964 0.039809
Si Si3 0.269307 0.638022 0.004672
Si Si4 0.306481 0.789638 0.758894
Si Si5 0.503011 0.725948 0.569846
Si Si6 0.975828 0.403139 0.511586
Si Si7 0.208733 0.316880 0.824786
Si Si8 0.626529 0.126176 0.819347
O O1 0.894462 0.166779 0.649436
O O2 0.851924 0.285830 0.771854
O O3 0.999013 0.147314 0.915104
O O4 0.121004 0.260197 0.857542
O O5 0.284148 0.538355 0.999470
O O6 0.532463 0.453072 0.213737
O O7 0.500000 0.500000 0.000000
O O8 0.312410 0.381973 0.957097
O O9 0.275532 0.653580 0.136063
O O10 0.406061 0.688494 0.030678
O O11 0.363403 0.696329 0.765761
O O12 0.445381 0.821286 0.924206
O O13 0.683179 0.752946 0.675935
O O14 0.473964 0.658451 0.644018
O O15 0.805591 0.395757 0.460010
O O16 0.000000 0.500000 0.500000
O O17 0.096975 0.367722 0.674430
#
# Coordination Sequence:
#
# PCOD8125058 Si02
#       8
#     4   4   4   4   4   4   4   4
#     4  10  21  38  59  89 120 158 206 250 302 371
#     4  12  21  39  62  94 119 156 208 256 307 368
#     4  10  20  37  64  84 118 162 203 249 311 365
#     4   9  17  38  59  82 112 163 199 245 302 365
#     4  10  20  36  61  86 119 153 208 249 296 362
#     4  11  23  39  63  90 126 158 202 259 313 359
#     4  12  23  36  63  93 120 158 204 258 303 364
#     4  10  21  38  60  88 118 156 203 252 304 362
#
# _framework density 18.900507999999999
#
# number of rings (size 3 to 8) (size 9 to 14) (size 15 to 20)
#    0.000    1.500    2.500    6.000    1.750    0.000 
#    0.000    1.250    2.750    0.000    0.000    0.000 
#    0.000    0.000    0.000    0.000    0.000    0.000 
#
# Total GULP energy -396729.938320 kJ/mol
# GULP energy per Si atom -12397.810572 kJ/mol
# Density = 1.885749 g / cm^3
# Si number density = 18.900508 Si / 1000 Ang^3
#
#
#
# Elastic Constant Matrix: (Units=GPa)
#
#
# Indices 1 2 3 4 5 6 
#
# 1 116.2538 50.7354 43.9492 0.0000 5.2534 0.0000
# 2 50.7354 86.4908 28.7832 0.0000 1.3264 0.0000
# 3 43.9492 28.7832 101.0496 0.0000 2.6315 0.0000
# 4 0.0000 0.0000 0.0000 30.7414 0.0000 1.5796
# 5 5.2534 1.3264 2.6315 0.0000 27.4380 0.0000
# 6 0.0000 0.0000 0.0000 1.5796 0.0000 26.1355
#
#
#
# Elastic Compliance Matrix: (Units=1/GPa)
#
#
# Indices 1 2 3 4 5 6 
#
# 1 0.012829 -0.006249 -0.003753 0.000000 -0.001794 0.000000
# 2 -0.006249 0.015819 -0.001804 0.000000 0.000605 0.000000
# 3 -0.003753 -0.001804 0.012051 0.000000 -0.000350 0.000000
# 4 0.000000 0.000000 0.000000 0.032631 0.000000 -0.001972
# 5 -0.001794 0.000605 -0.000350 0.000000 0.036794 0.000000
# 6 0.000000 0.000000 0.000000 -0.001972 0.000000 0.038381
#
#
# Mechanical properties :
#
#
# Convention : Reuss Voigt Hill
#
# Bulk Modulus (GPa) = 58.52229 61.19221 59.85725
# Shear Modulus (GPa) = 28.11966 28.88474 28.50220
#
# Velocity S-wave (km/s) = 3.86135 3.91353 3.88753
# Velocity P-wave (km/s) = 7.13517 7.27098 7.20339
#
# Compressibility (1/GPa) = 0.01708751
#
# Stress axis : x y z
#
# Youngs Moduli (GPa) = 77.94901 63.21700 82.97885
#
# Poissons Ratio (x) = 0.39504 0.31141
# Poissons Ratio (y) = 0.48710 0.14967
# Poissons Ratio (z) = 0.29254 0.11402
#
# Static dielectric constant tensor:
#      x y z
#    x 3.471340 0.000000 0.027930 
#    y 0.000000 3.459940 0.000000 
#    z 0.027930 0.000000 3.612290 
# 
# 
# High freq. dielectric constant tensor:
#      x y z
#    x 1.730080 0.000000 -0.001540 
#    y 0.000000 1.714810 0.000000 
#    z -0.001540 0.000000 1.748150 
# 
# From -- ./inp_files/30041.got.cif
#   From: 2010.03.12/outbox.cif.g09.slc.cpg/sg14_16_cif.got.tgz:30041.got - 2010.03.31 13:35:05.
