data_PCOD8125355
_publ_section_title
;
Structure prediction by ZEFSAII (Michael W. Deem and Ramdas Pophale) SiO2 
 PCOD8125355
Probable space group: P 21/C
;
_chemical_formula_sum "Si O2"
_cell_formula_units_Z 32
_cell_length_a 11.995443
_cell_length_b 13.400290
_cell_length_c 15.756139
_cell_angle_alpha 90.000000
_cell_angle_beta 141.106040
_cell_angle_gamma 90.000000
_cell_volume 1590.221580
_symmetry_space_group_name_H-M "P 21/C"
_symmetry_group_IT_number 14
_symmetry_cell_setting 'monoclinic'
loop_
_space_group_symop_operation_xyz
x,y,z
-x,1/2+y,1/2-z
-x,-y,-z
x,1/2-y,1/2+z
loop_
_atom_site_type_symbol
_atom_site_label
_atom_site_fract_x
_atom_site_fract_y
_atom_site_fract_z
Si Si1 0.752099 0.380789 0.061826
Si Si2 0.908188 0.537078 0.029690
Si Si3 0.980397 0.607493 0.449310
Si Si4 0.395695 0.044206 0.289570
Si Si5 0.569337 0.973342 0.237456
Si Si6 0.268665 0.845874 0.987272
Si Si7 0.779767 0.340941 0.267318
Si Si8 0.251519 0.876327 0.784808
O O1 0.882082 0.447545 0.081812
O O2 0.739107 0.272734 0.011996
O O3 0.837976 0.373717 0.206659
O O4 0.551053 0.424734 0.947218
O O5 0.036891 0.620017 0.146085
O O6 0.718162 0.578364 0.886124
O O7 0.000000 0.500000 0.000000
O O8 0.772608 0.619670 0.300651
O O9 0.000000 0.500000 0.500000
O O10 0.093286 0.614686 0.430337
O O11 0.054367 0.677661 0.569316
O O12 0.464253 0.053426 0.233268
O O13 0.349299 0.927108 0.274835
O O14 0.648787 0.035291 0.205534
O O15 0.447424 0.881969 0.138130
O O16 0.282766 0.891914 0.902433
O O17 0.680884 0.233549 0.203730
#
# Coordination Sequence:
#
# PCOD8125355 Si02
#       8
#     4   4   4   4   4   4   4   4
#     4  10  23  39  62  87 122 154 199 246 294 350
#     4   9  21  37  59  85 118 158 190 245 296 346
#     4  10  21  37  62  86 119 156 199 238 298 346
#     4  10  21  38  63  88 117 159 197 242 294 348
#     4  10  20  38  62  87 118 158 198 241 296 353
#     4  11  22  40  62  89 119 159 194 248 295 350
#     4  10  21  39  61  88 116 159 191 244 294 352
#     4  10  23  39  62  87 122 154 197 247 300 347
#
# _framework density 20.122982
#
# number of rings (size 3 to 8) (size 9 to 14) (size 15 to 20)
#    0.000    2.000    2.500    0.750    8.750    1.000 
#    2.250    1.250    5.500    0.000    0.000    0.000 
#    0.000    0.000    0.000    0.000    0.000    0.000 
#
# Total GULP energy -396511.321143 kJ/mol
# GULP energy per Si atom -12390.978786 kJ/mol
# Density = 2.007718 g / cm^3
# Si number density = 20.122982 Si / 1000 Ang^3
#
#
#
# Elastic Constant Matrix: (Units=GPa)
#
#
# Indices 1 2 3 4 5 6 
#
# 1 105.2647 28.9436 32.4540 0.0000 0.0864 0.0000
# 2 28.9436 61.0019 15.0647 0.0000 2.7415 0.0000
# 3 32.4540 15.0647 68.5688 0.0000 2.2025 0.0000
# 4 0.0000 0.0000 0.0000 25.1966 0.0000 -2.3916
# 5 0.0864 2.7415 2.2025 0.0000 36.1670 0.0000
# 6 0.0000 0.0000 0.0000 -2.3916 0.0000 29.4101
#
#
#
# Elastic Compliance Matrix: (Units=1/GPa)
#
#
# Indices 1 2 3 4 5 6 
#
# 1 0.012260 -0.004660 -0.004799 0.000000 0.000616 0.000000
# 2 -0.004660 0.019147 -0.001959 0.000000 -0.001321 0.000000
# 3 -0.004799 -0.001959 0.017314 0.000000 -0.000894 0.000000
# 4 0.000000 0.000000 0.000000 0.039997 0.000000 0.003252
# 5 0.000616 -0.001321 -0.000894 0.000000 0.027803 0.000000
# 6 0.000000 0.000000 0.000000 0.003252 0.000000 0.034266
#
#
# Mechanical properties :
#
#
# Convention : Reuss Voigt Hill
#
# Bulk Modulus (GPa) = 38.62972 43.08446 40.85709
# Shear Modulus (GPa) = 27.43481 28.71296 28.07389
#
# Velocity S-wave (km/s) = 3.69637 3.78150 3.73918
# Velocity P-wave (km/s) = 6.12013 6.36579 6.24417
#
# Compressibility (1/GPa) = 0.02588680
#
# Stress axis : x y z
#
# Youngs Moduli (GPa) = 81.56549 52.22783 57.75586
#
# Poissons Ratio (x) = 0.24336 0.27716
# Poissons Ratio (y) = 0.38007 0.11313
# Poissons Ratio (z) = 0.39142 0.10230
#
# Static dielectric constant tensor:
#      x y z
#    x 3.788190 0.000000 0.223520 
#    y 0.000000 3.552170 0.000000 
#    z 0.223520 0.000000 4.760420 
# 
# 
# High freq. dielectric constant tensor:
#      x y z
#    x 1.788560 0.000000 -0.011620 
#    y 0.000000 1.766060 0.000000 
#    z -0.011620 0.000000 1.795090 
# 
# From -- ./inp_files/45110.got.cif
#   From: 2010.03.12/outbox.cif.g09.slc.cpg/sg14_23_cif.got.tgz:45110.got - 2010.03.31 13:35:05.
