data_PCOD8125207
_publ_section_title
;
Structure prediction by ZEFSAII (Michael W. Deem and Ramdas Pophale) SiO2 
 PCOD8125207
Probable space group: P 21/C
;
_chemical_formula_sum "Si O2"
_cell_formula_units_Z 32
_cell_length_a 16.512118
_cell_length_b 20.036613
_cell_length_c 7.962744
_cell_angle_alpha 90.000000
_cell_angle_beta 144.659280
_cell_angle_gamma 90.000000
_cell_volume 1523.864290
_symmetry_space_group_name_H-M "P 21/C"
_symmetry_group_IT_number 14
_symmetry_cell_setting 'monoclinic'
loop_
_space_group_symop_operation_xyz
x,y,z
-x,1/2+y,1/2-z
-x,-y,-z
x,1/2-y,1/2+z
loop_
_atom_site_type_symbol
_atom_site_label
_atom_site_fract_x
_atom_site_fract_y
_atom_site_fract_z
Si Si1 0.044020 0.148462 0.479266
Si Si2 0.238753 0.581747 0.446397
Si Si3 0.494445 0.240808 0.878622
Si Si4 0.258522 0.847017 0.623626
Si Si5 0.594126 0.378420 0.944067
Si Si6 0.308841 0.428899 0.531670
Si Si7 0.677468 0.824956 0.667914
Si Si8 0.027121 0.281989 0.301141
O O1 0.023016 0.200940 0.292095
O O2 0.032002 0.197189 0.617095
O O3 0.193433 0.111310 0.727546
O O4 0.922048 0.093614 0.273579
O O5 0.271542 0.612672 0.319625
O O6 0.258512 0.503274 0.472560
O O7 0.337563 0.612953 0.756445
O O8 0.536930 0.302992 0.832421
O O9 0.373337 0.265141 0.797768
O O10 0.428474 0.177467 0.667727
O O11 0.635985 0.215196 0.202664
O O12 0.298611 0.892875 0.528771
O O13 0.105618 0.816440 0.334327
O O14 0.459705 0.427264 0.695077
O O15 0.328113 0.396282 0.749135
O O16 0.834256 0.809132 0.871181
#
# Coordination Sequence:
#
# PCOD8125207 Si02
#       8
#     4   4   4   4   4   4   4   4
#     4  10  22  38  66  88 123 162 201 266 310 365
#     4  11  24  42  63  89 125 173 208 250 305 368
#     4  11  20  37  58  92 123 153 202 256 323 364
#     4  11  24  37  62  95 127 156 203 261 310 368
#     4  11  23  39  63  92 125 163 202 260 313 369
#     4  10  22  42  63  86 124 170 214 240 307 377
#     4  10  20  37  62  85 119 162 197 259 308 370
#     4  10  21  36  58  95 120 149 203 252 322 363
#
# _framework density 20.999244999999998
#
# number of rings (size 3 to 8) (size 9 to 14) (size 15 to 20)
#    0.000    1.500    1.250    5.250    5.250    0.500 
#    0.000    0.000    2.750    4.500    0.000    0.000 
#    0.000    0.000    0.000    0.000    0.000    0.000 
#
# Total GULP energy -396680.680499 kJ/mol
# GULP energy per Si atom -12396.271266 kJ/mol
# Density = 2.095145 g / cm^3
# Si number density = 20.999245 Si / 1000 Ang^3
#
#
#
# Elastic Constant Matrix: (Units=GPa)
#
#
# Indices 1 2 3 4 5 6 
#
# 1 96.4725 21.1351 53.8233 0.0000 16.1201 0.0000
# 2 21.1351 93.7274 30.2393 0.0000 2.3746 0.0000
# 3 53.8233 30.2393 115.1936 0.0000 22.6704 0.0000
# 4 0.0000 0.0000 0.0000 28.6413 0.0000 1.0818
# 5 16.1201 2.3746 22.6704 0.0000 32.5531 0.0000
# 6 0.0000 0.0000 0.0000 1.0818 0.0000 16.1215
#
#
#
# Elastic Compliance Matrix: (Units=1/GPa)
#
#
# Indices 1 2 3 4 5 6 
#
# 1 0.014380 -0.001299 -0.005789 0.000000 -0.002995 0.000000
# 2 -0.001299 0.011836 -0.002847 0.000000 0.001763 0.000000
# 3 -0.005789 -0.002847 0.013359 0.000000 -0.006229 0.000000
# 4 0.000000 0.000000 0.000000 0.035003 0.000000 -0.002349
# 5 -0.002995 0.001763 -0.006229 0.000000 0.036412 0.000000
# 6 0.000000 0.000000 0.000000 -0.002349 0.000000 0.062187
#
#
# Mechanical properties :
#
#
# Convention : Reuss Voigt Hill
#
# Bulk Modulus (GPa) = 50.74631 57.30988 54.02809
# Shear Modulus (GPa) = 25.04821 28.80956 26.92889
#
# Velocity S-wave (km/s) = 3.45746 3.70798 3.58491
# Velocity P-wave (km/s) = 6.33695 6.75891 6.55133
#
# Compressibility (1/GPa) = 0.01970587
#
# Stress axis : x y z
#
# Youngs Moduli (GPa) = 69.53978 84.48765 74.85612
#
# Poissons Ratio (x) = 0.10977 0.43331
# Poissons Ratio (y) = 0.09035 0.21311
# Poissons Ratio (z) = 0.40254 0.24053
#
# Static dielectric constant tensor:
#      x y z
#    x 3.865000 0.000000 0.195860 
#    y 0.000000 3.561430 0.000000 
#    z 0.195860 0.000000 4.026580 
# 
# 
# High freq. dielectric constant tensor:
#      x y z
#    x 1.818630 0.000000 0.015930 
#    y 0.000000 1.796670 0.000000 
#    z 0.015930 0.000000 1.838540 
# 
# From -- ./inp_files/16871.got.cif
#   From: 2010.03.12/outbox.cif.g09.slc.cpg/sg14_9_cif.got.tgz:16871.got - 2010.03.31 13:35:05.
