data_PCOD8125196
_publ_section_title
;
Structure prediction by ZEFSAII (Michael W. Deem and Ramdas Pophale) SiO2 
 PCOD8125196
Probable space group: P 21/C
;
_chemical_formula_sum "Si O2"
_cell_formula_units_Z 20
_cell_length_a 18.264792
_cell_length_b 8.248847
_cell_length_c 18.460859
_cell_angle_alpha 90.000000
_cell_angle_beta 160.232774
_cell_angle_gamma 90.000000
_cell_volume 940.660832
_symmetry_space_group_name_H-M "P 21/C"
_symmetry_group_IT_number 14
_symmetry_cell_setting 'monoclinic'
loop_
_space_group_symop_operation_xyz
x,y,z
-x,1/2+y,1/2-z
-x,-y,-z
x,1/2-y,1/2+z
loop_
_atom_site_type_symbol
_atom_site_label
_atom_site_fract_x
_atom_site_fract_y
_atom_site_fract_z
Si Si1 0.322106 0.099439 0.252138
Si Si2 0.033555 0.821336 0.637911
Si Si3 0.397592 0.749683 0.370874
Si Si4 0.347176 0.951194 0.688492
Si Si5 0.643521 0.245336 0.445068
O O1 0.386295 0.205122 0.383080
O O2 0.517667 0.112943 0.376457
O O3 0.283169 0.913247 0.235907
O O4 0.101525 0.164930 0.013032
O O5 0.231941 0.849488 0.767617
O O6 0.125840 0.785356 0.803930
O O7 0.885530 0.980893 0.503091
O O8 0.461197 0.635587 0.363018
O O9 0.308732 0.822112 0.589706
O O10 0.500738 0.093504 0.803736
#
# Coordination Sequence:
#
# PCOD8125196 Si02
#       5
#     4   4   4   4   4
#     4   9  20  39  61  85 116 150 188 232 283 339
#     4  10  22  38  59  87 115 147 190 235 283 338
#     4  10  20  37  61  87 115 150 188 233 283 336
#     4  11  23  38  58  83 116 151 191 236 282 335
#     4  10  23  40  57  83 115 152 192 234 284 338
#
# _framework density 21.261651000000001
#
# number of rings (size 3 to 8) (size 9 to 14) (size 15 to 20)
#    0.000    2.000    0.000    2.400    0.000   13.600 
#    0.000    0.000    0.000    0.000    0.000    0.000 
#    0.000    0.000    0.000    0.000    0.000    0.000 
#
# Total GULP energy -248089.039409 kJ/mol
# GULP energy per Si atom -12404.451970 kJ/mol
# Density = 2.121326 g / cm^3
# Si number density = 21.261651 Si / 1000 Ang^3
#
#
#
# Elastic Constant Matrix: (Units=GPa)
#
#
# Indices 1 2 3 4 5 6 
#
# 1 95.9720 52.7056 21.7818 0.0000 -22.2576 0.0000
# 2 52.7056 102.3123 29.1179 0.0000 -8.8758 0.0000
# 3 21.7818 29.1179 89.5143 0.0000 -19.6752 0.0000
# 4 0.0000 0.0000 0.0000 22.6034 0.0000 -7.8219
# 5 -22.2576 -8.8758 -19.6752 0.0000 23.9533 0.0000
# 6 0.0000 0.0000 0.0000 -7.8219 0.0000 42.8862
#
#
#
# Elastic Compliance Matrix: (Units=1/GPa)
#
#
# Indices 1 2 3 4 5 6 
#
# 1 0.018265 -0.008570 0.001679 0.000000 0.015175 0.000000
# 2 -0.008570 0.014829 -0.004004 0.000000 -0.005757 0.000000
# 3 0.001679 -0.004004 0.014744 0.000000 0.012187 0.000000
# 4 0.000000 0.000000 0.000000 0.047221 0.000000 0.008613
# 5 0.015175 -0.005757 0.012187 0.000000 0.063726 0.000000
# 6 0.000000 0.000000 0.000000 0.008613 0.000000 0.024888
#
#
# Mechanical properties :
#
#
# Convention : Reuss Voigt Hill
#
# Bulk Modulus (GPa) = 38.39172 55.00102 46.69637
# Shear Modulus (GPa) = 23.34861 30.16814 26.75837
#
# Velocity S-wave (km/s) = 3.31744 3.77091 3.55142
# Velocity P-wave (km/s) = 5.72450 6.69959 6.23115
#
# Compressibility (1/GPa) = 0.02604729
#
# Stress axis : x y z
#
# Youngs Moduli (GPa) = 54.75077 67.43595 67.82438
#
# Poissons Ratio (x) = 0.57794 -0.11387
# Poissons Ratio (y) = 0.46923 0.27155
# Poissons Ratio (z) = -0.09192 0.26999
#
# Static dielectric constant tensor:
#      x y z
#    x 3.788540 0.000000 -0.216950 
#    y 0.000000 3.712860 0.000000 
#    z -0.216950 0.000000 3.801320 
# 
# 
# High freq. dielectric constant tensor:
#      x y z
#    x 1.830480 0.000000 -0.017600 
#    y 0.000000 1.831420 0.000000 
#    z -0.017600 0.000000 1.833380 
# 
# From -- ./inp_files/52514.got.cif
#   From: 2010.03.12/outbox.cif.g09.slc.cpg/sg14_27_cif.got.tgz:52514.got - 2010.03.31 13:35:05.
