data_PCOD8125229
_publ_section_title
;
Structure prediction by ZEFSAII (Michael W. Deem and Ramdas Pophale) SiO2 
 PCOD8125229
Probable space group: P 21/C
;
_chemical_formula_sum "Si O2"
_cell_formula_units_Z 24
_cell_length_a 9.350631
_cell_length_b 8.899239
_cell_length_c 17.460018
_cell_angle_alpha 90.000000
_cell_angle_beta 51.237878
_cell_angle_gamma 90.000000
_cell_volume 1132.908919
_symmetry_space_group_name_H-M "P 21/C"
_symmetry_group_IT_number 14
_symmetry_cell_setting 'monoclinic'
loop_
_space_group_symop_operation_xyz
x,y,z
-x,1/2+y,1/2-z
-x,-y,-z
x,1/2-y,1/2+z
loop_
_atom_site_type_symbol
_atom_site_label
_atom_site_fract_x
_atom_site_fract_y
_atom_site_fract_z
Si Si1 0.516713 0.514329 0.158089
Si Si2 0.156364 0.162102 0.767216
Si Si3 0.144906 0.369866 0.446700
Si Si4 0.449637 0.638515 0.697845
Si Si5 0.108796 0.430479 0.033017
Si Si6 0.890994 0.993959 0.756399
O O1 0.346079 0.420785 0.182493
O O2 0.604065 0.431982 0.202458
O O3 0.451522 0.681282 0.203121
O O4 0.677214 0.520426 0.041089
O O5 0.144472 0.200556 0.861250
O O6 0.148673 0.316960 0.722344
O O7 0.987789 0.053787 0.800898
O O8 0.351707 0.427019 0.393918
O O9 0.091633 0.248595 0.528234
O O10 0.000000 0.500000 0.500000
O O11 0.298524 0.584649 0.687973
O O12 0.030567 0.476904 0.140392
O O13 0.000000 0.500000 0.000000
#
# Coordination Sequence:
#
# PCOD8125229 Si02
#       6
#     4   4   4   4   4   4
#     4  10  21  39  62  92 123 166 207 253 305 375
#     4  11  25  41  62  92 126 162 210 253 320 369
#     4  10  23  40  65  96 120 160 211 255 307 369
#     4  10  20  37  63  91 124 159 210 249 307 369
#     4  11  21  39  66  92 123 161 210 253 305 372
#     4  12  24  42  64  92 126 166 205 259 318 366
#
# _framework density 21.184403
#
# number of rings (size 3 to 8) (size 9 to 14) (size 15 to 20)
#    0.000    1.333    3.333    3.000    7.000    2.000 
#    0.000    0.833    0.000    0.000    0.000    0.000 
#    0.000    0.000    0.000    0.000    0.000    0.000 
#
# Total GULP energy -297653.720917 kJ/mol
# GULP energy per Si atom -12402.238372 kJ/mol
# Density = 2.113619 g / cm^3
# Si number density = 21.184403 Si / 1000 Ang^3
#
#
#
# Elastic Constant Matrix: (Units=GPa)
#
#
# Indices 1 2 3 4 5 6 
#
# 1 111.4738 35.3678 17.3954 0.0000 -32.0895 0.0000
# 2 35.3678 131.7290 39.6758 0.0000 -24.9465 0.0000
# 3 17.3954 39.6758 72.9911 0.0000 -25.4615 0.0000
# 4 0.0000 0.0000 0.0000 32.1447 0.0000 -6.4328
# 5 -32.0895 -24.9465 -25.4615 0.0000 27.5133 0.0000
# 6 0.0000 0.0000 0.0000 -6.4328 0.0000 38.7578
#
#
#
# Elastic Compliance Matrix: (Units=1/GPa)
#
#
# Indices 1 2 3 4 5 6 
#
# 1 0.014298 -0.001436 0.004040 0.000000 0.019112 0.000000
# 2 -0.001436 0.009802 -0.003647 0.000000 0.003837 0.000000
# 3 0.004040 -0.003647 0.022461 0.000000 0.022191 0.000000
# 4 0.000000 0.000000 0.000000 0.032178 0.000000 0.005341
# 5 0.019112 0.003837 0.022191 0.000000 0.082653 0.000000
# 6 0.000000 0.000000 0.000000 0.005341 0.000000 0.026688
#
#
# Mechanical properties :
#
#
# Convention : Reuss Voigt Hill
#
# Bulk Modulus (GPa) = 22.48497 55.67466 39.07982
# Shear Modulus (GPa) = 24.39136 34.60016 29.49576
#
# Velocity S-wave (km/s) = 3.39688 4.04578 3.73545
# Velocity P-wave (km/s) = 5.10118 6.93992 6.09034
#
# Compressibility (1/GPa) = 0.04447415
#
# Stress axis : x y z
#
# Youngs Moduli (GPa) = 69.94111 102.01795 44.52195
#
# Poissons Ratio (x) = 0.14652 -0.17988
# Poissons Ratio (y) = 0.10045 0.16239
# Poissons Ratio (z) = -0.28258 0.37209
#
# Static dielectric constant tensor:
#      x y z
#    x 4.053420 0.000000 -0.171770 
#    y 0.000000 4.035960 0.000000 
#    z -0.171770 0.000000 3.851780 
# 
# 
# High freq. dielectric constant tensor:
#      x y z
#    x 1.832920 0.000000 -0.024990 
#    y 0.000000 1.840630 0.000000 
#    z -0.024990 0.000000 1.815480 
# 
# From -- ./inp_files/54472.got.cif
#   From: 2010.03.12/outbox.cif.g09.slc.cpg/sg14_28_cif.got.tgz:54472.got - 2010.03.31 13:35:05.
