data_PCOD8125164
_publ_section_title
;
Structure prediction by ZEFSAII (Michael W. Deem and Ramdas Pophale) SiO2 
 PCOD8125164
Probable space group: P 21/C
;
_chemical_formula_sum "Si O2"
_cell_formula_units_Z 28
_cell_length_a 9.328842
_cell_length_b 14.092941
_cell_length_c 13.292075
_cell_angle_alpha 90.000000
_cell_angle_beta 130.083444
_cell_angle_gamma 90.000000
_cell_volume 1337.040645
_symmetry_space_group_name_H-M "P 21/C"
_symmetry_group_IT_number 14
_symmetry_cell_setting 'monoclinic'
loop_
_space_group_symop_operation_xyz
x,y,z
-x,1/2+y,1/2-z
-x,-y,-z
x,1/2-y,1/2+z
loop_
_atom_site_type_symbol
_atom_site_label
_atom_site_fract_x
_atom_site_fract_y
_atom_site_fract_z
Si Si1 0.362935 0.637735 0.894607
Si Si2 0.424518 0.441501 0.840796
Si Si3 0.048218 0.705639 0.628861
Si Si4 0.778956 0.147810 0.983953
Si Si5 0.889109 0.816070 0.717305
Si Si6 0.433362 0.315682 0.460805
Si Si7 0.718110 0.568343 0.438195
O O1 0.444866 0.554470 0.861108
O O2 0.145261 0.654216 0.769427
O O3 0.480300 0.733985 0.927670
O O4 0.393984 0.609390 0.026762
O O5 0.238150 0.408628 0.819859
O O6 0.411912 0.414929 0.718328
O O7 0.202182 0.711451 0.609247
O O8 0.966504 0.805651 0.635822
O O9 0.886510 0.642442 0.506770
O O10 0.570732 0.160501 0.931721
O O11 0.931612 0.185664 0.130592
O O12 0.806907 0.036108 0.976919
O O13 0.761069 0.721576 0.676134
O O14 0.400740 0.409215 0.514692
#
# Coordination Sequence:
#
# PCOD8125164 Si02
#       7
#     4   4   4   4   4   4   4
#     4  10  20  37  59  89 123 166 203 255 315 378
#     4  10  20  39  61  90 123 162 211 260 309 377
#     4  11  21  38  63  90 120 170 213 250 318 382
#     4  12  21  40  65  90 128 169 209 267 321 378
#     4  10  22  40  58  95 122 163 210 267 302 375
#     4  10  24  40  61  95 131 161 213 271 314 376
#     4  11  22  39  67  94 123 168 218 260 319 387
#
# _framework density 20.941770000000002
#
# number of rings (size 3 to 8) (size 9 to 14) (size 15 to 20)
#    0.000    1.429    4.286    1.714    0.000    2.286 
#    2.571    0.000    0.000    0.857    0.000    0.000 
#    0.000    0.000    0.000    0.000    0.000    0.000 
#
# Total GULP energy -346948.008913 kJ/mol
# GULP energy per Si atom -12391.000318 kJ/mol
# Density = 2.089411 g / cm^3
# Si number density = 20.941770 Si / 1000 Ang^3
#
#
#
# Elastic Constant Matrix: (Units=GPa)
#
#
# Indices 1 2 3 4 5 6 
#
# 1 111.0758 14.6525 27.1696 0.0000 -25.3442 0.0000
# 2 14.6525 57.4847 17.5276 0.0000 -18.9951 0.0000
# 3 27.1696 17.5276 121.8224 0.0000 -0.6784 0.0000
# 4 0.0000 0.0000 0.0000 29.6720 0.0000 0.1304
# 5 -25.3442 -18.9951 -0.6784 0.0000 29.9336 0.0000
# 6 0.0000 0.0000 0.0000 0.1304 0.0000 22.5384
#
#
#
# Elastic Compliance Matrix: (Units=1/GPa)
#
#
# Indices 1 2 3 4 5 6 
#
# 1 0.012021 0.001442 -0.002827 0.000000 0.011029 0.000000
# 2 0.001442 0.023412 -0.003601 0.000000 0.015996 0.000000
# 3 -0.002827 -0.003601 0.009332 0.000000 -0.004467 0.000000
# 4 0.000000 0.000000 0.000000 0.033703 0.000000 -0.000195
# 5 0.011029 0.015996 -0.004467 0.000000 0.052795 0.000000
# 6 0.000000 0.000000 0.000000 -0.000195 0.000000 0.044370
#
#
# Mechanical properties :
#
#
# Convention : Reuss Voigt Hill
#
# Bulk Modulus (GPa) = 28.74105 45.45360 37.09733
# Shear Modulus (GPa) = 25.35477 31.83100 28.59289
#
# Velocity S-wave (km/s) = 3.48333 3.90292 3.69908
# Velocity P-wave (km/s) = 5.47103 6.48554 5.99977
#
# Compressibility (1/GPa) = 0.03479344
#
# Stress axis : x y z
#
# Youngs Moduli (GPa) = 83.19109 42.71303 107.15351
#
# Poissons Ratio (x) = -0.06161 0.30292
# Poissons Ratio (y) = -0.11999 0.38587
# Poissons Ratio (z) = 0.23518 0.15381
#
# Static dielectric constant tensor:
#      x y z
#    x 3.777610 0.000000 0.067260 
#    y 0.000000 3.823040 0.000000 
#    z 0.067260 0.000000 3.966510 
# 
# 
# High freq. dielectric constant tensor:
#      x y z
#    x 1.799670 0.000000 0.011110 
#    y 0.000000 1.807370 0.000000 
#    z 0.011110 0.000000 1.830840 
# 
# From -- ./inp_files/25368.got.cif
#   From: 2010.03.12/outbox.cif.g09.slc.cpg/sg14_13_cif.got.tgz:25368.got - 2010.03.31 13:35:05.
