data_PCOD8125589
_publ_section_title
;
Structure prediction by ZEFSAII (Michael W. Deem and Ramdas Pophale) SiO2 
 PCOD8125589
Probable space group: P 21/C
;
_chemical_formula_sum "Si O2"
_cell_formula_units_Z 28
_cell_length_a 9.180744
_cell_length_b 8.386350
_cell_length_c 21.571599
_cell_angle_alpha 90.000000
_cell_angle_beta 115.188270
_cell_angle_gamma 90.000000
_cell_volume 1502.936403
_symmetry_space_group_name_H-M "P 21/C"
_symmetry_group_IT_number 14
_symmetry_cell_setting 'monoclinic'
loop_
_space_group_symop_operation_xyz
x,y,z
-x,1/2+y,1/2-z
-x,-y,-z
x,1/2-y,1/2+z
loop_
_atom_site_type_symbol
_atom_site_label
_atom_site_fract_x
_atom_site_fract_y
_atom_site_fract_z
Si Si1 0.476438 0.750000 0.476438
Si Si2 0.036944 0.673121 0.682622
Si Si3 0.328300 0.826879 0.682622
Si Si4 0.186949 0.388218 0.782757
Si Si5 0.481731 0.959723 0.592691
Si Si6 0.621435 0.611782 0.717243
Si Si7 0.296349 0.459723 0.407309
O O1 0.419274 0.858783 0.522994
O O2 0.324272 0.645061 0.427226
O O3 0.626715 0.641217 0.522994
O O4 0.530179 0.854939 0.427225
O O5 0.150525 0.750000 0.650525
O O6 0.144796 0.554750 0.743505
O O7 0.969033 0.821055 0.710107
O O8 0.893974 0.571587 0.626448
O O9 0.358922 0.928413 0.626448
O O10 0.451181 0.678945 0.710107
O O11 0.342214 0.945250 0.743505
O O12 0.334315 0.415471 0.857226
O O13 0.244707 0.250000 0.744707
O O14 0.619864 0.584529 0.642774
#
# Coordination Sequence:
#
# PCOD8125589 Si02
#       7
#     4   4   4   4   4   4   4
#     4  10  20  40  64  76 112 158 206 232 260 374
#     4  11  21  36  57  88 124 144 190 251 295 345
#     4  11  21  36  57  88 124 144 190 251 295 345
#     4  10  21  37  56  88 117 155 191 233 295 353
#     4  10  21  39  61  85 109 155 199 233 289 341
#     4  10  21  37  56  88 117 155 191 233 295 353
#     4  10  21  39  61  85 109 155 199 233 289 341
#
# _framework density 18.630196000000002
#
# number of rings (size 3 to 8) (size 9 to 14) (size 15 to 20)
#    0.000    1.714    4.286    3.429    6.000    0.000 
#    0.000    1.429    0.000    0.000    0.000    0.000 
#    0.000    0.000    0.000    0.000    0.000    0.000 
#
# Total GULP energy -347137.183800 kJ/mol
# GULP energy per Si atom -12397.756564 kJ/mol
# Density = 1.858779 g / cm^3
# Si number density = 18.630196 Si / 1000 Ang^3
#
#
#
# Elastic Constant Matrix: (Units=GPa)
#
#
# Indices 1 2 3 4 5 6 
#
# 1 140.1238 55.3093 44.6205 0.0000 -3.5440 0.0000
# 2 55.3093 123.2538 54.5667 0.0000 -0.0348 0.0000
# 3 44.6205 54.5667 74.8239 0.0000 0.4838 0.0000
# 4 0.0000 0.0000 0.0000 39.7902 0.0000 0.4296
# 5 -3.5440 -0.0348 0.4838 0.0000 10.1283 0.0000
# 6 0.0000 0.0000 0.0000 0.4296 0.0000 30.6230
#
#
#
# Elastic Compliance Matrix: (Units=1/GPa)
#
#
# Indices 1 2 3 4 5 6 
#
# 1 0.009440 -0.002559 -0.003786 0.000000 0.003475 0.000000
# 2 -0.002559 0.012678 -0.007716 0.000000 -0.000483 0.000000
# 3 -0.003786 -0.007716 0.021265 0.000000 -0.002367 0.000000
# 4 0.000000 0.000000 0.000000 0.025136 0.000000 -0.000353
# 5 0.003475 -0.000483 -0.002367 0.000000 0.100060 0.000000
# 6 0.000000 0.000000 0.000000 -0.000353 0.000000 0.032660
#
#
# Mechanical properties :
#
#
# Convention : Reuss Voigt Hill
#
# Bulk Modulus (GPa) = 65.52874 71.91051 68.71962
# Shear Modulus (GPa) = 21.32673 28.35530 24.84102
#
# Velocity S-wave (km/s) = 3.38707 3.90552 3.65550
# Velocity P-wave (km/s) = 7.10958 7.68246 7.40156
#
# Compressibility (1/GPa) = 0.01526048
#
# Stress axis : x y z
#
# Youngs Moduli (GPa) = 105.93121 78.87845 47.02633
#
# Poissons Ratio (x) = 0.20187 0.17802
# Poissons Ratio (y) = 0.27110 0.36286
# Poissons Ratio (z) = 0.40101 0.60864
#
# Static dielectric constant tensor:
#      x y z
#    x 3.323920 0.000000 -0.001910 
#    y 0.000000 3.756340 0.000000 
#    z -0.001910 0.000000 3.283260 
# 
# 
# High freq. dielectric constant tensor:
#      x y z
#    x 1.709120 0.000000 -0.000300 
#    y 0.000000 1.747360 0.000000 
#    z -0.000300 0.000000 1.702830 
# 
# From -- ./inp_files/64597.got.cif
#   From: 2010.03.12/outbox.cif.g09.slc.cpg/sg14_33_cif.got.tgz:64597.got - 2010.03.31 13:35:05.
