data_PCOD8125643
_publ_section_title
;
Structure prediction by ZEFSAII (Michael W. Deem and Ramdas Pophale) SiO2 
 PCOD8125643
Probable space group: P 21/C
;
_chemical_formula_sum "Si O2"
_cell_formula_units_Z 28
_cell_length_a 11.208065
_cell_length_b 17.991622
_cell_length_c 14.021069
_cell_angle_alpha 90.000000
_cell_angle_beta 150.199542
_cell_angle_gamma 90.000000
_cell_volume 1405.147069
_symmetry_space_group_name_H-M "P 21/C"
_symmetry_group_IT_number 14
_symmetry_cell_setting 'monoclinic'
loop_
_space_group_symop_operation_xyz
x,y,z
-x,1/2+y,1/2-z
-x,-y,-z
x,1/2-y,1/2+z
loop_
_atom_site_type_symbol
_atom_site_label
_atom_site_fract_x
_atom_site_fract_y
_atom_site_fract_z
Si Si1 0.516517 0.946107 0.221182
Si Si2 0.363576 0.151610 0.529602
Si Si3 0.216116 0.887089 0.315247
Si Si4 0.339693 0.896076 0.611639
Si Si5 0.009558 0.535683 0.293352
Si Si6 0.284310 0.322699 0.493067
Si Si7 0.180870 0.071892 0.754727
O O1 0.611377 0.874054 0.343263
O O2 0.643624 0.951825 0.207196
O O3 0.570203 0.019322 0.319590
O O4 0.232481 0.939436 0.011953
O O5 0.615837 0.135272 0.654500
O O6 0.300425 0.237257 0.477456
O O7 0.148215 0.108479 0.329775
O O8 0.350159 0.871097 0.508471
O O9 0.973220 0.838745 0.138307
O O10 0.146716 0.973958 0.259403
O O11 0.062613 0.890445 0.455222
O O12 0.502862 0.841387 0.786216
O O13 0.102028 0.502129 0.257068
O O14 0.318311 0.372071 0.421411
#
# Coordination Sequence:
#
# PCOD8125643 Si02
#       7
#     4   4   4   4   4   4   4
#     4  12  22  37  68  98 117 163 219 247 305 375
#     4  12  26  39  63  97 123 162 215 258 300 380
#     4  10  23  45  63  86 129 167 200 256 316 369
#     4  10  20  40  67  87 124 166 204 252 317 362
#     4  10  22  39  63  91 125 162 209 252 310 363
#     4  10  24  43  61  90 128 166 201 260 326 355
#     4  10  22  39  65  92 127 162 205 263 308 362
#
# _framework density 19.926739999999999
#
# number of rings (size 3 to 8) (size 9 to 14) (size 15 to 20)
#    0.000    1.714    5.714    1.286    0.000    7.429 
#    0.000    0.000    0.000    0.000    0.000    0.000 
#    0.000    0.000    0.000    0.000    0.000    0.000 
#
# Total GULP energy -347262.565531 kJ/mol
# GULP energy per Si atom -12402.234483 kJ/mol
# Density = 1.988139 g / cm^3
# Si number density = 19.926740 Si / 1000 Ang^3
#
#
#
# Elastic Constant Matrix: (Units=GPa)
#
#
# Indices 1 2 3 4 5 6 
#
# 1 44.5194 19.5662 6.8286 0.0000 5.4342 0.0000
# 2 19.5662 82.8246 25.1998 0.0000 10.1467 0.0000
# 3 6.8286 25.1998 125.8437 0.0000 7.3419 0.0000
# 4 0.0000 0.0000 0.0000 24.7958 0.0000 6.9497
# 5 5.4342 10.1467 7.3419 0.0000 13.2559 0.0000
# 6 0.0000 0.0000 0.0000 6.9497 0.0000 3.5864
#
#
#
# Elastic Compliance Matrix: (Units=1/GPa)
#
#
# Indices 1 2 3 4 5 6 
#
# 1 0.025557 -0.005257 0.000044 0.000000 -0.006477 0.000000
# 2 -0.005257 0.014988 -0.002245 0.000000 -0.008074 0.000000
# 3 0.000044 -0.002245 0.008571 0.000000 -0.003047 0.000000
# 4 0.000000 0.000000 0.000000 0.088271 0.000000 -0.171050
# 5 -0.006477 -0.008074 -0.003047 0.000000 0.085961 0.000000
# 6 0.000000 0.000000 0.000000 -0.171050 0.000000 0.610290
#
#
# Mechanical properties :
#
#
# Convention : Reuss Voigt Hill
#
# Bulk Modulus (GPa) = 29.24063 39.59743 34.41903
# Shear Modulus (GPa) = 5.81426 21.76716 13.79071
#
# Velocity S-wave (km/s) = 1.71002 3.30867 2.63358
# Velocity P-wave (km/s) = 4.31333 5.87461 5.15344
#
# Compressibility (1/GPa) = 0.03419900
#
# Stress axis : x y z
#
# Youngs Moduli (GPa) = 39.12888 66.72086 116.66854
#
# Poissons Ratio (x) = 0.35077 -0.00512
# Poissons Ratio (y) = 0.20571 0.26192
# Poissons Ratio (z) = -0.00172 0.14979
#
# Static dielectric constant tensor:
#      x y z
#    x 3.431020 0.000000 0.036430 
#    y 0.000000 3.424700 0.000000 
#    z 0.036430 0.000000 3.949510 
# 
# 
# High freq. dielectric constant tensor:
#      x y z
#    x 1.763700 0.000000 0.003350 
#    y 0.000000 1.759850 0.000000 
#    z 0.003350 0.000000 1.801050 
# 
# From -- ./inp_files/45307.got.cif
#   From: 2010.03.12/outbox.cif.g09.slc.cpg/sg14_23_cif.got.tgz:45307.got - 2010.03.31 13:35:05.
