data_PCOD8125581
_publ_section_title
;
Structure prediction by ZEFSAII (Michael W. Deem and Ramdas Pophale) SiO2 
 PCOD8125581
Probable space group: P 21/C
;
_chemical_formula_sum "Si O2"
_cell_formula_units_Z 32
_cell_length_a 12.174279
_cell_length_b 13.134391
_cell_length_c 9.165429
_cell_angle_alpha 90.000000
_cell_angle_beta 83.528985
_cell_angle_gamma 90.000000
_cell_volume 1456.230910
_symmetry_space_group_name_H-M "P 21/C"
_symmetry_group_IT_number 14
_symmetry_cell_setting 'monoclinic'
loop_
_space_group_symop_operation_xyz
x,y,z
-x,1/2+y,1/2-z
-x,-y,-z
x,1/2-y,1/2+z
loop_
_atom_site_type_symbol
_atom_site_label
_atom_site_fract_x
_atom_site_fract_y
_atom_site_fract_z
Si Si1 0.885585 0.781590 0.290712
Si Si2 0.592144 0.876732 0.738468
Si Si3 0.665991 0.752067 0.476636
Si Si4 0.882314 0.349330 0.156401
Si Si5 0.348560 0.614607 0.304967
Si Si6 0.214422 0.073540 0.909804
Si Si7 0.743539 0.249719 0.928993
Si Si8 0.827633 0.556939 0.263802
O O1 0.786613 0.797572 0.420332
O O2 0.879164 0.869599 0.170256
O O3 0.873365 0.669574 0.217750
O O4 0.000306 0.792975 0.358535
O O5 0.596927 0.837058 0.571660
O O6 0.600441 0.777204 0.840630
O O7 0.473898 0.929453 0.784756
O O8 0.695016 0.952069 0.752710
O O9 0.684730 0.650697 0.571151
O O10 0.813415 0.320663 0.310364
O O11 0.892417 0.472636 0.159568
O O12 0.825219 0.317547 0.014645
O O13 0.262412 0.522144 0.314675
O O14 0.331932 0.681077 0.453927
O O15 0.333072 0.678658 0.159230
O O16 0.154212 0.037227 0.066686
#
# Coordination Sequence:
#
# PCOD8125581 Si02
#       8
#     4   4   4   4   4   4   4   4
#     4  10  23  40  71  91 132 167 215 265 325 365
#     4  10  21  39  68  89 130 170 209 266 322 369
#     4  10  20  40  62  98 126 159 218 268 302 388
#     4  11  24  44  66  97 129 175 207 270 326 378
#     4  11  22  44  65  95 127 179 208 266 330 371
#     4  10  20  41  65  97 126 167 216 264 305 397
#     4  10  25  43  62  95 140 160 222 264 312 398
#     4  10  23  42  65  99 131 163 224 261 310 396
#
# _framework density 21.974537000000002
#
# number of rings (size 3 to 8) (size 9 to 14) (size 15 to 20)
#    0.000    2.000    3.750    0.750    3.500    5.500 
#    4.500    3.125    0.000    0.000    0.000    0.000 
#    0.000    0.000    0.000    0.000    0.000    0.000 
#
# Total GULP energy -396739.762857 kJ/mol
# GULP energy per Si atom -12398.117589 kJ/mol
# Density = 2.192452 g / cm^3
# Si number density = 21.974537 Si / 1000 Ang^3
#
#
#
# Elastic Constant Matrix: (Units=GPa)
#
#
# Indices 1 2 3 4 5 6 
#
# 1 93.7028 17.7746 12.3508 0.0000 8.0577 0.0000
# 2 17.7746 81.4685 19.7021 0.0000 1.7776 0.0000
# 3 12.3508 19.7021 85.3814 0.0000 11.2299 0.0000
# 4 0.0000 0.0000 0.0000 29.1957 0.0000 1.5695
# 5 8.0577 1.7776 11.2299 0.0000 16.8154 0.0000
# 6 0.0000 0.0000 0.0000 1.5695 0.0000 20.1403
#
#
#
# Elastic Compliance Matrix: (Units=1/GPa)
#
#
# Indices 1 2 3 4 5 6 
#
# 1 0.011603 -0.002304 -0.000491 0.000000 -0.004989 0.000000
# 2 -0.002304 0.013465 -0.002995 0.000000 0.001681 0.000000
# 3 -0.000491 -0.002995 0.013596 0.000000 -0.008528 0.000000
# 4 0.000000 0.000000 0.000000 0.034396 0.000000 -0.002680
# 5 -0.004989 0.001681 -0.008528 0.000000 0.067377 0.000000
# 6 0.000000 0.000000 0.000000 -0.002680 0.000000 0.049860
#
#
# Mechanical properties :
#
#
# Convention : Reuss Voigt Hill
#
# Bulk Modulus (GPa) = 36.92120 40.02306 38.47213
# Shear Modulus (GPa) = 23.70743 27.27862 25.49303
#
# Velocity S-wave (km/s) = 3.28816 3.52714 3.40974
# Velocity P-wave (km/s) = 5.59055 5.90258 5.74869
#
# Compressibility (1/GPa) = 0.02708471
#
# Stress axis : x y z
#
# Youngs Moduli (GPa) = 86.18656 74.26686 73.55174
#
# Poissons Ratio (x) = 0.17111 0.03608
# Poissons Ratio (y) = 0.19857 0.22028
# Poissons Ratio (z) = 0.04228 0.22242
#
# Static dielectric constant tensor:
#      x y z
#    x 3.705360 0.000000 0.054550 
#    y 0.000000 3.782970 0.000000 
#    z 0.054550 0.000000 4.051190 
# 
# 
# High freq. dielectric constant tensor:
#      x y z
#    x 1.846190 0.000000 0.003240 
#    y 0.000000 1.848580 0.000000 
#    z 0.003240 0.000000 1.873300 
# 
# From -- ./inp_files/13349.got.cif
#   From: 2010.03.12/outbox.cif.g09.slc.cpg/sg14_7_cif.got.tgz:13349.got - 2010.03.31 13:35:05.
