data_PCOD8125934
_publ_section_title
;
Structure prediction by ZEFSAII (Michael W. Deem and Ramdas Pophale) SiO2 
 PCOD8125934
Probable space group: P 21/C
;
_chemical_formula_sum "Si O2"
_cell_formula_units_Z 32
_cell_length_a 6.552023
_cell_length_b 22.081814
_cell_length_c 10.861899
_cell_angle_alpha 90.000000
_cell_angle_beta 91.322172
_cell_angle_gamma 90.000000
_cell_volume 1571.087151
_symmetry_space_group_name_H-M "P 21/C"
_symmetry_group_IT_number 14
_symmetry_cell_setting 'monoclinic'
loop_
_space_group_symop_operation_xyz
x,y,z
-x,1/2+y,1/2-z
-x,-y,-z
x,1/2-y,1/2+z
loop_
_atom_site_type_symbol
_atom_site_label
_atom_site_fract_x
_atom_site_fract_y
_atom_site_fract_z
Si Si1 0.355352 0.570214 0.078901
Si Si2 0.697514 0.488001 0.172866
Si Si3 0.296280 0.637551 0.707112
Si Si4 0.985746 0.791603 0.357596
Si Si5 0.016610 0.835404 0.975513
Si Si6 0.685921 0.706497 0.639234
Si Si7 0.027126 0.096086 0.269935
Si Si8 0.313000 0.165781 0.446567
O O1 0.486678 0.525863 0.168556
O O2 0.499704 0.621551 0.019684
O O3 0.183038 0.601862 0.157971
O O4 0.253523 0.533395 0.965597
O O5 0.673891 0.433325 0.267923
O O6 0.888436 0.527773 0.221698
O O7 0.516321 0.668454 0.706425
O O8 0.175359 0.667322 0.818978
O O9 0.189166 0.646312 0.574753
O O10 0.069754 0.731457 0.424899
O O11 0.858545 0.771704 0.236748
O O12 0.845383 0.832975 0.442983
O O13 0.793004 0.834270 0.035485
O O14 0.016796 0.886280 0.871052
O O15 0.594885 0.767611 0.578108
O O16 0.194624 0.141956 0.325128
#
# Coordination Sequence:
#
# PCOD8125934 Si02
#       8
#     4   4   4   4   4   4   4   4
#     4  10  22  38  66  91 118 159 208 254 307 360
#     4  10  23  41  58  93 120 158 210 257 299 353
#     4  11  24  39  64  89 123 163 204 248 309 369
#     4  10  21  40  61  90 125 157 198 250 306 369
#     4  10  24  40  58  92 124 159 205 247 304 366
#     4  10  22  39  60  89 125 156 195 253 301 366
#     4  11  22  41  64  85 125 163 203 251 300 366
#     4  10  21  36  62  92 119 153 198 255 307 355
#
# _framework density 20.368061999999998
#
# number of rings (size 3 to 8) (size 9 to 14) (size 15 to 20)
#    0.000    1.750    1.250    1.875    1.750    9.500 
#    0.000    1.250    0.000    0.000    0.000    0.000 
#    0.000    0.000    0.000    0.000    0.000    0.000 
#
# Total GULP energy -396954.775605 kJ/mol
# GULP energy per Si atom -12404.836738 kJ/mol
# Density = 2.032170 g / cm^3
# Si number density = 20.368062 Si / 1000 Ang^3
#
#
#
# Elastic Constant Matrix: (Units=GPa)
#
#
# Indices 1 2 3 4 5 6 
#
# 1 69.5105 42.0926 23.6648 0.0000 -10.1278 0.0000
# 2 42.0926 106.4704 39.3185 0.0000 -5.4009 0.0000
# 3 23.6648 39.3185 85.4784 0.0000 -4.5650 0.0000
# 4 0.0000 0.0000 0.0000 43.6860 0.0000 2.2828
# 5 -10.1278 -5.4009 -4.5650 0.0000 33.4264 0.0000
# 6 0.0000 0.0000 0.0000 2.2828 0.0000 22.6538
#
#
#
# Elastic Compliance Matrix: (Units=1/GPa)
#
#
# Indices 1 2 3 4 5 6 
#
# 1 0.019941 -0.006867 -0.002114 0.000000 0.004644 0.000000
# 2 -0.006867 0.013721 -0.004435 0.000000 -0.000469 0.000000
# 3 -0.002114 -0.004435 0.014357 0.000000 0.000604 0.000000
# 4 0.000000 0.000000 0.000000 0.023012 0.000000 -0.002319
# 5 0.004644 -0.000469 0.000604 0.000000 0.031330 0.000000
# 6 0.000000 0.000000 0.000000 -0.002319 0.000000 0.044376
#
#
# Mechanical properties :
#
#
# Convention : Reuss Voigt Hill
#
# Bulk Modulus (GPa) = 47.20165 52.40124 49.80145
# Shear Modulus (GPa) = 27.68045 30.37878 29.02962
#
# Velocity S-wave (km/s) = 3.69048 3.86617 3.77935
# Velocity P-wave (km/s) = 6.43305 6.76112 6.59912
#
# Compressibility (1/GPa) = 0.02118570
#
# Stress axis : x y z
#
# Youngs Moduli (GPa) = 50.14738 72.87853 69.65478
#
# Poissons Ratio (x) = 0.50049 0.14724
# Poissons Ratio (y) = 0.34439 0.30895
# Poissons Ratio (z) = 0.10600 0.32325
#
# Static dielectric constant tensor:
#      x y z
#    x 3.574070 0.000000 0.012940 
#    y 0.000000 3.663660 0.000000 
#    z 0.012940 0.000000 3.650840 
# 
# 
# High freq. dielectric constant tensor:
#      x y z
#    x 1.791940 0.000000 0.003070 
#    y 0.000000 1.798220 0.000000 
#    z 0.003070 0.000000 1.795770 
# 
# From -- ./inp_files/22089.got.cif
#   From: 2010.03.12/outbox.cif.g09.slc.cpg/sg14_12_cif.got.tgz:22089.got - 2010.03.31 13:35:05.
