data_PCOD8125350
_publ_section_title
;
Structure prediction by ZEFSAII (Michael W. Deem and Ramdas Pophale) SiO2 
 PCOD8125350
Probable space group: P 21/C
;
_chemical_formula_sum "Si O2"
_cell_formula_units_Z 32
_cell_length_a 11.252948
_cell_length_b 9.240967
_cell_length_c 17.586025
_cell_angle_alpha 90.000000
_cell_angle_beta 61.667510
_cell_angle_gamma 90.000000
_cell_volume 1609.670240
_symmetry_space_group_name_H-M "P 21/C"
_symmetry_group_IT_number 14
_symmetry_cell_setting 'monoclinic'
loop_
_space_group_symop_operation_xyz
x,y,z
-x,1/2+y,1/2-z
-x,-y,-z
x,1/2-y,1/2+z
loop_
_atom_site_type_symbol
_atom_site_label
_atom_site_fract_x
_atom_site_fract_y
_atom_site_fract_z
Si Si1 0.268686 0.451053 0.430580
Si Si2 0.341253 0.536612 0.147460
Si Si3 0.412193 0.515569 0.837988
Si Si4 0.955415 0.755140 0.446210
Si Si5 0.113375 0.511706 0.327738
Si Si6 0.110456 0.805702 0.049421
Si Si7 0.217699 0.984814 0.534126
Si Si8 0.521587 0.283545 0.314837
O O1 0.184349 0.317628 0.487452
O O2 0.226483 0.495126 0.358433
O O3 0.236865 0.588468 0.493641
O O4 0.424726 0.402180 0.384540
O O5 0.455405 0.437594 0.153192
O O6 0.191619 0.503938 0.224918
O O7 0.333894 0.483886 0.061812
O O8 0.379755 0.707329 0.152592
O O9 0.392816 0.629698 0.775098
O O10 0.433393 0.348070 0.803323
O O11 0.280172 0.521741 0.930881
O O12 0.911934 0.909564 0.425618
O O13 0.034165 0.663586 0.358429
O O14 0.050692 0.762539 0.490361
O O15 0.004637 0.383862 0.366969
O O16 0.165069 0.670506 0.079619
#
# Coordination Sequence:
#
# PCOD8125350 Si02
#       8
#     4   4   4   4   4   4   4   4
#     4   9  15  36  58  81 107 143 195 239 278 343
#     4  10  23  37  59  81 121 152 189 241 303 342
#     4  10  23  36  63  83 114 149 198 235 296 344
#     4   9  18  34  58  83 109 152 192 237 276 342
#     4   9  18  37  58  80 112 154 194 228 292 341
#     4   9  21  32  61  84 113 153 194 236 288 343
#     4  12  22  37  55  88 124 147 191 248 291 342
#     4  10  20  38  62  85 106 154 197 238 288 352
#
# _framework density 19.879847000000002
#
# number of rings (size 3 to 8) (size 9 to 14) (size 15 to 20)
#    0.750    1.500    2.500    2.250    5.250    1.000 
#    0.000    0.625    5.500    0.000    0.000    0.000 
#    0.000    0.000    0.000    0.000    0.000    0.000 
#
# Total GULP energy -396487.973179 kJ/mol
# GULP energy per Si atom -12390.249162 kJ/mol
# Density = 1.983460 g / cm^3
# Si number density = 19.879847 Si / 1000 Ang^3
#
#
#
# Elastic Constant Matrix: (Units=GPa)
#
#
# Indices 1 2 3 4 5 6 
#
# 1 45.8472 23.3755 13.6415 0.0000 -9.0607 0.0000
# 2 23.3755 103.0074 19.8583 0.0000 -6.5784 0.0000
# 3 13.6415 19.8583 53.5647 0.0000 -13.0584 0.0000
# 4 0.0000 0.0000 0.0000 17.2559 0.0000 -7.7792
# 5 -9.0607 -6.5784 -13.0584 0.0000 22.3599 0.0000
# 6 0.0000 0.0000 0.0000 -7.7792 0.0000 30.4498
#
#
#
# Elastic Compliance Matrix: (Units=1/GPa)
#
#
# Indices 1 2 3 4 5 6 
#
# 1 0.026781 -0.004992 -0.003127 0.000000 0.007557 0.000000
# 2 -0.004992 0.011403 -0.003068 0.000000 -0.000460 0.000000
# 3 -0.003127 -0.003068 0.023406 0.000000 0.011500 0.000000
# 4 0.000000 0.000000 0.000000 0.065494 0.000000 0.016732
# 5 0.007557 -0.000460 0.011500 0.000000 0.054366 0.000000
# 6 0.000000 0.000000 0.000000 0.016732 0.000000 0.037116
#
#
# Mechanical properties :
#
#
# Convention : Reuss Voigt Hill
#
# Bulk Modulus (GPa) = 25.50038 35.13000 30.31519
# Shear Modulus (GPa) = 19.68407 23.71605 21.70006
#
# Velocity S-wave (km/s) = 3.15008 3.45769 3.30746
# Velocity P-wave (km/s) = 5.10742 5.80089 5.46517
#
# Compressibility (1/GPa) = 0.03921510
#
# Stress axis : x y z
#
# Youngs Moduli (GPa) = 37.34034 87.69630 42.72328
#
# Poissons Ratio (x) = 0.43776 0.13361
# Poissons Ratio (y) = 0.18640 0.13109
# Poissons Ratio (z) = 0.11678 0.26908
#
# Static dielectric constant tensor:
#      x y z
#    x 3.295960 0.000000 -0.193850 
#    y 0.000000 3.590600 0.000000 
#    z -0.193850 0.000000 3.374290 
# 
# 
# High freq. dielectric constant tensor:
#      x y z
#    x 1.745720 0.000000 -0.025530 
#    y 0.000000 1.771020 0.000000 
#    z -0.025530 0.000000 1.763520 
# 
# From -- ./inp_files/57274.got.cif
#   From: 2010.03.12/outbox.cif.g09.slc.cpg/sg14_29_cif.got.tgz:57274.got - 2010.03.31 13:35:05.
