data_PCOD8125136
_publ_section_title
;
Structure prediction by ZEFSAII (Michael W. Deem and Ramdas Pophale) SiO2 
 PCOD8125136
Probable space group: P 21/C
;
_chemical_formula_sum "Si O2"
_cell_formula_units_Z 28
_cell_length_a 7.744633
_cell_length_b 27.249512
_cell_length_c 7.895309
_cell_angle_alpha 90.000000
_cell_angle_beta 49.822159
_cell_angle_gamma 90.000000
_cell_volume 1273.057391
_symmetry_space_group_name_H-M "P 21/C"
_symmetry_group_IT_number 14
_symmetry_cell_setting 'monoclinic'
loop_
_space_group_symop_operation_xyz
x,y,z
-x,1/2+y,1/2-z
-x,-y,-z
x,1/2-y,1/2+z
loop_
_atom_site_type_symbol
_atom_site_label
_atom_site_fract_x
_atom_site_fract_y
_atom_site_fract_z
Si Si1 0.183404 0.305930 0.582112
Si Si2 0.627560 0.085688 0.008738
Si Si3 0.598058 0.995084 0.250998
Si Si4 0.636828 0.304026 0.497240
Si Si5 0.088608 0.736788 0.960674
Si Si6 0.856177 0.047640 0.563480
Si Si7 0.178402 0.417292 0.587465
O O1 0.412710 0.290878 0.532977
O O2 0.188942 0.361851 0.510547
O O3 0.124304 0.271483 0.458724
O O4 0.981437 0.299419 0.844370
O O5 0.629146 0.141116 0.077219
O O6 0.378504 0.074149 0.094954
O O7 0.670030 0.048506 0.137334
O O8 0.838027 0.082173 0.741455
O O9 0.399141 0.970137 0.274949
O O10 0.500000 0.000000 0.500000
O O11 0.803910 0.956169 0.081879
O O12 0.689779 0.268245 0.621906
O O13 0.846810 0.297834 0.236332
O O14 0.942922 0.074839 0.339232
O O15 0.000000 0.000000 0.500000
#
# Coordination Sequence:
#
# PCOD8125136 Si02
#       7
#     4   4   4   4   4   4   4
#     4  10  21  38  61  88 115 154 195 237 298 349
#     4  10  20  37  58  85 113 153 195 228 287 351
#     4  11  23  37  53  86 123 146 189 242 286 339
#     4  10  21  38  62  83 119 152 186 249 292 340
#     4  10  21  39  59  89 116 147 198 241 292 356
#     4  11  18  36  61  77 108 158 190 226 275 340
#     4  10  20  38  60  83 114 156 194 230 284 353
#
# _framework density 21.994295000000001
#
# number of rings (size 3 to 8) (size 9 to 14) (size 15 to 20)
#    0.000    1.714    2.857    2.571    0.000    1.714 
#    2.571    7.143    0.000    0.000    0.000    0.000 
#    0.000    0.000    0.000    0.000    0.000    0.000 
#
# Total GULP energy -346940.864170 kJ/mol
# GULP energy per Si atom -12390.745149 kJ/mol
# Density = 2.194423 g / cm^3
# Si number density = 21.994295 Si / 1000 Ang^3
#
#
#
# Elastic Constant Matrix: (Units=GPa)
#
#
# Indices 1 2 3 4 5 6 
#
# 1 61.0383 34.3216 -0.2119 0.0000 -2.5502 0.0000
# 2 34.3216 121.2934 39.8468 0.0000 6.9814 0.0000
# 3 -0.2119 39.8468 112.4723 0.0000 13.8593 0.0000
# 4 0.0000 0.0000 0.0000 18.6321 0.0000 -1.5702
# 5 -2.5502 6.9814 13.8593 0.0000 31.9756 0.0000
# 6 0.0000 0.0000 0.0000 -1.5702 0.0000 18.8663
#
#
#
# Elastic Compliance Matrix: (Units=1/GPa)
#
#
# Indices 1 2 3 4 5 6 
#
# 1 0.020136 -0.006503 0.002080 0.000000 0.002124 0.000000
# 2 -0.006503 0.011443 -0.003903 0.000000 -0.001325 0.000000
# 3 0.002080 -0.003903 0.010725 0.000000 -0.003631 0.000000
# 4 0.000000 0.000000 0.000000 0.054050 0.000000 0.004498
# 5 0.002124 -0.001325 -0.003631 0.000000 0.033306 0.000000
# 6 0.000000 0.000000 0.000000 0.004498 0.000000 0.053379
#
#
# Mechanical properties :
#
#
# Convention : Reuss Voigt Hill
#
# Bulk Modulus (GPa) = 38.98350 49.19076 44.08713
# Shear Modulus (GPa) = 24.01049 28.61798 26.31423
#
# Velocity S-wave (km/s) = 3.30763 3.61107 3.46267
# Velocity P-wave (km/s) = 5.68771 6.30874 6.00626
#
# Compressibility (1/GPa) = 0.02565188
#
# Stress axis : x y z
#
# Youngs Moduli (GPa) = 49.66240 87.38816 93.23886
#
# Poissons Ratio (x) = 0.56832 -0.19396
# Poissons Ratio (y) = 0.32297 0.36392
# Poissons Ratio (z) = -0.10331 0.34108
#
# Static dielectric constant tensor:
#      x y z
#    x 3.749530 0.000000 -0.093680 
#    y 0.000000 4.042200 0.000000 
#    z -0.093680 0.000000 4.122540 
# 
# 
# High freq. dielectric constant tensor:
#      x y z
#    x 1.840810 0.000000 -0.007170 
#    y 0.000000 1.868480 0.000000 
#    z -0.007170 0.000000 1.867150 
# 
# From -- ./inp_files/11318.got.cif
#   From: 2010.03.12/outbox.cif.g09.slc.cpg/sg14_6_cif.got.tgz:11318.got - 2010.03.31 13:35:05.
