data_PCOD8125533
_publ_section_title
;
Structure prediction by ZEFSAII (Michael W. Deem and Ramdas Pophale) SiO2 
 PCOD8125533
Probable space group: P 21/C
;
_chemical_formula_sum "Si O2"
_cell_formula_units_Z 32
_cell_length_a 8.631164
_cell_length_b 8.614262
_cell_length_c 25.812943
_cell_angle_alpha 90.000000
_cell_angle_beta 126.148458
_cell_angle_gamma 90.000000
_cell_volume 1549.754155
_symmetry_space_group_name_H-M "P 21/C"
_symmetry_group_IT_number 14
_symmetry_cell_setting 'monoclinic'
loop_
_space_group_symop_operation_xyz
x,y,z
-x,1/2+y,1/2-z
-x,-y,-z
x,1/2-y,1/2+z
loop_
_atom_site_type_symbol
_atom_site_label
_atom_site_fract_x
_atom_site_fract_y
_atom_site_fract_z
Si Si1 0.129483 0.854754 0.521847
Si Si2 0.531971 0.863879 0.284649
Si Si3 0.807729 0.326577 0.741530
Si Si4 0.945693 0.777199 0.884424
Si Si5 0.098223 0.588630 0.821738
Si Si6 0.882137 0.439651 0.428684
Si Si7 0.539437 0.915592 0.635728
Si Si8 0.451856 0.076280 0.832763
O O1 0.091445 0.747495 0.566042
O O2 0.349396 0.908624 0.563420
O O3 0.072223 0.768906 0.458434
O O4 0.000000 0.000000 0.500000
O O5 0.349308 0.747493 0.250541
O O6 0.727146 0.781924 0.342665
O O7 0.550592 0.923709 0.230275
O O8 0.497311 0.010742 0.315106
O O9 0.692536 0.438614 0.678249
O O10 0.954516 0.443107 0.799302
O O11 0.921631 0.187835 0.735238
O O12 0.059686 0.716707 0.857687
O O13 0.938283 0.967886 0.886841
O O14 0.311835 0.519466 0.867588
O O15 0.657630 0.467520 0.396379
O O16 0.000000 0.500000 0.500000
O O17 0.622183 0.742614 0.661327
#
# Coordination Sequence:
#
# PCOD8125533 Si02
#       8
#     4   4   4   4   4   4   4   4
#     4  10  20  39  66  91 121 159 212 265 305 358
#     4  11  21  35  63  91 117 158 210 263 308 358
#     4  11  23  40  57  86 127 165 194 256 310 377
#     4  11  21  38  61  88 123 159 210 257 304 377
#     4  11  25  38  58  87 130 166 201 244 325 379
#     4   9  21  36  59  89 118 157 203 262 305 355
#     4  10  23  39  58  92 126 164 201 254 318 375
#     4  11  20  36  63  88 119 155 213 258 305 363
#
# _framework density 20.648439
#
# number of rings (size 3 to 8) (size 9 to 14) (size 15 to 20)
#    0.000    1.500    3.750    1.500    0.000    1.500 
#    0.000    1.250    0.000    9.000    0.000    0.000 
#    0.000    0.000    0.000    0.000    0.000    0.000 
#
# Total GULP energy -396441.728851 kJ/mol
# GULP energy per Si atom -12388.804027 kJ/mol
# Density = 2.060144 g / cm^3
# Si number density = 20.648439 Si / 1000 Ang^3
#
#
#
# Elastic Constant Matrix: (Units=GPa)
#
#
# Indices 1 2 3 4 5 6 
#
# 1 91.5821 42.4522 33.2452 0.0000 8.1409 0.0000
# 2 42.4522 95.9391 17.8716 0.0000 10.9454 0.0000
# 3 33.2452 17.8716 73.8627 0.0000 22.6376 0.0000
# 4 0.0000 0.0000 0.0000 30.8831 0.0000 8.1440
# 5 8.1409 10.9454 22.6376 0.0000 29.2740 0.0000
# 6 0.0000 0.0000 0.0000 8.1440 0.0000 38.4664
#
#
#
# Elastic Compliance Matrix: (Units=1/GPa)
#
#
# Indices 1 2 3 4 5 6 
#
# 1 0.015890 -0.006145 -0.006573 0.000000 0.002961 0.000000
# 2 -0.006145 0.013453 0.000693 0.000000 -0.003857 0.000000
# 3 -0.006573 0.000693 0.020772 0.000000 -0.014494 0.000000
# 4 0.000000 0.000000 0.000000 0.034295 0.000000 -0.007261
# 5 0.002961 -0.003857 -0.014494 0.000000 0.045987 0.000000
# 6 0.000000 0.000000 0.000000 -0.007261 0.000000 0.027534
#
#
# Mechanical properties :
#
#
# Convention : Reuss Voigt Hill
#
# Bulk Modulus (GPa) = 38.36556 49.83576 44.10066
# Shear Modulus (GPa) = 26.22345 30.91238 28.56792
#
# Velocity S-wave (km/s) = 3.56757 3.87341 3.72363
# Velocity P-wave (km/s) = 5.96580 6.64772 6.31597
#
# Compressibility (1/GPa) = 0.02606505
#
# Stress axis : x y z
#
# Youngs Moduli (GPa) = 62.93128 74.33133 48.14267
#
# Poissons Ratio (x) = 0.45675 0.31644
# Poissons Ratio (y) = 0.38670 -0.03335
# Poissons Ratio (z) = 0.41365 -0.05149
#
# Static dielectric constant tensor:
#      x y z
#    x 3.705830 0.000000 0.313460 
#    y 0.000000 6.416120 0.000000 
#    z 0.313460 0.000000 3.680030 
# 
# 
# High freq. dielectric constant tensor:
#      x y z
#    x 1.788230 0.000000 0.032440 
#    y 0.000000 1.835940 0.000000 
#    z 0.032440 0.000000 1.792860 
# 
# From -- ./inp_files/72088.got.cif
#   From: 2010.03.12/outbox.cif.g09.slc.cpg/sg14_37_cif.got.tgz:72088.got - 2010.03.31 13:35:05.
