data_PCOD8125637
_publ_section_title
;
Structure prediction by ZEFSAII (Michael W. Deem and Ramdas Pophale) SiO2 
 PCOD8125637
Probable space group: P 21/C
;
_chemical_formula_sum "Si O2"
_cell_formula_units_Z 24
_cell_length_a 22.360123
_cell_length_b 5.103323
_cell_length_c 17.173933
_cell_angle_alpha 90.000000
_cell_angle_beta 146.886225
_cell_angle_gamma 90.000000
_cell_volume 1070.608955
_symmetry_space_group_name_H-M "P 21/C"
_symmetry_group_IT_number 14
_symmetry_cell_setting 'monoclinic'
loop_
_space_group_symop_operation_xyz
x,y,z
-x,1/2+y,1/2-z
-x,-y,-z
x,1/2-y,1/2+z
loop_
_atom_site_type_symbol
_atom_site_label
_atom_site_fract_x
_atom_site_fract_y
_atom_site_fract_z
Si Si1 0.623937 0.646715 0.753112
Si Si2 0.386323 0.522464 0.489456
Si Si3 0.255246 0.455879 0.492882
Si Si4 0.193071 0.742382 0.078425
Si Si5 0.334176 0.473565 0.837503
Si Si6 0.021675 0.284436 0.225968
O O1 0.515354 0.471275 0.647053
O O2 0.664560 0.739635 0.881914
O O3 0.722870 0.496499 0.816837
O O4 0.595159 0.886066 0.661853
O O5 0.322552 0.601541 0.498498
O O6 0.330215 0.257971 0.396259
O O7 0.382815 0.762163 0.426081
O O8 0.218995 0.657374 0.519460
O O9 0.147043 0.324790 0.336359
O O10 0.213899 0.954902 0.169768
O O11 0.064701 0.660993 0.939040
O O12 0.991688 0.483208 0.262921
#
# Coordination Sequence:
#
# PCOD8125637 Si02
#       6
#     4   4   4   4   4   4
#     4  11  23  42  68  92 129 173 218 254 318 392
#     4  12  27  39  66  96 137 164 208 269 327 372
#     4  10  25  40  65 100 131 162 217 276 327 366
#     4  10  22  42  69  92 122 173 222 260 310 391
#     4  11  25  44  63  94 129 178 213 254 314 398
#     4  10  20  40  66  93 123 166 218 269 315 378
#
# _framework density 22.417148999999998
#
# number of rings (size 3 to 8) (size 9 to 14) (size 15 to 20)
#    0.000    1.333    3.333    1.000    9.333    0.000 
#    0.000    1.667    0.000    0.000    0.000    0.000 
#    0.000    0.000    0.000    0.000    0.000    0.000 
#
# Total GULP energy -297416.519544 kJ/mol
# GULP energy per Si atom -12392.354981 kJ/mol
# Density = 2.236613 g / cm^3
# Si number density = 22.417149 Si / 1000 Ang^3
#
#
#
# Elastic Constant Matrix: (Units=GPa)
#
#
# Indices 1 2 3 4 5 6 
#
# 1 53.0503 7.9271 64.5573 0.0000 7.8882 0.0000
# 2 7.9271 86.2095 54.1672 0.0000 4.1123 0.0000
# 3 64.5573 54.1672 158.3354 0.0000 5.6674 0.0000
# 4 0.0000 0.0000 0.0000 32.7436 0.0000 -4.3401
# 5 7.8882 4.1123 5.6674 0.0000 12.5222 0.0000
# 6 0.0000 0.0000 0.0000 -4.3401 0.0000 18.8627
#
#
#
# Elastic Compliance Matrix: (Units=1/GPa)
#
#
# Indices 1 2 3 4 5 6 
#
# 1 0.048086 0.010820 -0.022460 0.000000 -0.023679 0.000000
# 2 0.010820 0.017295 -0.010044 0.000000 -0.007950 0.000000
# 3 -0.022460 -0.010044 0.018586 0.000000 0.009035 0.000000
# 4 0.000000 0.000000 0.000000 0.031501 0.000000 0.007248
# 5 -0.023679 -0.007950 0.009035 0.000000 0.093297 0.000000
# 6 0.000000 0.000000 0.000000 0.007248 0.000000 0.054682
#
#
# Mechanical properties :
#
#
# Convention : Reuss Voigt Hill
#
# Bulk Modulus (GPa) = 24.63107 61.21094 42.92101
# Shear Modulus (GPa) = 15.60815 24.22193 19.91504
#
# Velocity S-wave (km/s) = 2.64154 3.29068 2.98381
# Velocity P-wave (km/s) = 4.50722 6.46550 5.57305
#
# Compressibility (1/GPa) = 0.04059913
#
# Stress axis : x y z
#
# Youngs Moduli (GPa) = 20.79625 57.82182 53.80506
#
# Poissons Ratio (x) = -0.62563 1.20844
# Poissons Ratio (y) = -0.22501 0.54039
# Poissons Ratio (z) = 0.46708 0.58073
#
# Static dielectric constant tensor:
#      x y z
#    x 3.493450 0.000000 -0.040730 
#    y 0.000000 4.002250 0.000000 
#    z -0.040730 0.000000 4.698260 
# 
# 
# High freq. dielectric constant tensor:
#      x y z
#    x 1.825960 0.000000 -0.004340 
#    y 0.000000 1.884760 0.000000 
#    z -0.004340 0.000000 1.912600 
# 
# From -- ./inp_files/56533.got.cif
#   From: 2010.03.12/outbox.cif.g09.slc.cpg/sg14_29_cif.got.tgz:56533.got - 2010.03.31 13:35:05.
