data_PCOD8125669
_publ_section_title
;
Structure prediction by ZEFSAII (Michael W. Deem and Ramdas Pophale) SiO2 
 PCOD8125669
Probable space group: P 21/C
;
_chemical_formula_sum "Si O2"
_cell_formula_units_Z 32
_cell_length_a 8.817425
_cell_length_b 23.169898
_cell_length_c 8.386279
_cell_angle_alpha 90.000000
_cell_angle_beta 115.440230
_cell_angle_gamma 90.000000
_cell_volume 1547.174342
_symmetry_space_group_name_H-M "P 21/C"
_symmetry_group_IT_number 14
_symmetry_cell_setting 'monoclinic'
loop_
_space_group_symop_operation_xyz
x,y,z
-x,1/2+y,1/2-z
-x,-y,-z
x,1/2-y,1/2+z
loop_
_atom_site_type_symbol
_atom_site_label
_atom_site_fract_x
_atom_site_fract_y
_atom_site_fract_z
Si Si1 0.508077 0.042511 0.854328
Si Si2 0.190487 0.019734 0.112099
Si Si3 0.782277 0.531760 0.015971
Si Si4 0.067522 0.590167 0.980649
Si Si5 0.649840 0.873959 0.996796
Si Si6 0.315222 0.827937 0.753227
Si Si7 0.018707 0.183561 0.804404
Si Si8 0.836518 0.227772 0.019254
O O1 0.392904 0.023712 0.653588
O O2 0.698247 0.037564 0.874736
O O3 0.452231 0.105711 0.890186
O O4 0.500000 0.000000 0.000000
O O5 0.235439 0.045179 0.305682
O O6 0.241656 0.072243 0.019301
O O7 0.000000 0.000000 0.000000
O O8 0.886208 0.584416 0.983426
O O9 0.881729 0.472421 0.053159
O O10 0.197634 0.617264 0.164262
O O11 0.058193 0.628619 0.819160
O O12 0.508024 0.848135 0.814969
O O13 0.780025 0.822572 0.092488
O O14 0.280450 0.774968 0.619379
O O15 0.282874 0.809768 0.921397
O O16 0.981778 0.241733 0.689437
O O17 0.930347 0.186467 0.936711
#
# Coordination Sequence:
#
# PCOD8125669 Si02
#       8
#     4   4   4   4   4   4   4   4
#     4  10  22  40  57  86 130 168 210 256 308 362
#     4  11  25  38  61  92 131 177 218 258 309 377
#     4  11  22  38  60  92 132 169 211 256 311 370
#     4  10  21  36  63  89 125 167 206 253 309 389
#     4  11  23  38  62  92 128 163 212 260 315 383
#     4  10  22  41  64  92 122 162 210 262 331 378
#     4  10  20  41  62  94 119 159 212 258 322 380
#     4   9  22  42  68  87 119 160 207 273 324 384
#
# _framework density 20.682866000000001
#
# number of rings (size 3 to 8) (size 9 to 14) (size 15 to 20)
#    0.000    1.750    1.250    2.625    8.750    2.000 
#    0.000    2.500    0.000    0.000    0.000    0.000 
#    0.000    0.000    0.000    0.000    0.000    0.000 
#
# Total GULP energy -396737.532748 kJ/mol
# GULP energy per Si atom -12398.047898 kJ/mol
# Density = 2.063579 g / cm^3
# Si number density = 20.682866 Si / 1000 Ang^3
#
#
#
# Elastic Constant Matrix: (Units=GPa)
#
#
# Indices 1 2 3 4 5 6 
#
# 1 121.1400 37.5575 52.8901 0.0000 21.7785 0.0000
# 2 37.5575 63.2726 20.7956 0.0000 6.0050 0.0000
# 3 52.8901 20.7956 117.2838 0.0000 12.2614 0.0000
# 4 0.0000 0.0000 0.0000 26.1752 0.0000 2.7200
# 5 21.7785 6.0050 12.2614 0.0000 46.7296 0.0000
# 6 0.0000 0.0000 0.0000 2.7200 0.0000 36.4016
#
#
#
# Elastic Compliance Matrix: (Units=1/GPa)
#
#
# Indices 1 2 3 4 5 6 
#
# 1 0.012602 -0.005701 -0.004251 0.000000 -0.004025 0.000000
# 2 -0.005701 0.019453 -0.000920 0.000000 0.000399 0.000000
# 3 -0.004251 -0.000920 0.010680 0.000000 -0.000703 0.000000
# 4 0.000000 0.000000 0.000000 0.038503 0.000000 -0.002877
# 5 -0.004025 0.000399 -0.000703 0.000000 0.023409 0.000000
# 6 0.000000 0.000000 0.000000 -0.002877 0.000000 0.027686
#
#
# Mechanical properties :
#
#
# Convention : Reuss Voigt Hill
#
# Bulk Modulus (GPa) = 47.64035 58.24254 52.94144
# Shear Modulus (GPa) = 31.04126 34.55814 32.79970
#
# Velocity S-wave (km/s) = 3.87824 4.09205 3.98658
# Velocity P-wave (km/s) = 6.56796 7.10967 6.84418
#
# Compressibility (1/GPa) = 0.02099061
#
# Stress axis : x y z
#
# Youngs Moduli (GPa) = 79.35057 51.40527 93.63186
#
# Poissons Ratio (x) = 0.29307 0.39807
# Poissons Ratio (y) = 0.45239 0.08614
# Poissons Ratio (z) = 0.33735 0.04729
#
# Static dielectric constant tensor:
#      x y z
#    x 3.935060 0.000000 -0.032060 
#    y 0.000000 3.696300 0.000000 
#    z -0.032060 0.000000 3.878890 
# 
# 
# High freq. dielectric constant tensor:
#      x y z
#    x 1.805450 0.000000 0.003280 
#    y 0.000000 1.796660 0.000000 
#    z 0.003280 0.000000 1.822160 
# 
# From -- ./inp_files/10831.got.cif
#   From: 2010.03.12/outbox.cif.g09.slc.cpg/sg14_6_cif.got.tgz:10831.got - 2010.03.31 13:35:05.
