data_PCOD8125912
_publ_section_title
;
Structure prediction by ZEFSAII (Michael W. Deem and Ramdas Pophale) SiO2 
 PCOD8125912
Probable space group: P 21/C
;
_chemical_formula_sum "Si O2"
_cell_formula_units_Z 28
_cell_length_a 6.302265
_cell_length_b 14.555475
_cell_length_c 14.916792
_cell_angle_alpha 90.000000
_cell_angle_beta 70.423260
_cell_angle_gamma 90.000000
_cell_volume 1289.254355
_symmetry_space_group_name_H-M "P 21/C"
_symmetry_group_IT_number 14
_symmetry_cell_setting 'monoclinic'
loop_
_space_group_symop_operation_xyz
x,y,z
-x,1/2+y,1/2-z
-x,-y,-z
x,1/2-y,1/2+z
loop_
_atom_site_type_symbol
_atom_site_label
_atom_site_fract_x
_atom_site_fract_y
_atom_site_fract_z
Si Si1 0.481292 0.381478 0.597607
Si Si2 0.019401 0.063572 0.239343
Si Si3 0.266705 0.728650 0.148361
Si Si4 0.713469 0.703307 0.542154
Si Si5 0.252293 0.897224 0.287337
Si Si6 0.289613 0.038949 0.846925
Si Si7 0.822704 0.268688 0.048764
O O1 0.444522 0.358048 0.499429
O O2 0.605965 0.478891 0.586676
O O3 0.646559 0.303913 0.616120
O O4 0.245547 0.380750 0.684054
O O5 0.833664 0.134387 0.300463
O O6 0.915107 0.016397 0.166598
O O7 0.075863 0.980890 0.299961
O O8 0.541409 0.721597 0.109094
O O9 0.202461 0.817497 0.219186
O O10 0.178962 0.731223 0.058466
O O11 0.814326 0.633777 0.601620
O O12 0.919453 0.747283 0.459359
O O13 0.505762 0.936187 0.248307
O O14 0.226935 0.863621 0.393434
#
# Coordination Sequence:
#
# PCOD8125912 Si02
#       7
#     4   4   4   4   4   4   4
#     4  10  21  36  59  91 119 155 206 258 315 370
#     4  11  23  40  64  90 122 164 209 253 303 369
#     4  10  23  41  61  91 124 160 209 255 305 369
#     4  10  21  37  60  88 121 160 204 255 313 369
#     4  10  23  41  61  91 124 163 211 252 307 370
#     4  10  21  37  59  86 121 159 200 261 316 359
#     4  11  23  40  62  87 124 165 200 253 309 362
#
# _framework density 21.717977999999999
#
# number of rings (size 3 to 8) (size 9 to 14) (size 15 to 20)
#    0.000    1.714    0.000    3.857    0.000   13.143 
#    0.000    1.429    0.000    0.000    0.000    0.000 
#    0.000    0.000    0.000    0.000    0.000    0.000 
#
# Total GULP energy -346996.891808 kJ/mol
# GULP energy per Si atom -12392.746136 kJ/mol
# Density = 2.166855 g / cm^3
# Si number density = 21.717978 Si / 1000 Ang^3
#
#
#
# Elastic Constant Matrix: (Units=GPa)
#
#
# Indices 1 2 3 4 5 6 
#
# 1 83.3996 37.3997 30.7011 0.0000 -25.6031 0.0000
# 2 37.3997 103.8248 41.7470 0.0000 -24.4001 0.0000
# 3 30.7011 41.7470 71.4534 0.0000 -12.4197 0.0000
# 4 0.0000 0.0000 0.0000 36.6436 0.0000 -2.2288
# 5 -25.6031 -24.4001 -12.4197 0.0000 33.6779 0.0000
# 6 0.0000 0.0000 0.0000 -2.2288 0.0000 36.2045
#
#
#
# Elastic Compliance Matrix: (Units=1/GPa)
#
#
# Indices 1 2 3 4 5 6 
#
# 1 0.017806 -0.002143 -0.004611 0.000000 0.010283 0.000000
# 2 -0.002143 0.014521 -0.006430 0.000000 0.006520 0.000000
# 3 -0.004611 -0.006430 0.019568 0.000000 -0.000948 0.000000
# 4 0.000000 0.000000 0.000000 0.027392 0.000000 0.001686
# 5 0.010283 0.006520 -0.000948 0.000000 0.041885 0.000000
# 6 0.000000 0.000000 0.000000 0.001686 0.000000 0.027725
#
#
# Mechanical properties :
#
#
# Convention : Reuss Voigt Hill
#
# Bulk Modulus (GPa) = 39.17387 53.15262 46.16325
# Shear Modulus (GPa) = 27.20703 31.22719 29.21711
#
# Velocity S-wave (km/s) = 3.54325 3.79601 3.67181
# Velocity P-wave (km/s) = 5.90052 6.61363 6.26723
#
# Compressibility (1/GPa) = 0.02552722
#
# Stress axis : x y z
#
# Youngs Moduli (GPa) = 56.16109 68.86353 51.10290
#
# Poissons Ratio (x) = 0.14759 0.23563
# Poissons Ratio (y) = 0.12037 0.32859
# Poissons Ratio (z) = 0.25896 0.44279
#
# Static dielectric constant tensor:
#      x y z
#    x 4.020620 0.000000 -0.159420 
#    y 0.000000 3.953970 0.000000 
#    z -0.159420 0.000000 3.684960 
# 
# 
# High freq. dielectric constant tensor:
#      x y z
#    x 1.862960 0.000000 -0.010240 
#    y 0.000000 1.846870 0.000000 
#    z -0.010240 0.000000 1.838460 
# 
# From -- ./inp_files/53411.got.cif
#   From: 2010.03.12/outbox.cif.g09.slc.cpg/sg14_27_cif.got.tgz:53411.got - 2010.03.31 13:35:05.
