data_PCOD8125312
_publ_section_title
;
Structure prediction by ZEFSAII (Michael W. Deem and Ramdas Pophale) SiO2 
 PCOD8125312
Probable space group: P 21/C
;
_chemical_formula_sum "Si O2"
_cell_formula_units_Z 28
_cell_length_a 14.472970
_cell_length_b 13.449440
_cell_length_c 9.599956
_cell_angle_alpha 90.000000
_cell_angle_beta 53.164145
_cell_angle_gamma 90.000000
_cell_volume 1495.596715
_symmetry_space_group_name_H-M "P 21/C"
_symmetry_group_IT_number 14
_symmetry_cell_setting 'monoclinic'
loop_
_space_group_symop_operation_xyz
x,y,z
-x,1/2+y,1/2-z
-x,-y,-z
x,1/2-y,1/2+z
loop_
_atom_site_type_symbol
_atom_site_label
_atom_site_fract_x
_atom_site_fract_y
_atom_site_fract_z
Si Si1 0.378530 0.073433 0.722717
Si Si2 0.034299 0.469925 0.244783
Si Si3 0.169451 0.644715 0.009136
Si Si4 0.556738 0.359890 0.862790
Si Si5 0.417458 0.815258 0.361086
Si Si6 0.878249 0.885709 0.051997
Si Si7 0.053142 0.719064 0.838981
O O1 0.428685 0.100298 0.522504
O O2 0.470549 0.112604 0.755552
O O3 0.256931 0.127174 0.857566
O O4 0.362985 0.954477 0.748275
O O5 0.117967 0.534360 0.070688
O O6 0.108424 0.427819 0.305060
O O7 0.980585 0.382427 0.204060
O O8 0.929977 0.537930 0.393480
O O9 0.132839 0.713308 0.170900
O O10 0.308097 0.636812 0.881701
O O11 0.126943 0.696317 0.908019
O O12 0.550679 0.290799 0.733640
O O13 0.610282 0.301567 0.948409
O O14 0.937322 0.778086 0.986265
#
# Coordination Sequence:
#
# PCOD8125312 Si02
#       7
#     4   4   4   4   4   4   4
#     4   9  21  39  61  85 120 156 195 237 296 355
#     4  10  22  37  61  87 119 155 196 242 299 345
#     4  11  22  37  61  87 122 152 200 242 293 351
#     4   9  20  38  61  86 116 155 200 233 294 344
#     4  10  20  38  60  89 112 159 192 242 289 345
#     4  10  21  40  62  88 119 159 194 240 302 355
#     4  11  22  39  59  91 116 158 196 244 293 350
#
# _framework density 18.721625
#
# number of rings (size 3 to 8) (size 9 to 14) (size 15 to 20)
#    0.857    1.143    1.429    2.143    2.000    1.143 
#    0.000    0.714    0.000    0.000    0.000    0.000 
#    0.000    0.000    0.000    0.000    0.000    0.000 
#
# Total GULP energy -347130.549846 kJ/mol
# GULP energy per Si atom -12397.519637 kJ/mol
# Density = 1.867901 g / cm^3
# Si number density = 18.721625 Si / 1000 Ang^3
#
#
#
# Elastic Constant Matrix: (Units=GPa)
#
#
# Indices 1 2 3 4 5 6 
#
# 1 132.1386 42.8658 41.1519 0.0000 -21.0906 0.0000
# 2 42.8658 59.6001 60.4116 0.0000 27.5751 0.0000
# 3 41.1519 60.4116 -6.5269 0.0000 -21.4719 0.0000
# 4 0.0000 0.0000 0.0000 38.3023 0.0000 9.2886
# 5 -21.0906 27.5751 -21.4719 0.0000 14.8273 0.0000
# 6 0.0000 0.0000 0.0000 9.2886 0.0000 26.5927
#
#
#
# Elastic Compliance Matrix: (Units=1/GPa)
#
#
# Indices 1 2 3 4 5 6 
#
# 1 0.016400 -0.006560 -0.012873 0.000000 0.016887 0.000000
# 2 -0.006560 0.006248 0.014815 0.000000 0.000502 0.000000
# 3 -0.012873 0.014815 0.009303 0.000000 -0.032390 0.000000
# 4 0.000000 0.000000 0.000000 0.028524 0.000000 -0.009963
# 5 0.016887 0.000502 -0.032390 0.000000 0.043624 0.000000
# 6 0.000000 0.000000 0.000000 -0.009963 0.000000 0.041084
#
#
# Mechanical properties :
#
#
# Convention : Reuss Voigt Hill
#
# Bulk Modulus (GPa) = 44.02529 52.67448 48.34988
# Shear Modulus (GPa) = 30.86553 18.66331 24.76442
#
# Velocity S-wave (km/s) = 4.06477 3.16077 3.64094
# Velocity P-wave (km/s) = 6.75253 6.44340 6.59977
#
# Compressibility (1/GPa) = 0.02271422
#
# Stress axis : x y z
#
# Youngs Moduli (GPa) = 60.97397 160.04964 107.49095
#
# Poissons Ratio (x) = 1.05000 1.38373
# Poissons Ratio (y) = 0.40002 -1.59246
# Poissons Ratio (z) = 0.78492 -2.37110
#
# Static dielectric constant tensor:
#      x y z
#    x 3.294310 0.000000 0.003290 
#    y 0.000000 3.430650 0.000000 
#    z 0.003290 0.000000 3.356150 
# 
# 
# High freq. dielectric constant tensor:
#      x y z
#    x 1.723090 0.000000 -0.003550 
#    y 0.000000 1.728080 0.000000 
#    z -0.003550 0.000000 1.714360 
# 
# From -- ./inp_files/13051.got.cif
#   From: 2010.03.12/outbox.cif.g09.slc.cpg/sg14_7_cif.got.tgz:13051.got - 2010.03.31 13:35:05.
