data_PCOD8125560
_publ_section_title
;
Structure prediction by ZEFSAII (Michael W. Deem and Ramdas Pophale) SiO2 
 PCOD8125560
Probable space group: P 21/C
;
_chemical_formula_sum "Si O2"
_cell_formula_units_Z 28
_cell_length_a 11.146051
_cell_length_b 8.051867
_cell_length_c 13.270306
_cell_angle_alpha 90.000000
_cell_angle_beta 65.870586
_cell_angle_gamma 90.000000
_cell_volume 1086.902648
_symmetry_space_group_name_H-M "P 21/C"
_symmetry_group_IT_number 14
_symmetry_cell_setting 'monoclinic'
loop_
_space_group_symop_operation_xyz
x,y,z
-x,1/2+y,1/2-z
-x,-y,-z
x,1/2-y,1/2+z
loop_
_atom_site_type_symbol
_atom_site_label
_atom_site_fract_x
_atom_site_fract_y
_atom_site_fract_z
Si Si1 0.583372 0.774521 0.955446
Si Si2 0.651586 0.211446 0.607484
Si Si3 0.621998 0.106060 0.831038
Si Si4 0.791740 0.987129 0.120394
Si Si5 0.165751 0.365294 0.188055
Si Si6 0.054016 0.073262 0.115240
Si Si7 0.152476 0.723064 0.131768
O O1 0.471149 0.696267 0.924029
O O2 0.702519 0.643642 0.927339
O O3 0.649569 0.933215 0.877782
O O4 0.521697 0.824701 0.084805
O O5 0.629683 0.084175 0.707609
O O6 0.662189 0.397632 0.652487
O O7 0.786657 0.183814 0.499350
O O8 0.734230 0.232419 0.827768
O O9 0.778864 0.854467 0.215630
O O10 0.820507 0.900170 0.002330
O O11 0.919581 0.104254 0.100261
O O12 0.066542 0.214185 0.197355
O O13 0.094057 0.545938 0.193640
O O14 0.050599 0.879513 0.157809
#
# Coordination Sequence:
#
# PCOD8125560 Si02
#       7
#     4   4   4   4   4   4   4
#     4  10  24  37  61  97 129 172 212 267 327 391
#     4  10  22  39  65  92 134 171 214 271 321 390
#     4  10  20  40  60  87 134 171 205 264 326 382
#     4  10  24  44  68  96 131 178 214 269 337 381
#     4  12  24  41  72  99 123 176 223 263 333 395
#     4  10  24  48  65  95 139 165 217 280 320 391
#     4  10  22  42  64  99 129 166 217 272 320 384
#
# _framework density 25.761274
#
# number of rings (size 3 to 8) (size 9 to 14) (size 15 to 20)
#    0.000    1.714    2.857    0.000    6.000    4.571 
#    0.000    6.429    0.000    0.000    0.000    0.000 
#    0.000    0.000    0.000    0.000    0.000    0.000 
#
# Total GULP energy -347168.809069 kJ/mol
# GULP energy per Si atom -12398.886038 kJ/mol
# Density = 2.570264 g / cm^3
# Si number density = 25.761274 Si / 1000 Ang^3
#
#
#
# Elastic Constant Matrix: (Units=GPa)
#
#
# Indices 1 2 3 4 5 6 
#
# 1 42.1554 28.9743 -8.4664 0.0000 -4.3313 0.0000
# 2 28.9743 121.1171 46.9090 0.0000 -4.0993 0.0000
# 3 -8.4664 46.9090 117.2701 0.0000 21.3984 0.0000
# 4 0.0000 0.0000 0.0000 47.2762 0.0000 -1.2204
# 5 -4.3313 -4.0993 21.3984 0.0000 36.9388 0.0000
# 6 0.0000 0.0000 0.0000 -1.2204 0.0000 45.2662
#
#
#
# Elastic Compliance Matrix: (Units=1/GPa)
#
#
# Indices 1 2 3 4 5 6 
#
# 1 0.031984 -0.010265 0.006641 0.000000 -0.001236 0.000000
# 2 -0.010265 0.013551 -0.006951 0.000000 0.004327 0.000000
# 3 0.006641 -0.006951 0.013179 0.000000 -0.007627 0.000000
# 4 0.000000 0.000000 0.000000 0.021167 0.000000 0.000571
# 5 -0.001236 0.004327 -0.007627 0.000000 0.031825 0.000000
# 6 0.000000 0.000000 0.000000 0.000571 0.000000 0.022107
#
#
# Mechanical properties :
#
#
# Convention : Reuss Voigt Hill
#
# Bulk Modulus (GPa) = 26.62209 46.15294 36.38751
# Shear Modulus (GPa) = 29.85340 40.10462 34.97901
#
# Velocity S-wave (km/s) = 3.40788 3.94988 3.68885
# Velocity P-wave (km/s) = 5.08345 6.22548 5.68322
#
# Compressibility (1/GPa) = 0.03756279
#
# Stress axis : x y z
#
# Youngs Moduli (GPa) = 31.26562 73.79641 75.87833
#
# Poissons Ratio (x) = 0.75754 -0.50389
# Poissons Ratio (y) = 0.32095 0.52743
# Poissons Ratio (z) = -0.20763 0.51296
#
# Static dielectric constant tensor:
#      x y z
#    x 4.392280 0.000000 -0.072430 
#    y 0.000000 4.317960 0.000000 
#    z -0.072430 0.000000 5.115840 
# 
# 
# High freq. dielectric constant tensor:
#      x y z
#    x 2.025960 0.000000 -0.016780 
#    y 0.000000 2.003410 0.000000 
#    z -0.016780 0.000000 2.064290 
# 
# From -- ./inp_files/43286.got.cif
#   From: 2010.03.12/outbox.cif.g09.slc.cpg/sg14_22_cif.got.tgz:43286.got - 2010.03.31 13:35:05.
