data_PCOD8125499
_publ_section_title
;
Structure prediction by ZEFSAII (Michael W. Deem and Ramdas Pophale) SiO2 
 PCOD8125499
Probable space group: P 21/C
;
_chemical_formula_sum "Si O2"
_cell_formula_units_Z 32
_cell_length_a 12.007176
_cell_length_b 11.200356
_cell_length_c 12.048548
_cell_angle_alpha 90.000000
_cell_angle_beta 103.100800
_cell_angle_gamma 90.000000
_cell_volume 1578.171678
_symmetry_space_group_name_H-M "P 21/C"
_symmetry_group_IT_number 14
_symmetry_cell_setting 'monoclinic'
loop_
_space_group_symop_operation_xyz
x,y,z
-x,1/2+y,1/2-z
-x,-y,-z
x,1/2-y,1/2+z
loop_
_atom_site_type_symbol
_atom_site_label
_atom_site_fract_x
_atom_site_fract_y
_atom_site_fract_z
Si Si1 0.105042 0.590742 0.005147
Si Si2 0.529964 0.515185 0.674943
Si Si3 0.856608 0.568714 0.580275
Si Si4 0.223637 0.663662 0.819981
Si Si5 0.614978 0.841068 0.993410
Si Si6 0.901803 0.142564 0.923336
Si Si7 0.482405 0.894181 0.408657
Si Si8 0.770048 0.078205 0.247227
O O1 0.151262 0.582216 0.889693
O O2 0.081130 0.729913 0.016449
O O3 0.202159 0.560976 0.117069
O O4 0.000000 0.500000 0.000000
O O5 0.423833 0.440908 0.603633
O O6 0.563430 0.625609 0.602501
O O7 0.500385 0.563211 0.788264
O O8 0.633905 0.422188 0.705036
O O9 0.753427 0.655952 0.518640
O O10 0.870518 0.452588 0.508125
O O11 0.828975 0.532227 0.699553
O O12 0.977112 0.633241 0.611077
O O13 0.199208 0.620676 0.689019
O O14 0.354474 0.655559 0.887429
O O15 0.185552 0.802435 0.804452
O O16 0.574023 0.708689 0.955376
O O17 0.500000 0.000000 0.500000
#
# Coordination Sequence:
#
# PCOD8125499 Si02
#       8
#     4   4   4   4   4   4   4   4
#     4  11  23  38  63  91 126 161 211 258 317 375
#     4  10  22  42  64  89 126 167 214 259 328 393
#     4  10  20  41  63  89 121 159 221 255 321 380
#     4  11  22  40  61  90 125 163 214 253 324 393
#     4  10  23  41  66  92 126 173 212 272 331 396
#     4  10  22  38  64  89 120 169 207 266 310 391
#     4  12  26  39  66 100 133 164 218 279 334 389
#     4  10  20  39  64  86 119 169 207 254 310 390
#
# _framework density 20.276627999999999
#
# number of rings (size 3 to 8) (size 9 to 14) (size 15 to 20)
#    0.000    1.500    2.500    2.250    1.750    4.000 
#    0.000    0.000    0.000    0.000    0.000    0.000 
#    0.000    0.000    0.000    0.000    0.000    0.000 
#
# Total GULP energy -396613.813963 kJ/mol
# GULP energy per Si atom -12394.181686 kJ/mol
# Density = 2.023048 g / cm^3
# Si number density = 20.276628 Si / 1000 Ang^3
#
#
#
# Elastic Constant Matrix: (Units=GPa)
#
#
# Indices 1 2 3 4 5 6 
#
# 1 65.0912 21.9556 17.0186 0.0000 2.3695 0.0000
# 2 21.9556 71.1679 28.7091 0.0000 -1.9786 0.0000
# 3 17.0186 28.7091 94.9092 0.0000 -7.3879 0.0000
# 4 0.0000 0.0000 0.0000 27.3355 0.0000 4.9671
# 5 2.3695 -1.9786 -7.3879 0.0000 36.5164 0.0000
# 6 0.0000 0.0000 0.0000 4.9671 0.0000 32.4056
#
#
#
# Elastic Compliance Matrix: (Units=1/GPa)
#
#
# Indices 1 2 3 4 5 6 
#
# 1 0.017497 -0.004699 -0.001853 0.000000 -0.001765 0.000000
# 2 -0.004699 0.017267 -0.004352 0.000000 0.000360 0.000000
# 3 -0.001853 -0.004352 0.012371 0.000000 0.002387 0.000000
# 4 0.000000 0.000000 0.000000 0.037631 0.000000 -0.005768
# 5 -0.001765 0.000360 0.002387 0.000000 0.028002 0.000000
# 6 0.000000 0.000000 0.000000 -0.005768 0.000000 0.031743
#
#
# Mechanical properties :
#
#
# Convention : Reuss Voigt Hill
#
# Bulk Modulus (GPa) = 39.48699 40.72612 40.10655
# Shear Modulus (GPa) = 28.61031 30.15049 29.38040
#
# Velocity S-wave (km/s) = 3.76040 3.86029 3.81067
# Velocity P-wave (km/s) = 6.19440 6.32440 6.25974
#
# Compressibility (1/GPa) = 0.02532480
#
# Stress axis : x y z
#
# Youngs Moduli (GPa) = 57.15270 57.91465 80.83350
#
# Poissons Ratio (x) = 0.27216 0.14981
# Poissons Ratio (y) = 0.26858 0.35182
# Poissons Ratio (z) = 0.10592 0.25207
#
# Static dielectric constant tensor:
#      x y z
#    x 3.841080 0.000000 0.082470 
#    y 0.000000 3.559900 0.000000 
#    z 0.082470 0.000000 3.878910 
# 
# 
# High freq. dielectric constant tensor:
#      x y z
#    x 1.793350 0.000000 0.002860 
#    y 0.000000 1.783270 0.000000 
#    z 0.002860 0.000000 1.807260 
# 
# From -- ./inp_files/29079.got.cif
#   From: 2010.03.12/outbox.cif.g09.slc.cpg/sg14_15_cif.got.tgz:29079.got - 2010.03.31 13:35:05.
