data_PCOD8125041
_publ_section_title
;
Structure prediction by ZEFSAII (Michael W. Deem and Ramdas Pophale) SiO2 
 PCOD8125041
Probable space group: P 21/C
;
_chemical_formula_sum "Si O2"
_cell_formula_units_Z 32
_cell_length_a 19.271835
_cell_length_b 8.542945
_cell_length_c 13.825316
_cell_angle_alpha 90.000000
_cell_angle_beta 41.415303
_cell_angle_gamma 90.000000
_cell_volume 1505.717838
_symmetry_space_group_name_H-M "P 21/C"
_symmetry_group_IT_number 14
_symmetry_cell_setting 'monoclinic'
loop_
_space_group_symop_operation_xyz
x,y,z
-x,1/2+y,1/2-z
-x,-y,-z
x,1/2-y,1/2+z
loop_
_atom_site_type_symbol
_atom_site_label
_atom_site_fract_x
_atom_site_fract_y
_atom_site_fract_z
Si Si1 0.245662 0.169989 0.941636
Si Si2 0.645501 0.009644 0.435718
Si Si3 0.790460 0.512314 0.122118
Si Si4 0.095256 0.583810 0.628589
Si Si5 0.716749 0.287246 0.038794
Si Si6 0.227496 0.199354 0.187496
Si Si7 0.410610 0.951016 0.713904
Si Si8 0.997778 0.646723 0.120548
O O1 0.196294 0.330171 0.955700
O O2 0.362882 0.126778 0.781585
O O3 0.250323 0.162834 0.053134
O O4 0.167885 0.031129 0.987660
O O5 0.726434 0.867730 0.332497
O O6 0.535399 0.944794 0.590558
O O7 0.689219 0.126538 0.469268
O O8 0.626923 0.101610 0.354429
O O9 0.721822 0.399829 0.126896
O O10 0.728142 0.564840 0.285299
O O11 0.899468 0.424791 0.039015
O O12 0.171825 0.707991 0.601666
O O13 0.027634 0.482360 0.772416
O O14 0.017297 0.681631 0.643777
O O15 0.629132 0.161092 0.159110
O O16 0.102215 0.183909 0.342708
#
# Coordination Sequence:
#
# PCOD8125041 Si02
#       8
#     4   4   4   4   4   4   4   4
#     4  10  20  40  63  89 124 169 202 265 316 371
#     4  11  23  42  66  92 127 167 210 262 325 376
#     4  11  21  39  63  91 129 161 213 260 314 374
#     4   9  20  35  60  90 123 162 210 253 312 372
#     4  10  23  40  66  94 124 165 207 264 313 376
#     4  11  22  37  63  90 123 170 208 254 317 379
#     4  10  24  43  65  93 128 161 213 266 314 382
#     4  10  20  36  59  91 126 165 211 261 307 377
#
# _framework density 21.252320000000001
#
# number of rings (size 3 to 8) (size 9 to 14) (size 15 to 20)
#    0.000    1.750    2.500    1.875    3.500    3.000 
#    0.000    2.500    0.000    0.000    0.000    0.000 
#    0.000    0.000    0.000    0.000    0.000    0.000 
#
# Total GULP energy -396518.826028 kJ/mol
# GULP energy per Si atom -12391.213313 kJ/mol
# Density = 2.120395 g / cm^3
# Si number density = 21.252320 Si / 1000 Ang^3
#
#
#
# Elastic Constant Matrix: (Units=GPa)
#
#
# Indices 1 2 3 4 5 6 
#
# 1 46.6163 14.8566 7.7047 0.0000 -9.4555 0.0000
# 2 14.8566 92.1806 7.1053 0.0000 -10.1246 0.0000
# 3 7.7047 7.1053 47.2042 0.0000 2.0920 0.0000
# 4 0.0000 0.0000 0.0000 29.9777 0.0000 3.5288
# 5 -9.4555 -10.1246 2.0920 0.0000 23.0033 0.0000
# 6 0.0000 0.0000 0.0000 3.5288 0.0000 24.3851
#
#
#
# Elastic Compliance Matrix: (Units=1/GPa)
#
#
# Indices 1 2 3 4 5 6 
#
# 1 0.024887 -0.002661 -0.004079 0.000000 0.009430 0.000000
# 2 -0.002661 0.011865 -0.001541 0.000000 0.004269 0.000000
# 3 -0.004079 -0.001541 0.022276 0.000000 -0.004381 0.000000
# 4 0.000000 0.000000 0.000000 0.033936 0.000000 -0.004911
# 5 0.009430 0.004269 -0.004381 0.000000 0.049625 0.000000
# 6 0.000000 0.000000 0.000000 -0.004911 0.000000 0.041719
#
#
# Mechanical properties :
#
#
# Convention : Reuss Voigt Hill
#
# Bulk Modulus (GPa) = 23.54833 27.25936 25.40384
# Shear Modulus (GPa) = 23.25301 25.89551 24.57426
#
# Velocity S-wave (km/s) = 3.31137 3.49446 3.40414
# Velocity P-wave (km/s) = 5.07194 5.39778 5.23740
#
# Compressibility (1/GPa) = 0.04246586
#
# Stress axis : x y z
#
# Youngs Moduli (GPa) = 40.18221 84.28366 44.89040
#
# Poissons Ratio (x) = 0.22426 0.18313
# Poissons Ratio (y) = 0.10692 0.06917
# Poissons Ratio (z) = 0.16392 0.12986
#
# Static dielectric constant tensor:
#      x y z
#    x 3.872320 0.000000 -0.123100 
#    y 0.000000 3.978860 0.000000 
#    z -0.123100 0.000000 3.832570 
# 
# 
# High freq. dielectric constant tensor:
#      x y z
#    x 1.829160 0.000000 0.002420 
#    y 0.000000 1.837680 0.000000 
#    z 0.002420 0.000000 1.824330 
# 
# From -- ./inp_files/50076.got.cif
#   From: 2010.03.12/outbox.cif.g09.slc.cpg/sg14_26_cif.got.tgz:50076.got - 2010.03.31 13:35:05.
