data_PCOD8125973
_publ_section_title
;
Structure prediction by ZEFSAII (Michael W. Deem and Ramdas Pophale) SiO2 
 PCOD8125973
Probable space group: P 21/C
;
_chemical_formula_sum "Si O2"
_cell_formula_units_Z 28
_cell_length_a 13.513231
_cell_length_b 8.112625
_cell_length_c 14.154110
_cell_angle_alpha 90.000000
_cell_angle_beta 69.632315
_cell_angle_gamma 90.000000
_cell_volume 1454.669910
_symmetry_space_group_name_H-M "P 21/C"
_symmetry_group_IT_number 14
_symmetry_cell_setting 'monoclinic'
loop_
_space_group_symop_operation_xyz
x,y,z
-x,1/2+y,1/2-z
-x,-y,-z
x,1/2-y,1/2+z
loop_
_atom_site_type_symbol
_atom_site_label
_atom_site_fract_x
_atom_site_fract_y
_atom_site_fract_z
Si Si1 0.086592 0.634458 0.790344
Si Si2 0.245007 0.359735 0.747452
Si Si3 0.845830 0.883732 0.374939
Si Si4 0.747788 0.812752 0.069667
Si Si5 0.204821 0.757616 0.574633
Si Si6 0.375602 0.496329 0.539081
Si Si7 0.896001 0.400487 0.561985
O O1 0.157339 0.490402 0.812320
O O2 0.132335 0.658136 0.671275
O O3 0.090501 0.808672 0.843090
O O4 0.967871 0.568106 0.823248
O O5 0.189573 0.216605 0.705181
O O6 0.295895 0.294127 0.828247
O O7 0.337776 0.440449 0.655378
O O8 0.832852 0.781543 0.476066
O O9 0.778080 0.051869 0.404568
O O10 0.801459 0.969991 0.100223
O O11 0.652497 0.863664 0.032553
O O12 0.320578 0.671466 0.532161
O O13 0.138745 0.741020 0.500110
O O14 0.500000 0.500000 0.500000
O O15 0.000000 0.500000 0.500000
#
# Coordination Sequence:
#
# PCOD8125973 Si02
#       7
#     4   4   4   4   4   4   4
#     4  11  22  33  56  83 122 168 190 231 286 356
#     4  10  22  37  57  87 115 152 201 242 290 353
#     4  11  21  34  55  84 124 158 191 239 289 353
#     4  10  21  37  57  84 117 150 198 246 290 350
#     4  10  23  36  56  85 112 154 200 237 294 355
#     4   9  21  45  63  79 113 152 194 258 307 343
#     4  11  22  35  53  84 120 160 197 230 283 347
#
# _framework density 19.248352000000001
#
# number of rings (size 3 to 8) (size 9 to 14) (size 15 to 20)
#    0.000    1.714    1.429    3.429    6.000    1.143 
#    0.000   11.429    0.000    0.000    0.000    0.000 
#    0.000    0.000    0.000    0.000    0.000    0.000 
#
# Total GULP energy -347192.082523 kJ/mol
# GULP energy per Si atom -12399.717233 kJ/mol
# Density = 1.920454 g / cm^3
# Si number density = 19.248352 Si / 1000 Ang^3
#
#
#
# Elastic Constant Matrix: (Units=GPa)
#
#
# Indices 1 2 3 4 5 6 
#
# 1 106.2914 30.9453 41.6942 0.0000 -22.9993 0.0000
# 2 30.9453 98.7462 22.4823 0.0000 -8.2529 0.0000
# 3 41.6942 22.4823 82.8171 0.0000 1.5050 0.0000
# 4 0.0000 0.0000 0.0000 35.1298 0.0000 6.1549
# 5 -22.9993 -8.2529 1.5050 0.0000 27.3941 0.0000
# 6 0.0000 0.0000 0.0000 6.1549 0.0000 20.6834
#
#
#
# Elastic Compliance Matrix: (Units=1/GPa)
#
#
# Indices 1 2 3 4 5 6 
#
# 1 0.015861 -0.002136 -0.007643 0.000000 0.013093 0.000000
# 2 -0.002136 0.011411 -0.002054 0.000000 0.001757 0.000000
# 3 -0.007643 -0.002054 0.016625 0.000000 -0.007949 0.000000
# 4 0.000000 0.000000 0.000000 0.030032 0.000000 -0.008937
# 5 0.013093 0.001757 -0.007949 0.000000 0.048463 0.000000
# 6 0.000000 0.000000 0.000000 -0.008937 0.000000 0.051007
#
#
# Mechanical properties :
#
#
# Convention : Reuss Voigt Hill
#
# Bulk Modulus (GPa) = 49.43218 53.12202 51.27710
# Shear Modulus (GPa) = 24.53269 29.49032 27.01150
#
# Velocity S-wave (km/s) = 3.57394 3.91845 3.75015
# Velocity P-wave (km/s) = 6.53970 6.93761 6.74159
#
# Compressibility (1/GPa) = 0.02022974
#
# Stress axis : x y z
#
# Youngs Moduli (GPa) = 63.04660 87.63506 60.15053
#
# Poissons Ratio (x) = 0.18720 0.45975
# Poissons Ratio (y) = 0.13468 0.12356
# Poissons Ratio (z) = 0.48189 0.18002
#
# Static dielectric constant tensor:
#      x y z
#    x 3.190070 0.000000 0.189840 
#    y 0.000000 3.696410 0.000000 
#    z 0.189840 0.000000 3.554020 
# 
# 
# High freq. dielectric constant tensor:
#      x y z
#    x 1.716920 0.000000 0.017780 
#    y 0.000000 1.759810 0.000000 
#    z 0.017780 0.000000 1.754380 
# 
# From -- ./inp_files/31722.got.cif
#   From: 2010.03.12/outbox.cif.g09.slc.cpg/sg14_16_cif.got.tgz:31722.got - 2010.03.31 13:35:05.
