data_PCOD8125290
_publ_section_title
;
Structure prediction by ZEFSAII (Michael W. Deem and Ramdas Pophale) SiO2 
 PCOD8125290
Probable space group: P 21/C
;
_chemical_formula_sum "Si O2"
_cell_formula_units_Z 28
_cell_length_a 11.256926
_cell_length_b 9.043140
_cell_length_c 27.464977
_cell_angle_alpha 90.000000
_cell_angle_beta 29.782134
_cell_angle_gamma 90.000000
_cell_volume 1388.722251
_symmetry_space_group_name_H-M "P 21/C"
_symmetry_group_IT_number 14
_symmetry_cell_setting 'monoclinic'
loop_
_space_group_symop_operation_xyz
x,y,z
-x,1/2+y,1/2-z
-x,-y,-z
x,1/2-y,1/2+z
loop_
_atom_site_type_symbol
_atom_site_label
_atom_site_fract_x
_atom_site_fract_y
_atom_site_fract_z
Si Si1 0.444551 0.291861 0.890814
Si Si2 0.163980 0.180410 0.804232
Si Si3 0.134593 0.208490 0.417539
Si Si4 0.946046 0.102683 0.218472
Si Si5 0.340063 0.209093 0.534753
Si Si6 0.672699 0.427109 0.117649
Si Si7 0.853090 0.091109 0.362670
O O1 0.312936 0.207497 0.892633
O O2 0.733658 0.278108 0.783456
O O3 0.386888 0.469652 0.908362
O O4 0.340177 0.233242 0.978985
O O5 0.076468 0.196117 0.890861
O O6 0.449159 0.176778 0.708683
O O7 0.079278 0.322434 0.803922
O O8 0.064118 0.033412 0.815094
O O9 0.883994 0.187014 0.533669
O O10 0.252702 0.044171 0.365624
O O11 0.915562 0.047762 0.284776
O O12 0.205787 0.174979 0.117506
O O13 0.616299 0.193060 0.452296
O O14 0.195742 0.055957 0.589499
#
# Coordination Sequence:
#
# PCOD8125290 Si02
#       7
#     4   4   4   4   4   4   4
#     4   8  17  35  55  80 112 154 196 229 286 362
#     4  11  21  37  62  90 116 153 197 254 299 334
#     4   9  18  36  58  85 110 159 196 234 289 363
#     4  10  21  37  57  87 125 148 192 262 289 338
#     4  10  20  38  60  81 117 165 191 243 295 359
#     4   8  18  36  56  82 118 148 195 242 278 356
#     4  10  22  37  60  89 112 160 214 225 295 367
#
# _framework density 20.162417000000001
#
# number of rings (size 3 to 8) (size 9 to 14) (size 15 to 20)
#    0.857    1.714    0.000    1.714    0.000    5.143 
#    0.000    3.571    0.000    0.000    0.000    0.000 
#    0.000    0.000    0.000    0.000    0.000    0.000 
#
# Total GULP energy -346868.269252 kJ/mol
# GULP energy per Si atom -12388.152473 kJ/mol
# Density = 2.011653 g / cm^3
# Si number density = 20.162417 Si / 1000 Ang^3
#
#
#
# Elastic Constant Matrix: (Units=GPa)
#
#
# Indices 1 2 3 4 5 6 
#
# 1 80.2307 24.3318 33.2047 0.0000 13.2362 0.0000
# 2 24.3318 43.8419 36.4741 0.0000 -0.1836 0.0000
# 3 33.2047 36.4741 91.1930 0.0000 4.4953 0.0000
# 4 0.0000 0.0000 0.0000 28.0972 0.0000 -0.0811
# 5 13.2362 -0.1836 4.4953 0.0000 30.6688 0.0000
# 6 0.0000 0.0000 0.0000 -0.0811 0.0000 32.5341
#
#
#
# Elastic Compliance Matrix: (Units=1/GPa)
#
#
# Indices 1 2 3 4 5 6 
#
# 1 0.016968 -0.006878 -0.003086 0.000000 -0.006912 0.000000
# 2 -0.006878 0.037123 -0.012592 0.000000 0.005036 0.000000
# 3 -0.003086 -0.012592 0.017188 0.000000 -0.001263 0.000000
# 4 0.000000 0.000000 0.000000 0.035591 0.000000 0.000089
# 5 -0.006912 0.005036 -0.001263 0.000000 0.035805 0.000000
# 6 0.000000 0.000000 0.000000 0.000089 0.000000 0.030737
#
#
# Mechanical properties :
#
#
# Convention : Reuss Voigt Hill
#
# Bulk Modulus (GPa) = 38.21714 44.80966 41.51340
# Shear Modulus (GPa) = 22.00250 26.34370 24.17310
#
# Velocity S-wave (km/s) = 3.30701 3.61858 3.46630
# Velocity P-wave (km/s) = 5.79461 6.30329 6.05429
#
# Compressibility (1/GPa) = 0.02616627
#
# Stress axis : x y z
#
# Youngs Moduli (GPa) = 58.93570 26.93723 58.17954
#
# Poissons Ratio (x) = 0.18527 0.17957
# Poissons Ratio (y) = 0.40536 0.73259
# Poissons Ratio (z) = 0.18190 0.33919
#
# Static dielectric constant tensor:
#      x y z
#    x 3.705270 0.000000 -0.178610 
#    y 0.000000 3.201060 0.000000 
#    z -0.178610 0.000000 3.608190 
# 
# 
# High freq. dielectric constant tensor:
#      x y z
#    x 1.789190 0.000000 -0.011600 
#    y 0.000000 1.741150 0.000000 
#    z -0.011600 0.000000 1.787480 
# 
# From -- ./inp_files/77089.got.cif
#   From: 2010.03.12/outbox.cif.g09.slc.cpg/sg14_39_cif.got.tgz:77089.got - 2010.03.31 13:35:05.
