data_PCOD8125774
_publ_section_title
;
Structure prediction by ZEFSAII (Michael W. Deem and Ramdas Pophale) SiO2 
 PCOD8125774
Probable space group: P 21/C
;
_chemical_formula_sum "Si O2"
_cell_formula_units_Z 20
_cell_length_a 18.468427
_cell_length_b 10.030940
_cell_length_c 9.315421
_cell_angle_alpha 90.000000
_cell_angle_beta 147.964567
_cell_angle_gamma 90.000000
_cell_volume 915.404943
_symmetry_space_group_name_H-M "P 21/C"
_symmetry_group_IT_number 14
_symmetry_cell_setting 'monoclinic'
loop_
_space_group_symop_operation_xyz
x,y,z
-x,1/2+y,1/2-z
-x,-y,-z
x,1/2-y,1/2+z
loop_
_atom_site_type_symbol
_atom_site_label
_atom_site_fract_x
_atom_site_fract_y
_atom_site_fract_z
Si Si1 0.346631 0.053081 0.228064
Si Si2 0.127524 0.905633 0.688157
Si Si3 0.489074 0.741359 0.616891
Si Si4 0.633856 0.019803 0.439761
Si Si5 0.212984 0.827870 0.520272
O O1 0.372679 0.208158 0.231650
O O2 0.281080 0.028395 0.275286
O O3 0.500000 0.000000 0.500000
O O4 0.262869 0.984943 0.960308
O O5 0.133475 0.870143 0.529973
O O6 0.117268 0.770513 0.765266
O O7 0.000000 0.000000 0.500000
O O8 0.519092 0.590620 0.712576
O O9 0.451622 0.841736 0.685412
O O10 0.353540 0.748434 0.291791
O O11 0.747132 0.041449 0.506671
#
# Coordination Sequence:
#
# PCOD8125774 Si02
#       5
#     4   4   4   4   4
#     4  10  20  42  69 104 141 176 231 289 343 418
#     4  12  26  48  72  98 141 189 234 290 356 423
#     4  11  21  38  74 108 143 179 230 291 352 412
#     4  11  22  39  71 106 144 182 230 288 358 410
#     4  12  22  46  70  99 137 187 231 292 356 413
#
# _framework density 21.848253
#
# number of rings (size 3 to 8) (size 9 to 14) (size 15 to 20)
#    0.000    0.800    6.000    4.200    0.000    1.600 
#    7.200    2.000    0.000    0.000    0.000    0.000 
#    0.000    0.000    0.000    0.000    0.000    0.000 
#
# Total GULP energy -247836.987898 kJ/mol
# GULP energy per Si atom -12391.849395 kJ/mol
# Density = 2.179853 g / cm^3
# Si number density = 21.848253 Si / 1000 Ang^3
#
#
#
# Elastic Constant Matrix: (Units=GPa)
#
#
# Indices 1 2 3 4 5 6 
#
# 1 176.0034 66.5514 47.7344 0.0000 -22.4928 0.0000
# 2 66.5514 119.3908 38.7374 0.0000 -2.4821 0.0000
# 3 47.7344 38.7374 66.4381 0.0000 -2.4796 0.0000
# 4 0.0000 0.0000 0.0000 33.7667 0.0000 3.1463
# 5 -22.4928 -2.4821 -2.4796 0.0000 25.7603 0.0000
# 6 0.0000 0.0000 0.0000 3.1463 0.0000 39.7862
#
#
#
# Elastic Compliance Matrix: (Units=1/GPa)
#
#
# Indices 1 2 3 4 5 6 
#
# 1 0.009077 -0.003554 -0.004182 0.000000 0.007181 0.000000
# 2 -0.003554 0.011726 -0.004373 0.000000 -0.002394 0.000000
# 3 -0.004182 -0.004373 0.020528 0.000000 -0.002097 0.000000
# 4 0.000000 0.000000 0.000000 0.029835 0.000000 -0.002359
# 5 0.007181 -0.002394 -0.002097 0.000000 0.044657 0.000000
# 6 0.000000 0.000000 0.000000 -0.002359 0.000000 0.025321
#
#
# Mechanical properties :
#
#
# Convention : Reuss Voigt Hill
#
# Bulk Modulus (GPa) = 58.43253 74.20875 66.32064
# Shear Modulus (GPa) = 29.22859 33.78323 31.50591
#
# Velocity S-wave (km/s) = 3.66156 3.93653 3.80153
# Velocity P-wave (km/s) = 6.68422 7.39601 7.04910
#
# Compressibility (1/GPa) = 0.01711376
#
# Stress axis : x y z
#
# Youngs Moduli (GPa) = 110.16393 85.28121 48.71501
#
# Poissons Ratio (x) = 0.30308 0.20372
# Poissons Ratio (y) = 0.39151 0.21303
# Poissons Ratio (z) = 0.46068 0.37293
#
# Static dielectric constant tensor:
#      x y z
#    x 4.618960 0.000000 -0.553670 
#    y 0.000000 4.469360 0.000000 
#    z -0.553670 0.000000 3.920710 
# 
# 
# High freq. dielectric constant tensor:
#      x y z
#    x 1.858930 0.000000 -0.034090 
#    y 0.000000 1.867370 0.000000 
#    z -0.034090 0.000000 1.823810 
# 
# From -- ./inp_files/17714.got.cif
#   From: 2010.03.12/outbox.cif.g09.slc.cpg/sg14_9_cif.got.tgz:17714.got - 2010.03.31 13:35:05.
