data_PCOD8125447
_publ_section_title
;
Structure prediction by ZEFSAII (Michael W. Deem and Ramdas Pophale) SiO2 
 PCOD8125447
Probable space group: P 21/C
;
_chemical_formula_sum "Si O2"
_cell_formula_units_Z 28
_cell_length_a 16.523097
_cell_length_b 8.753358
_cell_length_c 13.766597
_cell_angle_alpha 90.000000
_cell_angle_beta 44.442252
_cell_angle_gamma 90.000000
_cell_volume 1394.147307
_symmetry_space_group_name_H-M "P 21/C"
_symmetry_group_IT_number 14
_symmetry_cell_setting 'monoclinic'
loop_
_space_group_symop_operation_xyz
x,y,z
-x,1/2+y,1/2-z
-x,-y,-z
x,1/2-y,1/2+z
loop_
_atom_site_type_symbol
_atom_site_label
_atom_site_fract_x
_atom_site_fract_y
_atom_site_fract_z
Si Si1 0.098879 0.936498 0.226536
Si Si2 0.338052 0.923083 0.967469
Si Si3 0.411314 0.936206 0.691620
Si Si4 0.259565 0.160273 0.164057
Si Si5 0.977269 0.860838 0.885441
Si Si6 0.483151 0.250260 0.059956
Si Si7 0.822882 0.542935 0.686471
O O1 0.002710 0.817757 0.344412
O O2 0.153508 0.037539 0.270036
O O3 0.208668 0.847515 0.081977
O O4 0.040836 0.052415 0.199906
O O5 0.397829 0.890884 0.814747
O O6 0.418544 0.858376 0.983513
O O7 0.317748 0.104545 0.011216
O O8 0.486491 0.804980 0.575662
O O9 0.475070 0.099530 0.633949
O O10 0.289340 0.944070 0.741212
O O11 0.359797 0.160830 0.161234
O O12 0.205912 0.329911 0.206774
O O13 0.085202 0.927335 0.850587
O O14 0.865427 0.874537 0.050667
#
# Coordination Sequence:
#
# PCOD8125447 Si02
#       7
#     4   4   4   4   4   4   4
#     4  10  22  37  57  86 115 150 204 239 297 353
#     4  10  21  38  58  87 118 153 192 247 288 362
#     4  10  21  38  60  89 117 157 195 244 298 364
#     4   9  21  38  59  86 120 151 195 252 289 361
#     4  11  21  37  61  82 116 159 193 252 295 349
#     4  10  21  38  62  87 120 154 197 241 303 353
#     4  10  20  39  61  82 117 156 197 245 305 344
#
# _framework density 20.083960000000001
#
# number of rings (size 3 to 8) (size 9 to 14) (size 15 to 20)
#    0.857    1.143    1.429    2.143    2.000    0.571 
#    0.000    1.429    0.000    0.000    0.000    0.000 
#    0.000    0.000    0.000    0.000    0.000    0.000 
#
# Total GULP energy -346865.591692 kJ/mol
# GULP energy per Si atom -12388.056846 kJ/mol
# Density = 2.003825 g / cm^3
# Si number density = 20.083960 Si / 1000 Ang^3
#
#
#
# Elastic Constant Matrix: (Units=GPa)
#
#
# Indices 1 2 3 4 5 6 
#
# 1 59.7471 36.7859 8.9293 0.0000 -3.9546 0.0000
# 2 36.7859 74.3281 17.8903 0.0000 2.8563 0.0000
# 3 8.9293 17.8903 48.1244 0.0000 4.6773 0.0000
# 4 0.0000 0.0000 0.0000 22.6900 0.0000 -5.0833
# 5 -3.9546 2.8563 4.6773 0.0000 28.8181 0.0000
# 6 0.0000 0.0000 0.0000 -5.0833 0.0000 29.5972
#
#
#
# Elastic Compliance Matrix: (Units=1/GPa)
#
#
# Indices 1 2 3 4 5 6 
#
# 1 0.024678 -0.012281 -0.000468 0.000000 0.004680 0.000000
# 2 -0.012281 0.020897 -0.005207 0.000000 -0.002911 0.000000
# 3 -0.000468 -0.005207 0.023123 0.000000 -0.003301 0.000000
# 4 0.000000 0.000000 0.000000 0.045836 0.000000 0.007872
# 5 0.004680 -0.002911 -0.003301 0.000000 0.036167 0.000000
# 6 0.000000 0.000000 0.000000 0.007872 0.000000 0.035139
#
#
# Mechanical properties :
#
#
# Convention : Reuss Voigt Hill
#
# Bulk Modulus (GPa) = 30.50080 34.37899 32.43989
# Shear Modulus (GPa) = 21.48873 24.12733 22.80803
#
# Velocity S-wave (km/s) = 3.27455 3.46977 3.37357
# Velocity P-wave (km/s) = 5.43291 5.76257 5.60017
#
# Compressibility (1/GPa) = 0.03278603
#
# Stress axis : x y z
#
# Youngs Moduli (GPa) = 40.52185 47.85422 43.24718
#
# Poissons Ratio (x) = 0.58768 0.02026
# Poissons Ratio (y) = 0.49763 0.22518
# Poissons Ratio (z) = 0.01898 0.24917
#
# Static dielectric constant tensor:
#      x y z
#    x 3.562800 0.000000 -0.226830 
#    y 0.000000 3.441710 0.000000 
#    z -0.226830 0.000000 3.716970 
# 
# 
# High freq. dielectric constant tensor:
#      x y z
#    x 1.785460 0.000000 -0.022980 
#    y 0.000000 1.767640 0.000000 
#    z -0.022980 0.000000 1.771890 
# 
# From -- ./inp_files/48527.got.cif
#   From: 2010.03.12/outbox.cif.g09.slc.cpg/sg14_25_cif.got.tgz:48527.got - 2010.03.31 13:35:05.
