data_PCOD8125343
_publ_section_title
;
Structure prediction by ZEFSAII (Michael W. Deem and Ramdas Pophale) SiO2 
 PCOD8125343
Probable space group: P 21/C
;
_chemical_formula_sum "Si O2"
_cell_formula_units_Z 32
_cell_length_a 11.625325
_cell_length_b 9.966475
_cell_length_c 17.488247
_cell_angle_alpha 90.000000
_cell_angle_beta 136.742095
_cell_angle_gamma 90.000000
_cell_volume 1388.555436
_symmetry_space_group_name_H-M "P 21/C"
_symmetry_group_IT_number 14
_symmetry_cell_setting 'monoclinic'
loop_
_space_group_symop_operation_xyz
x,y,z
-x,1/2+y,1/2-z
-x,-y,-z
x,1/2-y,1/2+z
loop_
_atom_site_type_symbol
_atom_site_label
_atom_site_fract_x
_atom_site_fract_y
_atom_site_fract_z
Si Si1 0.383277 0.092072 0.822272
Si Si2 0.405745 0.531806 0.166970
Si Si3 0.977834 0.336426 0.310524
Si Si4 0.104470 0.122002 0.468969
Si Si5 0.226683 0.985851 0.166436
Si Si6 0.873816 0.441605 0.727856
Si Si7 0.070873 0.262361 0.114330
Si Si8 0.716352 0.300757 0.443329
O O1 0.223212 0.195197 0.744607
O O2 0.566361 0.157704 0.930935
O O3 0.407500 0.030869 0.751046
O O4 0.323765 0.979579 0.855019
O O5 0.587367 0.525965 0.216863
O O6 0.355057 0.686935 0.147668
O O7 0.283556 0.449572 0.051730
O O8 0.834344 0.384374 0.298234
O O9 0.898188 0.216185 0.218570
O O10 0.121976 0.264884 0.432500
O O11 0.048709 0.463541 0.299632
O O12 0.045563 0.140214 0.528307
O O13 0.967783 0.030288 0.355976
O O14 0.228300 0.923020 0.082999
O O15 0.112102 0.115765 0.101978
O O16 0.887752 0.251382 0.068118
#
# Coordination Sequence:
#
# PCOD8125343 Si02
#       8
#     4   4   4   4   4   4   4   4
#     4  10  21  35  60  92 124 163 207 265 320 382
#     4  10  20  38  61  96 129 161 208 268 330 391
#     4  10  23  41  66  90 124 177 217 260 316 386
#     4   9  21  40  63  94 122 167 213 265 325 380
#     4  11  22  37  60  99 132 168 208 265 337 377
#     4  10  22  42  63  90 126 173 222 258 314 381
#     4  11  20  36  63  95 136 159 207 272 330 385
#     4  11  20  33  58  94 127 163 205 261 328 389
#
# _framework density 23.045532999999999
#
# number of rings (size 3 to 8) (size 9 to 14) (size 15 to 20)
#    0.750    1.000    2.500    2.625    1.750    2.000 
#    0.000    0.625    2.750    1.500    0.000    0.000 
#    0.000    0.000    0.000    0.000    0.000    0.000 
#
# Total GULP energy -396457.757275 kJ/mol
# GULP energy per Si atom -12389.304915 kJ/mol
# Density = 2.299308 g / cm^3
# Si number density = 23.045533 Si / 1000 Ang^3
#
#
#
# Elastic Constant Matrix: (Units=GPa)
#
#
# Indices 1 2 3 4 5 6 
#
# 1 80.0592 13.3811 39.9596 0.0000 30.2729 0.0000
# 2 13.3811 52.5724 -3.6539 0.0000 16.6954 0.0000
# 3 39.9596 -3.6539 48.7951 0.0000 32.4279 0.0000
# 4 0.0000 0.0000 0.0000 32.9359 0.0000 0.1213
# 5 30.2729 16.6954 32.4279 0.0000 47.5856 0.0000
# 6 0.0000 0.0000 0.0000 0.1213 0.0000 31.6448
#
#
#
# Elastic Compliance Matrix: (Units=1/GPa)
#
#
# Indices 1 2 3 4 5 6 
#
# 1 0.023845 -0.008505 -0.022053 0.000000 0.002843 0.000000
# 2 -0.008505 0.029176 0.022585 0.000000 -0.020217 0.000000
# 3 -0.022053 0.022585 0.066142 0.000000 -0.038968 0.000000
# 4 0.000000 0.000000 0.000000 0.030362 0.000000 -0.000116
# 5 0.002843 -0.020217 -0.038968 0.000000 0.052854 0.000000
# 6 0.000000 0.000000 0.000000 -0.000116 0.000000 0.031601
#
#
# Mechanical properties :
#
#
# Convention : Reuss Voigt Hill
#
# Bulk Modulus (GPa) = 9.68831 31.20005 20.44418
# Shear Modulus (GPa) = 17.58509 31.21591 24.40050
#
# Velocity S-wave (km/s) = 2.76535 3.68439 3.25744
# Velocity P-wave (km/s) = 3.79596 5.62739 4.79983
#
# Compressibility (1/GPa) = 0.10321719
#
# Stress axis : x y z
#
# Youngs Moduli (GPa) = 41.93838 34.27464 15.11899
#
# Poissons Ratio (x) = 0.29149 0.33342
# Poissons Ratio (y) = 0.35667 -0.34146
# Poissons Ratio (z) = 0.92487 -0.77410
#
# Static dielectric constant tensor:
#      x y z
#    x 4.001530 0.000000 0.509090 
#    y 0.000000 4.397800 0.000000 
#    z 0.509090 0.000000 4.119440 
# 
# 
# High freq. dielectric constant tensor:
#      x y z
#    x 1.891610 0.000000 0.026060 
#    y 0.000000 1.928430 0.000000 
#    z 0.026060 0.000000 1.889280 
# 
# From -- ./inp_files/67268.got.cif
#   From: 2010.03.12/outbox.cif.g09.slc.cpg/sg14_34_cif.got.tgz:67268.got - 2010.03.31 13:35:05.
