data_PCOD8125605
_publ_section_title
;
Structure prediction by ZEFSAII (Michael W. Deem and Ramdas Pophale) SiO2 
 PCOD8125605
Probable space group: P 21/C
;
_chemical_formula_sum "Si O2"
_cell_formula_units_Z 24
_cell_length_a 10.034907
_cell_length_b 13.453350
_cell_length_c 10.637136
_cell_angle_alpha 90.000000
_cell_angle_beta 123.415751
_cell_angle_gamma 90.000000
_cell_volume 1198.662994
_symmetry_space_group_name_H-M "P 21/C"
_symmetry_group_IT_number 14
_symmetry_cell_setting 'monoclinic'
loop_
_space_group_symop_operation_xyz
x,y,z
-x,1/2+y,1/2-z
-x,-y,-z
x,1/2-y,1/2+z
loop_
_atom_site_type_symbol
_atom_site_label
_atom_site_fract_x
_atom_site_fract_y
_atom_site_fract_z
Si Si1 0.892457 0.476497 0.558773
Si Si2 0.268590 0.460922 0.101911
Si Si3 0.991528 0.070829 0.648618
Si Si4 0.935232 0.782088 0.829969
Si Si5 0.261879 0.240769 0.024990
Si Si6 0.554461 0.543678 0.395285
O O1 0.928539 0.566024 0.673195
O O2 0.706142 0.479120 0.428644
O O3 0.000000 0.500000 0.500000
O O4 0.943648 0.370204 0.642559
O O5 0.130706 0.473410 0.133793
O O6 0.418981 0.526988 0.220469
O O7 0.325874 0.348317 0.105632
O O8 0.177065 0.510634 0.935422
O O9 0.956428 0.184453 0.592875
O O10 0.821216 0.761317 0.651978
O O11 0.844580 0.803755 0.915327
O O12 0.405065 0.161761 0.076274
O O13 0.500000 0.500000 0.500000
#
# Coordination Sequence:
#
# PCOD8125605 Si02
#       6
#     4   4   4   4   4   4
#     4  12  22  40  65  97 129 172 222 272 326 399
#     4  10  22  39  66  92 130 170 221 270 330 394
#     4  10  20  40  64  93 125 176 218 263 325 402
#     4  11  21  39  68  96 129 180 227 264 332 404
#     4  11  22  41  67  94 133 181 216 276 344 389
#     4  12  23  41  64  98 136 170 222 280 334 397
#
# _framework density 20.022309
#
# number of rings (size 3 to 8) (size 9 to 14) (size 15 to 20)
#    0.000    1.000    6.667    1.000    0.000    1.333 
#    0.000    5.000    0.000    0.000    0.000    0.000 
#    0.000    0.000    0.000    0.000    0.000    0.000 
#
# Total GULP energy -297425.727796 kJ/mol
# GULP energy per Si atom -12392.738658 kJ/mol
# Density = 1.997674 g / cm^3
# Si number density = 20.022309 Si / 1000 Ang^3
#
#
#
# Elastic Constant Matrix: (Units=GPa)
#
#
# Indices 1 2 3 4 5 6 
#
# 1 95.5197 43.4357 45.4550 0.0000 9.2763 0.0000
# 2 43.4357 118.8507 25.8414 0.0000 28.9407 0.0000
# 3 45.4550 25.8414 105.0152 0.0000 18.0011 0.0000
# 4 0.0000 0.0000 0.0000 34.4575 0.0000 6.9204
# 5 9.2763 28.9407 18.0011 0.0000 40.5439 0.0000
# 6 0.0000 0.0000 0.0000 6.9204 0.0000 38.9155
#
#
#
# Elastic Compliance Matrix: (Units=1/GPa)
#
#
# Indices 1 2 3 4 5 6 
#
# 1 0.015234 -0.004940 -0.005829 0.000000 0.002629 0.000000
# 2 -0.004940 0.011970 0.000502 0.000000 -0.007637 0.000000
# 3 -0.005829 0.000502 0.012723 0.000000 -0.004674 0.000000
# 4 0.000000 0.000000 0.000000 0.030096 0.000000 -0.005352
# 5 0.002629 -0.007637 -0.004674 0.000000 0.031589 0.000000
# 6 0.000000 0.000000 0.000000 -0.005352 0.000000 0.026648
#
#
# Mechanical properties :
#
#
# Convention : Reuss Voigt Hill
#
# Bulk Modulus (GPa) = 51.56641 60.98332 56.27487
# Shear Modulus (GPa) = 32.20413 36.42695 34.31554
#
# Velocity S-wave (km/s) = 4.01485 4.26997 4.14438
# Velocity P-wave (km/s) = 6.87768 7.40500 7.14620
#
# Compressibility (1/GPa) = 0.01939247
#
# Stress axis : x y z
#
# Youngs Moduli (GPa) = 65.64248 83.54307 78.59769
#
# Poissons Ratio (x) = 0.41273 0.45814
# Poissons Ratio (y) = 0.32429 -0.03945
# Poissons Ratio (z) = 0.38262 -0.04194
#
# Static dielectric constant tensor:
#      x y z
#    x 3.620370 0.000000 -0.129430 
#    y 0.000000 4.545470 0.000000 
#    z -0.129430 0.000000 3.637740 
# 
# 
# High freq. dielectric constant tensor:
#      x y z
#    x 1.755610 0.000000 -0.012320 
#    y 0.000000 1.799520 0.000000 
#    z -0.012320 0.000000 1.786170 
# 
# From -- ./inp_files/29605.got.cif
#   From: 2010.03.12/outbox.cif.g09.slc.cpg/sg14_15_cif.got.tgz:29605.got - 2010.03.31 13:35:05.
