data_PCOD8125582
_publ_section_title
;
Structure prediction by ZEFSAII (Michael W. Deem and Ramdas Pophale) SiO2 
 PCOD8125582
Probable space group: P 21/C
;
_chemical_formula_sum "Si O2"
_cell_formula_units_Z 20
_cell_length_a 8.929905
_cell_length_b 20.978078
_cell_length_c 5.267378
_cell_angle_alpha 90.000000
_cell_angle_beta 122.432013
_cell_angle_gamma 90.000000
_cell_volume 832.844813
_symmetry_space_group_name_H-M "P 21/C"
_symmetry_group_IT_number 14
_symmetry_cell_setting 'monoclinic'
loop_
_space_group_symop_operation_xyz
x,y,z
-x,1/2+y,1/2-z
-x,-y,-z
x,1/2-y,1/2+z
loop_
_atom_site_type_symbol
_atom_site_label
_atom_site_fract_x
_atom_site_fract_y
_atom_site_fract_z
Si Si1 0.016250 0.624402 0.648798
Si Si2 0.458043 0.286794 0.364063
Si Si3 0.669564 0.917707 0.058482
Si Si4 0.290660 0.543596 0.136309
Si Si5 0.167995 0.839530 0.782935
O O1 0.817497 0.597046 0.480856
O O2 0.043304 0.664765 0.417363
O O3 0.160188 0.565903 0.789964
O O4 0.050464 0.671922 0.920994
O O5 0.393541 0.243353 0.540880
O O6 0.372316 0.355960 0.311840
O O7 0.672445 0.289115 0.558802
O O8 0.744589 0.970374 0.323335
O O9 0.497747 0.944452 0.751090
O O10 0.249370 0.588677 0.342321
#
# Coordination Sequence:
#
# PCOD8125582 Si02
#       5
#     4   4   4   4   4
#     4  10  20  40  63 100 121 161 200 262 311 373
#     4  11  24  44  63  87 124 170 209 260 309 370
#     4  10  20  41  66  96 130 160 214 257 306 384
#     4   8  20  40  63 100 125 172 191 260 326 366
#     4   9  21  40  63  89 124 160 208 248 321 366
#
# _framework density 24.014077
#
# number of rings (size 3 to 8) (size 9 to 14) (size 15 to 20)
#    1.200    1.200    0.000    1.800    0.000    2.400 
#    7.200    9.000    0.000    0.000    0.000    0.000 
#    0.000    0.000    0.000    0.000    0.000    0.000 
#
# Total GULP energy -247872.237187 kJ/mol
# GULP energy per Si atom -12393.611859 kJ/mol
# Density = 2.395942 g / cm^3
# Si number density = 24.014077 Si / 1000 Ang^3
#
#
#
# Elastic Constant Matrix: (Units=GPa)
#
#
# Indices 1 2 3 4 5 6 
#
# 1 99.3332 -2.9871 44.4824 0.0000 -6.7051 0.0000
# 2 -2.9871 58.9751 2.8696 0.0000 -21.3722 0.0000
# 3 44.4824 2.8696 71.4454 0.0000 -34.9757 0.0000
# 4 0.0000 0.0000 0.0000 7.1416 0.0000 4.9305
# 5 -6.7051 -21.3722 -34.9757 0.0000 34.8260 0.0000
# 6 0.0000 0.0000 0.0000 4.9305 0.0000 32.1129
#
#
#
# Elastic Compliance Matrix: (Units=1/GPa)
#
#
# Indices 1 2 3 4 5 6 
#
# 1 0.018283 -0.006150 -0.022151 0.000000 -0.022500 0.000000
# 2 -0.006150 0.029587 0.021540 0.000000 0.038605 0.000000
# 3 -0.022151 0.021540 0.061583 0.000000 0.070802 0.000000
# 4 0.000000 0.000000 0.000000 0.156627 0.000000 -0.024048
# 5 -0.022500 0.038605 0.070802 0.000000 0.119180 0.000000
# 6 0.000000 0.000000 0.000000 -0.024048 0.000000 0.034832
#
#
# Mechanical properties :
#
#
# Convention : Reuss Voigt Hill
#
# Bulk Modulus (GPa) = 10.42415 35.38707 22.90561
# Shear Modulus (GPa) = 10.73901 27.17534 18.95718
#
# Velocity S-wave (km/s) = 2.11700 3.36764 2.81271
# Velocity P-wave (km/s) = 3.21338 5.46711 4.48415
#
# Compressibility (1/GPa) = 0.09593106
#
# Stress axis : x y z
#
# Youngs Moduli (GPa) = 54.69638 33.79856 16.23812
#
# Poissons Ratio (x) = 0.20786 0.35969
# Poissons Ratio (y) = 0.33639 -0.34977
# Poissons Ratio (z) = 1.21157 -0.72801
#
# Static dielectric constant tensor:
#      x y z
#    x 4.250830 0.000000 0.137420 
#    y 0.000000 4.041830 0.000000 
#    z 0.137420 0.000000 3.773770 
# 
# 
# High freq. dielectric constant tensor:
#      x y z
#    x 1.954010 0.000000 0.005730 
#    y 0.000000 1.937390 0.000000 
#    z 0.005730 0.000000 1.921110 
# 
# From -- ./inp_files/1287.got.cif
#   From: 2010.03.12/outbox.cif.g09.slc.cpg/sg14_1_cif.got.tgz:1287.got - 2010.03.31 13:35:05.
