data_PCOD8125814
_publ_section_title
;
Structure prediction by ZEFSAII (Michael W. Deem and Ramdas Pophale) SiO2 
 PCOD8125814
Probable space group: P 21/C
;
_chemical_formula_sum "Si O2"
_cell_formula_units_Z 28
_cell_length_a 22.242998
_cell_length_b 10.183218
_cell_length_c 19.269139
_cell_angle_alpha 90.000000
_cell_angle_beta 20.336308
_cell_angle_gamma 90.000000
_cell_volume 1516.815890
_symmetry_space_group_name_H-M "P 21/C"
_symmetry_group_IT_number 14
_symmetry_cell_setting 'monoclinic'
loop_
_space_group_symop_operation_xyz
x,y,z
-x,1/2+y,1/2-z
-x,-y,-z
x,1/2-y,1/2+z
loop_
_atom_site_type_symbol
_atom_site_label
_atom_site_fract_x
_atom_site_fract_y
_atom_site_fract_z
Si Si1 0.712736 0.473575 0.509831
Si Si2 0.898950 0.744237 0.312503
Si Si3 0.216299 0.632112 0.416603
Si Si4 0.895826 0.233149 0.271442
Si Si5 0.340799 0.488024 0.961218
Si Si6 0.562118 0.593152 0.993766
Si Si7 0.895267 0.593091 0.562648
O O1 0.811655 0.607665 0.387329
O O2 0.766770 0.409495 0.523063
O O3 0.778447 0.362640 0.384429
O O4 0.507047 0.497549 0.730638
O O5 0.760547 0.857097 0.448391
O O6 0.955370 0.752442 0.331721
O O7 0.061461 0.761764 0.083000
O O8 0.173571 0.497975 0.424073
O O9 0.399702 0.689981 0.188218
O O10 0.776905 0.113575 0.426418
O O11 0.984514 0.204397 0.101031
O O12 0.395293 0.490122 0.983097
O O13 0.737219 0.663125 0.776300
O O14 0.500000 0.500000 0.000000
O O15 0.000000 0.500000 0.500000
#
# Coordination Sequence:
#
# PCOD8125814 Si02
#       7
#     4   4   4   4   4   4   4
#     4  10  21  33  52  81 115 145 179 233 281 341
#     4  11  19  35  55  77 118 150 176 230 291 344
#     4   9  18  33  51  79 108 144 184 224 281 328
#     4  11  20  34  54  84 112 146 194 228 279 330
#     4  11  20  36  55  84 114 145 188 230 285 336
#     4   9  19  32  56  87 107 139 187 244 269 319
#     4  11  17  32  55  81 109 141 191 236 267 318
#
# _framework density 18.459723
#
# number of rings (size 3 to 8) (size 9 to 14) (size 15 to 20)
#    0.000    1.714    4.286    1.714    0.000    0.000 
#    0.000    0.000    0.000    4.286    0.000    0.000 
#    0.000    0.000    0.000    0.000    0.000    0.000 
#
# Total GULP energy -346954.698065 kJ/mol
# GULP energy per Si atom -12391.239217 kJ/mol
# Density = 1.841771 g / cm^3
# Si number density = 18.459723 Si / 1000 Ang^3
#
#
#
# Elastic Constant Matrix: (Units=GPa)
#
#
# Indices 1 2 3 4 5 6 
#
# 1 50.8813 7.8303 19.7096 0.0000 -5.9312 0.0000
# 2 7.8303 107.3000 73.0262 0.0000 2.3238 0.0000
# 3 19.7096 73.0262 206.8312 0.0000 11.1151 0.0000
# 4 0.0000 0.0000 0.0000 25.0248 0.0000 2.7263
# 5 -5.9312 2.3238 11.1151 0.0000 23.2501 0.0000
# 6 0.0000 0.0000 0.0000 2.7263 0.0000 19.3358
#
#
#
# Elastic Compliance Matrix: (Units=1/GPa)
#
#
# Indices 1 2 3 4 5 6 
#
# 1 0.021347 -0.000099 -0.002353 0.000000 0.006581 0.000000
# 2 -0.000099 0.012285 -0.004373 0.000000 0.000837 0.000000
# 3 -0.002353 -0.004373 0.006786 0.000000 -0.003407 0.000000
# 4 0.000000 0.000000 0.000000 0.040584 0.000000 -0.005722
# 5 0.006581 0.000837 -0.003407 0.000000 0.046235 0.000000
# 6 0.000000 0.000000 0.000000 -0.005722 0.000000 0.052524
#
#
# Mechanical properties :
#
#
# Convention : Reuss Voigt Hill
#
# Bulk Modulus (GPa) = 37.35724 62.90496 50.13110
# Shear Modulus (GPa) = 24.71162 31.15190 27.93176
#
# Velocity S-wave (km/s) = 3.66276 4.11245 3.89410
# Velocity P-wave (km/s) = 6.17810 7.52997 6.88728
#
# Compressibility (1/GPa) = 0.02676857
#
# Stress axis : x y z
#
# Youngs Moduli (GPa) = 46.84419 81.40034 147.35800
#
# Poissons Ratio (x) = 0.00806 0.34673
# Poissons Ratio (y) = 0.00464 0.64440
# Poissons Ratio (z) = 0.11022 0.35597
#
# Static dielectric constant tensor:
#      x y z
#    x 3.264450 0.000000 -0.061090 
#    y 0.000000 3.015330 0.000000 
#    z -0.061090 0.000000 4.305890 
# 
# 
# High freq. dielectric constant tensor:
#      x y z
#    x 1.703690 0.000000 -0.009730 
#    y 0.000000 1.673240 0.000000 
#    z -0.009730 0.000000 1.748600 
# 
# From -- ./inp_files/54927.got.cif
#   From: 2010.03.12/outbox.cif.g09.slc.cpg/sg14_28_cif.got.tgz:54927.got - 2010.03.31 13:35:05.
