data_PCOD8125686
_publ_section_title
;
Structure prediction by ZEFSAII (Michael W. Deem and Ramdas Pophale) SiO2 
 PCOD8125686
Probable space group: P 21/C
;
_chemical_formula_sum "Si O2"
_cell_formula_units_Z 32
_cell_length_a 11.936516
_cell_length_b 17.401412
_cell_length_c 15.866516
_cell_angle_alpha 90.000000
_cell_angle_beta 27.759650
_cell_angle_gamma 90.000000
_cell_volume 1535.002766
_symmetry_space_group_name_H-M "P 21/C"
_symmetry_group_IT_number 14
_symmetry_cell_setting 'monoclinic'
loop_
_space_group_symop_operation_xyz
x,y,z
-x,1/2+y,1/2-z
-x,-y,-z
x,1/2-y,1/2+z
loop_
_atom_site_type_symbol
_atom_site_label
_atom_site_fract_x
_atom_site_fract_y
_atom_site_fract_z
Si Si1 0.389078 0.406183 0.984353
Si Si2 0.428093 0.735147 0.212494
Si Si3 0.356749 0.580304 0.017778
Si Si4 0.146494 0.881034 0.127831
Si Si5 0.415739 0.170675 0.049554
Si Si6 0.188621 0.442933 0.575235
Si Si7 0.371960 0.151837 0.799128
Si Si8 0.960795 0.775901 0.106820
O O1 0.539658 0.357082 0.815618
O O2 0.446095 0.495275 0.933171
O O3 0.467469 0.384068 0.027797
O O4 0.109101 0.387100 0.154806
O O5 0.597203 0.767412 0.174074
O O6 0.156085 0.761301 0.413141
O O7 0.512345 0.767256 0.067251
O O8 0.381721 0.628337 0.914304
O O9 0.088776 0.581723 0.232341
O O10 0.118289 0.821171 0.070794
O O11 0.225205 0.965910 0.046542
O O12 0.349547 0.847230 0.052816
O O13 0.326208 0.092532 0.064299
O O14 0.206009 0.208055 0.246085
O O15 0.294402 0.412677 0.417177
O O16 0.177746 0.160386 0.855089
#
# Coordination Sequence:
#
# PCOD8125686 Si02
#       8
#     4   4   4   4   4   4   4   4
#     4  10  21  40  65  94 126 169 209 264 328 366
#     4  11  24  39  60  93 125 168 209 263 316 381
#     4  10  20  41  64  92 131 160 213 270 309 381
#     4  11  23  43  66  91 130 171 214 259 325 384
#     4  11  24  44  64  90 135 166 218 258 319 386
#     4  10  24  41  66  95 125 175 208 265 318 377
#     4  11  23  39  62  93 129 158 216 261 319 372
#     4  12  24  39  65  95 124 173 211 267 319 370
#
# _framework density 20.846867
#
# number of rings (size 3 to 8) (size 9 to 14) (size 15 to 20)
#    0.000    1.250    2.500    2.625    3.500    1.500 
#    0.000    0.000    0.000    6.000    0.000    0.000 
#    0.000    0.000    0.000    0.000    0.000    0.000 
#
# Total GULP energy -396776.607887 kJ/mol
# GULP energy per Si atom -12399.268996 kJ/mol
# Density = 2.079942 g / cm^3
# Si number density = 20.846867 Si / 1000 Ang^3
#
#
#
# Elastic Constant Matrix: (Units=GPa)
#
#
# Indices 1 2 3 4 5 6 
#
# 1 118.7552 35.8643 28.3800 0.0000 -10.3141 0.0000
# 2 35.8643 76.0113 20.2101 0.0000 1.3262 0.0000
# 3 28.3800 20.2101 103.5573 0.0000 2.6335 0.0000
# 4 0.0000 0.0000 0.0000 26.9803 0.0000 -8.8582
# 5 -10.3141 1.3262 2.6335 0.0000 30.5639 0.0000
# 6 0.0000 0.0000 0.0000 -8.8582 0.0000 20.7256
#
#
#
# Elastic Compliance Matrix: (Units=1/GPa)
#
#
# Indices 1 2 3 4 5 6 
#
# 1 0.010642 -0.004523 -0.002135 0.000000 0.003971 0.000000
# 2 -0.004523 0.015802 -0.001792 0.000000 -0.002057 0.000000
# 3 -0.002135 -0.001792 0.010631 0.000000 -0.001559 0.000000
# 4 0.000000 0.000000 0.000000 0.043114 0.000000 0.018427
# 5 0.003971 -0.002057 -0.001559 0.000000 0.034282 0.000000
# 6 0.000000 0.000000 0.000000 0.018427 0.000000 0.056125
#
#
# Mechanical properties :
#
#
# Convention : Reuss Voigt Hill
#
# Bulk Modulus (GPa) = 49.56474 51.91473 50.73974
# Shear Modulus (GPa) = 25.74389 29.91192 27.82790
#
# Velocity S-wave (km/s) = 3.51793 3.79204 3.65755
# Velocity P-wave (km/s) = 6.35046 6.64302 6.49839
#
# Compressibility (1/GPa) = 0.02017563
#
# Stress axis : x y z
#
# Youngs Moduli (GPa) = 93.97068 63.28190 94.06545
#
# Poissons Ratio (x) = 0.28621 0.20080
# Poissons Ratio (y) = 0.42500 0.16858
# Poissons Ratio (z) = 0.20060 0.11341
#
# Static dielectric constant tensor:
#      x y z
#    x 3.733080 0.000000 0.010230 
#    y 0.000000 3.829690 0.000000 
#    z 0.010230 0.000000 3.844110 
# 
# 
# High freq. dielectric constant tensor:
#      x y z
#    x 1.813510 0.000000 -0.000170 
#    y 0.000000 1.819210 0.000000 
#    z -0.000170 0.000000 1.823920 
# 
# From -- ./inp_files/45416.got.cif
#   From: 2010.03.12/outbox.cif.g09.slc.cpg/sg14_23_cif.got.tgz:45416.got - 2010.03.31 13:35:05.
