data_PCOD8125710
_publ_section_title
;
Structure prediction by ZEFSAII (Michael W. Deem and Ramdas Pophale) SiO2 
 PCOD8125710
Probable space group: P 21/C
;
_chemical_formula_sum "Si O2"
_cell_formula_units_Z 24
_cell_length_a 10.039196
_cell_length_b 11.227868
_cell_length_c 14.088587
_cell_angle_alpha 90.000000
_cell_angle_beta 42.761016
_cell_angle_gamma 90.000000
_cell_volume 1078.192465
_symmetry_space_group_name_H-M "P 21/C"
_symmetry_group_IT_number 14
_symmetry_cell_setting 'monoclinic'
loop_
_space_group_symop_operation_xyz
x,y,z
-x,1/2+y,1/2-z
-x,-y,-z
x,1/2-y,1/2+z
loop_
_atom_site_type_symbol
_atom_site_label
_atom_site_fract_x
_atom_site_fract_y
_atom_site_fract_z
Si Si1 0.885801 0.809088 0.844531
Si Si2 0.232240 0.425389 0.781597
Si Si3 0.871133 0.918885 0.462377
Si Si4 0.653103 0.166064 0.364693
Si Si5 0.457253 0.114246 0.861355
Si Si6 0.485897 0.573084 0.877805
O O1 0.809073 0.829937 0.778292
O O2 0.115531 0.829904 0.736050
O O3 0.830583 0.673659 0.899503
O O4 0.761302 0.893670 0.980556
O O5 0.187625 0.360241 0.905217
O O6 0.448701 0.484121 0.665722
O O7 0.095399 0.541875 0.843301
O O8 0.740459 0.035023 0.515147
O O9 0.583266 0.278003 0.339974
O O10 0.522558 0.165778 0.529985
O O11 0.619386 0.042546 0.326885
O O12 0.442252 0.137221 0.755794
#
# Coordination Sequence:
#
# PCOD8125710 Si02
#       6
#     4   4   4   4   4   4
#     4  12  23  39  67 100 123 160 221 266 308 374
#     4  10  22  41  65  93 128 170 208 262 319 380
#     4  10  20  41  67  90 127 173 209 250 326 382
#     4  11  23  42  69  93 124 171 214 255 319 384
#     4  11  24  43  65  95 129 166 212 265 318 373
#     4  10  23  46  65  89 132 173 206 257 325 385
#
# _framework density 22.259475999999999
#
# number of rings (size 3 to 8) (size 9 to 14) (size 15 to 20)
#    0.000    1.333    5.000    0.500    0.000    2.000 
#    3.000    1.667    0.000    0.000    0.000    0.000 
#    0.000    0.000    0.000    0.000    0.000    0.000 
#
# Total GULP energy -297547.227977 kJ/mol
# GULP energy per Si atom -12397.801166 kJ/mol
# Density = 2.220881 g / cm^3
# Si number density = 22.259476 Si / 1000 Ang^3
#
#
#
# Elastic Constant Matrix: (Units=GPa)
#
#
# Indices 1 2 3 4 5 6 
#
# 1 66.1576 17.7106 40.5799 0.0000 24.2394 0.0000
# 2 17.7106 62.9051 31.6382 0.0000 23.4593 0.0000
# 3 40.5799 31.6382 108.6397 0.0000 25.0302 0.0000
# 4 0.0000 0.0000 0.0000 23.7217 0.0000 8.3392
# 5 24.2394 23.4593 25.0302 0.0000 51.0222 0.0000
# 6 0.0000 0.0000 0.0000 8.3392 0.0000 33.1011
#
#
#
# Elastic Compliance Matrix: (Units=1/GPa)
#
#
# Indices 1 2 3 4 5 6 
#
# 1 0.021695 -0.000259 -0.006405 0.000000 -0.007045 0.000000
# 2 -0.000259 0.020874 -0.004283 0.000000 -0.007373 0.000000
# 3 -0.006405 -0.004283 0.013179 0.000000 -0.001453 0.000000
# 4 0.000000 0.000000 0.000000 0.046252 0.000000 -0.011652
# 5 -0.007045 -0.007373 -0.001453 0.000000 0.027049 0.000000
# 6 0.000000 0.000000 0.000000 -0.011652 0.000000 0.033146
#
#
# Mechanical properties :
#
#
# Convention : Reuss Voigt Hill
#
# Bulk Modulus (GPa) = 29.53937 46.39552 37.96745
# Shear Modulus (GPa) = 25.59186 31.42059 28.50622
#
# Velocity S-wave (km/s) = 3.39441 3.76115 3.58248
# Velocity P-wave (km/s) = 5.35369 6.30476 5.84859
#
# Compressibility (1/GPa) = 0.03385313
#
# Stress axis : x y z
#
# Youngs Moduli (GPa) = 46.09393 47.90665 75.87617
#
# Poissons Ratio (x) = 0.01242 0.48598
# Poissons Ratio (y) = 0.01195 0.32501
# Poissons Ratio (z) = 0.29523 0.20520
#
# Static dielectric constant tensor:
#      x y z
#    x 4.259530 0.000000 0.098550 
#    y 0.000000 3.620060 0.000000 
#    z 0.098550 0.000000 4.241980 
# 
# 
# High freq. dielectric constant tensor:
#      x y z
#    x 1.893110 0.000000 0.001390 
#    y 0.000000 1.853100 0.000000 
#    z 0.001390 0.000000 1.882730 
# 
# From -- ./inp_files/44262.got.cif
#   From: 2010.03.12/outbox.cif.g09.slc.cpg/sg14_23_cif.got.tgz:44262.got - 2010.03.31 13:35:05.
