data_PCOD8125286
_publ_section_title
;
Structure prediction by ZEFSAII (Michael W. Deem and Ramdas Pophale) SiO2 
 PCOD8125286
Probable space group: P 21/C
;
_chemical_formula_sum "Si O2"
_cell_formula_units_Z 24
_cell_length_a 10.534755
_cell_length_b 19.833759
_cell_length_c 10.149362
_cell_angle_alpha 90.000000
_cell_angle_beta 36.163549
_cell_angle_gamma 90.000000
_cell_volume 1251.376702
_symmetry_space_group_name_H-M "P 21/C"
_symmetry_group_IT_number 14
_symmetry_cell_setting 'monoclinic'
loop_
_space_group_symop_operation_xyz
x,y,z
-x,1/2+y,1/2-z
-x,-y,-z
x,1/2-y,1/2+z
loop_
_atom_site_type_symbol
_atom_site_label
_atom_site_fract_x
_atom_site_fract_y
_atom_site_fract_z
Si Si1 0.266398 0.182176 0.476178
Si Si2 0.073842 0.709496 0.207934
Si Si3 0.495004 0.135441 0.033536
Si Si4 0.068024 0.926467 0.284982
Si Si5 0.077067 0.076187 0.296683
Si Si6 0.331753 0.762022 0.748572
O O1 0.346374 0.175969 0.259840
O O2 0.471777 0.185060 0.400491
O O3 0.153045 0.254253 0.582020
O O4 0.103801 0.120780 0.647934
O O5 0.189189 0.707656 0.251938
O O6 0.031670 0.632904 0.202034
O O7 0.205530 0.754079 0.991994
O O8 0.335874 0.083948 0.091589
O O9 0.686934 0.096575 0.948923
O O10 0.591627 0.187010 0.848294
O O11 0.037274 0.920128 0.466767
O O12 0.033831 0.003325 0.266381
#
# Coordination Sequence:
#
# PCOD8125286 Si02
#       6
#     4   4   4   4   4   4
#     4  11  22  37  59  86 120 158 195 245 305 350
#     4  12  23  39  60  90 122 153 203 250 299 359
#     4  11  19  37  61  90 117 153 200 249 297 346
#     4  10  20  38  59  89 125 158 198 250 300 356
#     4  10  21  35  61  91 121 159 202 247 300 355
#     4  12  22  36  60  91 117 154 198 249 299 352
#
# _framework density 19.178875999999999
#
# number of rings (size 3 to 8) (size 9 to 14) (size 15 to 20)
#    0.000    1.000    6.667    1.500    0.000    0.000 
#    0.000    0.833    0.000    4.000    0.000    0.000 
#    0.000    0.000    0.000    0.000    0.000    0.000 
#
# Total GULP energy -297584.571237 kJ/mol
# GULP energy per Si atom -12399.357135 kJ/mol
# Density = 1.913522 g / cm^3
# Si number density = 19.178876 Si / 1000 Ang^3
#
#
#
# Elastic Constant Matrix: (Units=GPa)
#
#
# Indices 1 2 3 4 5 6 
#
# 1 76.8237 21.3718 10.4264 0.0000 -23.5298 0.0000
# 2 21.3718 117.1939 20.0743 0.0000 -14.2635 0.0000
# 3 10.4264 20.0743 65.8923 0.0000 -20.6927 0.0000
# 4 0.0000 0.0000 0.0000 23.8547 0.0000 -8.6583
# 5 -23.5298 -14.2635 -20.6927 0.0000 28.8286 0.0000
# 6 0.0000 0.0000 0.0000 -8.6583 0.0000 35.5295
#
#
#
# Elastic Compliance Matrix: (Units=1/GPa)
#
#
# Indices 1 2 3 4 5 6 
#
# 1 0.017957 -0.001821 0.002625 0.000000 0.015640 0.000000
# 2 -0.001821 0.009423 -0.002047 0.000000 0.001707 0.000000
# 3 0.002625 -0.002047 0.020319 0.000000 0.015715 0.000000
# 4 0.000000 0.000000 0.000000 0.045988 0.000000 0.011207
# 5 0.015640 0.001707 0.015715 0.000000 0.059577 0.000000
# 6 0.000000 0.000000 0.000000 0.011207 0.000000 0.030877
#
#
# Mechanical properties :
#
#
# Convention : Reuss Voigt Hill
#
# Bulk Modulus (GPa) = 22.11664 40.40608 31.26136
# Shear Modulus (GPa) = 24.78938 31.51172 28.15055
#
# Velocity S-wave (km/s) = 3.59909 4.05784 3.83533
# Velocity P-wave (km/s) = 5.36917 6.56266 5.99569
#
# Compressibility (1/GPa) = 0.04521482
#
# Stress axis : x y z
#
# Youngs Moduli (GPa) = 55.68744 106.12036 49.21386
#
# Poissons Ratio (x) = 0.19323 -0.12918
# Poissons Ratio (y) = 0.10140 0.10072
# Poissons Ratio (z) = -0.14617 0.21718
#
# Static dielectric constant tensor:
#      x y z
#    x 3.336690 0.000000 -0.272690 
#    y 0.000000 3.592190 0.000000 
#    z -0.272690 0.000000 3.736270 
# 
# 
# High freq. dielectric constant tensor:
#      x y z
#    x 1.721010 0.000000 -0.023100 
#    y 0.000000 1.741370 0.000000 
#    z -0.023100 0.000000 1.758890 
# 
# From -- ./inp_files/10127.got.cif
#   From: 2010.03.12/outbox.cif.g09.slc.cpg/sg14_6_cif.got.tgz:10127.got - 2010.03.31 13:35:05.
