data_PCOD8125481
_publ_section_title
;
Structure prediction by ZEFSAII (Michael W. Deem and Ramdas Pophale) SiO2 
 PCOD8125481
Probable space group: P 21/C
;
_chemical_formula_sum "Si O2"
_cell_formula_units_Z 28
_cell_length_a 5.588117
_cell_length_b 13.443593
_cell_length_c 22.827615
_cell_angle_alpha 90.000000
_cell_angle_beta 54.192707
_cell_angle_gamma 90.000000
_cell_volume 1390.773924
_symmetry_space_group_name_H-M "P 21/C"
_symmetry_group_IT_number 14
_symmetry_cell_setting 'monoclinic'
loop_
_space_group_symop_operation_xyz
x,y,z
-x,1/2+y,1/2-z
-x,-y,-z
x,1/2-y,1/2+z
loop_
_atom_site_type_symbol
_atom_site_label
_atom_site_fract_x
_atom_site_fract_y
_atom_site_fract_z
Si Si1 0.275163 0.656689 0.927755
Si Si2 0.088226 0.709026 0.682422
Si Si3 0.529088 0.682353 0.314181
Si Si4 0.880396 0.552402 0.883914
Si Si5 0.052677 0.847659 0.585345
Si Si6 0.100373 0.994509 0.233876
Si Si7 0.403072 0.859013 0.709139
O O1 0.345253 0.765615 0.891605
O O2 0.586182 0.609547 0.904230
O O3 0.064805 0.598620 0.912167
O O4 0.076665 0.674419 0.013528
O O5 0.112606 0.589831 0.682050
O O6 0.354826 0.758082 0.679835
O O7 0.787150 0.744488 0.755686
O O8 0.119334 0.745656 0.610851
O O9 0.651857 0.575512 0.317847
O O10 0.319648 0.662490 0.288652
O O11 0.754579 0.443058 0.921308
O O12 0.122004 0.552522 0.796008
O O13 0.736725 0.889987 0.650639
O O14 0.784819 0.047449 0.284212
#
# Coordination Sequence:
#
# PCOD8125481 Si02
#       7
#     4   4   4   4   4   4   4
#     4  12  27  40  65  97 133 170 210 260 327 389
#     4  10  21  38  62  88 125 170 211 268 317 376
#     4  10  22  37  60  92 124 168 216 265 313 379
#     4  12  23  40  66  94 132 167 206 265 328 381
#     4  11  24  40  59  95 130 171 206 264 324 393
#     4  11  21  38  66  94 124 167 220 269 313 378
#     4  10  20  39  63  87 132 161 218 261 323 370
#
# _framework density 20.132677999999999
#
# number of rings (size 3 to 8) (size 9 to 14) (size 15 to 20)
#    0.000    1.143    5.714    2.571    4.000    2.286 
#    0.000    0.714    0.000    1.714    0.000    0.000 
#    0.000    0.000    0.000    0.000    0.000    0.000 
#
# Total GULP energy -347004.305808 kJ/mol
# GULP energy per Si atom -12393.010922 kJ/mol
# Density = 2.008685 g / cm^3
# Si number density = 20.132678 Si / 1000 Ang^3
#
#
#
# Elastic Constant Matrix: (Units=GPa)
#
#
# Indices 1 2 3 4 5 6 
#
# 1 94.6018 32.8627 32.0020 0.0000 19.3275 0.0000
# 2 32.8627 117.9541 59.2705 0.0000 15.3828 0.0000
# 3 32.0020 59.2705 111.9908 0.0000 31.4685 0.0000
# 4 0.0000 0.0000 0.0000 26.0480 0.0000 2.3425
# 5 19.3275 15.3828 31.4685 0.0000 22.3558 0.0000
# 6 0.0000 0.0000 0.0000 2.3425 0.0000 16.5852
#
#
#
# Elastic Compliance Matrix: (Units=1/GPa)
#
#
# Indices 1 2 3 4 5 6 
#
# 1 0.013468 -0.002632 0.000508 0.000000 -0.010548 0.000000
# 2 -0.002632 0.012080 -0.006526 0.000000 0.003150 0.000000
# 3 0.000508 -0.006526 0.018363 0.000000 -0.021797 0.000000
# 4 0.000000 0.000000 0.000000 0.038885 0.000000 -0.005492
# 5 -0.010548 0.003150 -0.021797 0.000000 0.082364 0.000000
# 6 0.000000 0.000000 0.000000 -0.005492 0.000000 0.061070
#
#
# Mechanical properties :
#
#
# Convention : Reuss Voigt Hill
#
# Bulk Modulus (GPa) = 37.57877 63.64634 50.61256
# Shear Modulus (GPa) = 19.80988 26.35857 23.08422
#
# Velocity S-wave (km/s) = 3.14023 3.62227 3.38983
# Velocity P-wave (km/s) = 5.64394 7.01260 6.36517
#
# Compressibility (1/GPa) = 0.02661077
#
# Stress axis : x y z
#
# Youngs Moduli (GPa) = 74.25004 82.78376 54.45869
#
# Poissons Ratio (x) = 0.21790 -0.02769
# Poissons Ratio (y) = 0.19543 0.35540
# Poissons Ratio (z) = -0.03775 0.54025
#
# Static dielectric constant tensor:
#      x y z
#    x 3.827880 0.000000 0.253870 
#    y 0.000000 3.628140 0.000000 
#    z 0.253870 0.000000 3.523330 
# 
# 
# High freq. dielectric constant tensor:
#      x y z
#    x 1.794340 0.000000 0.020990 
#    y 0.000000 1.779200 0.000000 
#    z 0.020990 0.000000 1.760170 
# 
# From -- ./inp_files/63328.got.cif
#   From: 2010.03.12/outbox.cif.g09.slc.cpg/sg14_32_cif.got.tgz:63328.got - 2010.03.31 13:35:05.
