data_PCOD8125183
_publ_section_title
;
Structure prediction by ZEFSAII (Michael W. Deem and Ramdas Pophale) SiO2 
 PCOD8125183
Probable space group: P 21/C
;
_chemical_formula_sum "Si O2"
_cell_formula_units_Z 20
_cell_length_a 10.397979
_cell_length_b 9.181834
_cell_length_c 24.006782
_cell_angle_alpha 90.000000
_cell_angle_beta 24.876750
_cell_angle_gamma 90.000000
_cell_volume 964.165304
_symmetry_space_group_name_H-M "P 21/C"
_symmetry_group_IT_number 14
_symmetry_cell_setting 'monoclinic'
loop_
_space_group_symop_operation_xyz
x,y,z
-x,1/2+y,1/2-z
-x,-y,-z
x,1/2-y,1/2+z
loop_
_atom_site_type_symbol
_atom_site_label
_atom_site_fract_x
_atom_site_fract_y
_atom_site_fract_z
Si Si1 0.930421 0.591449 0.811045
Si Si2 0.717755 0.137247 0.466413
Si Si3 0.188095 0.950844 0.093778
Si Si4 0.817970 0.918430 0.524072
Si Si5 0.179409 0.789927 0.800754
O O1 0.978465 0.437228 0.824579
O O2 0.964398 0.581146 0.732275
O O3 0.150926 0.710713 0.752044
O O4 0.580881 0.642543 0.955938
O O5 0.793194 0.304679 0.451162
O O6 0.680382 0.039789 0.536467
O O7 0.043539 0.070427 0.110021
O O8 0.500000 0.000000 0.000000
O O9 0.537063 0.832586 0.664247
O O10 0.059335 0.812065 0.398085
O O11 0.000000 0.000000 0.500000
#
# Coordination Sequence:
#
# PCOD8125183 Si02
#       5
#     4   4   4   4   4
#     4  10  20  37  60  92 135 162 208 268 338 384
#     4  10  22  37  61  92 130 176 205 270 330 386
#     4  12  21  33  62 102 132 166 212 267 339 404
#     4  11  26  49  67  92 135 181 226 274 323 390
#     4  11  23  43  70  97 129 174 223 273 333 396
#
# _framework density 20.743331999999999
#
# number of rings (size 3 to 8) (size 9 to 14) (size 15 to 20)
#    0.000    1.200    4.000    2.400    2.800    1.600 
#    0.000    2.000    0.000    0.000    0.000    0.000 
#    0.000    0.000    0.000    0.000    0.000    0.000 
#
# Total GULP energy -247888.677461 kJ/mol
# GULP energy per Si atom -12394.433873 kJ/mol
# Density = 2.069612 g / cm^3
# Si number density = 20.743332 Si / 1000 Ang^3
#
#
#
# Elastic Constant Matrix: (Units=GPa)
#
#
# Indices 1 2 3 4 5 6 
#
# 1 91.3008 51.3077 41.4428 0.0000 -7.8409 0.0000
# 2 51.3077 150.3473 52.1261 0.0000 0.4320 0.0000
# 3 41.4428 52.1261 106.7830 0.0000 -7.0179 0.0000
# 4 0.0000 0.0000 0.0000 25.3899 0.0000 -6.0561
# 5 -7.8409 0.4320 -7.0179 0.0000 28.1586 0.0000
# 6 0.0000 0.0000 0.0000 -6.0561 0.0000 39.1472
#
#
#
# Elastic Compliance Matrix: (Units=1/GPa)
#
#
# Indices 1 2 3 4 5 6 
#
# 1 0.015118 -0.003865 -0.003762 0.000000 0.003331 0.000000
# 2 -0.003865 0.009029 -0.003037 0.000000 -0.001972 0.000000
# 3 -0.003762 -0.003037 0.012445 0.000000 0.002101 0.000000
# 4 0.000000 0.000000 0.000000 0.040895 0.000000 0.006326
# 5 0.003331 -0.001972 0.002101 0.000000 0.036995 0.000000
# 6 0.000000 0.000000 0.000000 0.006326 0.000000 0.026523
#
#
# Mechanical properties :
#
#
# Convention : Reuss Voigt Hill
#
# Bulk Modulus (GPa) = 65.50879 70.90938 68.20909
# Shear Modulus (GPa) = 29.86485 32.10944 30.98715
#
# Velocity S-wave (km/s) = 3.79850 3.93866 3.86921
# Velocity P-wave (km/s) = 7.13353 7.41231 7.27426
#
# Compressibility (1/GPa) = 0.01526513
#
# Stress axis : x y z
#
# Youngs Moduli (GPa) = 66.14510 110.75754 80.35051
#
# Poissons Ratio (x) = 0.42803 0.30228
# Poissons Ratio (y) = 0.25562 0.24403
# Poissons Ratio (z) = 0.24884 0.33638
#
# Static dielectric constant tensor:
#      x y z
#    x 3.384460 0.000000 0.092610 
#    y 0.000000 4.017510 0.000000 
#    z 0.092610 0.000000 4.133400 
# 
# 
# High freq. dielectric constant tensor:
#      x y z
#    x 1.775210 0.000000 0.000020 
#    y 0.000000 1.829810 0.000000 
#    z 0.000020 0.000000 1.812320 
# 
# From -- ./inp_files/11787.got.cif
#   From: 2010.03.12/outbox.cif.g09.slc.cpg/sg14_6_cif.got.tgz:11787.got - 2010.03.31 13:35:05.
