data_PCOD8125911
_publ_section_title
;
Structure prediction by ZEFSAII (Michael W. Deem and Ramdas Pophale) SiO2 
 PCOD8125911
Probable space group: P 21/C
;
_chemical_formula_sum "Si O2"
_cell_formula_units_Z 28
_cell_length_a 14.020282
_cell_length_b 8.507426
_cell_length_c 13.708155
_cell_angle_alpha 90.000000
_cell_angle_beta 123.860065
_cell_angle_gamma 90.000000
_cell_volume 1357.755936
_symmetry_space_group_name_H-M "P 21/C"
_symmetry_group_IT_number 14
_symmetry_cell_setting 'monoclinic'
loop_
_space_group_symop_operation_xyz
x,y,z
-x,1/2+y,1/2-z
-x,-y,-z
x,1/2-y,1/2+z
loop_
_atom_site_type_symbol
_atom_site_label
_atom_site_fract_x
_atom_site_fract_y
_atom_site_fract_z
Si Si1 0.842113 0.417864 0.449794
Si Si2 0.211738 0.324485 0.733058
Si Si3 0.592445 0.163989 0.843617
Si Si4 0.827958 0.708803 0.571768
Si Si5 0.467958 0.163095 0.431690
Si Si6 0.961335 0.673548 0.986144
Si Si7 0.572936 0.812873 0.897816
O O1 0.843332 0.518665 0.348993
O O2 0.724878 0.318554 0.389356
O O3 0.851095 0.524612 0.554361
O O4 0.947434 0.296972 0.505677
O O5 0.170671 0.271244 0.817044
O O6 0.348674 0.346896 0.803016
O O7 0.161466 0.184722 0.638677
O O8 0.568650 0.290354 0.915117
O O9 0.513976 0.197986 0.706006
O O10 0.556573 0.991718 0.857821
O O11 0.933759 0.801384 0.584143
O O12 0.703135 0.745853 0.453758
O O13 0.454875 0.300466 0.503449
O O14 0.500000 0.000000 0.500000
O O15 0.000000 0.500000 0.000000
#
# Coordination Sequence:
#
# PCOD8125911 Si02
#       7
#     4   4   4   4   4   4   4
#     4  10  22  40  60  88 122 159 201 248 299 364
#     4  10  21  41  64  86 119 160 203 256 306 355
#     4  11  21  38  61  87 124 162 195 248 306 356
#     4   9  20  40  62  83 115 159 201 254 307 350
#     4  11  22  38  61  92 123 158 206 251 304 369
#     4  11  24  39  59  90 121 159 207 248 301 370
#     4  10  21  36  59  88 117 157 201 245 304 364
#
# _framework density 20.622263
#
# number of rings (size 3 to 8) (size 9 to 14) (size 15 to 20)
#    0.000    1.714    0.000    6.429    0.000    6.857 
#    0.000    5.714    0.000    0.000    0.000    0.000 
#    0.000    0.000    0.000    0.000    0.000    0.000 
#
# Total GULP energy -346888.201316 kJ/mol
# GULP energy per Si atom -12388.864333 kJ/mol
# Density = 2.057533 g / cm^3
# Si number density = 20.622263 Si / 1000 Ang^3
#
#
#
# Elastic Constant Matrix: (Units=GPa)
#
#
# Indices 1 2 3 4 5 6 
#
# 1 124.5214 47.7355 31.5587 0.0000 0.7867 0.0000
# 2 47.7355 104.8618 50.4058 0.0000 3.2676 0.0000
# 3 31.5587 50.4058 87.3923 0.0000 6.0207 0.0000
# 4 0.0000 0.0000 0.0000 28.6586 0.0000 2.1046
# 5 0.7867 3.2676 6.0207 0.0000 24.2078 0.0000
# 6 0.0000 0.0000 0.0000 2.1046 0.0000 36.9737
#
#
#
# Elastic Compliance Matrix: (Units=1/GPa)
#
#
# Indices 1 2 3 4 5 6 
#
# 1 0.009848 -0.003836 -0.001381 0.000000 0.000541 0.000000
# 2 -0.003836 0.014689 -0.007080 0.000000 -0.000097 0.000000
# 3 -0.001381 -0.007080 0.016234 0.000000 -0.003037 0.000000
# 4 0.000000 0.000000 0.000000 0.035040 0.000000 -0.001995
# 5 0.000541 -0.000097 -0.003037 0.000000 0.042060 0.000000
# 6 0.000000 0.000000 0.000000 -0.001995 0.000000 0.027160
#
#
# Mechanical properties :
#
#
# Convention : Reuss Voigt Hill
#
# Bulk Modulus (GPa) = 61.81780 64.01951 62.91866
# Shear Modulus (GPa) = 28.56850 30.43972 29.50411
#
# Velocity S-wave (km/s) = 3.72603 3.84612 3.78655
# Velocity P-wave (km/s) = 6.96795 7.12985 7.04937
#
# Compressibility (1/GPa) = 0.01617657
#
# Stress axis : x y z
#
# Youngs Moduli (GPa) = 101.54478 68.07774 61.59772
#
# Poissons Ratio (x) = 0.26115 0.08506
# Poissons Ratio (y) = 0.38953 0.43614
# Poissons Ratio (z) = 0.14023 0.48202
#
# Static dielectric constant tensor:
#      x y z
#    x 4.054410 0.000000 -0.116700 
#    y 0.000000 -4.455420 0.000000 
#    z -0.116700 0.000000 3.792890 
# 
# 
# High freq. dielectric constant tensor:
#      x y z
#    x 1.822170 0.000000 -0.000990 
#    y 0.000000 1.794620 0.000000 
#    z -0.000990 0.000000 1.807080 
# 
# From -- ./inp_files/43823.got.cif
#   From: 2010.03.12/outbox.cif.g09.slc.cpg/sg14_22_cif.got.tgz:43823.got - 2010.03.31 13:35:05.
