data_PCOD8125617
_publ_section_title
;
Structure prediction by ZEFSAII (Michael W. Deem and Ramdas Pophale) SiO2 
 PCOD8125617
Probable space group: P 21/C
;
_chemical_formula_sum "Si O2"
_cell_formula_units_Z 20
_cell_length_a 8.238707
_cell_length_b 20.018509
_cell_length_c 7.635183
_cell_angle_alpha 90.000000
_cell_angle_beta 128.323082
_cell_angle_gamma 90.000000
_cell_volume 987.911232
_symmetry_space_group_name_H-M "P 21/C"
_symmetry_group_IT_number 14
_symmetry_cell_setting 'monoclinic'
loop_
_space_group_symop_operation_xyz
x,y,z
-x,1/2+y,1/2-z
-x,-y,-z
x,1/2-y,1/2+z
loop_
_atom_site_type_symbol
_atom_site_label
_atom_site_fract_x
_atom_site_fract_y
_atom_site_fract_z
Si Si1 0.425305 0.080777 0.775069
Si Si2 0.418081 0.063411 0.163530
Si Si3 0.626111 0.180766 0.459427
Si Si4 0.215392 0.361299 0.813449
Si Si5 0.227465 0.818637 0.076610
O O1 0.245877 0.108342 0.528179
O O2 0.619478 0.130435 0.916190
O O3 0.504225 0.010998 0.748964
O O4 0.334284 0.071413 0.909021
O O5 0.609911 0.114871 0.326081
O O6 0.233096 0.080165 0.177037
O O7 0.398572 0.192664 0.397560
O O8 0.693243 0.243090 0.389230
O O9 0.787276 0.167246 0.725290
O O10 0.996431 0.325140 0.660871
#
# Coordination Sequence:
#
# PCOD8125617 Si02
#       5
#     4   4   4   4   4
#     4  10  20  40  65  88 126 157 199 249 306 357
#     4   9  20  43  61  88 126 162 191 256 300 359
#     4   9  22  39  56  86 124 153 204 248 298 358
#     4   9  22  39  61  89 118 160 200 251 294 361
#     4  11  21  39  62  88 119 165 201 255 300 361
#
# _framework density 20.244731999999999
#
# number of rings (size 3 to 8) (size 9 to 14) (size 15 to 20)
#    1.200    1.200    0.000    1.800    0.000    4.000 
#    7.200    2.000    0.000    0.000    0.000    0.000 
#    0.000    0.000    0.000    0.000    0.000    0.000 
#
# Total GULP energy -247872.800574 kJ/mol
# GULP energy per Si atom -12393.640029 kJ/mol
# Density = 2.019865 g / cm^3
# Si number density = 20.244732 Si / 1000 Ang^3
#
#
#
# Elastic Constant Matrix: (Units=GPa)
#
#
# Indices 1 2 3 4 5 6 
#
# 1 14.3267 -18.9806 7.2153 0.0000 3.7626 0.0000
# 2 -18.9806 48.4860 -11.7364 0.0000 16.0856 0.0000
# 3 7.2153 -11.7364 81.3071 0.0000 1.5444 0.0000
# 4 0.0000 0.0000 0.0000 26.5662 0.0000 -8.6306
# 5 3.7626 16.0856 1.5444 0.0000 33.7031 0.0000
# 6 0.0000 0.0000 0.0000 -8.6306 0.0000 18.3099
#
#
#
# Elastic Compliance Matrix: (Units=1/GPa)
#
#
# Indices 1 2 3 4 5 6 
#
# 1 0.300943 0.152392 -0.002691 0.000000 -0.106207 0.000000
# 2 0.152392 0.102880 0.002585 0.000000 -0.066233 0.000000
# 3 -0.002691 0.002585 0.012940 0.000000 -0.001526 0.000000
# 4 0.000000 0.000000 0.000000 0.044448 0.000000 0.020951
# 5 -0.106207 -0.066233 -0.001526 0.000000 0.073209 0.000000
# 6 0.000000 0.000000 0.000000 0.020951 0.000000 0.064491
#
#
# Mechanical properties :
#
#
# Convention : Reuss Voigt Hill
#
# Bulk Modulus (GPa) = 1.38632 10.79072 6.08852
# Shear Modulus (GPa) = 9.34956 26.89060 18.12008
#
# Velocity S-wave (km/s) = 2.15135 3.64851 2.99499
# Velocity P-wave (km/s) = 2.61865 4.80526 3.86961
#
# Compressibility (1/GPa) = 0.72133398
#
# Stress axis : x y z
#
# Youngs Moduli (GPa) = 3.32289 9.72010 77.27973
#
# Poissons Ratio (x) = -1.48126 0.20799
# Poissons Ratio (y) = -0.50638 -0.19977
# Poissons Ratio (z) = 0.00894 -0.02513
#
# Static dielectric constant tensor:
#      x y z
#    x 3.252100 0.000000 -0.202590 
#    y 0.000000 3.555450 0.000000 
#    z -0.202590 0.000000 3.639410 
# 
# 
# High freq. dielectric constant tensor:
#      x y z
#    x 1.756690 0.000000 -0.024720 
#    y 0.000000 1.787880 0.000000 
#    z -0.024720 0.000000 1.800050 
# 
# From -- ./inp_files/5692.got.cif
#   From: 2010.03.12/outbox.cif.g09.slc.cpg/sg14_3_cif.got.tgz:5692.got - 2010.03.31 13:35:05.
