data_PCOD8125692
_publ_section_title
;
Structure prediction by ZEFSAII (Michael W. Deem and Ramdas Pophale) SiO2 
 PCOD8125692
Probable space group: P 21/C
;
_chemical_formula_sum "Si O2"
_cell_formula_units_Z 32
_cell_length_a 18.673010
_cell_length_b 10.605231
_cell_length_c 13.480269
_cell_angle_alpha 90.000000
_cell_angle_beta 143.137922
_cell_angle_gamma 90.000000
_cell_volume 1601.419937
_symmetry_space_group_name_H-M "P 21/C"
_symmetry_group_IT_number 14
_symmetry_cell_setting 'monoclinic'
loop_
_space_group_symop_operation_xyz
x,y,z
-x,1/2+y,1/2-z
-x,-y,-z
x,1/2-y,1/2+z
loop_
_atom_site_type_symbol
_atom_site_label
_atom_site_fract_x
_atom_site_fract_y
_atom_site_fract_z
Si Si1 0.252441 0.688592 0.771573
Si Si2 0.374711 0.040398 0.477696
Si Si3 0.175771 0.112987 0.818052
Si Si4 0.887227 0.342092 0.728744
Si Si5 0.080638 0.799416 0.434317
Si Si6 0.316217 0.304401 0.097315
Si Si7 0.858042 0.921613 0.441556
Si Si8 0.484358 0.320042 0.931846
O O1 0.259176 0.542851 0.816487
O O2 0.213624 0.782339 0.815054
O O3 0.155893 0.694326 0.577194
O O4 0.386686 0.732295 0.887252
O O5 0.355692 0.082785 0.569151
O O6 0.393977 0.158688 0.424205
O O7 0.493790 0.953510 0.601536
O O8 0.207859 0.087011 0.737900
O O9 0.057979 0.200476 0.690067
O O10 0.157069 0.980534 0.855505
O O11 0.281777 0.185163 0.991026
O O12 0.911167 0.242558 0.669624
O O13 0.008553 0.366760 0.925433
O O14 0.140774 0.934568 0.519928
O O15 0.206310 0.341617 0.045061
O O16 0.428468 0.275721 0.291463
#
# Coordination Sequence:
#
# PCOD8125692 Si02
#       8
#     4   4   4   4   4   4   4   4
#     4  10  20  41  65  88 121 164 205 256 304 367
#     4   9  22  45  61  91 126 159 213 266 302 361
#     4  11  23  39  61  92 131 166 192 267 310 363
#     4  11  21  38  65  93 124 166 207 248 315 377
#     4  11  21  39  63  89 123 167 206 247 307 375
#     4  12  23  41  64  94 124 164 209 251 314 379
#     4  11  22  42  59  95 135 154 206 263 308 363
#     4   9  23  42  64  87 125 166 199 267 310 348
#
# _framework density 19.982265000000002
#
# number of rings (size 3 to 8) (size 9 to 14) (size 15 to 20)
#    0.750    0.750    3.750    2.250    1.750    2.000 
#    0.000    1.250    0.000    0.000    0.000    0.000 
#    0.000    0.000    0.000    0.000    0.000    0.000 
#
# Total GULP energy -396657.129010 kJ/mol
# GULP energy per Si atom -12395.535282 kJ/mol
# Density = 1.993678 g / cm^3
# Si number density = 19.982265 Si / 1000 Ang^3
#
#
#
# Elastic Constant Matrix: (Units=GPa)
#
#
# Indices 1 2 3 4 5 6 
#
# 1 78.2594 33.7535 15.6814 0.0000 -2.3951 0.0000
# 2 33.7535 57.5387 14.8435 0.0000 -3.3701 0.0000
# 3 15.6814 14.8435 57.1311 0.0000 -0.5325 0.0000
# 4 0.0000 0.0000 0.0000 39.9805 0.0000 -7.1280
# 5 -2.3951 -3.3701 -0.5325 0.0000 27.5231 0.0000
# 6 0.0000 0.0000 0.0000 -7.1280 0.0000 35.1851
#
#
#
# Elastic Compliance Matrix: (Units=1/GPa)
#
#
# Indices 1 2 3 4 5 6 
#
# 1 0.017380 -0.009591 -0.002276 0.000000 0.000294 0.000000
# 2 -0.009591 0.024054 -0.003598 0.000000 0.002041 0.000000
# 3 -0.002276 -0.003598 0.019061 0.000000 -0.000270 0.000000
# 4 0.000000 0.000000 0.000000 0.025949 0.000000 0.005257
# 5 0.000294 0.002041 -0.000270 0.000000 0.036603 0.000000
# 6 0.000000 0.000000 0.000000 0.005257 0.000000 0.029486
#
#
# Mechanical properties :
#
#
# Convention : Reuss Voigt Hill
#
# Bulk Modulus (GPa) = 33.82440 35.72067 34.77253
# Shear Modulus (GPa) = 25.86427 29.11445 27.48936
#
# Velocity S-wave (km/s) = 3.60163 3.82123 3.71305
# Velocity P-wave (km/s) = 5.85317 6.11425 5.98513
#
# Compressibility (1/GPa) = 0.02956446
#
# Stress axis : x y z
#
# Youngs Moduli (GPa) = 57.53854 41.57381 52.46443
#
# Poissons Ratio (x) = 0.39873 0.11940
# Poissons Ratio (y) = 0.55185 0.18876
# Poissons Ratio (z) = 0.13094 0.14958
#
# Static dielectric constant tensor:
#      x y z
#    x 3.562560 0.000000 -0.059620 
#    y 0.000000 3.563430 0.000000 
#    z -0.059620 0.000000 3.462620 
# 
# 
# High freq. dielectric constant tensor:
#      x y z
#    x 1.781000 0.000000 -0.005890 
#    y 0.000000 1.772820 0.000000 
#    z -0.005890 0.000000 1.765220 
# 
# From -- ./inp_files/33963.got.cif
#   From: 2010.03.12/outbox.cif.g09.slc.cpg/sg14_17_cif.got.tgz:33963.got - 2010.03.31 13:35:05.
