data_PCOD8125967
_publ_section_title
;
Structure prediction by ZEFSAII (Michael W. Deem and Ramdas Pophale) SiO2 
 PCOD8125967
Probable space group: P 21/C
;
_chemical_formula_sum "Si O2"
_cell_formula_units_Z 28
_cell_length_a 8.454395
_cell_length_b 20.835981
_cell_length_c 14.350205
_cell_angle_alpha 90.000000
_cell_angle_beta 32.037864
_cell_angle_gamma 90.000000
_cell_volume 1340.982980
_symmetry_space_group_name_H-M "P 21/C"
_symmetry_group_IT_number 14
_symmetry_cell_setting 'monoclinic'
loop_
_space_group_symop_operation_xyz
x,y,z
-x,1/2+y,1/2-z
-x,-y,-z
x,1/2-y,1/2+z
loop_
_atom_site_type_symbol
_atom_site_label
_atom_site_fract_x
_atom_site_fract_y
_atom_site_fract_z
Si Si1 0.907870 0.798497 0.390685
Si Si2 0.964806 0.577328 0.504389
Si Si3 0.236865 0.670408 0.229506
Si Si4 0.719326 0.100594 0.680339
Si Si5 0.090309 0.383168 0.272816
Si Si6 0.758718 0.097340 0.451243
Si Si7 0.195207 0.513494 0.704832
O O1 0.569345 0.808957 0.593843
O O2 0.907298 0.812944 0.278082
O O3 0.998956 0.725919 0.368775
O O4 0.142831 0.841961 0.329002
O O5 0.637176 0.603221 0.644742
O O6 0.069838 0.613918 0.546815
O O7 0.000000 0.500000 0.500000
O O8 0.172947 0.604509 0.318190
O O9 0.204492 0.658429 0.134637
O O10 0.862428 0.107926 0.505899
O O11 0.781308 0.030711 0.696762
O O12 0.912110 0.421823 0.286495
O O13 0.408483 0.418850 0.126552
O O14 0.958629 0.042097 0.306201
O O15 0.500000 0.500000 0.500000
#
# Coordination Sequence:
#
# PCOD8125967 Si02
#       7
#     4   4   4   4   4   4   4
#     4  10  23  42  61  86 115 158 204 254 310 363
#     4  11  22  39  62  93 126 163 202 251 309 370
#     4  11  23  41  63  85 118 157 204 255 309 371
#     4  10  22  38  59  88 124 157 200 249 300 364
#     4   9  21  38  57  80 116 154 194 239 293 358
#     4  10  21  37  57  82 113 156 193 238 297 355
#     4  11  20  33  56  88 120 153 193 242 294 353
#
# _framework density 20.880206000000001
#
# number of rings (size 3 to 8) (size 9 to 14) (size 15 to 20)
#    0.000    1.714    0.000    4.286    0.000   10.286 
#    0.000    2.857    0.000    0.000    0.000    0.000 
#    0.000    0.000    0.000    0.000    0.000    0.000 
#
# Total GULP energy -346870.459280 kJ/mol
# GULP energy per Si atom -12388.230689 kJ/mol
# Density = 2.083268 g / cm^3
# Si number density = 20.880206 Si / 1000 Ang^3
#
#
#
# Elastic Constant Matrix: (Units=GPa)
#
#
# Indices 1 2 3 4 5 6 
#
# 1 112.6246 43.5004 45.0316 0.0000 12.5125 0.0000
# 2 43.5004 104.5214 44.4143 0.0000 3.1921 0.0000
# 3 45.0316 44.4143 94.2943 0.0000 12.1888 0.0000
# 4 0.0000 0.0000 0.0000 25.2811 0.0000 0.5643
# 5 12.5125 3.1921 12.1888 0.0000 27.2796 0.0000
# 6 0.0000 0.0000 0.0000 0.5643 0.0000 29.9884
#
#
#
# Elastic Compliance Matrix: (Units=1/GPa)
#
#
# Indices 1 2 3 4 5 6 
#
# 1 0.012040 -0.003316 -0.003740 0.000000 -0.003463 0.000000
# 2 -0.003316 0.012911 -0.004775 0.000000 0.002144 0.000000
# 3 -0.003740 -0.004775 0.015226 0.000000 -0.004529 0.000000
# 4 0.000000 0.000000 0.000000 0.039572 0.000000 -0.000745
# 5 -0.003463 0.002144 -0.004529 0.000000 0.040019 0.000000
# 6 0.000000 0.000000 0.000000 -0.000745 0.000000 0.033360
#
#
# Mechanical properties :
#
#
# Convention : Reuss Voigt Hill
#
# Bulk Modulus (GPa) = 60.55218 64.14810 62.35014
# Shear Modulus (GPa) = 27.42813 28.40940 27.91876
#
# Velocity S-wave (km/s) = 3.62829 3.69262 3.66059
# Velocity P-wave (km/s) = 6.82755 6.99780 6.91320
#
# Compressibility (1/GPa) = 0.01651468
#
# Stress axis : x y z
#
# Youngs Moduli (GPa) = 83.05598 77.45403 65.67775
#
# Poissons Ratio (x) = 0.25681 0.24567
# Poissons Ratio (y) = 0.27539 0.31360
# Poissons Ratio (z) = 0.31067 0.36983
#
# Static dielectric constant tensor:
#      x y z
#    x 4.093880 0.000000 0.134760 
#    y 0.000000 3.515910 0.000000 
#    z 0.134760 0.000000 3.779450 
# 
# 
# High freq. dielectric constant tensor:
#      x y z
#    x 1.835410 0.000000 0.002270 
#    y 0.000000 1.797190 0.000000 
#    z 0.002270 0.000000 1.816230 
# 
# From -- ./inp_files/42165.got.cif
#   From: 2010.03.12/outbox.cif.g09.slc.cpg/sg14_22_cif.got.tgz:42165.got - 2010.03.31 13:35:05.
