data_PCOD8125747
_publ_section_title
;
Structure prediction by ZEFSAII (Michael W. Deem and Ramdas Pophale) SiO2 
 PCOD8125747
Probable space group: P 21/C
;
_chemical_formula_sum "Si O2"
_cell_formula_units_Z 28
_cell_length_a 11.724930
_cell_length_b 8.813272
_cell_length_c 16.397869
_cell_angle_alpha 90.000000
_cell_angle_beta 58.840705
_cell_angle_gamma 90.000000
_cell_volume 1450.015527
_symmetry_space_group_name_H-M "P 21/C"
_symmetry_group_IT_number 14
_symmetry_cell_setting 'monoclinic'
loop_
_space_group_symop_operation_xyz
x,y,z
-x,1/2+y,1/2-z
-x,-y,-z
x,1/2-y,1/2+z
loop_
_atom_site_type_symbol
_atom_site_label
_atom_site_fract_x
_atom_site_fract_y
_atom_site_fract_z
Si Si1 0.876211 0.017878 0.605686
Si Si2 0.765740 0.777640 0.546972
Si Si3 0.627840 0.298472 0.144577
Si Si4 0.018126 0.214138 0.669638
Si Si5 0.166147 0.500773 0.225587
Si Si6 0.637709 0.465631 0.989289
Si Si7 0.365569 0.462439 0.301122
O O1 0.773544 0.150138 0.619681
O O2 0.927709 0.067744 0.675960
O O3 0.806170 0.853842 0.620069
O O4 0.000000 0.000000 0.500000
O O5 0.886983 0.740672 0.441194
O O6 0.692069 0.623727 0.598374
O O7 0.668362 0.894235 0.537728
O O8 0.507941 0.397577 0.224491
O O9 0.603340 0.129533 0.180968
O O10 0.625685 0.312560 0.047079
O O11 0.093524 0.155343 0.723060
O O12 0.936340 0.365938 0.716086
O O13 0.250745 0.563820 0.118934
O O14 0.259855 0.459099 0.266527
O O15 0.500000 0.500000 0.000000
#
# Coordination Sequence:
#
# PCOD8125747 Si02
#       7
#     4   4   4   4   4   4   4
#     4   9  18  39  63  88 122 164 204 249 311 376
#     4   9  22  38  62  90 126 161 210 259 310 376
#     4  11  22  40  66  92 127 166 210 259 318 376
#     4  10  22  41  59  93 127 166 211 256 318 374
#     4  11  24  40  65  91 130 164 210 260 316 370
#     4  10  20  42  64  85 126 168 200 255 323 374
#     4  12  24  41  66  97 123 166 217 267 307 376
#
# _framework density 19.310137999999998
#
# number of rings (size 3 to 8) (size 9 to 14) (size 15 to 20)
#    0.000    1.714    2.857    2.571    2.000    1.714 
#    0.000    0.714    0.000    0.000    0.000    0.000 
#    0.000    0.000    0.000    0.000    0.000    0.000 
#
# Total GULP energy -346975.265162 kJ/mol
# GULP energy per Si atom -12391.973756 kJ/mol
# Density = 1.926619 g / cm^3
# Si number density = 19.310138 Si / 1000 Ang^3
#
#
#
# Elastic Constant Matrix: (Units=GPa)
#
#
# Indices 1 2 3 4 5 6 
#
# 1 108.4317 33.8875 45.2071 0.0000 -3.0309 0.0000
# 2 33.8875 95.9777 54.7972 0.0000 -10.5298 0.0000
# 3 45.2071 54.7972 104.6726 0.0000 -3.5016 0.0000
# 4 0.0000 0.0000 0.0000 35.7959 0.0000 -8.2833
# 5 -3.0309 -10.5298 -3.5016 0.0000 33.0967 0.0000
# 6 0.0000 0.0000 0.0000 -8.2833 0.0000 23.8645
#
#
#
# Elastic Compliance Matrix: (Units=1/GPa)
#
#
# Indices 1 2 3 4 5 6 
#
# 1 0.011448 -0.001730 -0.004036 0.000000 0.000071 0.000000
# 2 -0.001730 0.015647 -0.007309 0.000000 0.004046 0.000000
# 3 -0.004036 -0.007309 0.015086 0.000000 -0.001099 0.000000
# 4 0.000000 0.000000 0.000000 0.030376 0.000000 0.010543
# 5 0.000071 0.004046 -0.001099 0.000000 0.031392 0.000000
# 6 0.000000 0.000000 0.000000 0.010543 0.000000 0.045563
#
#
# Mechanical properties :
#
#
# Convention : Reuss Voigt Hill
#
# Bulk Modulus (GPa) = 62.37853 64.09618 63.23736
# Shear Modulus (GPa) = 27.62360 30.23077 28.92719
#
# Velocity S-wave (km/s) = 3.78633 3.96098 3.87464
# Velocity P-wave (km/s) = 7.17556 7.36099 7.26887
#
# Compressibility (1/GPa) = 0.01603116
#
# Stress axis : x y z
#
# Youngs Moduli (GPa) = 87.35346 63.91186 66.28539
#
# Poissons Ratio (x) = 0.11055 0.26755
# Poissons Ratio (y) = 0.15109 0.48446
# Poissons Ratio (z) = 0.35258 0.46712
#
# Static dielectric constant tensor:
#      x y z
#    x 3.829850 0.000000 0.111470 
#    y 0.000000 3.476500 0.000000 
#    z 0.111470 0.000000 3.540320 
# 
# 
# High freq. dielectric constant tensor:
#      x y z
#    x 1.770510 0.000000 -0.008040 
#    y 0.000000 1.740180 0.000000 
#    z -0.008040 0.000000 1.751210 
# 
# From -- ./inp_files/43293.got.cif
#   From: 2010.03.12/outbox.cif.g09.slc.cpg/sg14_22_cif.got.tgz:43293.got - 2010.03.31 13:35:05.
