data_PCOD8125349
_publ_section_title
;
Structure prediction by ZEFSAII (Michael W. Deem and Ramdas Pophale) SiO2 
 PCOD8125349
Probable space group: P 21/C
;
_chemical_formula_sum "Si O2"
_cell_formula_units_Z 24
_cell_length_a 11.632957
_cell_length_b 11.276841
_cell_length_c 13.668452
_cell_angle_alpha 90.000000
_cell_angle_beta 150.189604
_cell_angle_gamma 90.000000
_cell_volume 891.390724
_symmetry_space_group_name_H-M "P 21/C"
_symmetry_group_IT_number 14
_symmetry_cell_setting 'monoclinic'
loop_
_space_group_symop_operation_xyz
x,y,z
-x,1/2+y,1/2-z
-x,-y,-z
x,1/2-y,1/2+z
loop_
_atom_site_type_symbol
_atom_site_label
_atom_site_fract_x
_atom_site_fract_y
_atom_site_fract_z
Si Si1 0.652118 0.996923 0.780504
Si Si2 0.239259 0.765201 0.215987
Si Si3 0.741062 0.875518 0.418161
Si Si4 0.281352 0.344704 0.490547
Si Si5 0.576136 0.274651 0.938679
Si Si6 0.955360 0.116177 0.577440
O O1 0.610741 0.881351 0.681560
O O2 0.817491 0.096090 0.851954
O O3 0.408898 0.065407 0.605937
O O4 0.734283 0.960370 0.951166
O O5 0.457480 0.703227 0.323269
O O6 0.272959 0.747574 0.355347
O O7 0.018456 0.690303 0.007546
O O8 0.861631 0.758774 0.556532
O O9 0.564973 0.841983 0.199045
O O10 0.920858 0.979235 0.522619
O O11 0.186176 0.372638 0.312730
O O12 0.746740 0.318953 0.979397
#
# Coordination Sequence:
#
# PCOD8125349 Si02
#       6
#     4   4   4   4   4   4
#     4   9  17  39  61  81 113 160 190 234 296 340
#     4  11  21  39  61  87 117 154 196 239 293 347
#     4   9  18  38  61  80 116 161 187 231 301 343
#     4  10  21  38  62  84 119 154 194 241 289 345
#     4  10  20  38  62  84 119 154 193 244 287 344
#     4  11  22  38  59  89 114 159 196 236 298 341
#
# _framework density 26.924220999999999
#
# number of rings (size 3 to 8) (size 9 to 14) (size 15 to 20)
#    0.000    2.000    6.667    0.500    2.333    0.667 
#    6.000    1.667    0.000    0.000    0.000    0.000 
#    0.000    0.000    0.000    0.000    0.000    0.000 
#
# Total GULP energy -297420.010099 kJ/mol
# GULP energy per Si atom -12392.500421 kJ/mol
# Density = 2.686294 g / cm^3
# Si number density = 26.924221 Si / 1000 Ang^3
#
#
#
# Elastic Constant Matrix: (Units=GPa)
#
#
# Indices 1 2 3 4 5 6 
#
# 1 50.4998 21.5046 26.6962 0.0000 -28.1804 0.0000
# 2 21.5046 118.1388 55.1964 0.0000 -17.8561 0.0000
# 3 26.6962 55.1964 164.3694 0.0000 -38.1340 0.0000
# 4 0.0000 0.0000 0.0000 42.8031 0.0000 -7.3215
# 5 -28.1804 -17.8561 -38.1340 0.0000 34.8990 0.0000
# 6 0.0000 0.0000 0.0000 -7.3215 0.0000 28.7645
#
#
#
# Elastic Compliance Matrix: (Units=1/GPa)
#
#
# Indices 1 2 3 4 5 6 
#
# 1 0.037157 -0.003119 0.002147 0.000000 0.030754 0.000000
# 2 -0.003119 0.010401 -0.003129 0.000000 -0.000616 0.000000
# 3 0.002147 -0.003129 0.009132 0.000000 0.010111 0.000000
# 4 0.000000 0.000000 0.000000 0.024426 0.000000 0.006217
# 5 0.030754 -0.000616 0.010111 0.000000 0.064221 0.000000
# 6 0.000000 0.000000 0.000000 0.006217 0.000000 0.036348
#
#
# Mechanical properties :
#
#
# Convention : Reuss Voigt Hill
#
# Bulk Modulus (GPa) = 20.62317 59.97803 40.30060
# Shear Modulus (GPa) = 24.26620 36.60071 30.43346
#
# Velocity S-wave (km/s) = 3.00539 3.69100 3.36570
# Velocity P-wave (km/s) = 4.44066 6.36314 5.48676
#
# Compressibility (1/GPa) = 0.04848916
#
# Stress axis : x y z
#
# Youngs Moduli (GPa) = 26.91311 96.14265 109.50907
#
# Poissons Ratio (x) = 0.29982 -0.23517
# Poissons Ratio (y) = 0.08393 0.34267
# Poissons Ratio (z) = -0.05779 0.30084
#
# Static dielectric constant tensor:
#      x y z
#    x 5.082150 0.000000 -0.148550 
#    y 0.000000 5.396320 0.000000 
#    z -0.148550 0.000000 4.855470 
# 
# 
# High freq. dielectric constant tensor:
#      x y z
#    x 2.088740 0.000000 -0.003400 
#    y 0.000000 2.096770 0.000000 
#    z -0.003400 0.000000 2.073450 
# 
# From -- ./inp_files/47009.got.cif
#   From: 2010.03.12/outbox.cif.g09.slc.cpg/sg14_24_cif.got.tgz:47009.got - 2010.03.31 13:35:05.
