data_PCOD8125684
_publ_section_title
;
Structure prediction by ZEFSAII (Michael W. Deem and Ramdas Pophale) SiO2 
 PCOD8125684
Probable space group: P 21/C
;
_chemical_formula_sum "Si O2"
_cell_formula_units_Z 32
_cell_length_a 12.390748
_cell_length_b 17.256510
_cell_length_c 14.931430
_cell_angle_alpha 90.000000
_cell_angle_beta 29.889279
_cell_angle_gamma 90.000000
_cell_volume 1590.981110
_symmetry_space_group_name_H-M "P 21/C"
_symmetry_group_IT_number 14
_symmetry_cell_setting 'monoclinic'
loop_
_space_group_symop_operation_xyz
x,y,z
-x,1/2+y,1/2-z
-x,-y,-z
x,1/2-y,1/2+z
loop_
_atom_site_type_symbol
_atom_site_label
_atom_site_fract_x
_atom_site_fract_y
_atom_site_fract_z
Si Si1 0.045202 0.438934 0.544845
Si Si2 0.748862 0.536563 0.273156
Si Si3 0.253535 0.553664 0.905976
Si Si4 0.571337 0.087888 0.435941
Si Si5 0.442766 0.158006 0.203962
Si Si6 0.452993 0.340130 0.205414
Si Si7 0.190882 0.951441 0.096182
Si Si8 0.734983 0.591108 0.997627
O O1 0.819324 0.399203 0.731001
O O2 0.000000 0.500000 0.500000
O O3 0.210800 0.371701 0.396267
O O4 0.137014 0.481655 0.565450
O O5 0.699041 0.477489 0.227503
O O6 0.643002 0.620397 0.327780
O O7 0.673790 0.493239 0.419354
O O8 0.999176 0.559015 0.104573
O O9 0.383560 0.633189 0.832105
O O10 0.346164 0.494584 0.914789
O O11 0.539789 0.132581 0.548977
O O12 0.421883 0.124808 0.465741
O O13 0.500000 0.000000 0.500000
O O14 0.464375 0.248851 0.185924
O O15 0.275842 0.142875 0.405364
O O16 0.673289 0.114944 0.052956
O O17 0.980454 0.909220 0.286731
#
# Coordination Sequence:
#
# PCOD8125684 Si02
#       8
#     4   4   4   4   4   4   4   4
#     4  12  22  39  72  95 120 169 221 257 311 387
#     4   9  19  39  66  88 115 166 223 259 299 380
#     4   9  17  38  66  84 118 163 209 262 306 366
#     4  12  20  40  67  93 122 161 217 266 301 370
#     4  11  25  41  57  94 135 163 203 265 333 375
#     4  12  25  41  58  97 134 163 205 267 328 380
#     4  11  21  39  71  91 116 170 224 262 299 382
#     4  10  20  41  64  89 121 163 213 259 311 369
#
# _framework density 20.113375999999999
#
# number of rings (size 3 to 8) (size 9 to 14) (size 15 to 20)
#    0.000    1.250    3.750    4.125    0.000    1.000 
#   11.250    0.000    0.000    0.000    0.000    0.000 
#    0.000    0.000    0.000    0.000    0.000    0.000 
#
# Total GULP energy -396719.624547 kJ/mol
# GULP energy per Si atom -12397.488267 kJ/mol
# Density = 2.006760 g / cm^3
# Si number density = 20.113376 Si / 1000 Ang^3
#
#
#
# Elastic Constant Matrix: (Units=GPa)
#
#
# Indices 1 2 3 4 5 6 
#
# 1 118.8239 37.3678 25.8549 0.0000 -3.5727 0.0000
# 2 37.3678 113.8835 34.5085 0.0000 -5.4796 0.0000
# 3 25.8549 34.5085 111.8485 0.0000 5.4953 0.0000
# 4 0.0000 0.0000 0.0000 16.5353 0.0000 6.7272
# 5 -3.5727 -5.4796 5.4953 0.0000 27.1905 0.0000
# 6 0.0000 0.0000 0.0000 6.7272 0.0000 14.5013
#
#
#
# Elastic Compliance Matrix: (Units=1/GPa)
#
#
# Indices 1 2 3 4 5 6 
#
# 1 0.009598 -0.002662 -0.001447 0.000000 0.001017 0.000000
# 2 -0.002662 0.010608 -0.002773 0.000000 0.002348 0.000000
# 3 -0.001447 -0.002773 0.010270 0.000000 -0.002824 0.000000
# 4 0.000000 0.000000 0.000000 0.074546 0.000000 -0.034582
# 5 0.001017 0.002348 -0.002824 0.000000 0.037955 0.000000
# 6 0.000000 0.000000 0.000000 -0.034582 0.000000 0.085002
#
#
# Mechanical properties :
#
#
# Convention : Reuss Voigt Hill
#
# Bulk Modulus (GPa) = 59.84025 60.00202 59.92113
# Shear Modulus (GPa) = 20.21726 28.10041 24.15884
#
# Velocity S-wave (km/s) = 3.17387 3.74184 3.46950
# Velocity P-wave (km/s) = 6.57627 6.96887 6.77541
#
# Compressibility (1/GPa) = 0.01671116
#
# Stress axis : x y z
#
# Youngs Moduli (GPa) = 104.18316 94.27274 97.37560
#
# Poissons Ratio (x) = 0.25095 0.14095
# Poissons Ratio (y) = 0.27733 0.27000
# Poissons Ratio (z) = 0.15080 0.26140
#
# Static dielectric constant tensor:
#      x y z
#    x 3.978160 0.000000 0.051730 
#    y 0.000000 -0.605840 0.000000 
#    z 0.051730 0.000000 4.109030 
# 
# 
# High freq. dielectric constant tensor:
#      x y z
#    x 1.801710 0.000000 -0.000870 
#    y 0.000000 1.741760 0.000000 
#    z -0.000870 0.000000 1.809650 
# 
# From -- ./inp_files/45421.got.cif
#   From: 2010.03.12/outbox.cif.g09.slc.cpg/sg14_23_cif.got.tgz:45421.got - 2010.03.31 13:35:05.
