data_PCOD8125776
_publ_section_title
;
Structure prediction by ZEFSAII (Michael W. Deem and Ramdas Pophale) SiO2 
 PCOD8125776
Probable space group: P 21/C
;
_chemical_formula_sum "Si O2"
_cell_formula_units_Z 32
_cell_length_a 12.097551
_cell_length_b 17.434240
_cell_length_c 5.449734
_cell_angle_alpha 90.000000
_cell_angle_beta 91.145723
_cell_angle_gamma 90.000000
_cell_volume 1149.182361
_symmetry_space_group_name_H-M "P 21/C"
_symmetry_group_IT_number 14
_symmetry_cell_setting 'monoclinic'
loop_
_space_group_symop_operation_xyz
x,y,z
-x,1/2+y,1/2-z
-x,-y,-z
x,1/2-y,1/2+z
loop_
_atom_site_type_symbol
_atom_site_label
_atom_site_fract_x
_atom_site_fract_y
_atom_site_fract_z
Si Si1 0.546921 0.216210 0.424938
Si Si2 0.768518 0.059116 0.016605
Si Si3 0.326784 0.457372 0.850762
Si Si4 0.709888 0.715074 0.084052
Si Si5 0.055825 0.468657 0.249276
Si Si6 0.441945 0.555342 0.237052
Si Si7 0.192635 0.774452 0.881333
Si Si8 0.949450 0.787037 0.304408
O O1 0.601590 0.242453 0.164203
O O2 0.417798 0.239881 0.419486
O O3 0.556643 0.125145 0.458604
O O4 0.640248 0.079741 0.051153
O O5 0.833465 0.139362 0.024783
O O6 0.819289 0.002969 0.229658
O O7 0.768823 0.015446 0.752370
O O8 0.269712 0.375326 0.876055
O O9 0.431447 0.454967 0.657893
O O10 0.390065 0.481331 0.101048
O O11 0.762768 0.762644 0.318396
O O12 0.063080 0.377359 0.245400
O O13 0.000000 0.500000 0.500000
O O14 0.000000 0.500000 0.000000
O O15 0.253464 0.771804 0.610769
O O16 0.078968 0.732292 0.810608
O O17 0.898980 0.762957 0.571322
#
# Coordination Sequence:
#
# PCOD8125776 Si02
#       8
#     4   4   4   4   4   4   4   4
#     4   9  19  36  60  92 131 180 240 286 342 411
#     4  12  27  42  73 107 144 189 248 296 357 437
#     4  10  24  45  67 101 146 195 242 297 359 421
#     4   9  19  38  65  90 122 180 239 294 346 404
#     4  12  26  47  77 109 146 191 239 302 370 438
#     4  10  24  43  68  98 149 198 239 298 357 418
#     4  10  22  41  66  99 143 181 224 290 357 427
#     4  10  20  42  70 100 139 184 227 285 367 439
#
# _framework density 27.845884000000002
#
# number of rings (size 3 to 8) (size 9 to 14) (size 15 to 20)
#    0.000    1.750    0.000    4.125    7.000    1.000 
#    0.000    1.250    0.000    0.000    0.000    0.000 
#    0.000    0.000    0.000    0.000    0.000    0.000 
#
# Total GULP energy -396709.303778 kJ/mol
# GULP energy per Si atom -12397.165743 kJ/mol
# Density = 2.778251 g / cm^3
# Si number density = 27.845884 Si / 1000 Ang^3
#
#
#
# Elastic Constant Matrix: (Units=GPa)
#
#
# Indices 1 2 3 4 5 6 
#
# 1 78.0935 30.2383 62.2153 0.0000 -11.7080 0.0000
# 2 30.2383 225.5995 87.8353 0.0000 16.3408 0.0000
# 3 62.2153 87.8353 218.0770 0.0000 3.7973 0.0000
# 4 0.0000 0.0000 0.0000 50.4542 0.0000 10.2172
# 5 -11.7080 16.3408 3.7973 0.0000 57.7494 0.0000
# 6 0.0000 0.0000 0.0000 10.2172 0.0000 27.3571
#
#
#
# Elastic Compliance Matrix: (Units=1/GPa)
#
#
# Indices 1 2 3 4 5 6 
#
# 1 0.017506 -0.000795 -0.004745 0.000000 0.004086 0.000000
# 2 -0.000795 0.005400 -0.001921 0.000000 -0.001563 0.000000
# 3 -0.004745 -0.001921 0.006728 0.000000 -0.000861 0.000000
# 4 0.000000 0.000000 0.000000 0.021442 0.000000 -0.008008
# 5 0.004086 -0.001563 -0.000861 0.000000 0.018643 0.000000
# 6 0.000000 0.000000 0.000000 -0.008008 0.000000 0.039544
#
#
# Mechanical properties :
#
#
# Convention : Reuss Voigt Hill
#
# Bulk Modulus (GPa) = 67.97228 98.03864 83.00546
# Shear Modulus (GPa) = 38.73261 49.87756 44.30508
#
# Velocity S-wave (km/s) = 3.73361 4.23685 3.99316
# Velocity P-wave (km/s) = 6.56122 7.69536 7.15081
#
# Compressibility (1/GPa) = 0.01471188
#
# Stress axis : x y z
#
# Youngs Moduli (GPa) = 57.12333 185.17301 148.63058
#
# Poissons Ratio (x) = 0.14718 0.70530
# Poissons Ratio (y) = 0.04540 0.28554
# Poissons Ratio (z) = 0.27107 0.35574
#
# Static dielectric constant tensor:
#      x y z
#    x 5.892940 0.000000 -0.196570 
#    y 0.000000 4.873730 0.000000 
#    z -0.196570 0.000000 5.524040 
# 
# 
# High freq. dielectric constant tensor:
#      x y z
#    x 2.183840 0.000000 0.005050 
#    y 0.000000 2.114300 0.000000 
#    z 0.005050 0.000000 2.142260 
# 
# From -- ./inp_files/3815.got.cif
#   From: 2010.03.12/outbox.cif.g09.slc.cpg/sg14_2_cif.got.tgz:3815.got - 2010.03.31 13:35:05.
