data_PCOD8125384
_publ_section_title
;
Structure prediction by ZEFSAII (Michael W. Deem and Ramdas Pophale) SiO2 
 PCOD8125384
Probable space group: P 21/C
;
_chemical_formula_sum "Si O2"
_cell_formula_units_Z 28
_cell_length_a 5.259513
_cell_length_b 15.562646
_cell_length_c 16.902882
_cell_angle_alpha 90.000000
_cell_angle_beta 68.809777
_cell_angle_gamma 90.000000
_cell_volume 1289.986722
_symmetry_space_group_name_H-M "P 21/C"
_symmetry_group_IT_number 14
_symmetry_cell_setting 'monoclinic'
loop_
_space_group_symop_operation_xyz
x,y,z
-x,1/2+y,1/2-z
-x,-y,-z
x,1/2-y,1/2+z
loop_
_atom_site_type_symbol
_atom_site_label
_atom_site_fract_x
_atom_site_fract_y
_atom_site_fract_z
Si Si1 0.354307 0.665895 0.070878
Si Si2 0.771508 0.900364 0.005189
Si Si3 0.270076 0.003090 0.676813
Si Si4 0.245799 0.890554 0.320049
Si Si5 0.284547 0.837538 0.147075
Si Si6 0.972292 0.717054 0.975239
Si Si7 0.055603 0.487468 0.362734
O O1 0.355462 0.574165 0.111454
O O2 0.240303 0.735578 0.147185
O O3 0.661979 0.684509 0.009153
O O4 0.143772 0.667324 0.022271
O O5 0.473897 0.860988 0.050316
O O6 0.786092 0.971683 0.073434
O O7 0.986170 0.820576 0.986225
O O8 0.805224 0.948955 0.916708
O O9 0.523904 0.069178 0.648863
O O10 0.993041 0.041800 0.672272
O O11 0.226733 0.968987 0.772506
O O12 0.396623 0.860366 0.222005
O O13 0.110740 0.807401 0.376246
O O14 0.015193 0.893296 0.163793
#
# Coordination Sequence:
#
# PCOD8125384 Si02
#       7
#     4   4   4   4   4   4   4
#     4  11  24  41  65  89 131 160 216 249 321 361
#     4  10  20  38  64  91 123 161 208 257 315 371
#     4  11  24  42  63  97 120 175 202 264 303 380
#     4  11  24  41  65  89 131 161 216 248 323 361
#     4  10  21  40  62  90 131 166 196 271 312 375
#     4  11  24  42  63  97 120 174 203 263 302 380
#     4  10  20  38  64  91 125 159 209 256 316 369
#
# _framework density 21.705652000000001
#
# number of rings (size 3 to 8) (size 9 to 14) (size 15 to 20)
#    0.000    1.429    2.857    2.143    2.000    3.429 
#    0.000    0.000    0.000    0.000    0.000    0.000 
#    0.000    0.000    0.000    0.000    0.000    0.000 
#
# Total GULP energy -346988.557500 kJ/mol
# GULP energy per Si atom -12392.448482 kJ/mol
# Density = 2.165625 g / cm^3
# Si number density = 21.705652 Si / 1000 Ang^3
#
#
#
# Elastic Constant Matrix: (Units=GPa)
#
#
# Indices 1 2 3 4 5 6 
#
# 1 83.3545 2.4892 7.1893 0.0000 -7.2292 0.0000
# 2 2.4892 63.1406 35.0360 0.0000 -3.8458 0.0000
# 3 7.1893 35.0360 81.4120 0.0000 -9.4065 0.0000
# 4 0.0000 0.0000 0.0000 31.5484 0.0000 1.8760
# 5 -7.2292 -3.8458 -9.4065 0.0000 25.0097 0.0000
# 6 0.0000 0.0000 0.0000 1.8760 0.0000 29.1727
#
#
#
# Elastic Compliance Matrix: (Units=1/GPa)
#
#
# Indices 1 2 3 4 5 6 
#
# 1 0.012345 0.000141 -0.000770 0.000000 0.003301 0.000000
# 2 0.000141 0.020809 -0.008984 0.000000 -0.000138 0.000000
# 3 -0.000770 -0.008984 0.016760 0.000000 0.004700 0.000000
# 4 0.000000 0.000000 0.000000 0.031819 0.000000 -0.002046
# 5 0.003301 -0.000138 0.004700 0.000000 0.042685 0.000000
# 6 0.000000 0.000000 0.000000 -0.002046 0.000000 0.034410
#
#
# Mechanical properties :
#
#
# Convention : Reuss Voigt Hill
#
# Bulk Modulus (GPa) = 32.58316 35.25959 33.92137
# Shear Modulus (GPa) = 26.55589 29.35900 27.95744
#
# Velocity S-wave (km/s) = 3.50159 3.68176 3.59280
# Velocity P-wave (km/s) = 5.60287 5.86118 5.73348
#
# Compressibility (1/GPa) = 0.03069070
#
# Stress axis : x y z
#
# Youngs Moduli (GPa) = 81.00197 48.05723 59.66481
#
# Poissons Ratio (x) = -0.00680 0.04592
# Poissons Ratio (y) = -0.01146 0.53600
# Poissons Ratio (z) = 0.06235 0.43172
#
# Static dielectric constant tensor:
#      x y z
#    x 3.660420 0.000000 -0.034700 
#    y 0.000000 4.137840 0.000000 
#    z -0.034700 0.000000 4.235570 
# 
# 
# High freq. dielectric constant tensor:
#      x y z
#    x 1.841620 0.000000 -0.003250 
#    y 0.000000 1.846930 0.000000 
#    z -0.003250 0.000000 1.859350 
# 
# From -- ./inp_files/53232.got.cif
#   From: 2010.03.12/outbox.cif.g09.slc.cpg/sg14_27_cif.got.tgz:53232.got - 2010.03.31 13:35:05.
