data_PCOD8125882
_publ_section_title
;
Structure prediction by ZEFSAII (Michael W. Deem and Ramdas Pophale) SiO2 
 PCOD8125882
Probable space group: P 21/C
;
_chemical_formula_sum "Si O2"
_cell_formula_units_Z 32
_cell_length_a 4.938008
_cell_length_b 25.915277
_cell_length_c 13.550480
_cell_angle_alpha 90.000000
_cell_angle_beta 95.881013
_cell_angle_gamma 90.000000
_cell_volume 1724.926206
_symmetry_space_group_name_H-M "P 21/C"
_symmetry_group_IT_number 14
_symmetry_cell_setting 'monoclinic'
loop_
_space_group_symop_operation_xyz
x,y,z
-x,1/2+y,1/2-z
-x,-y,-z
x,1/2-y,1/2+z
loop_
_atom_site_type_symbol
_atom_site_label
_atom_site_fract_x
_atom_site_fract_y
_atom_site_fract_z
Si Si1 0.016476 0.317262 0.805632
Si Si2 0.241121 0.056174 0.066360
Si Si3 0.522987 0.854978 0.797363
Si Si4 0.992354 0.200637 0.730789
Si Si5 0.713914 0.441942 0.432996
Si Si6 0.482596 0.846999 0.171978
Si Si7 0.588449 0.713186 0.485443
Si Si8 0.085472 0.720088 0.992284
O O1 0.795475 0.352221 0.739609
O O2 0.306427 0.343729 0.795699
O O3 0.044203 0.259060 0.766415
O O4 0.943293 0.320126 0.918792
O O5 0.431811 0.053386 0.979061
O O6 0.952494 0.078997 0.015758
O O7 0.380060 0.090293 0.156329
O O8 0.197708 0.998000 0.106513
O O9 0.578763 0.809422 0.876322
O O10 0.208852 0.158846 0.779034
O O11 0.010517 0.194788 0.613380
O O12 0.695861 0.187557 0.761710
O O13 0.648274 0.404270 0.337822
O O14 0.484196 0.829028 0.058422
O O15 0.898508 0.730728 0.515604
O O16 0.397056 0.763099 0.489941
#
# Coordination Sequence:
#
# PCOD8125882 Si02
#       8
#     4   4   4   4   4   4   4   4
#     4  12  23  37  52  80 108 148 191 221 269 322
#     4  10  21  36  56  84 114 142 178 226 278 334
#     4  12  22  35  56  81 109 150 181 216 274 336
#     4  12  23  37  52  80 108 148 191 221 269 322
#     4  10  21  36  56  84 114 142 178 226 278 334
#     4  12  22  35  56  81 109 150 181 216 274 336
#     4  12  20  32  55  78 110 146 181 216 268 320
#     4  12  24  36  52  74 114 148 184 234 256 310
#
# _framework density 18.551518000000002
#
# number of rings (size 3 to 8) (size 9 to 14) (size 15 to 20)
#    0.000    0.500    6.250    3.750    1.750    0.000 
#    0.000    0.000    0.000    0.000    0.000    5.250 
#    0.000    0.000    0.000    0.000    0.000    0.000 
#
# Total GULP energy -396765.256944 kJ/mol
# GULP energy per Si atom -12398.914279 kJ/mol
# Density = 1.850929 g / cm^3
# Si number density = 18.551518 Si / 1000 Ang^3
#
#
#
# Elastic Constant Matrix: (Units=GPa)
#
#
# Indices 1 2 3 4 5 6 
#
# 1 77.0983 8.4360 11.4644 0.0000 -0.7436 0.0000
# 2 8.4360 57.7254 24.2326 0.0000 0.2479 0.0000
# 3 11.4644 24.2326 85.4239 0.0000 -0.5578 0.0000
# 4 0.0000 0.0000 0.0000 22.1454 0.0000 7.9676
# 5 -0.7436 0.2479 -0.5578 0.0000 28.8064 0.0000
# 6 0.0000 0.0000 0.0000 7.9676 0.0000 25.2557
#
#
#
# Elastic Compliance Matrix: (Units=1/GPa)
#
#
# Indices 1 2 3 4 5 6 
#
# 1 0.013331 -0.001362 -0.001401 0.000000 0.000329 0.000000
# 2 -0.001362 0.019807 -0.005438 0.000000 -0.000311 0.000000
# 3 -0.001401 -0.005438 0.013439 0.000000 0.000271 0.000000
# 4 0.000000 0.000000 0.000000 0.050938 0.000000 -0.016070
# 5 0.000329 -0.000311 0.000271 0.000000 0.034731 0.000000
# 6 0.000000 0.000000 0.000000 -0.016070 0.000000 0.044665
#
#
# Mechanical properties :
#
#
# Convention : Reuss Voigt Hill
#
# Bulk Modulus (GPa) = 33.13924 34.27929 33.70926
# Shear Modulus (GPa) = 24.58596 26.98249 25.78422
#
# Velocity S-wave (km/s) = 3.64439 3.81788 3.73214
# Velocity P-wave (km/s) = 5.96749 6.16060 6.06481
#
# Compressibility (1/GPa) = 0.03017570
#
# Stress axis : x y z
#
# Youngs Moduli (GPa) = 75.01370 50.48847 74.41215
#
# Poissons Ratio (x) = 0.06874 0.10423
# Poissons Ratio (y) = 0.10214 0.40465
# Poissons Ratio (z) = 0.10507 0.27455
#
# Static dielectric constant tensor:
#      x y z
#    x 3.657210 0.000000 -0.028340 
#    y 0.000000 3.322310 0.000000 
#    z -0.028340 0.000000 3.399420 
# 
# 
# High freq. dielectric constant tensor:
#      x y z
#    x 1.747880 0.000000 -0.002970 
#    y 0.000000 1.682460 0.000000 
#    z -0.002970 0.000000 1.700350 
# 
# From -- ./inp_files/22272.got.cif
#   From: 2010.03.12/outbox.cif.g09.slc.cpg/sg14_12_cif.got.tgz:22272.got - 2010.03.31 13:35:05.
