data_PCOD8125991
_publ_section_title
;
Structure prediction by ZEFSAII (Michael W. Deem and Ramdas Pophale) SiO2 
 PCOD8125991
Probable space group: P 21/C
;
_chemical_formula_sum "Si O2"
_cell_formula_units_Z 32
_cell_length_a 12.361972
_cell_length_b 11.791908
_cell_length_c 21.815708
_cell_angle_alpha 90.000000
_cell_angle_beta 149.102443
_cell_angle_gamma 90.000000
_cell_volume 1632.997588
_symmetry_space_group_name_H-M "P 21/C"
_symmetry_group_IT_number 14
_symmetry_cell_setting 'monoclinic'
loop_
_space_group_symop_operation_xyz
x,y,z
-x,1/2+y,1/2-z
-x,-y,-z
x,1/2-y,1/2+z
loop_
_atom_site_type_symbol
_atom_site_label
_atom_site_fract_x
_atom_site_fract_y
_atom_site_fract_z
Si Si1 0.718197 0.952691 0.313804
Si Si2 0.349981 0.337968 0.921656
Si Si3 0.716168 0.549026 0.405225
Si Si4 0.028203 0.355253 0.964318
Si Si5 0.123965 0.312611 0.406117
Si Si6 0.963072 0.174049 0.021153
Si Si7 0.827435 0.413046 0.161284
Si Si8 0.861910 0.796831 0.283113
O O1 0.703721 0.871473 0.247677
O O2 0.747855 0.879594 0.391276
O O3 0.531616 0.043465 0.227337
O O4 0.929160 0.023447 0.403847
O O5 0.295386 0.242179 0.944857
O O6 0.209631 0.451768 0.861854
O O7 0.292454 0.285230 0.828653
O O8 0.599182 0.355787 0.045713
O O9 0.764977 0.594793 0.496789
O O10 0.821180 0.624934 0.403736
O O11 0.784274 0.419135 0.433194
O O12 0.043128 0.291671 0.907365
O O13 0.887227 0.278789 0.942085
O O14 0.933710 0.375042 0.277402
O O15 0.995520 0.215392 0.105813
O O16 0.981703 0.372876 0.182107
#
# Coordination Sequence:
#
# PCOD8125991 Si02
#       8
#     4   4   4   4   4   4   4   4
#     4  10  21  37  58  91 114 150 196 237 297 357
#     4  10  22  40  59  89 113 163 204 238 308 340
#     4  10  21  37  58  91 114 150 196 237 297 357
#     4   9  20  38  57  84 120 151 186 241 298 353
#     4  10  21  39  61  85 119 154 195 247 294 349
#     4   9  20  38  57  84 120 151 186 241 298 353
#     4  10  22  40  59  85 121 155 204 248 286 356
#     4  10  21  39  61  85 119 154 195 247 294 349
#
# _framework density 19.595863999999999
#
# number of rings (size 3 to 8) (size 9 to 14) (size 15 to 20)
#    0.000    2.250    0.000    1.500    3.500    3.000 
#   13.500    1.250    0.000    0.000    0.000    0.000 
#    0.000    0.000    0.000    0.000    0.000    0.000 
#
# Total GULP energy -396638.737252 kJ/mol
# GULP energy per Si atom -12394.960539 kJ/mol
# Density = 1.955126 g / cm^3
# Si number density = 19.595864 Si / 1000 Ang^3
#
#
#
# Elastic Constant Matrix: (Units=GPa)
#
#
# Indices 1 2 3 4 5 6 
#
# 1 66.6652 13.6876 34.9573 0.0000 -12.3546 0.0000
# 2 13.6876 78.1959 27.6382 0.0000 -3.2130 0.0000
# 3 34.9573 27.6382 80.0980 0.0000 -2.2605 0.0000
# 4 0.0000 0.0000 0.0000 34.6772 0.0000 -3.3891
# 5 -12.3546 -3.2130 -2.2605 0.0000 30.3091 0.0000
# 6 0.0000 0.0000 0.0000 -3.3891 0.0000 28.6514
#
#
#
# Elastic Compliance Matrix: (Units=1/GPa)
#
#
# Indices 1 2 3 4 5 6 
#
# 1 0.021219 -0.000220 -0.008960 0.000000 0.007958 0.000000
# 2 -0.000220 0.014609 -0.004914 0.000000 0.001092 0.000000
# 3 -0.008960 -0.004914 0.018011 0.000000 -0.002830 0.000000
# 4 0.000000 0.000000 0.000000 0.029175 0.000000 0.003451
# 5 0.007958 0.001092 -0.002830 0.000000 0.036142 0.000000
# 6 0.000000 0.000000 0.000000 0.003451 0.000000 0.035311
#
#
# Mechanical properties :
#
#
# Convention : Reuss Voigt Hill
#
# Bulk Modulus (GPa) = 38.98638 41.94726 40.46682
# Shear Modulus (GPa) = 26.15024 28.63927 27.39475
#
# Velocity S-wave (km/s) = 3.65701 3.82710 3.74302
# Velocity P-wave (km/s) = 6.14573 6.40168 6.27501
#
# Compressibility (1/GPa) = 0.02564998
#
# Stress axis : x y z
#
# Youngs Moduli (GPa) = 47.12846 68.45274 55.52242
#
# Poissons Ratio (x) = 0.01508 0.49747
# Poissons Ratio (y) = 0.01038 0.27283
# Poissons Ratio (z) = 0.42227 0.33636
#
# Static dielectric constant tensor:
#      x y z
#    x 3.486660 0.000000 -0.261520 
#    y 0.000000 3.748310 0.000000 
#    z -0.261520 0.000000 3.484970 
# 
# 
# High freq. dielectric constant tensor:
#      x y z
#    x 1.757140 0.000000 -0.017970 
#    y 0.000000 1.784920 0.000000 
#    z -0.017970 0.000000 1.755420 
# 
# From -- ./inp_files/67445.got.cif
#   From: 2010.03.12/outbox.cif.g09.slc.cpg/sg14_34_cif.got.tgz:67445.got - 2010.03.31 13:35:05.
