data_PCOD8125624
_publ_section_title
;
Structure prediction by ZEFSAII (Michael W. Deem and Ramdas Pophale) SiO2 
 PCOD8125624
Probable space group: P 21/C
;
_chemical_formula_sum "Si O2"
_cell_formula_units_Z 28
_cell_length_a 9.976037
_cell_length_b 10.364897
_cell_length_c 15.143402
_cell_angle_alpha 90.000000
_cell_angle_beta 55.159072
_cell_angle_gamma 90.000000
_cell_volume 1285.146960
_symmetry_space_group_name_H-M "P 21/C"
_symmetry_group_IT_number 14
_symmetry_cell_setting 'monoclinic'
loop_
_space_group_symop_operation_xyz
x,y,z
-x,1/2+y,1/2-z
-x,-y,-z
x,1/2-y,1/2+z
loop_
_atom_site_type_symbol
_atom_site_label
_atom_site_fract_x
_atom_site_fract_y
_atom_site_fract_z
Si Si1 0.070128 0.481875 0.836546
Si Si2 0.617220 0.492843 0.713170
Si Si3 0.071245 0.797968 0.466393
Si Si4 0.728423 0.695542 0.344231
Si Si5 0.893635 0.549006 0.736279
Si Si6 0.846970 0.583832 0.473208
Si Si7 0.436299 0.764083 0.345268
O O1 0.099715 0.624185 0.864374
O O2 0.233719 0.435790 0.724080
O O3 0.921218 0.486316 0.822240
O O4 0.034102 0.382204 0.927669
O O5 0.737891 0.479791 0.751178
O O6 0.715679 0.521378 0.586645
O O7 0.528561 0.354920 0.735143
O O8 0.483352 0.602927 0.779627
O O9 0.246555 0.765865 0.443133
O O10 0.974877 0.666815 0.482347
O O11 0.861165 0.798839 0.258483
O O12 0.749562 0.674626 0.440707
O O13 0.544694 0.743218 0.392897
O O14 0.053658 0.528451 0.615097
#
# Coordination Sequence:
#
# PCOD8125624 Si02
#       7
#     4   4   4   4   4   4   4
#     4  10  22  38  65  93 127 162 212 268 313 384
#     4  11  24  42  66  93 130 173 212 267 324 386
#     4  11  21  40  65  95 121 166 215 260 324 379
#     4  10  22  41  60  94 131 162 203 273 320 375
#     4  10  20  40  65  94 120 162 218 264 309 368
#     4  11  22  40  68  92 122 169 221 258 308 387
#     4  11  24  41  61  95 131 169 209 265 331 378
#
# _framework density 21.787392000000001
#
# number of rings (size 3 to 8) (size 9 to 14) (size 15 to 20)
#    0.000    1.429    2.857    3.000    2.000    1.714 
#    2.571    1.429    0.000    0.000    0.000    0.000 
#    0.000    0.000    0.000    0.000    0.000    0.000 
#
# Total GULP energy -347232.421275 kJ/mol
# GULP energy per Si atom -12401.157903 kJ/mol
# Density = 2.173780 g / cm^3
# Si number density = 21.787392 Si / 1000 Ang^3
#
#
#
# Elastic Constant Matrix: (Units=GPa)
#
#
# Indices 1 2 3 4 5 6 
#
# 1 104.0584 0.9811 14.3312 0.0000 5.4383 0.0000
# 2 0.9811 52.6466 -10.2304 0.0000 -1.3778 0.0000
# 3 14.3312 -10.2304 34.0613 0.0000 5.7444 0.0000
# 4 0.0000 0.0000 0.0000 25.9306 0.0000 0.8167
# 5 5.4383 -1.3778 5.7444 0.0000 30.1922 0.0000
# 6 0.0000 0.0000 0.0000 0.8167 0.0000 35.9226
#
#
#
# Elastic Compliance Matrix: (Units=1/GPa)
#
#
# Indices 1 2 3 4 5 6 
#
# 1 0.010292 -0.001090 -0.004481 0.000000 -0.001051 0.000000
# 2 -0.001090 0.020289 0.006574 0.000000 -0.000129 0.000000
# 3 -0.004481 0.006574 0.034127 0.000000 -0.005386 0.000000
# 4 0.000000 0.000000 0.000000 0.038592 0.000000 -0.000877
# 5 -0.001051 -0.000129 -0.005386 0.000000 0.034329 0.000000
# 6 0.000000 0.000000 0.000000 -0.000877 0.000000 0.027858
#
#
# Mechanical properties :
#
#
# Convention : Reuss Voigt Hill
#
# Bulk Modulus (GPa) = 14.98904 22.32557 18.65731
# Shear Modulus (GPa) = 26.92248 30.78805 28.85526
#
# Velocity S-wave (km/s) = 3.51905 3.76322 3.64318
# Velocity P-wave (km/s) = 4.83800 5.39923 5.12630
#
# Compressibility (1/GPa) = 0.06671540
#
# Stress axis : x y z
#
# Youngs Moduli (GPa) = 97.16029 49.28775 29.30242
#
# Poissons Ratio (x) = 0.05372 0.13129
# Poissons Ratio (y) = 0.10590 -0.19264
# Poissons Ratio (z) = 0.43533 -0.32402
#
# Static dielectric constant tensor:
#      x y z
#    x 4.080690 0.000000 0.229500 
#    y 0.000000 4.126150 0.000000 
#    z 0.229500 0.000000 3.614540 
# 
# 
# High freq. dielectric constant tensor:
#      x y z
#    x 1.867240 0.000000 0.013460 
#    y 0.000000 1.866010 0.000000 
#    z 0.013460 0.000000 1.828650 
# 
# From -- ./inp_files/40238.got.cif
#   From: 2010.03.12/outbox.cif.g09.slc.cpg/sg14_21_cif.got.tgz:40238.got - 2010.03.31 13:35:05.
