data_PCOD8125631
_publ_section_title
;
Structure prediction by ZEFSAII (Michael W. Deem and Ramdas Pophale) SiO2 
 PCOD8125631
Probable space group: P 21/C
;
_chemical_formula_sum "Si O2"
_cell_formula_units_Z 24
_cell_length_a 11.345821
_cell_length_b 7.487677
_cell_length_c 17.752567
_cell_angle_alpha 90.000000
_cell_angle_beta 49.690733
_cell_angle_gamma 90.000000
_cell_volume 1150.059533
_symmetry_space_group_name_H-M "P 21/C"
_symmetry_group_IT_number 14
_symmetry_cell_setting 'monoclinic'
loop_
_space_group_symop_operation_xyz
x,y,z
-x,1/2+y,1/2-z
-x,-y,-z
x,1/2-y,1/2+z
loop_
_atom_site_type_symbol
_atom_site_label
_atom_site_fract_x
_atom_site_fract_y
_atom_site_fract_z
Si Si1 0.078807 0.551844 0.390689
Si Si2 0.045501 0.937876 0.398566
Si Si3 0.507370 0.694477 0.643152
Si Si4 0.406278 0.421006 0.230438
Si Si5 0.813612 0.698280 0.422104
Si Si6 0.706609 0.894634 0.803204
O O1 0.144782 0.755367 0.368297
O O2 0.220540 0.425551 0.313827
O O3 0.000000 0.500000 0.500000
O O4 0.942444 0.543484 0.383971
O O5 0.891152 0.889843 0.413079
O O6 0.148355 0.085282 0.313838
O O7 0.000000 0.000000 0.500000
O O8 0.510600 0.605054 0.724353
O O9 0.473052 0.905863 0.660670
O O10 0.668213 0.664474 0.535500
O O11 0.374988 0.587827 0.651416
O O12 0.425566 0.241349 0.173091
O O13 0.767261 0.690434 0.354953
#
# Coordination Sequence:
#
# PCOD8125631 Si02
#       6
#     4   4   4   4   4   4
#     4  10  20  40  65  99 130 171 232 274 330 397
#     4  10  22  43  68  99 133 180 233 273 333 415
#     4  12  23  45  67 100 138 178 230 268 344 416
#     4  12  24  41  72  94 132 182 226 280 330 415
#     4  10  25  40  69 100 138 178 219 288 347 395
#     4  12  25  44  67 101 140 173 224 286 347 398
#
# _framework density 20.868485
#
# number of rings (size 3 to 8) (size 9 to 14) (size 15 to 20)
#    1.000    0.000    5.000    2.500    2.333    0.667 
#    0.000    0.000    0.000    0.000    0.000    0.000 
#    0.000    0.000    0.000    0.000    0.000    0.000 
#
# Total GULP energy -297443.355572 kJ/mol
# GULP energy per Si atom -12393.473149 kJ/mol
# Density = 2.082099 g / cm^3
# Si number density = 20.868485 Si / 1000 Ang^3
#
#
#
# Elastic Constant Matrix: (Units=GPa)
#
#
# Indices 1 2 3 4 5 6 
#
# 1 104.7943 30.2750 32.3593 0.0000 11.8614 0.0000
# 2 30.2750 99.2653 19.6414 0.0000 11.9355 0.0000
# 3 32.3593 19.6414 58.8347 0.0000 3.6821 0.0000
# 4 0.0000 0.0000 0.0000 28.8307 0.0000 -2.9734
# 5 11.8614 11.9355 3.6821 0.0000 37.0923 0.0000
# 6 0.0000 0.0000 0.0000 -2.9734 0.0000 44.4326
#
#
#
# Elastic Compliance Matrix: (Units=1/GPa)
#
#
# Indices 1 2 3 4 5 6 
#
# 1 0.012302 -0.002281 -0.005840 0.000000 -0.002620 0.000000
# 2 -0.002281 0.011584 -0.002440 0.000000 -0.002756 0.000000
# 3 -0.005840 -0.002440 0.020988 0.000000 0.000569 0.000000
# 4 0.000000 0.000000 0.000000 0.034926 0.000000 0.002337
# 5 -0.002620 -0.002756 0.000569 0.000000 0.028628 0.000000
# 6 0.000000 0.000000 0.000000 0.002337 0.000000 0.022662
#
#
# Mechanical properties :
#
#
# Convention : Reuss Voigt Hill
#
# Bulk Modulus (GPa) = 42.10497 47.49397 44.79947
# Shear Modulus (GPa) = 31.22466 34.11237 32.66852
#
# Velocity S-wave (km/s) = 3.87235 4.04745 3.96087
# Velocity P-wave (km/s) = 6.34142 6.68211 6.51399
#
# Compressibility (1/GPa) = 0.02375016
#
# Stress axis : x y z
#
# Youngs Moduli (GPa) = 81.29064 86.32661 47.64638
#
# Poissons Ratio (x) = 0.19693 0.27827
# Poissons Ratio (y) = 0.18544 0.11626
# Poissons Ratio (z) = 0.47477 0.21064
#
# Static dielectric constant tensor:
#      x y z
#    x 3.867720 0.000000 -0.142150 
#    y 0.000000 5.061460 0.000000 
#    z -0.142150 0.000000 3.561560 
# 
# 
# High freq. dielectric constant tensor:
#      x y z
#    x 1.813860 0.000000 -0.007470 
#    y 0.000000 1.819030 0.000000 
#    z -0.007470 0.000000 1.808930 
# 
# From -- ./inp_files/56991.got.cif
#   From: 2010.03.12/outbox.cif.g09.slc.cpg/sg14_29_cif.got.tgz:56991.got - 2010.03.31 13:35:05.
