data_PCOD8125630
_publ_section_title
;
Structure prediction by ZEFSAII (Michael W. Deem and Ramdas Pophale) SiO2 
 PCOD8125630
Probable space group: P 21/C
;
_chemical_formula_sum "Si O2"
_cell_formula_units_Z 32
_cell_length_a 22.282665
_cell_length_b 11.454519
_cell_length_c 8.935339
_cell_angle_alpha 90.000000
_cell_angle_beta 44.744156
_cell_angle_gamma 90.000000
_cell_volume 1605.432590
_symmetry_space_group_name_H-M "P 21/C"
_symmetry_group_IT_number 14
_symmetry_cell_setting 'monoclinic'
loop_
_space_group_symop_operation_xyz
x,y,z
-x,1/2+y,1/2-z
-x,-y,-z
x,1/2-y,1/2+z
loop_
_atom_site_type_symbol
_atom_site_label
_atom_site_fract_x
_atom_site_fract_y
_atom_site_fract_z
Si Si1 0.331868 0.538643 0.475618
Si Si2 0.560385 0.229967 0.757028
Si Si3 0.016178 0.341856 0.587212
Si Si4 0.472251 0.382254 0.132918
Si Si5 0.865286 0.042967 0.169738
Si Si6 0.282006 0.883269 0.370614
Si Si7 0.974080 0.371327 0.004178
Si Si8 0.192000 0.642259 0.534427
O O1 0.392633 0.652384 0.378873
O O2 0.378360 0.414445 0.361053
O O3 0.287127 0.533168 0.716760
O O4 0.265183 0.553638 0.458914
O O5 0.530510 0.151790 0.671082
O O6 0.624081 0.145436 0.734050
O O7 0.480254 0.272710 0.003287
O O8 0.103129 0.410210 0.399687
O O9 0.935560 0.386669 0.636362
O O10 0.990789 0.344370 0.803535
O O11 0.033352 0.210022 0.503933
O O12 0.500000 0.500000 0.000000
O O13 0.772434 0.046132 0.410030
O O14 0.859574 0.093592 0.013924
O O15 0.233786 0.764282 0.413476
O O16 0.874619 0.343944 0.211808
O O17 0.000000 0.500000 0.000000
#
# Coordination Sequence:
#
# PCOD8125630 Si02
#       8
#     4   4   4   4   4   4   4   4
#     4  10  22  38  64  95 127 169 215 271 340 383
#     4  10  20  40  65  98 128 163 220 271 322 393
#     4  11  25  41  60 100 127 177 219 273 335 397
#     4  10  22  40  64  95 133 168 212 274 331 405
#     4  11  23  38  63  95 136 161 220 282 335 393
#     4  11  21  36  67 100 129 166 216 284 330 392
#     4  12  24  42  69  90 133 176 226 274 332 393
#     4  11  21  38  64  98 124 169 220 288 330 394
#
# _framework density 19.932323
#
# number of rings (size 3 to 8) (size 9 to 14) (size 15 to 20)
#    0.000    1.250    3.750    3.000    5.250    0.500 
#    0.000    0.000    5.500    0.000    0.000    0.000 
#    0.000    0.000    0.000    0.000    0.000    0.000 
#
# Total GULP energy -396691.448495 kJ/mol
# GULP energy per Si atom -12396.607765 kJ/mol
# Density = 1.988696 g / cm^3
# Si number density = 19.932323 Si / 1000 Ang^3
#
#
#
# Elastic Constant Matrix: (Units=GPa)
#
#
# Indices 1 2 3 4 5 6 
#
# 1 106.4440 56.7285 47.3392 0.0000 22.9042 0.0000
# 2 56.7285 102.1209 57.3742 0.0000 7.8320 0.0000
# 3 47.3392 57.3742 115.5188 0.0000 11.2130 0.0000
# 4 0.0000 0.0000 0.0000 41.6873 0.0000 -8.0427
# 5 22.9042 7.8320 11.2130 0.0000 33.1432 0.0000
# 6 0.0000 0.0000 0.0000 -8.0427 0.0000 24.4743
#
#
#
# Elastic Compliance Matrix: (Units=1/GPa)
#
#
# Indices 1 2 3 4 5 6 
#
# 1 0.015945 -0.006929 -0.002256 0.000000 -0.008619 0.000000
# 2 -0.006929 0.016623 -0.005687 0.000000 0.002784 0.000000
# 3 -0.002256 -0.005687 0.012536 0.000000 -0.001338 0.000000
# 4 0.000000 0.000000 0.000000 0.025612 0.000000 0.008417
# 5 -0.008619 0.002784 -0.001338 0.000000 0.035923 0.000000
# 6 0.000000 0.000000 0.000000 0.008417 0.000000 0.043625
#
#
# Mechanical properties :
#
#
# Convention : Reuss Voigt Hill
#
# Bulk Modulus (GPa) = 65.10655 71.88528 68.49591
# Shear Modulus (GPa) = 27.00838 30.70373 28.85606
#
# Velocity S-wave (km/s) = 3.68503 3.92905 3.80900
# Velocity P-wave (km/s) = 7.13026 7.53168 7.33372
#
# Compressibility (1/GPa) = 0.01535944
#
# Stress axis : x y z
#
# Youngs Moduli (GPa) = 62.71415 60.15818 79.77317
#
# Poissons Ratio (x) = 0.41684 0.18000
# Poissons Ratio (y) = 0.43455 0.45365
# Poissons Ratio (z) = 0.14151 0.34211
#
# Static dielectric constant tensor:
#      x y z
#    x 3.878970 0.000000 0.200490 
#    y 0.000000 3.699540 0.000000 
#    z 0.200490 0.000000 4.126030 
# 
# 
# High freq. dielectric constant tensor:
#      x y z
#    x 1.773560 0.000000 0.017670 
#    y 0.000000 1.755210 0.000000 
#    z 0.017670 0.000000 1.789470 
# 
# From -- ./inp_files/17766.got.cif
#   From: 2010.03.12/outbox.cif.g09.slc.cpg/sg14_9_cif.got.tgz:17766.got - 2010.03.31 13:35:05.
