data_PCOD8125730
_publ_section_title
;
Structure prediction by ZEFSAII (Michael W. Deem and Ramdas Pophale) SiO2 
 PCOD8125730
Probable space group: P 21/C
;
_chemical_formula_sum "Si O2"
_cell_formula_units_Z 24
_cell_length_a 9.009028
_cell_length_b 10.822400
_cell_length_c 23.439774
_cell_angle_alpha 90.000000
_cell_angle_beta 31.404636
_cell_angle_gamma 90.000000
_cell_volume 1190.853272
_symmetry_space_group_name_H-M "P 21/C"
_symmetry_group_IT_number 14
_symmetry_cell_setting 'monoclinic'
loop_
_space_group_symop_operation_xyz
x,y,z
-x,1/2+y,1/2-z
-x,-y,-z
x,1/2-y,1/2+z
loop_
_atom_site_type_symbol
_atom_site_label
_atom_site_fract_x
_atom_site_fract_y
_atom_site_fract_z
Si Si1 0.094646 0.090482 0.885337
Si Si2 0.328880 0.434844 0.190861
Si Si3 0.358040 0.407935 0.417918
Si Si4 0.419019 0.749979 0.975323
Si Si5 0.822849 0.938819 0.810642
Si Si6 0.605404 0.167944 0.396294
O O1 0.331680 0.062290 0.758787
O O2 0.268206 0.131373 0.884223
O O3 0.906109 0.207327 0.926815
O O4 0.906717 0.969090 0.961174
O O5 0.471903 0.311686 0.119298
O O6 0.502401 0.550407 0.105570
O O7 0.991663 0.447649 0.285190
O O8 0.622684 0.504422 0.326393
O O9 0.465418 0.288870 0.416297
O O10 0.610795 0.871677 0.924628
O O11 0.471922 0.658201 0.011169
O O12 0.047933 0.834348 0.716191
#
# Coordination Sequence:
#
# PCOD8125730 Si02
#       6
#     4   4   4   4   4   4
#     4  10  22  39  63  80 123 158 195 229 289 362
#     4  10  22  38  56  94 112 153 194 245 293 333
#     4  10  20  42  59  88 112 160 194 232 293 347
#     4  11  19  38  59  86 119 151 193 242 289 343
#     4   9  20  34  63  83 110 152 193 244 275 341
#     4  10  22  36  60  90 114 148 199 246 288 335
#
# _framework density 20.153617000000001
#
# number of rings (size 3 to 8) (size 9 to 14) (size 15 to 20)
#    1.000    1.000    0.000    4.500    0.000    2.667 
#   12.000    0.833    0.000    0.000    0.000    0.000 
#    0.000    0.000    0.000    0.000    0.000    0.000 
#
# Total GULP energy -297319.303573 kJ/mol
# GULP energy per Si atom -12388.304316 kJ/mol
# Density = 2.010775 g / cm^3
# Si number density = 20.153617 Si / 1000 Ang^3
#
#
#
# Elastic Constant Matrix: (Units=GPa)
#
#
# Indices 1 2 3 4 5 6 
#
# 1 102.3796 38.2201 44.3255 0.0000 25.0484 0.0000
# 2 38.2201 69.0311 20.0968 0.0000 7.8809 0.0000
# 3 44.3255 20.0968 49.5974 0.0000 20.7409 0.0000
# 4 0.0000 0.0000 0.0000 27.6720 0.0000 5.4045
# 5 25.0484 7.8809 20.7409 0.0000 36.5502 0.0000
# 6 0.0000 0.0000 0.0000 5.4045 0.0000 25.3169
#
#
#
# Elastic Compliance Matrix: (Units=1/GPa)
#
#
# Indices 1 2 3 4 5 6 
#
# 1 0.018375 -0.006152 -0.012086 0.000000 -0.004408 0.000000
# 2 -0.006152 0.018486 -0.002738 0.000000 0.001784 0.000000
# 3 -0.012086 -0.002738 0.037187 0.000000 -0.012229 0.000000
# 4 0.000000 0.000000 0.000000 0.037710 0.000000 -0.008050
# 5 -0.004408 0.001784 -0.012229 0.000000 0.036935 0.000000
# 6 0.000000 0.000000 0.000000 -0.008050 0.000000 0.041218
#
#
# Mechanical properties :
#
#
# Convention : Reuss Voigt Hill
#
# Bulk Modulus (GPa) = 31.15677 47.36587 39.26132
# Shear Modulus (GPa) = 20.61316 25.79889 23.20603
#
# Velocity S-wave (km/s) = 3.20160 3.58175 3.39699
# Velocity P-wave (km/s) = 5.40002 6.37641 5.90842
#
# Compressibility (1/GPa) = 0.03209575
#
# Stress axis : x y z
#
# Youngs Moduli (GPa) = 54.42060 54.09521 26.89078
#
# Poissons Ratio (x) = 0.33279 0.32500
# Poissons Ratio (y) = 0.33479 0.07364
# Poissons Ratio (z) = 0.65773 0.14814
#
# Static dielectric constant tensor:
#      x y z
#    x 3.497790 0.000000 -0.006300 
#    y 0.000000 3.558570 0.000000 
#    z -0.006300 0.000000 3.519560 
# 
# 
# High freq. dielectric constant tensor:
#      x y z
#    x 1.768930 0.000000 0.006720 
#    y 0.000000 1.784780 0.000000 
#    z 0.006720 0.000000 1.776010 
# 
# From -- ./inp_files/68501.got.cif
#   From: 2010.03.12/outbox.cif.g09.slc.cpg/sg14_35_cif.got.tgz:68501.got - 2010.03.31 13:35:05.
