data_PCOD8125227
_publ_section_title
;
Structure prediction by ZEFSAII (Michael W. Deem and Ramdas Pophale) SiO2 
 PCOD8125227
Probable space group: P 21/C
;
_chemical_formula_sum "Si O2"
_cell_formula_units_Z 28
_cell_length_a 18.805196
_cell_length_b 11.773879
_cell_length_c 22.548448
_cell_angle_alpha 90.000000
_cell_angle_beta 162.903369
_cell_angle_gamma 90.000000
_cell_volume 1467.702268
_symmetry_space_group_name_H-M "P 21/C"
_symmetry_group_IT_number 14
_symmetry_cell_setting 'monoclinic'
loop_
_space_group_symop_operation_xyz
x,y,z
-x,1/2+y,1/2-z
-x,-y,-z
x,1/2-y,1/2+z
loop_
_atom_site_type_symbol
_atom_site_label
_atom_site_fract_x
_atom_site_fract_y
_atom_site_fract_z
Si Si1 0.948335 0.454502 0.867605
Si Si2 0.786517 0.442303 0.143452
Si Si3 0.375253 0.045859 0.794043
Si Si4 0.856338 0.580958 0.678210
Si Si5 0.311432 0.196455 0.263601
Si Si6 0.327265 0.190790 0.413353
Si Si7 0.880193 0.196395 0.832153
O O1 0.703831 0.500278 0.704111
O O2 0.983480 0.512261 0.832376
O O3 0.933533 0.319779 0.847384
O O4 0.176308 0.492454 0.088113
O O5 0.773659 0.577236 0.137566
O O6 0.893976 0.393985 0.290352
O O7 0.960536 0.406679 0.229492
O O8 0.519541 0.394765 0.917150
O O9 0.411757 0.180634 0.824997
O O10 0.621935 0.988107 0.970231
O O11 0.790104 0.707113 0.644586
O O12 0.242270 0.196870 0.277501
O O13 0.074147 0.163365 0.037021
O O14 0.616194 0.195208 0.651001
#
# Coordination Sequence:
#
# PCOD8125227 Si02
#       7
#     4   4   4   4   4   4   4
#     4  10  20  37  63  91 113 152 205 246 289 342
#     4  11  27  38  58  91 124 160 196 233 310 365
#     4  10  20  37  63  91 113 152 205 246 289 342
#     4  12  23  38  61  86 130 155 188 251 302 351
#     4  10  21  42  66  87 116 154 205 252 287 344
#     4  11  23  39  61  90 114 161 204 237 293 358
#     4  10  21  42  66  87 116 154 205 252 287 344
#
# _framework density 19.077438000000001
#
# number of rings (size 3 to 8) (size 9 to 14) (size 15 to 20)
#    0.000    1.429    2.857    3.857    4.000    3.429 
#    0.000    0.000    0.000    0.000    0.000    0.000 
#    0.000    0.000    0.000    0.000    0.000    0.000 
#
# Total GULP energy -347341.445374 kJ/mol
# GULP energy per Si atom -12405.051620 kJ/mol
# Density = 1.903402 g / cm^3
# Si number density = 19.077438 Si / 1000 Ang^3
#
#
#
# Elastic Constant Matrix: (Units=GPa)
#
#
# Indices 1 2 3 4 5 6 
#
# 1 113.3267 49.0417 64.3027 0.0000 13.1866 0.0000
# 2 49.0417 125.6859 47.2042 0.0000 -1.2810 0.0000
# 3 64.3027 47.2042 124.2738 0.0000 -21.8142 0.0000
# 4 0.0000 0.0000 0.0000 -1.6191 0.0000 9.7910
# 5 13.1866 -1.2810 -21.8142 0.0000 17.4936 0.0000
# 6 0.0000 0.0000 0.0000 9.7910 0.0000 24.4324
#
#
#
# Elastic Compliance Matrix: (Units=1/GPa)
#
#
# Indices 1 2 3 4 5 6 
#
# 1 0.028718 -0.003328 -0.022324 0.000000 -0.049729 0.000000
# 2 -0.003328 0.009986 -0.001923 0.000000 0.000841 0.000000
# 3 -0.022324 -0.001923 0.029775 0.000000 0.053816 0.000000
# 4 0.000000 0.000000 0.000000 -0.180418 0.000000 0.072300
# 5 -0.049729 0.000841 0.053816 0.000000 0.161818 0.000000
# 6 0.000000 0.000000 0.000000 0.072300 0.000000 0.011956
#
#
# Mechanical properties :
#
#
# Convention : Reuss Voigt Hill
#
# Bulk Modulus (GPa) = 75.03377 76.04263 75.53820
# Shear Modulus (GPa) = 41.17687 21.57725 31.37706
#
# Velocity S-wave (km/s) = 4.65091 3.36674 4.05992
# Velocity P-wave (km/s) = 8.26183 7.42022 7.85231
#
# Compressibility (1/GPa) = 0.01332733
#
# Stress axis : x y z
#
# Youngs Moduli (GPa) = 34.82194 100.14217 33.58521
#
# Poissons Ratio (x) = 0.33326 0.74976
# Poissons Ratio (y) = 0.11588 0.06460
# Poissons Ratio (z) = 0.77737 0.19262
#
# Static dielectric constant tensor:
#      x y z
#    x 3.324780 0.000000 -0.148590 
#    y 0.000000 3.623320 0.000000 
#    z -0.148590 0.000000 3.695170 
# 
# 
# High freq. dielectric constant tensor:
#      x y z
#    x 1.723890 0.000000 -0.009800 
#    y 0.000000 1.759070 0.000000 
#    z -0.009800 0.000000 1.748750 
# 
# From -- ./inp_files/69317.got.cif
#   From: 2010.03.12/outbox.cif.g09.slc.cpg/sg14_35_cif.got.tgz:69317.got - 2010.03.31 13:35:05.
