data_PCOD8125878
_publ_section_title
;
Structure prediction by ZEFSAII (Michael W. Deem and Ramdas Pophale) SiO2 
 PCOD8125878
Probable space group: P 21/C
;
_chemical_formula_sum "Si O2"
_cell_formula_units_Z 32
_cell_length_a 26.279759
_cell_length_b 12.888749
_cell_length_c 25.773715
_cell_angle_alpha 90.000000
_cell_angle_beta 168.766630
_cell_angle_gamma 90.000000
_cell_volume 1700.633377
_symmetry_space_group_name_H-M "P 21/C"
_symmetry_group_IT_number 14
_symmetry_cell_setting 'monoclinic'
loop_
_space_group_symop_operation_xyz
x,y,z
-x,1/2+y,1/2-z
-x,-y,-z
x,1/2-y,1/2+z
loop_
_atom_site_type_symbol
_atom_site_label
_atom_site_fract_x
_atom_site_fract_y
_atom_site_fract_z
Si Si1 0.677463 0.195909 0.360736
Si Si2 0.065463 0.207145 0.999930
Si Si3 0.309831 0.860745 0.038348
Si Si4 0.948419 0.616526 0.932252
Si Si5 0.434236 0.792390 0.868442
Si Si6 0.817962 0.737848 0.000886
Si Si7 0.810429 0.597248 0.581697
Si Si8 0.440117 0.616146 0.955944
O O1 0.679372 0.299662 0.396809
O O2 0.625109 0.234489 0.250340
O O3 0.929892 0.123819 0.625154
O O4 0.429195 0.126453 0.122516
O O5 0.047691 0.316642 0.011403
O O6 0.313805 0.144501 0.264821
O O7 0.126037 0.227175 0.001008
O O8 0.813317 0.135563 0.760950
O O9 0.564001 0.834705 0.257188
O O10 0.064563 0.830592 0.759637
O O11 0.249469 0.978910 0.992656
O O12 0.693655 0.641360 0.642273
O O13 0.000000 0.500000 0.000000
O O14 0.194978 0.636895 0.143875
O O15 0.425640 0.682887 0.889074
O O16 0.807788 0.841463 0.025013
O O17 0.500000 0.500000 0.000000
#
# Coordination Sequence:
#
# PCOD8125878 Si02
#       8
#     4   4   4   4   4   4   4   4
#     4  10  21  37  56  81 111 143 184 229 276 332
#     4  10  21  37  56  82 112 145 185 229 275 330
#     4  10  21  37  56  81 111 143 182 228 274 327
#     4  10  21  36  55  81 113 145 184 230 276 331
#     4  10  21  37  56  81 111 144 184 229 276 331
#     4  10  21  37  57  82 112 145 185 229 275 330
#     4  10  21  37  56  82 113 145 185 232 278 332
#     4  10  21  38  58  82 112 144 184 230 276 329
#
# _framework density 18.816519
#
# number of rings (size 3 to 8) (size 9 to 14) (size 15 to 20)
#    0.000    2.000    0.000    3.000    0.000    4.000 
#    0.000    3.750    0.000    0.000    0.000    0.000 
#    0.000    0.000    0.000    0.000    0.000    0.000 
#
# Total GULP energy -396485.948593 kJ/mol
# GULP energy per Si atom -12390.185894 kJ/mol
# Density = 1.877369 g / cm^3
# Si number density = 18.816519 Si / 1000 Ang^3
#
#
#
# Elastic Constant Matrix: (Units=GPa)
#
#
# Indices 1 2 3 4 5 6 
#
# 1 150.2677 12.7681 51.4206 0.0000 -3.1265 0.0000
# 2 12.7681 142.8379 50.5879 0.0000 3.8602 0.0000
# 3 51.4206 50.5879 164.7449 0.0000 18.5854 0.0000
# 4 0.0000 0.0000 0.0000 30.2511 0.0000 9.9068
# 5 -3.1265 3.8602 18.5854 0.0000 32.1511 0.0000
# 6 0.0000 0.0000 0.0000 9.9068 0.0000 11.7174
#
#
#
# Elastic Compliance Matrix: (Units=1/GPa)
#
#
# Indices 1 2 3 4 5 6 
#
# 1 0.007607 0.000214 -0.002696 0.000000 0.002273 0.000000
# 2 0.000214 0.007868 -0.002544 0.000000 0.000547 0.000000
# 3 -0.002696 -0.002544 0.008224 0.000000 -0.004711 0.000000
# 4 0.000000 0.000000 0.000000 0.045714 0.000000 -0.038650
# 5 0.002273 0.000547 -0.004711 0.000000 0.033982 0.000000
# 6 0.000000 0.000000 0.000000 -0.038650 0.000000 0.118021
#
#
# Mechanical properties :
#
#
# Convention : Reuss Voigt Hill
#
# Bulk Modulus (GPa) = 73.28707 76.37817 74.83262
# Shear Modulus (GPa) = 21.18482 37.69551 29.44016
#
# Velocity S-wave (km/s) = 3.35903 4.48070 3.95978
# Velocity P-wave (km/s) = 7.35370 8.21268 7.79503
#
# Compressibility (1/GPa) = 0.01364497
#
# Stress axis : x y z
#
# Youngs Moduli (GPa) = 131.46614 127.09362 121.59144
#
# Poissons Ratio (x) = -0.02714 0.32782
# Poissons Ratio (y) = -0.02807 0.30938
# Poissons Ratio (z) = 0.35445 0.32338
#
# Static dielectric constant tensor:
#      x y z
#    x 3.396630 0.000000 0.109500 
#    y 0.000000 3.853520 0.000000 
#    z 0.109500 0.000000 3.872440 
# 
# 
# High freq. dielectric constant tensor:
#      x y z
#    x 1.733070 0.000000 0.003430 
#    y 0.000000 1.730630 0.000000 
#    z 0.003430 0.000000 1.757480 
# 
# From -- ./inp_files/78330.got.cif
#   From: 2010.03.12/outbox.cif.g09.slc.cpg/sg14_40_cif.got.tgz:78330.got - 2010.03.31 13:35:05.
