data_PCOD8125559
_publ_section_title
;
Structure prediction by ZEFSAII (Michael W. Deem and Ramdas Pophale) SiO2 
 PCOD8125559
Probable space group: P 21/C
;
_chemical_formula_sum "Si O2"
_cell_formula_units_Z 20
_cell_length_a 9.069551
_cell_length_b 8.637778
_cell_length_c 13.477404
_cell_angle_alpha 90.000000
_cell_angle_beta 105.835584
_cell_angle_gamma 90.000000
_cell_volume 1015.760060
_symmetry_space_group_name_H-M "P 21/C"
_symmetry_group_IT_number 14
_symmetry_cell_setting 'monoclinic'
loop_
_space_group_symop_operation_xyz
x,y,z
-x,1/2+y,1/2-z
-x,-y,-z
x,1/2-y,1/2+z
loop_
_atom_site_type_symbol
_atom_site_label
_atom_site_fract_x
_atom_site_fract_y
_atom_site_fract_z
Si Si1 0.573024 0.683684 0.301693
Si Si2 0.668701 0.364158 0.594546
Si Si3 0.807041 0.885547 0.242811
Si Si4 0.327630 0.649963 0.638693
Si Si5 0.916153 0.207290 0.282661
O O1 0.493094 0.704519 0.395039
O O2 0.714707 0.801453 0.314382
O O3 0.631451 0.509220 0.298240
O O4 0.443089 0.714216 0.194229
O O5 0.685421 0.540189 0.641933
O O6 0.668623 0.369772 0.477702
O O7 0.811141 0.264144 0.664327
O O8 0.911247 0.760944 0.204609
O O9 0.913419 0.022875 0.307580
O O10 0.155255 0.696976 0.638773
#
# Coordination Sequence:
#
# PCOD8125559 Si02
#       5
#     4   4   4   4   4
#     4  11  20  36  63  86 120 153 194 253 280 350
#     4   9  22  37  63  84 117 160 198 225 308 357
#     4  10  20  40  60  87 120 155 193 244 293 339
#     4  11  20  40  60  87 117 158 200 234 298 351
#     4   9  21  39  60  86 119 156 194 244 289 346
#
# _framework density 19.689688
#
# number of rings (size 3 to 8) (size 9 to 14) (size 15 to 20)
#    1.200    0.800    2.000    1.800    0.000    0.800 
#    0.000   10.000    4.400    0.000    0.000    0.000 
#    0.000    0.000    0.000    0.000    0.000    0.000 
#
# Total GULP energy -247837.354912 kJ/mol
# GULP energy per Si atom -12391.867746 kJ/mol
# Density = 1.964487 g / cm^3
# Si number density = 19.689688 Si / 1000 Ang^3
#
#
#
# Elastic Constant Matrix: (Units=GPa)
#
#
# Indices 1 2 3 4 5 6 
#
# 1 132.9998 60.9802 37.0665 0.0000 -29.3055 0.0000
# 2 60.9802 96.5957 50.3625 0.0000 -19.4131 0.0000
# 3 37.0665 50.3625 90.3950 0.0000 -20.1783 0.0000
# 4 0.0000 0.0000 0.0000 16.7273 0.0000 -1.4843
# 5 -29.3055 -19.4131 -20.1783 0.0000 16.4478 0.0000
# 6 0.0000 0.0000 0.0000 -1.4843 0.0000 46.2390
#
#
#
# Elastic Compliance Matrix: (Units=1/GPa)
#
#
# Indices 1 2 3 4 5 6 
#
# 1 0.014270 -0.005881 0.002136 0.000000 0.021105 0.000000
# 2 -0.005881 0.018310 -0.007305 0.000000 0.002171 0.000000
# 3 0.002136 -0.007305 0.018153 0.000000 0.017454 0.000000
# 4 0.000000 0.000000 0.000000 0.059953 0.000000 0.001925
# 5 0.021105 0.002171 0.017454 0.000000 0.122377 0.000000
# 6 0.000000 0.000000 0.000000 0.001925 0.000000 0.021689
#
#
# Mechanical properties :
#
#
# Convention : Reuss Voigt Hill
#
# Bulk Modulus (GPa) = 34.92459 68.53432 51.72946
# Shear Modulus (GPa) = 17.45837 27.32157 22.38997
#
# Velocity S-wave (km/s) = 2.98094 3.72910 3.37581
# Velocity P-wave (km/s) = 5.44280 7.30920 6.44393
#
# Compressibility (1/GPa) = 0.02863312
#
# Stress axis : x y z
#
# Youngs Moduli (GPa) = 70.07613 54.61502 55.08822
#
# Poissons Ratio (x) = 0.32118 -0.11767
# Poissons Ratio (y) = 0.41211 0.40243
# Poissons Ratio (z) = -0.14969 0.39897
#
# Static dielectric constant tensor:
#      x y z
#    x 3.647570 0.000000 -0.134740 
#    y 0.000000 3.662580 0.000000 
#    z -0.134740 0.000000 3.115110 
# 
# 
# High freq. dielectric constant tensor:
#      x y z
#    x 1.780420 0.000000 -0.016760 
#    y 0.000000 1.764620 0.000000 
#    z -0.016760 0.000000 1.722850 
# 
# From -- ./inp_files/28245.got.cif
#   From: 2010.03.12/outbox.cif.g09.slc.cpg/sg14_15_cif.got.tgz:28245.got - 2010.03.31 13:35:05.
