data_PCOD8125833
_publ_section_title
;
Structure prediction by ZEFSAII (Michael W. Deem and Ramdas Pophale) SiO2 
 PCOD8125833
Probable space group: P 21/C
;
_chemical_formula_sum "Si O2"
_cell_formula_units_Z 32
_cell_length_a 18.177192
_cell_length_b 13.383717
_cell_length_c 19.675992
_cell_angle_alpha 90.000000
_cell_angle_beta 158.926933
_cell_angle_gamma 90.000000
_cell_volume 1721.113031
_symmetry_space_group_name_H-M "P 21/C"
_symmetry_group_IT_number 14
_symmetry_cell_setting 'monoclinic'
loop_
_space_group_symop_operation_xyz
x,y,z
-x,1/2+y,1/2-z
-x,-y,-z
x,1/2-y,1/2+z
loop_
_atom_site_type_symbol
_atom_site_label
_atom_site_fract_x
_atom_site_fract_y
_atom_site_fract_z
Si Si1 0.420647 0.883365 0.121563
Si Si2 0.420646 0.116635 0.121564
Si Si3 0.497259 0.617121 0.918960
Si Si4 0.143900 0.750567 0.808870
Si Si5 0.755601 0.223895 0.902866
Si Si6 0.143900 0.249434 0.808871
Si Si7 0.244399 0.223896 0.097134
Si Si8 0.502741 0.617121 0.081039
O O1 0.301337 0.855193 0.087379
O O2 0.638630 0.828427 0.310658
O O3 0.461296 0.000000 0.152232
O O4 0.288804 0.848307 0.941615
O O5 0.638630 0.171574 0.310659
O O6 0.301337 0.144807 0.087380
O O7 0.288804 0.151694 0.941616
O O8 0.299236 0.671117 0.715602
O O9 0.479511 0.500000 0.891828
O O10 0.706016 0.654526 0.062980
O O11 0.500000 0.646593 0.999999
O O12 1.000000 0.750000 0.749999
O O13 0.998500 0.749655 0.616809
O O14 0.293984 0.654527 0.937020
O O15 0.998501 0.249654 0.116810
O O16 0.299236 0.171117 0.215602
#
# Coordination Sequence:
#
# PCOD8125833 Si02
#       8
#     4   4   4   4   4   4   4   4
#     4   9  17  30  50  76 104 133 169 216 265 308
#     4   9  17  30  50  76 104 133 169 216 265 308
#     4  10  21  35  52  78 111 142 171 209 261 318
#     4   9  19  33  50  75 103 134 176 217 253 301
#     4   9  18  32  49  74 106 137 170 213 260 308
#     4   9  19  33  50  75 103 134 176 217 253 301
#     4   9  18  32  49  74 106 137 170 213 260 308
#     4  10  21  35  52  78 111 142 171 209 261 318
#
# _framework density 18.592618999999999
#
# number of rings (size 3 to 8) (size 9 to 14) (size 15 to 20)
#    0.000    2.750    0.000    2.250    0.000    7.000 
#    0.000    2.500    0.000   12.000    0.000   14.000 
#    0.000    0.000    0.000    0.000    0.000    0.000 
#
# Total GULP energy -396574.420404 kJ/mol
# GULP energy per Si atom -12392.950638 kJ/mol
# Density = 1.855030 g / cm^3
# Si number density = 18.592619 Si / 1000 Ang^3
#
#
#
# Elastic Constant Matrix: (Units=GPa)
#
#
# Indices 1 2 3 4 5 6 
#
# 1 46.2427 26.9348 19.7093 0.0000 -13.4572 0.0000
# 2 26.9348 125.7238 50.9782 0.0000 -16.5550 0.0000
# 3 19.7093 50.9782 157.2382 0.0000 -22.7393 0.0000
# 4 0.0000 0.0000 0.0000 18.9331 0.0000 -6.3508
# 5 -13.4572 -16.5550 -22.7393 0.0000 27.4593 0.0000
# 6 0.0000 0.0000 0.0000 -6.3508 0.0000 22.6654
#
#
#
# Elastic Compliance Matrix: (Units=1/GPa)
#
#
# Indices 1 2 3 4 5 6 
#
# 1 0.027369 -0.004276 -0.000542 0.000000 0.010386 0.000000
# 2 -0.004276 0.010128 -0.002463 0.000000 0.001971 0.000000
# 3 -0.000542 -0.002463 0.007922 0.000000 0.004810 0.000000
# 4 0.000000 0.000000 0.000000 0.058297 0.000000 0.016335
# 5 0.010386 0.001971 0.004810 0.000000 0.046679 0.000000
# 6 0.000000 0.000000 0.000000 0.016335 0.000000 0.048697
#
#
# Mechanical properties :
#
#
# Convention : Reuss Voigt Hill
#
# Bulk Modulus (GPa) = 32.40736 58.27217 45.33976
# Shear Modulus (GPa) = 22.32751 29.25041 25.78896
#
# Velocity S-wave (km/s) = 3.46913 3.97070 3.72836
# Velocity P-wave (km/s) = 5.78918 7.24096 6.55538
#
# Compressibility (1/GPa) = 0.03085719
#
# Stress axis : x y z
#
# Youngs Moduli (GPa) = 36.53731 98.73497 126.23571
#
# Poissons Ratio (x) = 0.42220 0.06846
# Poissons Ratio (y) = 0.15624 0.31086
# Poissons Ratio (z) = 0.01982 0.24314
#
# Static dielectric constant tensor:
#      x y z
#    x 3.133700 0.000000 -0.227480 
#    y 0.000000 3.226160 0.000000 
#    z -0.227480 0.000000 4.199950 
# 
# 
# High freq. dielectric constant tensor:
#      x y z
#    x 1.680420 0.000000 -0.011060 
#    y 0.000000 1.707080 0.000000 
#    z -0.011060 0.000000 1.746950 
# 
# From -- ./inp_files/69931.got.cif
#   From: 2010.03.12/outbox.cif.g09.slc.cpg/sg14_35_cif.got.tgz:69931.got - 2010.03.31 13:35:05.
