data_PCOD8125860
_publ_section_title
;
Structure prediction by ZEFSAII (Michael W. Deem and Ramdas Pophale) SiO2 
 PCOD8125860
Probable space group: P 21/C
;
_chemical_formula_sum "Si O2"
_cell_formula_units_Z 16
_cell_length_a 10.099729
_cell_length_b 5.095611
_cell_length_c 16.572087
_cell_angle_alpha 90.000000
_cell_angle_beta 94.216186
_cell_angle_gamma 90.000000
_cell_volume 850.562611
_symmetry_space_group_name_H-M "P 21/C"
_symmetry_group_IT_number 14
_symmetry_cell_setting 'monoclinic'
loop_
_space_group_symop_operation_xyz
x,y,z
-x,1/2+y,1/2-z
-x,-y,-z
x,1/2-y,1/2+z
loop_
_atom_site_type_symbol
_atom_site_label
_atom_site_fract_x
_atom_site_fract_y
_atom_site_fract_z
Si Si1 0.102771 0.699641 0.965083
Si Si2 0.249267 0.514518 0.598292
Si Si3 0.027910 0.105457 0.201695
Si Si4 0.359174 0.497666 0.035601
O O1 0.062494 0.793742 0.875389
O O2 0.243943 0.544319 0.963545
O O3 0.000000 0.500000 0.000000
O O4 0.128242 0.946622 0.027330
O O5 0.343911 0.276545 0.579730
O O6 0.178245 0.460386 0.680494
O O7 0.342518 0.773723 0.603217
O O8 0.036835 0.339886 0.266749
O O9 0.500000 0.500000 0.000000
#
# Coordination Sequence:
#
# PCOD8125860 Si02
#       4
#     4   4   4   4
#     4  10  21  37  63  86 116 149 200 249 284 339
#     4  10  21  37  59  83 119 144 202 237 286 342
#     4  12  23  34  56  93 121 151 186 243 305 343
#     4  10  21  35  63  88 110 150 200 245 284 335
#
# _framework density 18.81108
#
# number of rings (size 3 to 8) (size 9 to 14) (size 15 to 20)
#    1.500    0.000    2.500    4.500    3.500    0.000 
#    0.000    0.000    0.000    6.000    0.000    0.000 
#    0.000    0.000    0.000    0.000    0.000    0.000 
#
# Total GULP energy -198274.454853 kJ/mol
# GULP energy per Si atom -12392.153428 kJ/mol
# Density = 1.876826 g / cm^3
# Si number density = 18.811080 Si / 1000 Ang^3
#
#
#
# Elastic Constant Matrix: (Units=GPa)
#
#
# Indices 1 2 3 4 5 6 
#
# 1 140.3259 56.2220 45.3430 0.0000 -38.1576 0.0000
# 2 56.2220 156.5472 38.0383 0.0000 -30.5840 0.0000
# 3 45.3430 38.0383 67.3761 0.0000 -28.4537 0.0000
# 4 0.0000 0.0000 0.0000 41.5845 0.0000 -15.4465
# 5 -38.1576 -30.5840 -28.4537 0.0000 28.6381 0.0000
# 6 0.0000 0.0000 0.0000 -15.4465 0.0000 29.9046
#
#
#
# Elastic Compliance Matrix: (Units=1/GPa)
#
#
# Indices 1 2 3 4 5 6 
#
# 1 0.011565 -0.001325 -0.001938 0.000000 0.012069 0.000000
# 2 -0.001325 0.008322 -0.001377 0.000000 0.005755 0.000000
# 3 -0.001938 -0.001377 0.026209 0.000000 0.021988 0.000000
# 4 0.000000 0.000000 0.000000 0.029757 0.000000 0.015370
# 5 0.012069 0.005755 0.021988 0.000000 0.078992 0.000000
# 6 0.000000 0.000000 0.000000 0.015370 0.000000 0.041379
#
#
# Mechanical properties :
#
#
# Convention : Reuss Voigt Hill
#
# Bulk Modulus (GPa) = 27.16093 71.49509 49.32801
# Shear Modulus (GPa) = 22.95938 35.00183 28.98060
#
# Velocity S-wave (km/s) = 3.49739 4.31827 3.92932
# Velocity P-wave (km/s) = 5.54789 7.93427 6.84587
#
# Compressibility (1/GPa) = 0.03681758
#
# Stress axis : x y z
#
# Youngs Moduli (GPa) = 86.46685 120.15701 38.15416
#
# Poissons Ratio (x) = 0.15916 0.07396
# Poissons Ratio (y) = 0.11454 0.05252
# Poissons Ratio (z) = 0.16762 0.16541
#
# Static dielectric constant tensor:
#      x y z
#    x 3.258210 0.000000 -0.161910 
#    y 0.000000 3.808820 0.000000 
#    z -0.161910 0.000000 3.410250 
# 
# 
# High freq. dielectric constant tensor:
#      x y z
#    x 1.717030 0.000000 -0.026450 
#    y 0.000000 1.758620 0.000000 
#    z -0.026450 0.000000 1.694940 
# 
# From -- ./inp_files/38351.got.cif
#   From: 2010.03.12/outbox.cif.g09.slc.cpg/sg14_20_cif.got.tgz:38351.got - 2010.03.31 13:35:05.
