data_PCOD8125552
_publ_section_title
;
Structure prediction by ZEFSAII (Michael W. Deem and Ramdas Pophale) SiO2 
 PCOD8125552
Probable space group: P 21/C
;
_chemical_formula_sum "Si O2"
_cell_formula_units_Z 32
_cell_length_a 8.009427
_cell_length_b 12.365197
_cell_length_c 15.436839
_cell_angle_alpha 90.000000
_cell_angle_beta 82.837186
_cell_angle_gamma 90.000000
_cell_volume 1516.904578
_symmetry_space_group_name_H-M "P 21/C"
_symmetry_group_IT_number 14
_symmetry_cell_setting 'monoclinic'
loop_
_space_group_symop_operation_xyz
x,y,z
-x,1/2+y,1/2-z
-x,-y,-z
x,1/2-y,1/2+z
loop_
_atom_site_type_symbol
_atom_site_label
_atom_site_fract_x
_atom_site_fract_y
_atom_site_fract_z
Si Si1 0.817601 0.380217 0.820431
Si Si2 0.134860 0.732663 0.839475
Si Si3 0.173061 0.122587 0.706474
Si Si4 0.441204 0.622160 0.514669
Si Si5 0.505928 0.229556 0.650614
Si Si6 0.067186 0.619486 0.493767
Si Si7 0.481757 0.288837 0.850212
Si Si8 0.880746 0.773595 0.623879
O O1 0.831386 0.275816 0.758535
O O2 0.834647 0.495299 0.771751
O O3 0.631385 0.367405 0.876414
O O4 0.973705 0.364363 0.876030
O O5 0.305896 0.675857 0.865602
O O6 0.978786 0.649560 0.850575
O O7 0.094012 0.841965 0.894261
O O8 0.354316 0.144263 0.649852
O O9 0.150709 0.194798 0.792419
O O10 0.500000 0.500000 0.500000
O O11 0.511659 0.684481 0.425786
O O12 0.239757 0.627007 0.536017
O O13 0.507781 0.672786 0.600836
O O14 0.493539 0.285593 0.745284
O O15 0.000000 0.500000 0.500000
O O16 0.926567 0.697565 0.541555
O O17 0.295468 0.335299 0.884326
#
# Coordination Sequence:
#
# PCOD8125552 Si02
#       8
#     4   4   4   4   4   4   4   4
#     4  10  20  40  59  86 119 161 208 246 310 371
#     4   9  21  38  59  87 124 153 198 262 299 377
#     4  10  21  38  63  84 119 166 204 252 311 376
#     4  11  23  40  67  98 125 166 214 264 322 378
#     4   9  22  40  59  92 127 161 208 257 316 377
#     4  11  21  36  62  94 125 153 197 265 322 365
#     4  10  21  40  62  87 133 162 200 268 307 380
#     4  10  21  38  59  92 120 156 205 253 314 371
#
# _framework density 21.095590999999999
#
# number of rings (size 3 to 8) (size 9 to 14) (size 15 to 20)
#    0.000    2.000    1.250    1.500    3.500    6.000 
#    2.250    1.250    0.000    0.000    0.000    0.000 
#    0.000    0.000    0.000    0.000    0.000    0.000 
#
# Total GULP energy -396494.710409 kJ/mol
# GULP energy per Si atom -12390.459700 kJ/mol
# Density = 2.104758 g / cm^3
# Si number density = 21.095591 Si / 1000 Ang^3
#
#
#
# Elastic Constant Matrix: (Units=GPa)
#
#
# Indices 1 2 3 4 5 6 
#
# 1 195.8521 41.0297 16.3126 0.0000 -2.0665 0.0000
# 2 41.0297 72.4064 10.0307 0.0000 -0.0972 0.0000
# 3 16.3126 10.0307 65.7903 0.0000 -3.4299 0.0000
# 4 0.0000 0.0000 0.0000 26.3570 0.0000 -2.6311
# 5 -2.0665 -0.0972 -3.4299 0.0000 23.4419 0.0000
# 6 0.0000 0.0000 0.0000 -2.6311 0.0000 26.4904
#
#
#
# Elastic Compliance Matrix: (Units=1/GPa)
#
#
# Indices 1 2 3 4 5 6 
#
# 1 0.005856 -0.003187 -0.000947 0.000000 0.000364 0.000000
# 2 -0.003187 0.015845 -0.001649 0.000000 -0.000457 0.000000
# 3 -0.000947 -0.001649 0.015802 0.000000 0.002222 0.000000
# 4 0.000000 0.000000 0.000000 0.038321 0.000000 0.003806
# 5 0.000364 -0.000457 0.002222 0.000000 0.043014 0.000000
# 6 0.000000 0.000000 0.000000 0.003806 0.000000 0.038128
#
#
# Mechanical properties :
#
#
# Convention : Reuss Voigt Hill
#
# Bulk Modulus (GPa) = 38.55623 52.08829 45.32226
# Shear Modulus (GPa) = 28.22037 33.03624 30.62831
#
# Velocity S-wave (km/s) = 3.66148 3.96160 3.81449
# Velocity P-wave (km/s) = 6.01596 6.75802 6.39776
#
# Compressibility (1/GPa) = 0.02593614
#
# Stress axis : x y z
#
# Youngs Moduli (GPa) = 170.75806 63.11287 63.28332
#
# Poissons Ratio (x) = 0.20113 0.05994
# Poissons Ratio (y) = 0.54417 0.10438
# Poissons Ratio (z) = 0.16174 0.10410
#
# Static dielectric constant tensor:
#      x y z
#    x 4.789100 0.000000 -0.000720 
#    y 0.000000 3.291400 0.000000 
#    z -0.000720 0.000000 3.653600 
# 
# 
# High freq. dielectric constant tensor:
#      x y z
#    x 1.864010 0.000000 -0.000780 
#    y 0.000000 1.785060 0.000000 
#    z -0.000780 0.000000 1.810210 
# 
# From -- ./inp_files/40075.got.cif
#   From: 2010.03.12/outbox.cif.g09.slc.cpg/sg14_21_cif.got.tgz:40075.got - 2010.03.31 13:35:05.
