data_PCOD8125821
_publ_section_title
;
Structure prediction by ZEFSAII (Michael W. Deem and Ramdas Pophale) SiO2 
 PCOD8125821
Probable space group: P 21/C
;
_chemical_formula_sum "Si O2"
_cell_formula_units_Z 32
_cell_length_a 8.510771
_cell_length_b 19.686341
_cell_length_c 15.055285
_cell_angle_alpha 90.000000
_cell_angle_beta 40.649387
_cell_angle_gamma 90.000000
_cell_volume 1643.196895
_symmetry_space_group_name_H-M "P 21/C"
_symmetry_group_IT_number 14
_symmetry_cell_setting 'monoclinic'
loop_
_space_group_symop_operation_xyz
x,y,z
-x,1/2+y,1/2-z
-x,-y,-z
x,1/2-y,1/2+z
loop_
_atom_site_type_symbol
_atom_site_label
_atom_site_fract_x
_atom_site_fract_y
_atom_site_fract_z
Si Si1 0.474925 0.608603 0.178237
Si Si2 0.951836 0.928048 0.772217
Si Si3 0.601355 0.632792 0.306207
Si Si4 0.993352 0.184634 0.124203
Si Si5 0.225438 0.473921 0.262598
Si Si6 0.966358 0.349511 0.441076
Si Si7 0.535888 0.115056 0.508208
Si Si8 0.205347 0.233736 0.686921
O O1 0.666194 0.624355 0.173663
O O2 0.295535 0.673579 0.244901
O O3 0.321547 0.541010 0.271957
O O4 0.593782 0.596402 0.030904
O O5 0.721174 0.931628 0.805791
O O6 0.877882 0.881923 0.889085
O O7 0.175421 0.889842 0.625724
O O8 0.029977 0.002758 0.771215
O O9 0.316034 0.634866 0.438183
O O10 0.730034 0.698638 0.288808
O O11 0.080385 0.250276 0.144483
O O12 0.053976 0.190714 0.992522
O O13 0.450490 0.438372 0.117802
O O14 0.102718 0.421951 0.383156
O O15 0.022248 0.308488 0.327302
O O16 0.451871 0.191153 0.569134
#
# Coordination Sequence:
#
# PCOD8125821 Si02
#       8
#     4   4   4   4   4   4   4   4
#     4   9  18  34  57  79 108 142 185 216 278 324
#     4   9  18  35  56  78 111 141 176 222 278 311
#     4  10  22  33  52  84 106 148 178 222 277 316
#     4   8  18  34  51  77 103 146 172 219 274 313
#     4   9  18  36  58  79 105 144 185 222 265 328
#     4  10  21  36  55  82 106 140 191 217 270 337
#     4   9  18  34  58  79 102 153 180 221 268 321
#     4  10  21  34  55  77 113 140 181 230 266 321
#
# _framework density 19.474235
#
# number of rings (size 3 to 8) (size 9 to 14) (size 15 to 20)
#    0.000    3.000    0.000    1.500    7.000    5.000 
#    0.000    3.750    0.000   12.000    0.000    0.000 
#    0.000    0.000    0.000    0.000    0.000    0.000 
#
# Total GULP energy -396418.480919 kJ/mol
# GULP energy per Si atom -12388.077529 kJ/mol
# Density = 1.942991 g / cm^3
# Si number density = 19.474235 Si / 1000 Ang^3
#
#
#
# Elastic Constant Matrix: (Units=GPa)
#
#
# Indices 1 2 3 4 5 6 
#
# 1 121.9950 20.0988 30.5132 0.0000 14.2845 0.0000
# 2 20.0988 64.4296 14.6302 0.0000 -1.6617 0.0000
# 3 30.5132 14.6302 70.6084 0.0000 6.5652 0.0000
# 4 0.0000 0.0000 0.0000 20.4222 0.0000 4.0888
# 5 14.2845 -1.6617 6.5652 0.0000 15.5898 0.0000
# 6 0.0000 0.0000 0.0000 4.0888 0.0000 16.7761
#
#
#
# Elastic Compliance Matrix: (Units=1/GPa)
#
#
# Indices 1 2 3 4 5 6 
#
# 1 0.010438 -0.002762 -0.003145 0.000000 -0.008534 0.000000
# 2 -0.002762 0.017181 -0.002885 0.000000 0.005577 0.000000
# 3 -0.003145 -0.002885 0.016527 0.000000 -0.004386 0.000000
# 4 0.000000 0.000000 0.000000 0.051478 0.000000 -0.012547
# 5 -0.008534 0.005577 -0.004386 0.000000 0.074405 0.000000
# 6 0.000000 0.000000 0.000000 -0.012547 0.000000 0.062667
#
#
# Mechanical properties :
#
#
# Convention : Reuss Voigt Hill
#
# Bulk Modulus (GPa) = 37.64683 43.05752 40.35217
# Shear Modulus (GPa) = 19.29497 23.34368 21.31933
#
# Velocity S-wave (km/s) = 3.15110 3.46597 3.31228
# Velocity P-wave (km/s) = 5.71077 6.17862 5.94929
#
# Compressibility (1/GPa) = 0.02656266
#
# Stress axis : x y z
#
# Youngs Moduli (GPa) = 95.80394 58.20259 60.50610
#
# Poissons Ratio (x) = 0.16076 0.19029
# Poissons Ratio (y) = 0.26462 0.17456
# Poissons Ratio (z) = 0.30130 0.16791
#
# Static dielectric constant tensor:
#      x y z
#    x 3.714450 0.000000 0.251080 
#    y 0.000000 3.522140 0.000000 
#    z 0.251080 0.000000 3.471740 
# 
# 
# High freq. dielectric constant tensor:
#      x y z
#    x 1.745510 0.000000 0.018640 
#    y 0.000000 1.747220 0.000000 
#    z 0.018640 0.000000 1.746760 
# 
# From -- ./inp_files/41992.got.cif
#   From: 2010.03.12/outbox.cif.g09.slc.cpg/sg14_21_cif.got.tgz:41992.got - 2010.03.31 13:35:05.
