data_PCOD8125503
_publ_section_title
;
Structure prediction by ZEFSAII (Michael W. Deem and Ramdas Pophale) SiO2 
 PCOD8125503
Probable space group: P 21/C
;
_chemical_formula_sum "Si O2"
_cell_formula_units_Z 32
_cell_length_a 22.781721
_cell_length_b 14.148633
_cell_length_c 8.775139
_cell_angle_alpha 90.000000
_cell_angle_beta 148.167165
_cell_angle_gamma 90.000000
_cell_volume 1491.867847
_symmetry_space_group_name_H-M "P 21/C"
_symmetry_group_IT_number 14
_symmetry_cell_setting 'monoclinic'
loop_
_space_group_symop_operation_xyz
x,y,z
-x,1/2+y,1/2-z
-x,-y,-z
x,1/2-y,1/2+z
loop_
_atom_site_type_symbol
_atom_site_label
_atom_site_fract_x
_atom_site_fract_y
_atom_site_fract_z
Si Si1 0.563256 0.341562 0.439428
Si Si2 0.110127 0.046768 0.310989
Si Si3 0.174923 0.263752 0.395025
Si Si4 0.676096 0.014354 0.373593
Si Si5 0.213791 0.859328 0.149267
Si Si6 0.696242 0.204433 0.952082
Si Si7 0.023616 0.079309 0.430488
Si Si8 0.323931 0.187080 0.490893
O O1 0.604734 0.348988 0.355134
O O2 0.574198 0.444648 0.545276
O O3 0.639970 0.275812 0.710770
O O4 0.441185 0.292860 0.167074
O O5 0.127403 0.157291 0.305056
O O6 0.107250 0.039260 0.487652
O O7 0.212629 0.982559 0.483591
O O8 0.000000 0.000000 0.000000
O O9 0.283777 0.264713 0.525038
O O10 0.219943 0.314865 0.645950
O O11 0.073149 0.326465 0.113761
O O12 0.695137 0.073095 0.570841
O O13 0.650494 0.908660 0.363518
O O14 0.221676 0.757137 0.248566
O O15 0.235399 0.862889 0.013109
O O16 0.089957 0.895050 0.906468
O O17 0.000000 0.000000 0.500000
#
# Coordination Sequence:
#
# PCOD8125503 Si02
#       8
#     4   4   4   4   4   4   4   4
#     4  10  20  39  64  90 121 169 216 269 330 383
#     4  11  24  43  65  95 133 175 216 265 332 398
#     4  11  25  42  65  95 133 169 222 271 323 402
#     4  10  22  39  62  90 129 163 214 270 321 393
#     4  10  21  39  58  90 123 159 202 260 317 385
#     4   9  21  37  62  90 121 155 209 265 320 382
#     4  12  26  40  65  95 130 174 213 262 329 391
#     4  11  22  42  63  88 125 168 215 269 326 385
#
# _framework density 21.449622000000002
#
# number of rings (size 3 to 8) (size 9 to 14) (size 15 to 20)
#    0.000    1.500    2.500    1.875    5.250    1.000 
#    0.000    0.625    0.000    0.000    0.000    0.000 
#    0.000    0.000    0.000    0.000    0.000    0.000 
#
# Total GULP energy -396593.882734 kJ/mol
# GULP energy per Si atom -12393.558835 kJ/mol
# Density = 2.140080 g / cm^3
# Si number density = 21.449622 Si / 1000 Ang^3
#
#
#
# Elastic Constant Matrix: (Units=GPa)
#
#
# Indices 1 2 3 4 5 6 
#
# 1 138.6442 26.0537 21.8605 0.0000 -13.1119 0.0000
# 2 26.0537 64.8543 12.9077 0.0000 -3.4792 0.0000
# 3 21.8605 12.9077 74.8349 0.0000 0.8402 0.0000
# 4 0.0000 0.0000 0.0000 24.1179 0.0000 -0.8380
# 5 -13.1119 -3.4792 0.8402 0.0000 35.1209 0.0000
# 6 0.0000 0.0000 0.0000 -0.8380 0.0000 26.8851
#
#
#
# Elastic Compliance Matrix: (Units=1/GPa)
#
#
# Indices 1 2 3 4 5 6 
#
# 1 0.008322 -0.002795 -0.001981 0.000000 0.002878 0.000000
# 2 -0.002795 0.017002 -0.002124 0.000000 0.000692 0.000000
# 3 -0.001981 -0.002124 0.014322 0.000000 -0.001293 0.000000
# 4 0.000000 0.000000 0.000000 0.041508 0.000000 0.001294
# 5 0.002878 0.000692 -0.001293 0.000000 0.029647 0.000000
# 6 0.000000 0.000000 0.000000 0.001294 0.000000 0.037236
#
#
# Mechanical properties :
#
#
# Convention : Reuss Voigt Hill
#
# Bulk Modulus (GPa) = 38.68970 44.44190 41.56580
# Shear Modulus (GPa) = 29.33371 31.72554 30.52963
#
# Velocity S-wave (km/s) = 3.70207 3.85004 3.77678
# Velocity P-wave (km/s) = 6.02913 6.36616 6.19993
#
# Compressibility (1/GPa) = 0.02584667
#
# Stress axis : x y z
#
# Youngs Moduli (GPa) = 120.15725 58.81772 69.82069
#
# Poissons Ratio (x) = 0.16437 0.13834
# Poissons Ratio (y) = 0.33579 0.14829
# Poissons Ratio (z) = 0.23808 0.12492
#
# Static dielectric constant tensor:
#      x y z
#    x 4.402150 0.000000 0.009100 
#    y 0.000000 3.751340 0.000000 
#    z 0.009100 0.000000 3.811430 
# 
# 
# High freq. dielectric constant tensor:
#      x y z
#    x 1.861700 0.000000 -0.003230 
#    y 0.000000 1.825320 0.000000 
#    z -0.003230 0.000000 1.835780 
# 
# From -- ./inp_files/19553.got.cif
#   From: 2010.03.12/outbox.cif.g09.slc.cpg/sg14_10_cif.got.tgz:19553.got - 2010.03.31 13:35:05.
