data_PCOD8125829
_publ_section_title
;
Structure prediction by ZEFSAII (Michael W. Deem and Ramdas Pophale) SiO2 
 PCOD8125829
Probable space group: P 21/C
;
_chemical_formula_sum "Si O2"
_cell_formula_units_Z 20
_cell_length_a 15.319547
_cell_length_b 12.013713
_cell_length_c 9.933365
_cell_angle_alpha 90.000000
_cell_angle_beta 32.884210
_cell_angle_gamma 90.000000
_cell_volume 992.599017
_symmetry_space_group_name_H-M "P 21/C"
_symmetry_group_IT_number 14
_symmetry_cell_setting 'monoclinic'
loop_
_space_group_symop_operation_xyz
x,y,z
-x,1/2+y,1/2-z
-x,-y,-z
x,1/2-y,1/2+z
loop_
_atom_site_type_symbol
_atom_site_label
_atom_site_fract_x
_atom_site_fract_y
_atom_site_fract_z
Si Si1 0.185990 0.420354 0.137491
Si Si2 0.376982 0.630938 0.832900
Si Si3 0.364935 0.696437 0.132701
Si Si4 0.321176 0.178146 0.911384
Si Si5 0.846336 0.000453 0.022101
O O1 0.159403 0.435471 0.329867
O O2 0.019748 0.443857 0.274689
O O3 0.322349 0.502875 0.901946
O O4 0.238714 0.295405 0.043083
O O5 0.320734 0.690093 0.768188
O O6 0.571196 0.639584 0.598940
O O7 0.295158 0.694237 0.069188
O O8 0.292329 0.593335 0.309156
O O9 0.558870 0.683433 0.873896
O O10 0.183661 0.087674 0.058834
#
# Coordination Sequence:
#
# PCOD8125829 Si02
#       5
#     4   4   4   4   4
#     4  10  22  38  59  90 121 157 201 248 301 358
#     4   9  21  36  62  88 118 157 202 246 292 359
#     4   9  20  37  63  85 117 158 204 244 297 353
#     4  10  21  34  63  88 114 158 198 247 283 366
#     4  10  21  39  61  83 125 163 196 242 309 360
#
# _framework density 20.149122999999999
#
# number of rings (size 3 to 8) (size 9 to 14) (size 15 to 20)
#    1.200    1.200    0.000    1.800    5.600    0.800 
#    0.000    2.000    0.000    3.600    0.000    0.000 
#    0.000    0.000    0.000    0.000    0.000    0.000 
#
# Total GULP energy -247840.224906 kJ/mol
# GULP energy per Si atom -12392.011245 kJ/mol
# Density = 2.010326 g / cm^3
# Si number density = 20.149123 Si / 1000 Ang^3
#
#
#
# Elastic Constant Matrix: (Units=GPa)
#
#
# Indices 1 2 3 4 5 6 
#
# 1 39.8825 17.9224 23.5420 0.0000 -12.5612 0.0000
# 2 17.9224 77.4749 52.5432 0.0000 -30.5337 0.0000
# 3 23.5420 52.5432 72.3635 0.0000 -31.4516 0.0000
# 4 0.0000 0.0000 0.0000 32.7920 0.0000 -2.6496
# 5 -12.5612 -30.5337 -31.4516 0.0000 21.7130 0.0000
# 6 0.0000 0.0000 0.0000 -2.6496 0.0000 34.1981
#
#
#
# Elastic Compliance Matrix: (Units=1/GPa)
#
#
# Indices 1 2 3 4 5 6 
#
# 1 0.031758 0.001391 -0.006766 0.000000 0.010528 0.000000
# 2 0.001391 0.031352 -0.010003 0.000000 0.030404 0.000000
# 3 -0.006766 -0.010003 0.041758 0.000000 0.042507 0.000000
# 4 0.000000 0.000000 0.000000 0.030687 0.000000 0.002378
# 5 0.010528 0.030404 0.042507 0.000000 0.156473 0.000000
# 6 0.000000 0.000000 0.000000 0.002378 0.000000 0.029426
#
#
# Mechanical properties :
#
#
# Convention : Reuss Voigt Hill
#
# Bulk Modulus (GPa) = 13.49287 41.97067 27.73177
# Shear Modulus (GPa) = 13.26561 24.12152 18.69357
#
# Velocity S-wave (km/s) = 2.56866 3.46374 3.04922
# Velocity P-wave (km/s) = 3.93807 6.07222 5.11763
#
# Compressibility (1/GPa) = 0.07411323
#
# Stress axis : x y z
#
# Youngs Moduli (GPa) = 31.48784 31.89592 23.94738
#
# Poissons Ratio (x) = -0.04438 0.16204
# Poissons Ratio (y) = -0.04381 0.23954
# Poissons Ratio (z) = 0.21306 0.31904
#
# Static dielectric constant tensor:
#      x y z
#    x 3.465410 0.000000 -0.148420 
#    y 0.000000 3.434100 0.000000 
#    z -0.148420 0.000000 3.489100 
# 
# 
# High freq. dielectric constant tensor:
#      x y z
#    x 1.768760 0.000000 -0.011470 
#    y 0.000000 1.783670 0.000000 
#    z -0.011470 0.000000 1.763410 
# 
# From -- ./inp_files/23401.got.cif
#   From: 2010.03.12/outbox.cif.g09.slc.cpg/sg14_12_cif.got.tgz:23401.got - 2010.03.31 13:35:05.
