data_PCOD8125895
_publ_section_title
;
Structure prediction by ZEFSAII (Michael W. Deem and Ramdas Pophale) SiO2 
 PCOD8125895
Probable space group: P 21/C
;
_chemical_formula_sum "Si O2"
_cell_formula_units_Z 20
_cell_length_a 20.926143
_cell_length_b 7.978172
_cell_length_c 5.237189
_cell_angle_alpha 90.000000
_cell_angle_beta 87.459779
_cell_angle_gamma 90.000000
_cell_volume 873.501920
_symmetry_space_group_name_H-M "P 21/C"
_symmetry_group_IT_number 14
_symmetry_cell_setting 'monoclinic'
loop_
_space_group_symop_operation_xyz
x,y,z
-x,1/2+y,1/2-z
-x,-y,-z
x,1/2-y,1/2+z
loop_
_atom_site_type_symbol
_atom_site_label
_atom_site_fract_x
_atom_site_fract_y
_atom_site_fract_z
Si Si1 0.298265 0.359489 0.921345
Si Si2 0.622065 0.335144 0.999411
Si Si3 0.951460 0.352593 0.054136
Si Si4 0.805526 0.142692 0.567914
Si Si5 0.482649 0.306610 0.511833
O O1 0.297911 0.281606 0.638990
O O2 0.362084 0.472005 0.947639
O O3 0.236610 0.477341 0.960321
O O4 0.652133 0.223753 0.224377
O O5 0.545677 0.311790 0.005632
O O6 0.964354 0.286084 0.336090
O O7 0.878869 0.418128 0.042218
O O8 0.000000 0.500000 0.000000
O O9 0.790082 0.269936 0.340275
O O10 0.500000 0.500000 0.500000
O O11 0.442508 0.248535 0.269749
#
# Coordination Sequence:
#
# PCOD8125895 Si02
#       5
#     4   4   4   4   4
#     4  12  24  38  60  91 118 149 195 246 294 344
#     4  10  21  41  62  84 117 156 188 231 288 345
#     4  10  21  36  57  84 116 156 199 244 296 348
#     4  10  21  39  60  82 116 161 198 237 295 355
#     4  10  21  40  63  89 117 152 192 232 282 340
#
# _framework density 22.896339999999999
#
# number of rings (size 3 to 8) (size 9 to 14) (size 15 to 20)
#    0.000    1.600    0.000    4.800    0.000    1.600 
#    0.000   24.000    0.000    0.000    0.000    0.000 
#    0.000    0.000    0.000    0.000    0.000    0.000 
#
# Total GULP energy -247947.810291 kJ/mol
# GULP energy per Si atom -12397.390515 kJ/mol
# Density = 2.284423 g / cm^3
# Si number density = 22.896340 Si / 1000 Ang^3
#
#
#
# Elastic Constant Matrix: (Units=GPa)
#
#
# Indices 1 2 3 4 5 6 
#
# 1 60.3174 16.5627 -17.2040 0.0000 15.1331 0.0000
# 2 16.5627 91.6426 25.3676 0.0000 1.5347 0.0000
# 3 -17.2040 25.3676 181.8906 0.0000 -6.2182 0.0000
# 4 0.0000 0.0000 0.0000 47.2128 0.0000 0.9311
# 5 15.1331 1.5347 -6.2182 0.0000 17.3145 0.0000
# 6 0.0000 0.0000 0.0000 0.9311 0.0000 51.3245
#
#
#
# Elastic Compliance Matrix: (Units=1/GPa)
#
#
# Indices 1 2 3 4 5 6 
#
# 1 0.023224 -0.004477 0.002167 0.000000 -0.019123 0.000000
# 2 -0.004477 0.012257 -0.002062 0.000000 0.002086 0.000000
# 3 0.002167 -0.002062 0.006006 0.000000 0.000445 0.000000
# 4 0.000000 0.000000 0.000000 0.021188 0.000000 -0.000384
# 5 -0.019123 0.002086 0.000445 0.000000 0.074444 0.000000
# 6 0.000000 0.000000 0.000000 -0.000384 0.000000 0.019491
#
#
# Mechanical properties :
#
#
# Convention : Reuss Voigt Hill
#
# Bulk Modulus (GPa) = 30.53985 42.58923 36.56454
# Shear Modulus (GPa) = 28.36605 43.77865 36.07235
#
# Velocity S-wave (km/s) = 3.52361 4.37743 3.97352
# Velocity P-wave (km/s) = 5.47007 6.64759 6.08737
#
# Compressibility (1/GPa) = 0.03274411
#
# Stress axis : x y z
#
# Youngs Moduli (GPa) = 43.05828 81.58728 166.51288
#
# Poissons Ratio (x) = 0.36527 -0.36088
# Poissons Ratio (y) = 0.19277 0.34327
# Poissons Ratio (z) = -0.09332 0.16820
#
# Static dielectric constant tensor:
#      x y z
#    x 0.000000 0.000000 0.000000 
#    y 0.000000 0.000000 0.000000 
#    z 0.000000 0.000000 0.000000 
# 
# 
# High freq. dielectric constant tensor:
#      x y z
#    x 1.891610 0.000000 -0.001370 
#    y 0.000000 1.899380 0.000000 
#    z -0.001370 0.000000 1.943490 
# 
# From -- ./inp_files/4512.got.cif
#   From: 2010.03.12/outbox.cif.g09.slc.cpg/sg14_3_cif.got.tgz:4512.got - 2010.03.31 13:35:05.
