data_PCOD8125437
_publ_section_title
;
Structure prediction by ZEFSAII (Michael W. Deem and Ramdas Pophale) SiO2 
 PCOD8125437
Probable space group: P 21/C
;
_chemical_formula_sum "Si O2"
_cell_formula_units_Z 24
_cell_length_a 20.833228
_cell_length_b 8.421923
_cell_length_c 19.792483
_cell_angle_alpha 90.000000
_cell_angle_beta 161.885442
_cell_angle_gamma 90.000000
_cell_volume 1079.726806
_symmetry_space_group_name_H-M "P 21/C"
_symmetry_group_IT_number 14
_symmetry_cell_setting 'monoclinic'
loop_
_space_group_symop_operation_xyz
x,y,z
-x,1/2+y,1/2-z
-x,-y,-z
x,1/2-y,1/2+z
loop_
_atom_site_type_symbol
_atom_site_label
_atom_site_fract_x
_atom_site_fract_y
_atom_site_fract_z
Si Si1 0.422079 0.791126 0.172231
Si Si2 0.810194 0.884780 0.060185
Si Si3 0.848422 0.143304 0.487226
Si Si4 0.903372 0.626983 0.952145
Si Si5 0.151044 0.643343 0.790010
Si Si6 0.903565 0.627000 0.354679
O O1 0.671678 0.776466 0.421795
O O2 0.353807 0.972570 0.103862
O O3 0.340402 0.704329 0.157603
O O4 0.339842 0.704117 0.023011
O O5 0.948642 0.892097 0.132330
O O6 0.949468 0.892411 0.265683
O O7 0.911420 0.275139 0.495553
O O8 0.775450 0.975615 0.379535
O O9 0.773559 0.750001 0.773425
O O10 0.088359 0.724805 0.172571
O O11 0.000000 0.500000 0.000000
O O12 0.224069 0.475603 0.828432
O O13 0.000000 0.500000 0.500000
#
# Coordination Sequence:
#
# PCOD8125437 Si02
#       6
#     4   4   4   4   4   4
#     4  11  24  36  59  89 117 151 189 237 290 342
#     4  11  24  36  59  89 117 153 187 237 294 336
#     4  10  20  39  60  85 118 147 192 236 287 342
#     4   9  18  34  62  86 106 154 195 231 283 338
#     4  10  20  39  60  85 118 147 192 236 287 342
#     4   9  18  34  62  86 106 154 195 231 283 338
#
# _framework density 22.227844999999999
#
# number of rings (size 3 to 8) (size 9 to 14) (size 15 to 20)
#    0.000    2.000    3.333    0.000    4.667    0.000 
#    0.000    0.000    0.000   40.000    0.000    0.000 
#    0.000    0.000    0.000    0.000    0.000    0.000 
#
# Total GULP energy -297322.790917 kJ/mol
# GULP energy per Si atom -12388.449622 kJ/mol
# Density = 2.217725 g / cm^3
# Si number density = 22.227845 Si / 1000 Ang^3
#
#
#
# Elastic Constant Matrix: (Units=GPa)
#
#
# Indices 1 2 3 4 5 6 
#
# 1 87.9989 41.1711 33.9368 0.0000 -29.2567 0.0000
# 2 41.1711 105.2674 12.8271 0.0000 -17.8874 0.0000
# 3 33.9368 12.8271 44.5101 0.0000 2.1953 0.0000
# 4 0.0000 0.0000 0.0000 32.1011 0.0000 -14.5496
# 5 -29.2567 -17.8874 2.1953 0.0000 23.6680 0.0000
# 6 0.0000 0.0000 0.0000 -14.5496 0.0000 55.1139
#
#
#
# Elastic Compliance Matrix: (Units=1/GPa)
#
#
# Indices 1 2 3 4 5 6 
#
# 1 0.047753 -0.003884 -0.038232 0.000000 0.059640 0.000000
# 2 -0.003884 0.011808 -0.000648 0.000000 0.004183 0.000000
# 3 -0.038232 -0.000648 0.054408 0.000000 -0.052796 0.000000
# 4 0.000000 0.000000 0.000000 0.035386 0.000000 0.009341
# 5 0.059640 0.004183 -0.052796 0.000000 0.124032 0.000000
# 6 0.000000 0.000000 0.000000 0.009341 0.000000 0.020610
#
#
# Mechanical properties :
#
#
# Convention : Reuss Voigt Hill
#
# Bulk Modulus (GPa) = 35.15970 45.96071 40.56020
# Shear Modulus (GPa) = 12.85327 32.16602 22.50965
#
# Velocity S-wave (km/s) = 2.40729 3.80821 3.18571
# Velocity P-wave (km/s) = 4.85582 6.32919 5.64081
#
# Compressibility (1/GPa) = 0.02844165
#
# Stress axis : x y z
#
# Youngs Moduli (GPa) = 20.94092 84.68476 18.37980
#
# Poissons Ratio (x) = 0.32891 0.70270
# Poissons Ratio (y) = 0.08133 0.01191
# Poissons Ratio (z) = 0.80061 0.05488
#
# Static dielectric constant tensor:
#      x y z
#    x 4.677590 0.000000 -0.676320 
#    y 0.000000 4.805340 0.000000 
#    z -0.676320 0.000000 3.604340 
# 
# 
# High freq. dielectric constant tensor:
#      x y z
#    x 1.886180 0.000000 -0.041390 
#    y 0.000000 1.907720 0.000000 
#    z -0.041390 0.000000 1.820610 
# 
# From -- ./inp_files/70147.got.cif
#   From: 2010.03.12/outbox.cif.g09.slc.cpg/sg14_36_cif.got.tgz:70147.got - 2010.03.31 13:35:05.
