data_PCOD8125385
_publ_section_title
;
Structure prediction by ZEFSAII (Michael W. Deem and Ramdas Pophale) SiO2 
 PCOD8125385
Probable space group: P 21/C
;
_chemical_formula_sum "Si O2"
_cell_formula_units_Z 32
_cell_length_a 11.070331
_cell_length_b 12.315192
_cell_length_c 22.206310
_cell_angle_alpha 90.000000
_cell_angle_beta 27.943046
_cell_angle_gamma 90.000000
_cell_volume 1418.647807
_symmetry_space_group_name_H-M "P 21/C"
_symmetry_group_IT_number 14
_symmetry_cell_setting 'monoclinic'
loop_
_space_group_symop_operation_xyz
x,y,z
-x,1/2+y,1/2-z
-x,-y,-z
x,1/2-y,1/2+z
loop_
_atom_site_type_symbol
_atom_site_label
_atom_site_fract_x
_atom_site_fract_y
_atom_site_fract_z
Si Si1 0.784941 0.825965 0.968437
Si Si2 0.952029 0.650965 0.074288
Si Si3 0.706435 0.213875 0.474721
Si Si4 0.731560 0.194435 0.327710
Si Si5 0.657848 0.959439 0.322307
Si Si6 0.122339 0.376930 0.442986
Si Si7 0.619472 0.032283 0.678610
Si Si8 0.818080 0.437297 0.469205
O O1 0.003833 0.781669 0.825996
O O2 0.692461 0.951737 0.998502
O O3 0.527592 0.753008 0.083751
O O4 0.943705 0.832587 0.961518
O O5 0.874124 0.775004 0.103254
O O6 0.704274 0.574661 0.177936
O O7 0.077033 0.643233 0.085742
O O8 0.146751 0.616021 0.934813
O O9 0.782820 0.236555 0.372399
O O10 0.452100 0.139807 0.590113
O O11 0.643653 0.330056 0.535507
O O12 0.683794 0.065811 0.352022
O O13 0.493107 0.997749 0.337068
O O14 0.927359 0.913570 0.181059
O O15 0.414758 0.417326 0.313873
O O16 0.905217 0.454683 0.503034
#
# Coordination Sequence:
#
# PCOD8125385 Si02
#       8
#     4   4   4   4   4   4   4   4
#     4  11  25  44  63  96 130 174 216 270 323 386
#     4   9  19  37  62  91 124 156 211 264 309 390
#     4  10  21  40  65  92 120 173 213 260 322 386
#     4  11  25  43  66  91 132 173 219 266 315 388
#     4   9  19  40  65  90 124 167 210 264 326 384
#     4  10  20  38  64  92 128 167 203 263 339 378
#     4   9  18  36  61  93 121 157 205 263 318 380
#     4   9  21  42  64  95 131 161 210 278 330 381
#
# _framework density 22.55669
#
# number of rings (size 3 to 8) (size 9 to 14) (size 15 to 20)
#    0.000    2.250    0.000    1.500    3.500    0.500 
#   11.250    0.000    0.000    0.000    0.000    0.000 
#    0.000    0.000    0.000    0.000    0.000    0.000 
#
# Total GULP energy -396615.736274 kJ/mol
# GULP energy per Si atom -12394.241759 kJ/mol
# Density = 2.250535 g / cm^3
# Si number density = 22.556690 Si / 1000 Ang^3
#
#
#
# Elastic Constant Matrix: (Units=GPa)
#
#
# Indices 1 2 3 4 5 6 
#
# 1 77.9485 18.0056 22.1549 0.0000 20.1932 0.0000
# 2 18.0056 85.0233 37.5989 0.0000 -9.7199 0.0000
# 3 22.1549 37.5989 82.1361 0.0000 1.9284 0.0000
# 4 0.0000 0.0000 0.0000 24.9735 0.0000 -2.0142
# 5 20.1932 -9.7199 1.9284 0.0000 33.7588 0.0000
# 6 0.0000 0.0000 0.0000 -2.0142 0.0000 33.9616
#
#
#
# Elastic Compliance Matrix: (Units=1/GPa)
#
#
# Indices 1 2 3 4 5 6 
#
# 1 0.017412 -0.003794 -0.002693 0.000000 -0.011354 0.000000
# 2 -0.003794 0.016336 -0.006627 0.000000 0.007352 0.000000
# 3 -0.002693 -0.006627 0.015963 0.000000 -0.001209 0.000000
# 4 0.000000 0.000000 0.000000 0.040235 0.000000 0.002386
# 5 -0.011354 0.007352 -0.001209 0.000000 0.038599 0.000000
# 6 0.000000 0.000000 0.000000 0.002386 0.000000 0.029587
#
#
# Mechanical properties :
#
#
# Convention : Reuss Voigt Hill
#
# Bulk Modulus (GPa) = 42.58538 44.51409 43.54974
# Shear Modulus (GPa) = 26.01596 29.69535 27.85566
#
# Velocity S-wave (km/s) = 3.39980 3.63226 3.51795
# Velocity P-wave (km/s) = 5.85933 6.11296 5.98749
#
# Compressibility (1/GPa) = 0.02348224
#
# Stress axis : x y z
#
# Youngs Moduli (GPa) = 57.43071 61.21381 62.64322
#
# Poissons Ratio (x) = 0.23228 0.16871
# Poissons Ratio (y) = 0.21792 0.41515
# Poissons Ratio (z) = 0.15467 0.40568
#
# Static dielectric constant tensor:
#      x y z
#    x 3.910660 0.000000 0.007510 
#    y 0.000000 4.248880 0.000000 
#    z 0.007510 0.000000 3.900810 
# 
# 
# High freq. dielectric constant tensor:
#      x y z
#    x 1.876940 0.000000 0.007860 
#    y 0.000000 1.905300 0.000000 
#    z 0.007860 0.000000 1.879080 
# 
# From -- ./inp_files/73283.got.cif
#   From: 2010.03.12/outbox.cif.g09.slc.cpg/sg14_37_cif.got.tgz:73283.got - 2010.03.31 13:35:05.
