data_PCOD8125261
_publ_section_title
;
Structure prediction by ZEFSAII (Michael W. Deem and Ramdas Pophale) SiO2 
 PCOD8125261
Probable space group: P 21/C
;
_chemical_formula_sum "Si O2"
_cell_formula_units_Z 24
_cell_length_a 17.334165
_cell_length_b 9.008997
_cell_length_c 14.960899
_cell_angle_alpha 90.000000
_cell_angle_beta 149.176169
_cell_angle_gamma 90.000000
_cell_volume 1197.143618
_symmetry_space_group_name_H-M "P 21/C"
_symmetry_group_IT_number 14
_symmetry_cell_setting 'monoclinic'
loop_
_space_group_symop_operation_xyz
x,y,z
-x,1/2+y,1/2-z
-x,-y,-z
x,1/2-y,1/2+z
loop_
_atom_site_type_symbol
_atom_site_label
_atom_site_fract_x
_atom_site_fract_y
_atom_site_fract_z
Si Si1 0.063240 0.440807 0.658482
Si Si2 0.822427 0.806336 0.333608
Si Si3 0.577245 0.922955 0.662795
Si Si4 0.164800 0.866697 0.700548
Si Si5 0.285624 0.823120 0.463328
Si Si6 0.229449 0.684219 0.588803
O O1 0.155253 0.289700 0.733600
O O2 0.170968 0.553735 0.814370
O O3 0.000000 0.500000 0.500000
O O4 0.927270 0.399280 0.589001
O O5 0.699389 0.710366 0.267435
O O6 0.986448 0.840091 0.542184
O O7 0.769644 0.970064 0.255017
O O8 0.456204 0.860005 0.610595
O O9 0.500000 0.000000 0.500000
O O10 0.647826 0.056805 0.788003
O O11 0.247363 0.828883 0.874755
O O12 0.220434 0.761688 0.676106
O O13 0.267795 0.805001 0.551688
#
# Coordination Sequence:
#
# PCOD8125261 Si02
#       6
#     4   4   4   4   4   4
#     4  11  18  43  69  90 126 178 218 259 332 399
#     4  10  20  37  71  90 125 175 216 270 331 394
#     4  12  21  43  66  88 133 187 212 261 342 401
#     4  10  21  42  63  97 128 166 227 282 318 380
#     4  12  24  40  68  97 130 175 221 273 331 392
#     4  11  24  41  65  97 130 170 229 269 320 403
#
# _framework density 20.047720999999999
#
# number of rings (size 3 to 8) (size 9 to 14) (size 15 to 20)
#    0.000    1.000    8.333    0.000    0.000    6.000 
#    3.000    3.333    0.000    0.000    0.000    0.000 
#    0.000    0.000    0.000    0.000    0.000    0.000 
#
# Total GULP energy -297339.505402 kJ/mol
# GULP energy per Si atom -12389.146058 kJ/mol
# Density = 2.000209 g / cm^3
# Si number density = 20.047721 Si / 1000 Ang^3
#
#
#
# Elastic Constant Matrix: (Units=GPa)
#
#
# Indices 1 2 3 4 5 6 
#
# 1 103.0921 20.7244 38.3994 0.0000 21.9575 0.0000
# 2 20.7244 121.5117 35.1316 0.0000 14.3535 0.0000
# 3 38.3994 35.1316 58.2609 0.0000 18.5599 0.0000
# 4 0.0000 0.0000 0.0000 34.6514 0.0000 1.8614
# 5 21.9575 14.3535 18.5599 0.0000 29.6004 0.0000
# 6 0.0000 0.0000 0.0000 1.8614 0.0000 34.2640
#
#
#
# Elastic Compliance Matrix: (Units=1/GPa)
#
#
# Indices 1 2 3 4 5 6 
#
# 1 0.013577 0.000507 -0.007457 0.000000 -0.005642 0.000000
# 2 0.000507 0.010028 -0.005888 0.000000 -0.001547 0.000000
# 3 -0.007457 -0.005888 0.028688 0.000000 -0.009601 0.000000
# 4 0.000000 0.000000 0.000000 0.028943 0.000000 -0.001572
# 5 -0.005642 -0.001547 -0.009601 0.000000 0.044738 0.000000
# 6 0.000000 0.000000 0.000000 -0.001572 0.000000 0.029271
#
#
# Mechanical properties :
#
#
# Convention : Reuss Voigt Hill
#
# Bulk Modulus (GPa) = 37.57059 52.37506 44.97282
# Shear Modulus (GPa) = 26.34404 32.27711 29.31058
#
# Velocity S-wave (km/s) = 3.62894 4.01685 3.82781
# Velocity P-wave (km/s) = 6.02828 6.90618 6.48211
#
# Compressibility (1/GPa) = 0.02661656
#
# Stress axis : x y z
#
# Youngs Moduli (GPa) = 73.65176 99.71669 34.85724
#
# Poissons Ratio (x) = -0.05053 0.25993
# Poissons Ratio (y) = -0.03732 0.20526
# Poissons Ratio (z) = 0.54923 0.58718
#
# Static dielectric constant tensor:
#      x y z
#    x 3.713190 0.000000 0.316470 
#    y 0.000000 4.008090 0.000000 
#    z 0.316470 0.000000 3.683280 
# 
# 
# High freq. dielectric constant tensor:
#      x y z
#    x 1.769710 0.000000 0.025130 
#    y 0.000000 1.800020 0.000000 
#    z 0.025130 0.000000 1.768600 
# 
# From -- ./inp_files/48654.got.cif
#   From: 2010.03.12/outbox.cif.g09.slc.cpg/sg14_25_cif.got.tgz:48654.got - 2010.03.31 13:35:05.
