data_PCOD8125106
_publ_section_title
;
Structure prediction by ZEFSAII (Michael W. Deem and Ramdas Pophale) SiO2 
 PCOD8125106
Probable space group: P 21/C
;
_chemical_formula_sum "Si O2"
_cell_formula_units_Z 28
_cell_length_a 8.715114
_cell_length_b 9.320828
_cell_length_c 26.460041
_cell_angle_alpha 90.000000
_cell_angle_beta 41.071387
_cell_angle_gamma 90.000000
_cell_volume 1412.156022
_symmetry_space_group_name_H-M "P 21/C"
_symmetry_group_IT_number 14
_symmetry_cell_setting 'monoclinic'
loop_
_space_group_symop_operation_xyz
x,y,z
-x,1/2+y,1/2-z
-x,-y,-z
x,1/2-y,1/2+z
loop_
_atom_site_type_symbol
_atom_site_label
_atom_site_fract_x
_atom_site_fract_y
_atom_site_fract_z
Si Si1 0.154473 0.465490 0.752268
Si Si2 0.897631 0.524980 0.713053
Si Si3 0.137016 0.771505 0.603837
Si Si4 0.812695 0.428018 0.011957
Si Si5 0.877115 0.222428 0.668300
Si Si6 0.383350 0.360998 0.004605
Si Si7 0.472848 0.724785 0.838411
O O1 0.220086 0.598131 0.771627
O O2 0.392364 0.374285 0.687661
O O3 0.063410 0.523247 0.721149
O O4 0.954808 0.368998 0.827319
O O5 0.851399 0.367116 0.705479
O O6 0.648159 0.593737 0.786704
O O7 0.015621 0.616595 0.638160
O O8 0.079404 0.853457 0.565382
O O9 0.414316 0.741271 0.543507
O O10 0.661546 0.305350 0.076082
O O11 0.670582 0.575462 0.036898
O O12 0.000000 0.500000 0.000000
O O13 0.718520 0.231783 0.658141
O O14 0.150150 0.196803 0.589024
O O15 0.500000 0.500000 0.000000
#
# Coordination Sequence:
#
# PCOD8125106 Si02
#       7
#     4   4   4   4   4   4   4
#     4  11  22  42  67  92 124 172 223 258 320 394
#     4  11  26  41  66  94 131 165 220 271 326 379
#     4  10  22  41  63  95 125 165 213 273 308 387
#     4  11  20  39  68  97 124 171 214 261 327 395
#     4  12  22  42  64  95 128 172 210 275 329 383
#     4  10  20  36  67  88 125 164 219 250 322 384
#     4  11  24  41  65  96 127 167 218 272 324 387
#
# _framework density 19.827838
#
# number of rings (size 3 to 8) (size 9 to 14) (size 15 to 20)
#    0.000    1.143    4.286    3.429    6.000    1.714 
#    0.000    2.143    0.000    0.000    0.000    0.000 
#    0.000    0.000    0.000    0.000    0.000    0.000 
#
# Total GULP energy -346978.764951 kJ/mol
# GULP energy per Si atom -12392.098748 kJ/mol
# Density = 1.978271 g / cm^3
# Si number density = 19.827838 Si / 1000 Ang^3
#
#
#
# Elastic Constant Matrix: (Units=GPa)
#
#
# Indices 1 2 3 4 5 6 
#
# 1 100.1991 9.1175 37.1290 0.0000 -5.3956 0.0000
# 2 9.1175 78.6440 40.5685 0.0000 -5.4901 0.0000
# 3 37.1290 40.5685 99.0824 0.0000 -1.8433 0.0000
# 4 0.0000 0.0000 0.0000 31.3234 0.0000 0.4825
# 5 -5.3956 -5.4901 -1.8433 0.0000 32.8581 0.0000
# 6 0.0000 0.0000 0.0000 0.4825 0.0000 32.8374
#
#
#
# Elastic Compliance Matrix: (Units=1/GPa)
#
#
# Indices 1 2 3 4 5 6 
#
# 1 0.011783 0.001299 -0.004912 0.000000 0.001876 0.000000
# 2 0.001299 0.016443 -0.007172 0.000000 0.002558 0.000000
# 3 -0.004912 -0.007172 0.014848 0.000000 -0.001172 0.000000
# 4 0.000000 0.000000 0.000000 0.031932 0.000000 -0.000469
# 5 0.001876 0.002558 -0.001172 0.000000 0.031104 0.000000
# 6 0.000000 0.000000 0.000000 -0.000469 0.000000 0.030460
#
#
# Mechanical properties :
#
#
# Convention : Reuss Voigt Hill
#
# Bulk Modulus (GPa) = 46.50280 50.17285 48.33783
# Shear Modulus (GPa) = 30.24647 32.14450 31.19549
#
# Velocity S-wave (km/s) = 3.90994 4.03076 3.97081
# Velocity P-wave (km/s) = 6.62478 6.85725 6.74202
#
# Compressibility (1/GPa) = 0.02150408
#
# Stress axis : x y z
#
# Youngs Moduli (GPa) = 84.86589 60.81608 67.34897
#
# Poissons Ratio (x) = -0.07900 0.33085
# Poissons Ratio (y) = -0.11024 0.48300
# Poissons Ratio (z) = 0.41690 0.43615
#
# Static dielectric constant tensor:
#      x y z
#    x 4.092600 0.000000 -0.428990 
#    y 0.000000 3.754020 0.000000 
#    z -0.428990 0.000000 4.175780 
# 
# 
# High freq. dielectric constant tensor:
#      x y z
#    x 1.788040 0.000000 -0.003750 
#    y 0.000000 1.769770 0.000000 
#    z -0.003750 0.000000 1.771600 
# 
# From -- ./inp_files/76308.got.cif
#   From: 2010.03.12/outbox.cif.g09.slc.cpg/sg14_39_cif.got.tgz:76308.got - 2010.03.31 13:35:05.
