data_PCOD8125662
_publ_section_title
;
Structure prediction by ZEFSAII (Michael W. Deem and Ramdas Pophale) SiO2 
 PCOD8125662
Probable space group: P 21/C
;
_chemical_formula_sum "Si O2"
_cell_formula_units_Z 24
_cell_length_a 12.513872
_cell_length_b 9.008407
_cell_length_c 9.910304
_cell_angle_alpha 90.000000
_cell_angle_beta 90.339577
_cell_angle_gamma 90.000000
_cell_volume 1117.169465
_symmetry_space_group_name_H-M "P 21/C"
_symmetry_group_IT_number 14
_symmetry_cell_setting 'monoclinic'
loop_
_space_group_symop_operation_xyz
x,y,z
-x,1/2+y,1/2-z
-x,-y,-z
x,1/2-y,1/2+z
loop_
_atom_site_type_symbol
_atom_site_label
_atom_site_fract_x
_atom_site_fract_y
_atom_site_fract_z
Si Si1 0.542410 0.092512 0.121663
Si Si2 0.864040 0.471616 0.250840
Si Si3 0.779460 0.035401 0.451003
Si Si4 0.073634 0.638582 0.272178
Si Si5 0.761868 0.133123 0.998221
Si Si6 0.441664 0.085069 0.616170
O O1 0.669722 0.097869 0.104107
O O2 0.481390 0.247650 0.128094
O O3 0.518037 0.000919 0.253549
O O4 0.500000 0.000000 0.000000
O O5 0.919028 0.310828 0.268187
O O6 0.770837 0.474235 0.366101
O O7 0.949554 0.598264 0.285484
O O8 0.817599 0.503980 0.102434
O O9 0.876210 0.030774 0.343346
O O10 0.733927 0.202078 0.445825
O O11 0.686575 0.920841 0.406702
O O12 0.128228 0.618634 0.418151
O O13 0.500000 0.000000 0.500000
#
# Coordination Sequence:
#
# PCOD8125662 Si02
#       6
#     4   4   4   4   4   4
#     4  12  27  46  69 101 135 178 231 279 344 411
#     4  10  22  38  67  92 131 177 221 271 337 393
#     4  10  21  39  66  93 130 176 218 275 336 393
#     4  10  20  41  61  92 130 173 222 276 330 397
#     4  10  21  41  65  92 133 177 217 270 342 400
#     4  12  25  44  72  98 137 179 230 281 337 410
#
# _framework density 21.482865
#
# number of rings (size 3 to 8) (size 9 to 14) (size 15 to 20)
#    0.000    1.333    3.333    2.000    2.333    0.000 
#    6.000    0.000    0.000    0.000    0.000    0.000 
#    0.000    0.000    0.000    0.000    0.000    0.000 
#
# Total GULP energy -297586.050161 kJ/mol
# GULP energy per Si atom -12399.418757 kJ/mol
# Density = 2.143397 g / cm^3
# Si number density = 21.482865 Si / 1000 Ang^3
#
#
#
# Elastic Constant Matrix: (Units=GPa)
#
#
# Indices 1 2 3 4 5 6 
#
# 1 87.5377 47.3034 29.2202 0.0000 7.1446 0.0000
# 2 47.3034 108.9405 51.7324 0.0000 6.0780 0.0000
# 3 29.2202 51.7324 144.4607 0.0000 5.9168 0.0000
# 4 0.0000 0.0000 0.0000 33.0200 0.0000 3.0115
# 5 7.1446 6.0780 5.9168 0.0000 37.8950 0.0000
# 6 0.0000 0.0000 0.0000 3.0115 0.0000 32.7685
#
#
#
# Elastic Compliance Matrix: (Units=1/GPa)
#
#
# Indices 1 2 3 4 5 6 
#
# 1 0.015125 -0.006086 -0.000808 0.000000 -0.001749 0.000000
# 2 -0.006086 0.013560 -0.003606 0.000000 -0.000464 0.000000
# 3 -0.000808 -0.003606 0.008401 0.000000 -0.000581 0.000000
# 4 0.000000 0.000000 0.000000 0.030541 0.000000 -0.002807
# 5 -0.001749 -0.000464 -0.000581 0.000000 0.026884 0.000000
# 6 0.000000 0.000000 0.000000 -0.002807 0.000000 0.030775
#
#
# Mechanical properties :
#
#
# Convention : Reuss Voigt Hill
#
# Bulk Modulus (GPa) = 62.16741 66.38342 64.27542
# Shear Modulus (GPa) = 32.97110 34.91556 33.94333
#
# Velocity S-wave (km/s) = 3.92186 4.03584 3.97926
# Velocity P-wave (km/s) = 7.03626 7.25845 7.14822
#
# Compressibility (1/GPa) = 0.01608560
#
# Stress axis : x y z
#
# Youngs Moduli (GPa) = 66.11581 73.74504 119.03495
#
# Poissons Ratio (x) = 0.44882 0.09621
# Poissons Ratio (y) = 0.40238 0.42924
# Poissons Ratio (z) = 0.05344 0.26592
#
# Static dielectric constant tensor:
#      x y z
#    x 3.688740 0.000000 -0.006010 
#    y 0.000000 3.696960 0.000000 
#    z -0.006010 0.000000 4.065830 
# 
# 
# High freq. dielectric constant tensor:
#      x y z
#    x 1.839430 0.000000 -0.001400 
#    y 0.000000 1.820940 0.000000 
#    z -0.001400 0.000000 1.869900 
# 
# From -- ./inp_files/15008.got.cif
#   From: 2010.03.12/outbox.cif.g09.slc.cpg/sg14_8_cif.got.tgz:15008.got - 2010.03.31 13:35:05.
