data_PCOD8125466
_publ_section_title
;
Structure prediction by ZEFSAII (Michael W. Deem and Ramdas Pophale) SiO2 
 PCOD8125466
Probable space group: P 21/C
;
_chemical_formula_sum "Si O2"
_cell_formula_units_Z 24
_cell_length_a 10.768346
_cell_length_b 16.530828
_cell_length_c 16.080785
_cell_angle_alpha 90.000000
_cell_angle_beta 155.030297
_cell_angle_gamma 90.000000
_cell_volume 1208.387692
_symmetry_space_group_name_H-M "P 21/C"
_symmetry_group_IT_number 14
_symmetry_cell_setting 'monoclinic'
loop_
_space_group_symop_operation_xyz
x,y,z
-x,1/2+y,1/2-z
-x,-y,-z
x,1/2-y,1/2+z
loop_
_atom_site_type_symbol
_atom_site_label
_atom_site_fract_x
_atom_site_fract_y
_atom_site_fract_z
Si Si1 0.483674 0.805111 0.952703
Si Si2 0.509896 0.205438 0.379072
Si Si3 0.863219 0.166631 0.001057
Si Si4 0.962954 0.415027 0.737296
Si Si5 0.950909 0.096851 0.736558
Si Si6 0.394679 0.640257 0.822158
O O1 0.254984 0.878161 0.826085
O O2 0.355157 0.736969 0.812867
O O3 0.545813 0.765510 0.078801
O O4 0.789119 0.838010 0.102952
O O5 0.693307 0.249635 0.418012
O O6 0.691429 0.126694 0.517987
O O7 0.182043 0.180822 0.151805
O O8 0.887327 0.112503 0.097973
O O9 0.672589 0.120368 0.814927
O O10 0.934025 0.511237 0.726096
O O11 0.282256 0.385552 0.955983
O O12 0.828770 0.089342 0.756003
#
# Coordination Sequence:
#
# PCOD8125466 Si02
#       6
#     4   4   4   4   4   4
#     4  10  20  40  62  86 115 159 201 237 290 353
#     4  10  20  39  62  86 117 156 199 244 288 344
#     4  11  23  38  62  88 119 157 202 244 291 346
#     4  11  23  41  60  89 124 154 193 247 300 350
#     4  11  21  40  63  87 124 157 190 247 302 347
#     4  11  23  38  64  88 116 155 207 240 288 352
#
# _framework density 19.861176
#
# number of rings (size 3 to 8) (size 9 to 14) (size 15 to 20)
#    0.000    1.333    5.000    3.000    4.667    0.667 
#    0.000    0.000    0.000    4.000    0.000    0.000 
#    0.000    0.000    0.000    0.000    0.000    0.000 
#
# Total GULP energy -297620.644606 kJ/mol
# GULP energy per Si atom -12400.860192 kJ/mol
# Density = 1.981597 g / cm^3
# Si number density = 19.861176 Si / 1000 Ang^3
#
#
#
# Elastic Constant Matrix: (Units=GPa)
#
#
# Indices 1 2 3 4 5 6 
#
# 1 28.4921 -2.3847 49.2832 0.0000 1.3964 0.0000
# 2 -2.3847 68.6987 9.9281 0.0000 -2.3783 0.0000
# 3 49.2832 9.9281 73.7590 0.0000 -3.6364 0.0000
# 4 0.0000 0.0000 0.0000 14.7363 0.0000 9.4138
# 5 1.3964 -2.3783 -3.6364 0.0000 35.1165 0.0000
# 6 0.0000 0.0000 0.0000 9.4138 0.0000 21.6182
#
#
#
# Elastic Compliance Matrix: (Units=1/GPa)
#
#
# Indices 1 2 3 4 5 6 
#
# 1 -0.166376 -0.021796 0.114940 0.000000 0.017042 0.000000
# 2 -0.021796 0.012012 0.013096 0.000000 0.003036 0.000000
# 3 0.114940 0.013096 -0.065520 0.000000 -0.010468 0.000000
# 4 0.000000 0.000000 0.000000 0.094011 0.000000 -0.040938
# 5 0.017042 0.003036 -0.010468 0.000000 0.026921 0.000000
# 6 0.000000 0.000000 0.000000 -0.040938 0.000000 0.064084
#
#
# Mechanical properties :
#
#
# Convention : Reuss Voigt Hill
#
# Bulk Modulus (GPa) = -135.08267 31.62255 -51.73006
# Shear Modulus (GPa) = -20.01468 21.90241 0.94387
#
# Velocity S-wave (km/s) = -3.17792 3.32441 0.69012
# Velocity P-wave (km/s) = 9.03475 5.54003 5.04652
#
# Compressibility (1/GPa) = -0.00740287
#
# Stress axis : x y z
#
# Youngs Moduli (GPa) = -6.01049 83.24850 -15.26246
#
# Poissons Ratio (x) = 1.81449 1.75427
# Poissons Ratio (y) = -0.13100 0.19988
# Poissons Ratio (z) = 0.69085 -1.09024
#
# Static dielectric constant tensor:
#      x y z
#    x 3.618210 0.000000 0.241450 
#    y 0.000000 3.592400 0.000000 
#    z 0.241450 0.000000 3.632920 
# 
# 
# High freq. dielectric constant tensor:
#      x y z
#    x 1.766290 0.000000 0.018840 
#    y 0.000000 1.762770 0.000000 
#    z 0.018840 0.000000 1.778930 
# 
# From -- ./inp_files/8522.got.cif
#   From: 2010.03.12/outbox.cif.g09.slc.cpg/sg14_5_cif.got.tgz:8522.got - 2010.03.31 13:35:05.
