data_PCOD8125758
_publ_section_title
;
Structure prediction by ZEFSAII (Michael W. Deem and Ramdas Pophale) SiO2 
 PCOD8125758
Probable space group: P 21/C
;
_chemical_formula_sum "Si O2"
_cell_formula_units_Z 28
_cell_length_a 11.961739
_cell_length_b 9.277004
_cell_length_c 22.292526
_cell_angle_alpha 90.000000
_cell_angle_beta 29.957762
_cell_angle_gamma 90.000000
_cell_volume 1235.311114
_symmetry_space_group_name_H-M "P 21/C"
_symmetry_group_IT_number 14
_symmetry_cell_setting 'monoclinic'
loop_
_space_group_symop_operation_xyz
x,y,z
-x,1/2+y,1/2-z
-x,-y,-z
x,1/2-y,1/2+z
loop_
_atom_site_type_symbol
_atom_site_label
_atom_site_fract_x
_atom_site_fract_y
_atom_site_fract_z
Si Si1 0.021701 0.390088 0.664139
Si Si2 0.617577 0.245371 0.541667
Si Si3 0.323104 0.935645 0.319260
Si Si4 0.202204 0.852124 0.158217
Si Si5 0.302862 0.441266 0.260645
Si Si6 0.459346 0.435221 0.400169
Si Si7 0.994445 0.804695 0.558270
O O1 0.969461 0.255138 0.730165
O O2 0.816555 0.420912 0.713831
O O3 0.063751 0.532496 0.684177
O O4 0.241343 0.347791 0.523602
O O5 0.632889 0.262754 0.462727
O O6 0.400169 0.153634 0.660342
O O7 0.605461 0.398898 0.581211
O O8 0.846862 0.170003 0.457797
O O9 0.496884 0.990420 0.288962
O O10 0.453580 0.864932 0.202339
O O11 0.150626 0.817264 0.426078
O O12 0.193158 0.073198 0.354322
O O13 0.351106 0.934220 0.137266
O O14 0.123820 0.350519 0.383066
#
# Coordination Sequence:
#
# PCOD8125758 Si02
#       7
#     4   4   4   4   4   4   4
#     4  11  26  45  69 102 133 190 223 287 345 403
#     4  10  21  41  72  96 132 186 224 277 345 412
#     4  10  24  38  68 100 136 176 227 286 333 413
#     4  11  26  42  71 101 141 175 235 280 340 409
#     4  11  22  41  72  99 135 178 235 271 351 404
#     4  11  23  43  67 101 137 177 227 282 340 403
#     4  10  20  42  65  99 131 181 224 276 343 406
#
# _framework density 22.666356
#
# number of rings (size 3 to 8) (size 9 to 14) (size 15 to 20)
#    0.000    1.429    4.286    1.714    6.000    3.429 
#    0.000    0.000    0.000    0.000    0.000    0.000 
#    0.000    0.000    0.000    0.000    0.000    0.000 
#
# Total GULP energy -347260.608719 kJ/mol
# GULP energy per Si atom -12402.164597 kJ/mol
# Density = 2.261477 g / cm^3
# Si number density = 22.666356 Si / 1000 Ang^3
#
#
#
# Elastic Constant Matrix: (Units=GPa)
#
#
# Indices 1 2 3 4 5 6 
#
# 1 114.8730 21.5297 43.1190 0.0000 -1.2839 0.0000
# 2 21.5297 46.5777 35.8527 0.0000 0.7064 0.0000
# 3 43.1190 35.8527 154.6066 0.0000 11.1301 0.0000
# 4 0.0000 0.0000 0.0000 24.4893 0.0000 -2.5067
# 5 -1.2839 0.7064 11.1301 0.0000 36.7229 0.0000
# 6 0.0000 0.0000 0.0000 -2.5067 0.0000 34.5117
#
#
#
# Elastic Compliance Matrix: (Units=1/GPa)
#
#
# Indices 1 2 3 4 5 6 
#
# 1 0.010105 -0.002992 -0.002202 0.000000 0.001078 0.000000
# 2 -0.002992 0.027088 -0.005522 0.000000 0.001048 0.000000
# 3 -0.002202 -0.005522 0.008547 0.000000 -0.002561 0.000000
# 4 0.000000 0.000000 0.000000 0.041140 0.000000 0.002988
# 5 0.001078 0.001048 -0.002561 0.000000 0.028025 0.000000
# 6 0.000000 0.000000 0.000000 0.002988 0.000000 0.029193
#
#
# Mechanical properties :
#
#
# Convention : Reuss Voigt Hill
#
# Bulk Modulus (GPa) = 41.14158 57.45112 49.29635
# Shear Modulus (GPa) = 28.79657 33.51519 31.15588
#
# Velocity S-wave (km/s) = 3.56821 3.84947 3.71151
# Velocity P-wave (km/s) = 5.93014 6.72007 6.33742
#
# Compressibility (1/GPa) = 0.02430631
#
# Stress axis : x y z
#
# Youngs Moduli (GPa) = 98.96468 36.91739 116.99820
#
# Poissons Ratio (x) = 0.11046 0.25762
# Poissons Ratio (y) = 0.29612 0.64612
# Poissons Ratio (z) = 0.21791 0.20387
#
# Static dielectric constant tensor:
#      x y z
#    x 4.041670 0.000000 0.002100 
#    y 0.000000 3.688700 0.000000 
#    z 0.002100 0.000000 4.446000 
# 
# 
# High freq. dielectric constant tensor:
#      x y z
#    x 1.897620 0.000000 -0.003680 
#    y 0.000000 1.862110 0.000000 
#    z -0.003680 0.000000 1.912410 
# 
# From -- ./inp_files/67317.got.cif
#   From: 2010.03.12/outbox.cif.g09.slc.cpg/sg14_34_cif.got.tgz:67317.got - 2010.03.31 13:35:05.
