data_PCOD8125144
_publ_section_title
;
Structure prediction by ZEFSAII (Michael W. Deem and Ramdas Pophale) SiO2 
 PCOD8125144
Probable space group: P 21/C
;
_chemical_formula_sum "Si O2"
_cell_formula_units_Z 24
_cell_length_a 9.777069
_cell_length_b 14.074855
_cell_length_c 17.404615
_cell_angle_alpha 90.000000
_cell_angle_beta 153.114104
_cell_angle_gamma 90.000000
_cell_volume 1083.084042
_symmetry_space_group_name_H-M "P 21/C"
_symmetry_group_IT_number 14
_symmetry_cell_setting 'monoclinic'
loop_
_space_group_symop_operation_xyz
x,y,z
-x,1/2+y,1/2-z
-x,-y,-z
x,1/2-y,1/2+z
loop_
_atom_site_type_symbol
_atom_site_label
_atom_site_fract_x
_atom_site_fract_y
_atom_site_fract_z
Si Si1 0.945114 0.864001 0.131654
Si Si2 0.944710 0.863758 0.311368
Si Si3 0.467628 0.275733 0.145973
Si Si4 0.187539 0.055656 0.428233
Si Si5 0.468162 0.274781 0.823172
Si Si6 0.187797 0.055754 0.258610
O O1 0.011496 0.852509 0.254878
O O2 0.202257 0.807745 0.213956
O O3 0.941346 0.976743 0.108227
O O4 0.623552 0.819255 0.946898
O O5 0.201542 0.807403 0.486655
O O6 0.623109 0.818913 0.173713
O O7 0.941294 0.976420 0.331417
O O8 0.463861 0.251977 0.232833
O O9 0.215801 0.357534 0.002061
O O10 0.107374 0.096787 0.303197
O O11 0.500317 0.000181 0.579763
O O12 0.217261 0.357316 0.713842
#
# Coordination Sequence:
#
# PCOD8125144 Si02
#       6
#     4   4   4   4   4   4
#     4  10  20  37  59  78 103 144 185 216 255 317
#     4  10  20  37  59  78 103 144 185 216 255 317
#     4  11  21  34  54  82 111 136 173 225 272 310
#     4   8  16  33  55  75 102 145 182 205 253 330
#     4  11  21  34  54  82 111 136 173 225 272 310
#     4   8  16  33  55  75 102 145 182 205 253 330
#
# _framework density 22.158946
#
# number of rings (size 3 to 8) (size 9 to 14) (size 15 to 20)
#    0.000    2.333    0.000    6.000    0.000    1.333 
#    0.000    5.000    0.000    6.000    0.000    0.000 
#    0.000    0.000    0.000    0.000    0.000    0.000 
#
# Total GULP energy -297490.154140 kJ/mol
# GULP energy per Si atom -12395.423089 kJ/mol
# Density = 2.210851 g / cm^3
# Si number density = 22.158946 Si / 1000 Ang^3
#
#
#
# Elastic Constant Matrix: (Units=GPa)
#
#
# Indices 1 2 3 4 5 6 
#
# 1 70.2608 31.9211 38.4047 0.0000 -41.0588 0.0000
# 2 31.9211 52.0023 13.2652 0.0000 -26.1811 0.0000
# 3 38.4047 13.2652 26.7479 0.0000 -21.1409 0.0000
# 4 0.0000 0.0000 0.0000 32.9050 0.0000 2.2719
# 5 -41.0588 -26.1811 -21.1409 0.0000 28.5283 0.0000
# 6 0.0000 0.0000 0.0000 2.2719 0.0000 30.6990
#
#
#
# Elastic Compliance Matrix: (Units=1/GPa)
#
#
# Indices 1 2 3 4 5 6 
#
# 1 0.186888 0.010202 -0.128901 0.000000 0.182815 0.000000
# 2 0.010202 0.041245 0.015495 0.000000 0.064017 0.000000
# 3 -0.128901 0.015495 0.191624 0.000000 -0.029295 0.000000
# 4 0.000000 0.000000 0.000000 0.030547 0.000000 -0.002261
# 5 0.182815 0.064017 -0.029295 0.000000 0.335206 0.000000
# 6 0.000000 0.000000 0.000000 -0.002261 0.000000 0.032742
#
#
# Mechanical properties :
#
#
# Convention : Reuss Voigt Hill
#
# Bulk Modulus (GPa) = 4.68717 35.13255 19.90986
# Shear Modulus (GPa) = 4.56298 22.78781 13.67539
#
# Velocity S-wave (km/s) = 1.43655 3.21031 2.48695
# Velocity P-wave (km/s) = 2.20713 5.44341 4.15344
#
# Compressibility (1/GPa) = 0.21334851
#
# Stress axis : x y z
#
# Youngs Moduli (GPa) = 5.35081 24.24535 5.21856
#
# Poissons Ratio (x) = -0.24735 0.67268
# Poissons Ratio (y) = -0.05459 -0.08086
# Poissons Ratio (z) = 0.68972 -0.37567
#
# Static dielectric constant tensor:
#      x y z
#    x 3.741510 0.000000 -0.024250 
#    y 0.000000 4.797970 0.000000 
#    z -0.024250 0.000000 3.722120 
# 
# 
# High freq. dielectric constant tensor:
#      x y z
#    x 1.853670 0.000000 -0.007160 
#    y 0.000000 1.886860 0.000000 
#    z -0.007160 0.000000 1.848620 
# 
# From -- ./inp_files/41072.got.cif
#   From: 2010.03.12/outbox.cif.g09.slc.cpg/sg14_21_cif.got.tgz:41072.got - 2010.03.31 13:35:05.
