data_PCOD8125778
_publ_section_title
;
Structure prediction by ZEFSAII (Michael W. Deem and Ramdas Pophale) SiO2 
 PCOD8125778
Probable space group: P 21/C
;
_chemical_formula_sum "Si O2"
_cell_formula_units_Z 28
_cell_length_a 19.140442
_cell_length_b 5.286437
_cell_length_c 14.370592
_cell_angle_alpha 90.000000
_cell_angle_beta 127.969138
_cell_angle_gamma 90.000000
_cell_volume 1146.316363
_symmetry_space_group_name_H-M "P 21/C"
_symmetry_group_IT_number 14
_symmetry_cell_setting 'monoclinic'
loop_
_space_group_symop_operation_xyz
x,y,z
-x,1/2+y,1/2-z
-x,-y,-z
x,1/2-y,1/2+z
loop_
_atom_site_type_symbol
_atom_site_label
_atom_site_fract_x
_atom_site_fract_y
_atom_site_fract_z
Si Si1 0.708038 0.257580 0.961214
Si Si2 0.926812 0.676450 0.785325
Si Si3 0.197751 0.483964 0.618075
Si Si4 0.520668 0.437985 0.317434
Si Si5 0.772281 0.150937 0.206889
Si Si6 0.029677 0.181283 0.892383
Si Si7 0.345387 0.092577 0.749683
O O1 0.784777 0.126712 0.964425
O O2 0.624961 0.080397 0.924232
O O3 0.674841 0.496058 0.873321
O O4 0.754615 0.314136 0.098485
O O5 0.824553 0.615613 0.731530
O O6 0.930454 0.674741 0.677710
O O7 0.981000 0.442236 0.871694
O O8 0.965490 0.939055 0.857153
O O9 0.170155 0.669079 0.679243
O O10 0.111969 0.309290 0.531995
O O11 0.289552 0.345454 0.718499
O O12 0.500239 0.731189 0.279548
O O13 0.451646 0.361538 0.344166
O O14 0.681872 0.099134 0.190631
#
# Coordination Sequence:
#
# PCOD8125778 Si02
#       7
#     4   4   4   4   4   4   4
#     4  10  22  43  68  93 134 183 216 278 337 397
#     4  10  23  42  64  97 127 175 223 277 335 400
#     4  11  23  42  65  97 132 175 222 276 332 404
#     4  10  20  42  70  97 133 182 227 269 338 398
#     4  11  25  41  65 101 134 170 227 274 338 400
#     4  10  23  41  68  91 130 175 226 273 333 403
#     4  10  24  41  67  99 134 173 227 276 332 408
#
# _framework density 24.426068000000001
#
# number of rings (size 3 to 8) (size 9 to 14) (size 15 to 20)
#    0.000    1.714    2.857    0.000    6.000    4.000 
#    0.000    0.714    0.000    0.000    0.000    0.000 
#    0.000    0.000    0.000    0.000    0.000    0.000 
#
# Total GULP energy -346940.195966 kJ/mol
# GULP energy per Si atom -12390.721285 kJ/mol
# Density = 2.437047 g / cm^3
# Si number density = 24.426068 Si / 1000 Ang^3
#
#
#
# Elastic Constant Matrix: (Units=GPa)
#
#
# Indices 1 2 3 4 5 6 
#
# 1 127.9063 7.9550 27.3889 0.0000 -7.3082 0.0000
# 2 7.9550 64.4993 2.4047 0.0000 -14.7771 0.0000
# 3 27.3889 2.4047 74.1929 0.0000 -16.7670 0.0000
# 4 0.0000 0.0000 0.0000 17.8440 0.0000 8.3866
# 5 -7.3082 -14.7771 -16.7670 0.0000 29.4005 0.0000
# 6 0.0000 0.0000 0.0000 8.3866 0.0000 36.6876
#
#
#
# Elastic Compliance Matrix: (Units=1/GPa)
#
#
# Indices 1 2 3 4 5 6 
#
# 1 0.008546 -0.000975 -0.003161 0.000000 -0.000169 0.000000
# 2 -0.000975 0.017807 0.002010 0.000000 0.009854 0.000000
# 3 -0.003161 0.002010 0.016796 0.000000 0.009803 0.000000
# 4 0.000000 0.000000 0.000000 0.062787 0.000000 -0.014353
# 5 -0.000169 0.009854 0.009803 0.000000 0.044514 0.000000
# 6 0.000000 0.000000 0.000000 -0.014353 0.000000 0.030538
#
#
# Mechanical properties :
#
#
# Convention : Reuss Voigt Hill
#
# Bulk Modulus (GPa) = 25.70993 38.01065 31.86029
# Shear Modulus (GPa) = 25.22625 32.04308 28.63467
#
# Velocity S-wave (km/s) = 3.21714 3.62586 3.42760
# Velocity P-wave (km/s) = 4.93442 5.75538 5.36064
#
# Compressibility (1/GPa) = 0.03889547
#
# Stress axis : x y z
#
# Youngs Moduli (GPa) = 117.01145 56.15804 59.53939
#
# Poissons Ratio (x) = 0.05474 0.18823
# Poissons Ratio (y) = 0.11406 -0.11965
# Poissons Ratio (z) = 0.36992 -0.11285
#
# Static dielectric constant tensor:
#      x y z
#    x 4.938780 0.000000 0.106370 
#    y 0.000000 4.277280 0.000000 
#    z 0.106370 0.000000 4.084150 
# 
# 
# High freq. dielectric constant tensor:
#      x y z
#    x 2.004170 0.000000 -0.000670 
#    y 0.000000 1.959870 0.000000 
#    z -0.000670 0.000000 1.936130 
# 
# From -- ./inp_files/48036.got.cif
#   From: 2010.03.12/outbox.cif.g09.slc.cpg/sg14_25_cif.got.tgz:48036.got - 2010.03.31 13:35:05.
