data_PCOD8125665
_publ_section_title
;
Structure prediction by ZEFSAII (Michael W. Deem and Ramdas Pophale) SiO2 
 PCOD8125665
Probable space group: P 21/C
;
_chemical_formula_sum "Si O2"
_cell_formula_units_Z 32
_cell_length_a 5.327805
_cell_length_b 15.152059
_cell_length_c 18.043825
_cell_angle_alpha 90.000000
_cell_angle_beta 93.606977
_cell_angle_gamma 90.000000
_cell_volume 1453.742282
_symmetry_space_group_name_H-M "P 21/C"
_symmetry_group_IT_number 14
_symmetry_cell_setting 'monoclinic'
loop_
_space_group_symop_operation_xyz
x,y,z
-x,1/2+y,1/2-z
-x,-y,-z
x,1/2-y,1/2+z
loop_
_atom_site_type_symbol
_atom_site_label
_atom_site_fract_x
_atom_site_fract_y
_atom_site_fract_z
Si Si1 0.227191 0.888793 0.583853
Si Si2 0.304802 0.232439 0.049809
Si Si3 0.795573 0.165460 0.578070
Si Si4 0.408048 0.432435 0.641240
Si Si5 0.141205 0.233025 0.885692
Si Si6 0.099171 0.038362 0.837424
Si Si7 0.980874 0.480982 0.177932
Si Si8 0.362297 0.363722 0.793117
O O1 0.255663 0.892197 0.496382
O O2 0.485914 0.892559 0.631957
O O3 0.092595 0.798179 0.605763
O O4 0.107488 0.982457 0.605498
O O5 0.550546 0.276793 0.089798
O O6 0.321922 0.130036 0.072411
O O7 0.047786 0.275380 0.076465
O O8 0.321539 0.240862 0.961085
O O9 0.810467 0.100711 0.648930
O O10 0.657957 0.487873 0.623878
O O11 0.486909 0.370646 0.714130
O O12 0.168477 0.493701 0.651514
O O13 0.061381 0.132589 0.875629
O O14 0.271484 0.264470 0.810971
O O15 0.154971 0.051283 0.750003
O O16 0.856224 0.564946 0.214331
#
# Coordination Sequence:
#
# PCOD8125665 Si02
#       8
#     4   4   4   4   4   4   4   4
#     4  10  20  41  62  90 132 166 199 261 322 371
#     4  11  25  43  63  95 129 166 213 258 315 367
#     4  11  24  39  65  97 126 165 210 256 311 386
#     4  11  25  44  64  93 129 165 209 268 316 359
#     4  10  24  41  65  94 124 169 213 256 313 378
#     4  11  25  42  66  94 123 167 219 256 308 376
#     4  10  23  39  60  98 126 163 211 257 313 380
#     4  10  21  41  66  87 134 164 203 260 322 368
#
# _framework density 22.012153999999999
#
# number of rings (size 3 to 8) (size 9 to 14) (size 15 to 20)
#    0.000    1.500    2.500    1.125    5.250    2.500 
#    0.000    0.000    0.000    0.000    0.000    0.000 
#    0.000    0.000    0.000    0.000    0.000    0.000 
#
# Total GULP energy -396482.611797 kJ/mol
# GULP energy per Si atom -12390.081619 kJ/mol
# Density = 2.196205 g / cm^3
# Si number density = 22.012154 Si / 1000 Ang^3
#
#
#
# Elastic Constant Matrix: (Units=GPa)
#
#
# Indices 1 2 3 4 5 6 
#
# 1 75.2366 6.7594 7.8847 0.0000 19.8773 0.0000
# 2 6.7594 89.0897 33.6097 0.0000 8.3909 0.0000
# 3 7.8847 33.6097 50.3573 0.0000 6.3493 0.0000
# 4 0.0000 0.0000 0.0000 32.8620 0.0000 13.1610
# 5 19.8773 8.3909 6.3493 0.0000 24.8078 0.0000
# 6 0.0000 0.0000 0.0000 13.1610 0.0000 21.8392
#
#
#
# Elastic Compliance Matrix: (Units=1/GPa)
#
#
# Indices 1 2 3 4 5 6 
#
# 1 0.016920 0.000454 -0.001264 0.000000 -0.013387 0.000000
# 2 0.000454 0.015178 -0.009825 0.000000 -0.002983 0.000000
# 3 -0.001264 -0.009825 0.026936 0.000000 -0.002558 0.000000
# 4 0.000000 0.000000 0.000000 0.040111 0.000000 -0.024172
# 5 -0.013387 -0.002983 -0.002558 0.000000 0.052700 0.000000
# 6 0.000000 0.000000 0.000000 -0.024172 0.000000 0.060356
#
#
# Mechanical properties :
#
#
# Convention : Reuss Voigt Hill
#
# Bulk Modulus (GPa) = 26.48086 34.57680 30.52883
# Shear Modulus (GPa) = 20.32034 26.99714 23.65874
#
# Velocity S-wave (km/s) = 3.04162 3.50589 3.28198
# Velocity P-wave (km/s) = 4.93878 5.66838 5.31611
#
# Compressibility (1/GPa) = 0.03776312
#
# Stress axis : x y z
#
# Youngs Moduli (GPa) = 59.10177 65.88636 37.12509
#
# Poissons Ratio (x) = -0.02992 0.04694
# Poissons Ratio (y) = -0.02684 0.36475
# Poissons Ratio (z) = 0.07473 0.64733
#
# Static dielectric constant tensor:
#      x y z
#    x 3.807420 0.000000 0.022270 
#    y 0.000000 3.978820 0.000000 
#    z 0.022270 0.000000 4.197710 
# 
# 
# High freq. dielectric constant tensor:
#      x y z
#    x 1.852920 0.000000 0.011290 
#    y 0.000000 1.865790 0.000000 
#    z 0.011290 0.000000 1.870900 
# 
# From -- ./inp_files/53507.got.cif
#   From: 2010.03.12/outbox.cif.g09.slc.cpg/sg14_27_cif.got.tgz:53507.got - 2010.03.31 13:35:05.
