data_PCOD8125853
_publ_section_title
;
Structure prediction by ZEFSAII (Michael W. Deem and Ramdas Pophale) SiO2 
 PCOD8125853
Probable space group: P 21/C
;
_chemical_formula_sum "Si O2"
_cell_formula_units_Z 32
_cell_length_a 9.770648
_cell_length_b 18.556638
_cell_length_c 9.059828
_cell_angle_alpha 90.000000
_cell_angle_beta 82.791706
_cell_angle_gamma 90.000000
_cell_volume 1629.658306
_symmetry_space_group_name_H-M "P 21/C"
_symmetry_group_IT_number 14
_symmetry_cell_setting 'monoclinic'
loop_
_space_group_symop_operation_xyz
x,y,z
-x,1/2+y,1/2-z
-x,-y,-z
x,1/2-y,1/2+z
loop_
_atom_site_type_symbol
_atom_site_label
_atom_site_fract_x
_atom_site_fract_y
_atom_site_fract_z
Si Si1 0.809613 0.759311 0.251806
Si Si2 0.503594 0.864802 0.061133
Si Si3 0.947450 0.662735 0.465053
Si Si4 0.626860 0.707450 0.040333
Si Si5 0.597098 0.086331 0.384331
Si Si6 0.394053 0.968287 0.307070
Si Si7 0.755061 0.391691 0.590516
Si Si8 0.750637 0.962893 0.927610
O O1 0.921809 0.722437 0.342920
O O2 0.702068 0.801705 0.372304
O O3 0.881921 0.815841 0.131667
O O4 0.731789 0.697384 0.165019
O O5 0.452990 0.896123 0.223645
O O6 0.576568 0.788983 0.071301
O O7 0.373315 0.854030 0.972459
O O8 0.609249 0.920984 0.975847
O O9 0.882908 0.588060 0.416904
O O10 0.109902 0.654328 0.464937
O O11 0.504005 0.651706 0.063501
O O12 0.661257 0.053056 0.524301
O O13 0.725772 0.112978 0.269775
O O14 0.516406 0.026023 0.302991
O O15 0.266011 0.000909 0.231902
O O16 0.773639 0.474607 0.543431
#
# Coordination Sequence:
#
# PCOD8125853 Si02
#       8
#     4   4   4   4   4   4   4   4
#     4  10  21  39  59  86 120 162 205 250 306 364
#     4  11  19  39  65  89 118 159 214 257 299 365
#     4  11  24  40  63  86 124 165 204 246 307 373
#     4  11  21  36  64  93 116 159 215 259 302 365
#     4  11  21  34  57  95 127 150 195 261 318 346
#     4  10  21  35  59  90 124 157 195 258 309 349
#     4  11  23  38  60  91 123 162 199 251 314 366
#     4  11  19  42  64  85 116 166 215 242 290 381
#
# _framework density 19.636016000000001
#
# number of rings (size 3 to 8) (size 9 to 14) (size 15 to 20)
#    0.000    1.250    5.000    3.375    0.000    1.000 
#    0.000    6.875    0.000    0.000    0.000    0.000 
#    0.000    0.000    0.000    0.000    0.000    0.000 
#
# Total GULP energy -396830.786854 kJ/mol
# GULP energy per Si atom -12400.962089 kJ/mol
# Density = 1.959132 g / cm^3
# Si number density = 19.636016 Si / 1000 Ang^3
#
#
#
# Elastic Constant Matrix: (Units=GPa)
#
#
# Indices 1 2 3 4 5 6 
#
# 1 86.9637 33.6505 38.7716 0.0000 -3.8730 0.0000
# 2 33.6505 84.2755 40.2765 0.0000 0.0016 0.0000
# 3 38.7716 40.2765 132.6931 0.0000 -2.9505 0.0000
# 4 0.0000 0.0000 0.0000 19.1073 0.0000 1.0548
# 5 -3.8730 0.0016 -2.9505 0.0000 23.3627 0.0000
# 6 0.0000 0.0000 0.0000 1.0548 0.0000 20.6870
#
#
#
# Elastic Compliance Matrix: (Units=1/GPa)
#
#
# Indices 1 2 3 4 5 6 
#
# 1 0.014593 -0.004458 -0.002865 0.000000 0.002058 0.000000
# 2 -0.004458 0.015247 -0.003351 0.000000 -0.001163 0.000000
# 3 -0.002865 -0.003351 0.009406 0.000000 0.000713 0.000000
# 4 0.000000 0.000000 0.000000 0.052484 0.000000 -0.002676
# 5 0.002058 -0.001163 0.000713 0.000000 0.043235 0.000000
# 6 0.000000 0.000000 0.000000 -0.002676 0.000000 0.048476
#
#
# Mechanical properties :
#
#
# Convention : Reuss Voigt Hill
#
# Bulk Modulus (GPa) = 55.87071 58.81439 57.34255
# Shear Modulus (GPa) = 23.72414 25.38030 24.55222
#
# Velocity S-wave (km/s) = 3.47968 3.59909 3.53989
# Velocity P-wave (km/s) = 6.68275 6.87667 6.78040
#
# Compressibility (1/GPa) = 0.01789847
#
# Stress axis : x y z
#
# Youngs Moduli (GPa) = 68.52629 65.58467 106.30948
#
# Poissons Ratio (x) = 0.29235 0.30459
# Poissons Ratio (y) = 0.30546 0.35630
# Poissons Ratio (z) = 0.19634 0.21981
#
# Static dielectric constant tensor:
#      x y z
#    x 3.393930 0.000000 0.108770 
#    y 0.000000 3.591980 0.000000 
#    z 0.108770 0.000000 3.752240 
# 
# 
# High freq. dielectric constant tensor:
#      x y z
#    x 1.743520 0.000000 0.011900 
#    y 0.000000 1.760760 0.000000 
#    z 0.011900 0.000000 1.779750 
# 
# From -- ./inp_files/10194.got.cif
#   From: 2010.03.12/outbox.cif.g09.slc.cpg/sg14_6_cif.got.tgz:10194.got - 2010.03.31 13:35:05.
