data_PCOD8125412
_publ_section_title
;
Structure prediction by ZEFSAII (Michael W. Deem and Ramdas Pophale) SiO2 
 PCOD8125412
Probable space group: P 21/C
;
_chemical_formula_sum "Si O2"
_cell_formula_units_Z 28
_cell_length_a 9.095759
_cell_length_b 8.329337
_cell_length_c 21.663425
_cell_angle_alpha 90.000000
_cell_angle_beta 131.158729
_cell_angle_gamma 90.000000
_cell_volume 1235.684368
_symmetry_space_group_name_H-M "P 21/C"
_symmetry_group_IT_number 14
_symmetry_cell_setting 'monoclinic'
loop_
_space_group_symop_operation_xyz
x,y,z
-x,1/2+y,1/2-z
-x,-y,-z
x,1/2-y,1/2+z
loop_
_atom_site_type_symbol
_atom_site_label
_atom_site_fract_x
_atom_site_fract_y
_atom_site_fract_z
Si Si1 0.002270 0.343009 0.343206
Si Si2 0.775748 0.000892 0.453747
Si Si3 0.665154 0.133686 0.545283
Si Si4 0.569834 0.989989 0.183517
Si Si5 0.018304 0.485953 0.780659
Si Si6 0.634289 0.669417 0.475038
Si Si7 0.362560 0.791566 0.690706
O O1 0.192337 0.394473 0.433999
O O2 0.933881 0.488429 0.279238
O O3 0.839398 0.298241 0.348510
O O4 0.056547 0.195451 0.312677
O O5 0.748488 0.137694 0.498920
O O6 0.665151 0.055463 0.361595
O O7 0.699521 0.828332 0.455398
O O8 0.000000 0.000000 0.500000
O O9 0.840861 0.100832 0.641201
O O10 0.558123 0.297205 0.536237
O O11 0.500000 0.000000 0.500000
O O12 0.511040 0.826725 0.199616
O O13 0.794027 0.966078 0.227615
O O14 0.427023 0.025046 0.086836
O O15 0.542553 0.142426 0.220697
#
# Coordination Sequence:
#
# PCOD8125412 Si02
#       7
#     4   4   4   4   4   4   4
#     4  11  24  44  67  95 137 171 230 277 336 401
#     4  11  20  41  71  95 134 176 226 274 333 403
#     4  10  20  38  69  92 125 176 227 265 329 397
#     4  11  26  43  67  99 141 174 226 279 342 401
#     4  11  23  44  66  96 131 177 222 281 330 400
#     4  11  23  45  67 102 133 177 227 284 327 407
#     4  11  24  45  65 101 134 182 218 279 341 405
#
# _framework density 22.659507999999999
#
# number of rings (size 3 to 8) (size 9 to 14) (size 15 to 20)
#    0.000    1.143    4.286    3.429    2.000    3.429 
#    2.571    0.000    0.000    0.000    0.000    0.000 
#    0.000    0.000    0.000    0.000    0.000    0.000 
#
# Total GULP energy -347208.495645 kJ/mol
# GULP energy per Si atom -12400.303416 kJ/mol
# Density = 2.260793 g / cm^3
# Si number density = 22.659508 Si / 1000 Ang^3
#
#
#
# Elastic Constant Matrix: (Units=GPa)
#
#
# Indices 1 2 3 4 5 6 
#
# 1 84.9938 4.4063 21.3677 0.0000 -14.1971 0.0000
# 2 4.4063 15.2968 0.1203 0.0000 2.1756 0.0000
# 3 21.3677 0.1203 145.6835 0.0000 1.2302 0.0000
# 4 0.0000 0.0000 0.0000 33.4735 0.0000 -15.2271
# 5 -14.1971 2.1756 1.2302 0.0000 31.0588 0.0000
# 6 0.0000 0.0000 0.0000 -15.2271 0.0000 26.3269
#
#
#
# Elastic Compliance Matrix: (Units=1/GPa)
#
#
# Indices 1 2 3 4 5 6 
#
# 1 0.013646 -0.004862 -0.002054 0.000000 0.006660 0.000000
# 2 -0.004862 0.067763 0.000716 0.000000 -0.006998 0.000000
# 3 -0.002054 0.000716 0.007176 0.000000 -0.001273 0.000000
# 4 0.000000 0.000000 0.000000 0.040541 0.000000 0.023448
# 5 0.006660 -0.006998 -0.001273 0.000000 0.035782 0.000000
# 6 0.000000 0.000000 0.000000 0.023448 0.000000 0.051546
#
#
# Mechanical properties :
#
#
# Convention : Reuss Voigt Hill
#
# Bulk Modulus (GPa) = 13.12573 33.08476 23.10524
# Shear Modulus (GPa) = 19.66581 32.84382 26.25482
#
# Velocity S-wave (km/s) = 2.94918 3.81129 3.40761
# Velocity P-wave (km/s) = 4.17158 5.83099 5.06964
#
# Compressibility (1/GPa) = 0.07618624
#
# Stress axis : x y z
#
# Youngs Moduli (GPa) = 73.27956 14.75726 139.36140
#
# Poissons Ratio (x) = 0.07175 0.28622
# Poissons Ratio (y) = 0.35628 -0.09982
# Poissons Ratio (z) = 0.15050 -0.01057
#
# Static dielectric constant tensor:
#      x y z
#    x 4.319690 0.000000 -0.038560 
#    y 0.000000 3.870250 0.000000 
#    z -0.038560 0.000000 3.988740 
# 
# 
# High freq. dielectric constant tensor:
#      x y z
#    x 1.902120 0.000000 -0.004490 
#    y 0.000000 1.871940 0.000000 
#    z -0.004490 0.000000 1.909850 
# 
# From -- ./inp_files/65040.got.cif
#   From: 2010.03.12/outbox.cif.g09.slc.cpg/sg14_33_cif.got.tgz:65040.got - 2010.03.31 13:35:05.
