data_PCOD8125472
_publ_section_title
;
Structure prediction by ZEFSAII (Michael W. Deem and Ramdas Pophale) SiO2 
 PCOD8125472
Probable space group: P 21/C
;
_chemical_formula_sum "Si O2"
_cell_formula_units_Z 32
_cell_length_a 6.611374
_cell_length_b 22.333407
_cell_length_c 11.173222
_cell_angle_alpha 90.000000
_cell_angle_beta 68.873848
_cell_angle_gamma 90.000000
_cell_volume 1538.893645
_symmetry_space_group_name_H-M "P 21/C"
_symmetry_group_IT_number 14
_symmetry_cell_setting 'monoclinic'
loop_
_space_group_symop_operation_xyz
x,y,z
-x,1/2+y,1/2-z
-x,-y,-z
x,1/2-y,1/2+z
loop_
_atom_site_type_symbol
_atom_site_label
_atom_site_fract_x
_atom_site_fract_y
_atom_site_fract_z
Si Si1 0.136445 0.841926 0.722931
Si Si2 0.635225 0.279196 0.640031
Si Si3 0.958250 0.341122 0.390487
Si Si4 0.169577 0.242171 0.657423
Si Si5 0.243935 0.926992 0.257940
Si Si6 0.903408 0.329106 0.048658
Si Si7 0.740377 0.558095 0.596368
Si Si8 0.033736 0.029305 0.180223
O O1 0.967791 0.802318 0.835618
O O2 0.121922 0.823745 0.587635
O O3 0.080330 0.911223 0.746743
O O4 0.365646 0.821689 0.738616
O O5 0.408008 0.267472 0.625450
O O6 0.784835 0.311375 0.512130
O O7 0.728726 0.213588 0.652364
O O8 0.090933 0.290485 0.293566
O O9 0.133894 0.379299 0.425025
O O10 0.824761 0.385334 0.335733
O O11 0.136705 0.196086 0.550417
O O12 0.500915 0.934280 0.198838
O O13 0.155528 0.896830 0.399382
O O14 0.128861 0.991843 0.271687
O O15 0.760396 0.539729 0.452346
O O16 0.845246 0.506448 0.654028
#
# Coordination Sequence:
#
# PCOD8125472 Si02
#       8
#     4   4   4   4   4   4   4   4
#     4  11  23  41  59  92 128 161 213 264 307 377
#     4  11  22  39  64  90 125 165 206 258 321 377
#     4  10  20  39  62  93 119 155 212 259 310 381
#     4  10  23  40  63  90 127 166 201 257 324 378
#     4  10  22  38  64  87 120 172 205 254 326 365
#     4  10  23  43  59  91 130 161 211 257 310 392
#     4  10  20  39  62  88 127 157 211 269 309 359
#     4  10  22  37  59  91 125 163 213 267 301 370
#
# _framework density 20.794157999999999
#
# number of rings (size 3 to 8) (size 9 to 14) (size 15 to 20)
#    0.000    1.750    2.500    1.125    1.750    2.500 
#    0.000    0.625    0.000    0.000    0.000    0.000 
#    0.000    0.000    0.000    0.000    0.000    0.000 
#
# Total GULP energy -396547.877665 kJ/mol
# GULP energy per Si atom -12392.121177 kJ/mol
# Density = 2.074683 g / cm^3
# Si number density = 20.794158 Si / 1000 Ang^3
#
#
#
# Elastic Constant Matrix: (Units=GPa)
#
#
# Indices 1 2 3 4 5 6 
#
# 1 95.4807 32.5988 37.2171 0.0000 -5.4631 0.0000
# 2 32.5988 112.3761 28.4063 0.0000 -8.1580 0.0000
# 3 37.2171 28.4063 83.9026 0.0000 14.7656 0.0000
# 4 0.0000 0.0000 0.0000 31.7012 0.0000 0.0130
# 5 -5.4631 -8.1580 14.7656 0.0000 19.9579 0.0000
# 6 0.0000 0.0000 0.0000 0.0130 0.0000 25.0321
#
#
#
# Elastic Compliance Matrix: (Units=1/GPa)
#
#
# Indices 1 2 3 4 5 6 
#
# 1 0.014413 -0.001692 -0.007350 0.000000 0.008692 0.000000
# 2 -0.001692 0.010976 -0.004223 0.000000 0.007148 0.000000
# 3 -0.007350 -0.004223 0.019851 0.000000 -0.018425 0.000000
# 4 0.000000 0.000000 0.000000 0.031545 0.000000 -0.000016
# 5 0.008692 0.007148 -0.018425 0.000000 0.069038 0.000000
# 6 0.000000 0.000000 0.000000 -0.000016 0.000000 0.039949
#
#
# Mechanical properties :
#
#
# Convention : Reuss Voigt Hill
#
# Bulk Modulus (GPa) = 53.44916 54.24484 53.84700
# Shear Modulus (GPa) = 22.87911 28.24072 25.55992
#
# Velocity S-wave (km/s) = 3.32062 3.68925 3.50978
# Velocity P-wave (km/s) = 6.36096 6.65512 6.50970
#
# Compressibility (1/GPa) = 0.01870937
#
# Stress axis : x y z
#
# Youngs Moduli (GPa) = 69.38023 91.10714 50.37443
#
# Poissons Ratio (x) = 0.15417 0.37026
# Poissons Ratio (y) = 0.11741 0.21275
# Poissons Ratio (z) = 0.50995 0.38478
#
# Static dielectric constant tensor:
#      x y z
#    x 3.879160 0.000000 0.286570 
#    y 0.000000 4.151100 0.000000 
#    z 0.286570 0.000000 3.567660 
# 
# 
# High freq. dielectric constant tensor:
#      x y z
#    x 1.811440 0.000000 0.019960 
#    y 0.000000 1.830630 0.000000 
#    z 0.019960 0.000000 1.792580 
# 
# From -- ./inp_files/22171.got.cif
#   From: 2010.03.12/outbox.cif.g09.slc.cpg/sg14_12_cif.got.tgz:22171.got - 2010.03.31 13:35:05.
