data_PCOD8125783
_publ_section_title
;
Structure prediction by ZEFSAII (Michael W. Deem and Ramdas Pophale) SiO2 
 PCOD8125783
Probable space group: P 21/C
;
_chemical_formula_sum "Si O2"
_cell_formula_units_Z 24
_cell_length_a 8.998074
_cell_length_b 11.053975
_cell_length_c 12.410528
_cell_angle_alpha 90.000000
_cell_angle_beta 109.753957
_cell_angle_gamma 90.000000
_cell_volume 1161.765241
_symmetry_space_group_name_H-M "P 21/C"
_symmetry_group_IT_number 14
_symmetry_cell_setting 'monoclinic'
loop_
_space_group_symop_operation_xyz
x,y,z
-x,1/2+y,1/2-z
-x,-y,-z
x,1/2-y,1/2+z
loop_
_atom_site_type_symbol
_atom_site_label
_atom_site_fract_x
_atom_site_fract_y
_atom_site_fract_z
Si Si1 0.875215 0.228602 0.942589
Si Si2 0.654157 0.439566 0.255949
Si Si3 0.033396 0.572213 0.186967
Si Si4 0.750615 0.073758 0.546120
Si Si5 0.699395 0.924507 0.320715
Si Si6 0.861230 0.835837 0.848324
O O1 0.772583 0.162855 0.827237
O O2 0.969545 0.340571 0.915783
O O3 0.759716 0.287847 0.004981
O O4 0.013720 0.143364 0.023884
O O5 0.635106 0.433202 0.121298
O O6 0.481344 0.418599 0.263854
O O7 0.720886 0.567076 0.314716
O O8 0.208917 0.513934 0.240136
O O9 0.922087 0.458895 0.134875
O O10 0.973093 0.649841 0.272095
O O11 0.699630 0.978613 0.441937
O O12 0.777436 0.793130 0.334492
#
# Coordination Sequence:
#
# PCOD8125783 Si02
#       6
#     4   4   4   4   4   4
#     4  11  20  41  64  92 128 164 214 262 310 372
#     4  11  26  38  65  99 130 162 209 266 324 368
#     4  10  21  39  69  88 119 173 224 245 305 387
#     4  10  20  43  67  90 120 178 214 249 310 389
#     4  11  22  43  64  95 129 165 214 263 313 370
#     4  11  23  41  66  93 126 172 210 260 314 382
#
# _framework density 20.658218000000002
#
# number of rings (size 3 to 8) (size 9 to 14) (size 15 to 20)
#    0.000    1.333    3.333    3.000    7.000    0.000 
#    0.000    0.833    0.000    0.000    0.000    0.000 
#    0.000    0.000    0.000    0.000    0.000    0.000 
#
# Total GULP energy -297468.334406 kJ/mol
# GULP energy per Si atom -12394.513934 kJ/mol
# Density = 2.061120 g / cm^3
# Si number density = 20.658218 Si / 1000 Ang^3
#
#
#
# Elastic Constant Matrix: (Units=GPa)
#
#
# Indices 1 2 3 4 5 6 
#
# 1 127.5523 38.4641 36.9376 0.0000 8.1270 0.0000
# 2 38.4641 101.3595 39.4379 0.0000 -3.3200 0.0000
# 3 36.9376 39.4379 67.3608 0.0000 5.5064 0.0000
# 4 0.0000 0.0000 0.0000 30.0620 0.0000 -1.8032
# 5 8.1270 -3.3200 5.5064 0.0000 20.7617 0.0000
# 6 0.0000 0.0000 0.0000 -1.8032 0.0000 20.8791
#
#
#
# Elastic Compliance Matrix: (Units=1/GPa)
#
#
# Indices 1 2 3 4 5 6 
#
# 1 0.009850 -0.002390 -0.003736 0.000000 -0.003247 0.000000
# 2 -0.002390 0.013710 -0.007126 0.000000 0.005018 0.000000
# 3 -0.003736 -0.007126 0.021506 0.000000 -0.005381 0.000000
# 4 0.000000 0.000000 0.000000 0.033438 0.000000 0.002888
# 5 -0.003247 0.005018 -0.005381 0.000000 0.051666 0.000000
# 6 0.000000 0.000000 0.000000 0.002888 0.000000 0.048144
#
#
# Mechanical properties :
#
#
# Convention : Reuss Voigt Hill
#
# Bulk Modulus (GPa) = 53.87849 58.43910 56.15879
# Shear Modulus (GPa) = 23.69595 26.43610 25.06602
#
# Velocity S-wave (km/s) = 3.39048 3.58116 3.48712
# Velocity P-wave (km/s) = 6.43931 6.74163 6.59220
#
# Compressibility (1/GPa) = 0.01856028
#
# Stress axis : x y z
#
# Youngs Moduli (GPa) = 101.52725 72.93876 46.49805
#
# Poissons Ratio (x) = 0.17435 0.17372
# Poissons Ratio (y) = 0.24269 0.33136
# Poissons Ratio (z) = 0.37932 0.51979
#
# Static dielectric constant tensor:
#      x y z
#    x 3.824580 0.000000 -0.096610 
#    y 0.000000 3.796870 0.000000 
#    z -0.096610 0.000000 3.674440 
# 
# 
# High freq. dielectric constant tensor:
#      x y z
#    x 1.809730 0.000000 0.000340 
#    y 0.000000 1.811720 0.000000 
#    z 0.000340 0.000000 1.794530 
# 
# From -- ./inp_files/24262.got.cif
#   From: 2010.03.12/outbox.cif.g09.slc.cpg/sg14_13_cif.got.tgz:24262.got - 2010.03.31 13:35:05.
