data_PCOD8125118
_publ_section_title
;
Structure prediction by ZEFSAII (Michael W. Deem and Ramdas Pophale) SiO2 
 PCOD8125118
Probable space group: P 21/C
;
_chemical_formula_sum "Si O2"
_cell_formula_units_Z 32
_cell_length_a 21.339402
_cell_length_b 13.960176
_cell_length_c 15.823126
_cell_angle_alpha 90.000000
_cell_angle_beta 19.802634
_cell_angle_gamma 90.000000
_cell_volume 1596.925639
_symmetry_space_group_name_H-M "P 21/C"
_symmetry_group_IT_number 14
_symmetry_cell_setting 'monoclinic'
loop_
_space_group_symop_operation_xyz
x,y,z
-x,1/2+y,1/2-z
-x,-y,-z
x,1/2-y,1/2+z
loop_
_atom_site_type_symbol
_atom_site_label
_atom_site_fract_x
_atom_site_fract_y
_atom_site_fract_z
Si Si1 0.183396 0.301822 0.798660
Si Si2 0.830214 0.612652 0.362641
Si Si3 0.541583 0.765900 0.323054
Si Si4 0.464145 0.791112 0.605575
Si Si5 0.208649 0.878443 0.474713
Si Si6 0.808811 0.096386 0.949612
Si Si7 0.225884 0.405943 0.919683
Si Si8 0.814870 0.274643 0.827115
O O1 0.128655 0.365653 0.787436
O O2 0.363925 0.235921 0.550885
O O3 0.220803 0.376397 0.827555
O O4 0.019755 0.227588 0.028284
O O5 0.657029 0.674132 0.610258
O O6 0.777253 0.502313 0.441404
O O7 0.002732 0.638747 0.202271
O O8 0.553872 0.811572 0.400543
O O9 0.626570 0.658303 0.216589
O O10 0.329066 0.776246 0.566597
O O11 0.334246 0.697603 0.766316
O O12 0.347391 0.885401 0.780363
O O13 0.206809 0.862258 0.578733
O O14 0.286385 0.983638 0.353697
O O15 0.769003 0.177536 0.932871
O O16 0.017416 0.105493 0.722397
#
# Coordination Sequence:
#
# PCOD8125118 Si02
#       8
#     4   4   4   4   4   4   4   4
#     4  10  21  37  57  85 115 148 191 234 279 332
#     4  11  21  35  59  84 112 149 188 231 282 333
#     4  11  22  35  57  82 110 152 192 231 277 333
#     4  10  20  37  57  79 112 147 186 233 282 332
#     4  10  20  37  59  84 115 146 180 233 287 336
#     4   9  20  37  57  81 112 145 183 234 283 334
#     4   9  21  38  59  84 112 144 186 235 283 333
#     4  10  21  37  55  82 116 145 186 233 279 335
#
# _framework density 20.038502999999999
#
# number of rings (size 3 to 8) (size 9 to 14) (size 15 to 20)
#    0.000    2.000    0.000    5.250    0.000   10.000 
#    0.000    0.000    0.000    4.500    0.000    0.000 
#    0.000    0.000    0.000    0.000    0.000    0.000 
#
# Total GULP energy -396735.835481 kJ/mol
# GULP energy per Si atom -12397.994859 kJ/mol
# Density = 1.999289 g / cm^3
# Si number density = 20.038503 Si / 1000 Ang^3
#
#
#
# Elastic Constant Matrix: (Units=GPa)
#
#
# Indices 1 2 3 4 5 6 
#
# 1 89.5814 29.7210 27.0394 0.0000 -8.6496 0.0000
# 2 29.7210 47.4670 28.7311 0.0000 2.8342 0.0000
# 3 27.0394 28.7311 87.6990 0.0000 0.9899 0.0000
# 4 0.0000 0.0000 0.0000 24.4808 0.0000 5.2836
# 5 -8.6496 2.8342 0.9899 0.0000 32.9951 0.0000
# 6 0.0000 0.0000 0.0000 5.2836 0.0000 22.7195
#
#
#
# Elastic Compliance Matrix: (Units=1/GPa)
#
#
# Indices 1 2 3 4 5 6 
#
# 1 0.015025 -0.008549 -0.001885 0.000000 0.004730 0.000000
# 2 -0.008549 0.031275 -0.007557 0.000000 -0.004701 0.000000
# 3 -0.001885 -0.007557 0.014463 0.000000 -0.000279 0.000000
# 4 0.000000 0.000000 0.000000 0.043007 0.000000 -0.010001
# 5 0.004730 -0.004701 -0.000279 0.000000 0.031960 0.000000
# 6 0.000000 0.000000 0.000000 -0.010001 0.000000 0.046341
#
#
# Mechanical properties :
#
#
# Convention : Reuss Voigt Hill
#
# Bulk Modulus (GPa) = 40.35480 43.97006 42.16243
# Shear Modulus (GPa) = 22.09324 25.32281 23.70803
#
# Velocity S-wave (km/s) = 3.32405 3.55872 3.44339
# Velocity P-wave (km/s) = 5.90887 6.23510 6.07418
#
# Compressibility (1/GPa) = 0.02478020
#
# Stress axis : x y z
#
# Youngs Moduli (GPa) = 66.55499 31.97423 69.14293
#
# Poissons Ratio (x) = 0.27336 0.13034
# Poissons Ratio (y) = 0.56899 0.52252
# Poissons Ratio (z) = 0.12547 0.24163
#
# Static dielectric constant tensor:
#      x y z
#    x 3.537410 0.000000 -0.004660 
#    y 0.000000 3.631390 0.000000 
#    z -0.004660 0.000000 4.012930 
# 
# 
# High freq. dielectric constant tensor:
#      x y z
#    x 1.773060 0.000000 -0.006810 
#    y 0.000000 1.763840 0.000000 
#    z -0.006810 0.000000 1.797680 
# 
# From -- ./inp_files/50604.got.cif
#   From: 2010.03.12/outbox.cif.g09.slc.cpg/sg14_26_cif.got.tgz:50604.got - 2010.03.31 13:35:05.
