data_PCOD8125329
_publ_section_title
;
Structure prediction by ZEFSAII (Michael W. Deem and Ramdas Pophale) SiO2 
 PCOD8125329
Probable space group: P 21/C
;
_chemical_formula_sum "Si O2"
_cell_formula_units_Z 32
_cell_length_a 9.058359
_cell_length_b 8.994642
_cell_length_c 27.044978
_cell_angle_alpha 90.000000
_cell_angle_beta 48.059736
_cell_angle_gamma 90.000000
_cell_volume 1639.082334
_symmetry_space_group_name_H-M "P 21/C"
_symmetry_group_IT_number 14
_symmetry_cell_setting 'monoclinic'
loop_
_space_group_symop_operation_xyz
x,y,z
-x,1/2+y,1/2-z
-x,-y,-z
x,1/2-y,1/2+z
loop_
_atom_site_type_symbol
_atom_site_label
_atom_site_fract_x
_atom_site_fract_y
_atom_site_fract_z
Si Si1 0.636319 0.667123 0.754955
Si Si2 0.939736 0.355061 0.617031
Si Si3 0.596088 0.137396 0.118468
Si Si4 0.813966 0.661643 0.007255
Si Si5 0.573127 0.328634 0.376922
Si Si6 0.623884 0.324364 0.764327
Si Si7 0.923108 0.344666 0.376008
Si Si8 0.851193 0.323483 0.989358
O O1 0.558634 0.753448 0.820242
O O2 0.565496 0.497446 0.776036
O O3 0.548519 0.732012 0.723884
O O4 0.873012 0.680522 0.699205
O O5 0.770424 0.409879 0.616863
O O6 0.834926 0.296525 0.690303
O O7 0.080118 0.495275 0.596285
O O8 0.064109 0.219117 0.567390
O O9 0.477188 0.993483 0.128999
O O10 0.686925 0.216131 0.049970
O O11 0.613800 0.753767 0.055164
O O12 0.940119 0.687035 0.028712
O O13 0.764737 0.489530 0.010526
O O14 0.646274 0.229109 0.315100
O O15 0.747776 0.336655 0.376687
O O16 0.891004 0.218110 0.423975
#
# Coordination Sequence:
#
# PCOD8125329 Si02
#       8
#     4   4   4   4   4   4   4   4
#     4  10  21  39  64  88 113 146 191 242 285 332
#     4   9  20  39  60  85 111 145 192 238 284 334
#     4  10  21  38  63  86 110 149 194 238 283 334
#     4  10  21  38  63  88 111 145 192 246 288 332
#     4  12  24  37  56  84 121 158 189 226 282 346
#     4  10  20  38  61  87 115 147 193 240 284 334
#     4  11  24  38  55  84 121 157 187 227 284 346
#     4  10  21  39  62  87 112 144 194 245 288 332
#
# _framework density 19.523119999999999
#
# number of rings (size 3 to 8) (size 9 to 14) (size 15 to 20)
#    0.000    1.750    0.000    5.250    0.000   11.500 
#    0.000    1.250    0.000    0.000    0.000    0.000 
#    0.000    0.000    0.000    0.000    0.000    0.000 
#
# Total GULP energy -396971.280449 kJ/mol
# GULP energy per Si atom -12405.352514 kJ/mol
# Density = 1.947868 g / cm^3
# Si number density = 19.523120 Si / 1000 Ang^3
#
#
#
# Elastic Constant Matrix: (Units=GPa)
#
#
# Indices 1 2 3 4 5 6 
#
# 1 107.1852 61.3334 50.4819 0.0000 -1.2528 0.0000
# 2 61.3334 135.9062 57.2294 0.0000 3.3130 0.0000
# 3 50.4819 57.2294 99.5611 0.0000 -2.8237 0.0000
# 4 0.0000 0.0000 0.0000 35.0302 0.0000 -2.4340
# 5 -1.2528 3.3130 -2.8237 0.0000 12.4396 0.0000
# 6 0.0000 0.0000 0.0000 -2.4340 0.0000 9.8282
#
#
#
# Elastic Compliance Matrix: (Units=1/GPa)
#
#
# Indices 1 2 3 4 5 6 
#
# 1 0.014026 -0.004476 -0.004494 0.000000 0.001585 0.000000
# 2 -0.004476 0.011326 -0.004367 0.000000 -0.004458 0.000000
# 3 -0.004494 -0.004367 0.014949 0.000000 0.004104 0.000000
# 4 0.000000 0.000000 0.000000 0.029047 0.000000 0.007194
# 5 0.001585 -0.004458 0.004104 0.000000 0.082667 0.000000
# 6 0.000000 0.000000 0.000000 0.007194 0.000000 0.103529
#
#
# Mechanical properties :
#
#
# Convention : Reuss Voigt Hill
#
# Bulk Modulus (GPa) = 73.38440 75.63800 74.51120
# Shear Modulus (GPa) = 17.43616 23.03347 20.23481
#
# Velocity S-wave (km/s) = 2.99173 3.43855 3.22289
# Velocity P-wave (km/s) = 7.04301 7.38862 7.21788
#
# Compressibility (1/GPa) = 0.01362687
#
# Stress axis : x y z
#
# Youngs Moduli (GPa) = 71.29608 88.29498 66.89250
#
# Poissons Ratio (x) = 0.39522 0.30061
# Poissons Ratio (y) = 0.31913 0.29212
# Poissons Ratio (z) = 0.32040 0.38559
#
# Static dielectric constant tensor:
#      x y z
#    x 3.346930 0.000000 0.009110 
#    y 0.000000 3.653890 0.000000 
#    z 0.009110 0.000000 3.696370 
# 
# 
# High freq. dielectric constant tensor:
#      x y z
#    x 1.738100 0.000000 0.000130 
#    y 0.000000 1.772600 0.000000 
#    z 0.000130 0.000000 1.776550 
# 
# From -- ./inp_files/76364.got.cif
#   From: 2010.03.12/outbox.cif.g09.slc.cpg/sg14_39_cif.got.tgz:76364.got - 2010.03.31 13:35:05.
