data_PCOD8125023
_publ_section_title
;
Structure prediction by ZEFSAII (Michael W. Deem and Ramdas Pophale) SiO2 
 PCOD8125023
Probable space group: P 21/C
;
_chemical_formula_sum "Si O2"
_cell_formula_units_Z 24
_cell_length_a 12.051238
_cell_length_b 8.858754
_cell_length_c 18.740202
_cell_angle_alpha 90.000000
_cell_angle_beta 37.867035
_cell_angle_gamma 90.000000
_cell_volume 1228.082271
_symmetry_space_group_name_H-M "P 21/C"
_symmetry_group_IT_number 14
_symmetry_cell_setting 'monoclinic'
loop_
_space_group_symop_operation_xyz
x,y,z
-x,1/2+y,1/2-z
-x,-y,-z
x,1/2-y,1/2+z
loop_
_atom_site_type_symbol
_atom_site_label
_atom_site_fract_x
_atom_site_fract_y
_atom_site_fract_z
Si Si1 0.721664 0.346625 0.586480
Si Si2 0.691508 0.312044 0.247430
Si Si3 0.720710 0.692445 0.564832
Si Si4 0.690854 0.659338 0.224450
Si Si5 0.969661 0.814596 0.178943
Si Si6 0.027688 0.833480 0.798755
O O1 0.767228 0.271307 0.638927
O O2 0.743552 0.525457 0.585664
O O3 0.521574 0.303813 0.661802
O O4 0.859392 0.282754 0.458386
O O5 0.478759 0.284692 0.365965
O O6 0.737518 0.487900 0.218951
O O7 0.788537 0.243682 0.267307
O O8 0.757970 0.808895 0.609898
O O9 0.861349 0.725453 0.430883
O O10 0.786641 0.768745 0.231871
O O11 0.992852 0.711010 0.235695
O O12 0.954565 0.987569 0.208430
#
# Coordination Sequence:
#
# PCOD8125023 Si02
#       6
#     4   4   4   4   4   4
#     4   9  20  38  58  80 109 144 178 218 270 322
#     4  10  20  36  59  84 108 138 180 225 267 316
#     4   9  20  38  58  80 109 144 178 218 270 322
#     4  10  20  36  59  84 108 138 180 225 267 316
#     4  11  23  38  55  78 111 147 181 219 268 322
#     4  11  23  38  55  78 111 147 181 219 268 322
#
# _framework density 19.542665
#
# number of rings (size 3 to 8) (size 9 to 14) (size 15 to 20)
#    0.000    2.000    0.000    3.000    0.000    9.333 
#    0.000    6.667    0.000    0.000    0.000    0.000 
#    0.000    0.000    0.000    0.000    0.000    0.000 
#
# Total GULP energy -297751.884354 kJ/mol
# GULP energy per Si atom -12406.328515 kJ/mol
# Density = 1.949818 g / cm^3
# Si number density = 19.542665 Si / 1000 Ang^3
#
#
#
# Elastic Constant Matrix: (Units=GPa)
#
#
# Indices 1 2 3 4 5 6 
#
# 1 81.4021 8.3053 26.1811 0.0000 -8.7152 0.0000
# 2 8.3053 39.4539 12.5243 0.0000 -9.1555 0.0000
# 3 26.1811 12.5243 46.1473 0.0000 -4.1487 0.0000
# 4 0.0000 0.0000 0.0000 25.1024 0.0000 5.8109
# 5 -8.7152 -9.1555 -4.1487 0.0000 19.0021 0.0000
# 6 0.0000 0.0000 0.0000 5.8109 0.0000 38.4074
#
#
#
# Elastic Compliance Matrix: (Units=1/GPa)
#
#
# Indices 1 2 3 4 5 6 
#
# 1 0.015551 0.000736 -0.008517 0.000000 0.005628 0.000000
# 2 0.000736 0.030715 -0.007541 0.000000 0.013490 0.000000
# 3 -0.008517 -0.007541 0.028428 0.000000 -0.001333 0.000000
# 4 0.000000 0.000000 0.000000 0.041283 0.000000 -0.006246
# 5 0.005628 0.013490 -0.001333 0.000000 0.061416 0.000000
# 6 0.000000 0.000000 0.000000 -0.006246 0.000000 0.026982
#
#
# Mechanical properties :
#
#
# Convention : Reuss Voigt Hill
#
# Bulk Modulus (GPa) = 22.70053 29.00274 25.85163
# Shear Modulus (GPa) = 20.02386 24.50189 22.26288
#
# Velocity S-wave (km/s) = 3.20445 3.54469 3.37886
# Velocity P-wave (km/s) = 5.03313 5.62371 5.33659
#
# Compressibility (1/GPa) = 0.04405183
#
# Stress axis : x y z
#
# Youngs Moduli (GPa) = 64.30326 32.55693 35.17627
#
# Poissons Ratio (x) = -0.02396 0.29958
# Poissons Ratio (y) = -0.04732 0.26526
# Poissons Ratio (z) = 0.54764 0.24551
#
# Static dielectric constant tensor:
#      x y z
#    x 3.535310 0.000000 -0.120250 
#    y 0.000000 3.582830 0.000000 
#    z -0.120250 0.000000 3.603830 
# 
# 
# High freq. dielectric constant tensor:
#      x y z
#    x 1.766490 0.000000 -0.010230 
#    y 0.000000 1.767680 0.000000 
#    z -0.010230 0.000000 1.760670 
# 
# From -- ./inp_files/66748.got.cif
#   From: 2010.03.12/outbox.cif.g09.slc.cpg/sg14_34_cif.got.tgz:66748.got - 2010.03.31 13:35:05.
