data_PCOD8125984
_publ_section_title
;
Structure prediction by ZEFSAII (Michael W. Deem and Ramdas Pophale) SiO2 
 PCOD8125984
Probable space group: P 21/C
;
_chemical_formula_sum "Si O2"
_cell_formula_units_Z 32
_cell_length_a 9.034202
_cell_length_b 20.199555
_cell_length_c 12.751159
_cell_angle_alpha 90.000000
_cell_angle_beta 134.636556
_cell_angle_gamma 90.000000
_cell_volume 1655.784141
_symmetry_space_group_name_H-M "P 21/C"
_symmetry_group_IT_number 14
_symmetry_cell_setting 'monoclinic'
loop_
_space_group_symop_operation_xyz
x,y,z
-x,1/2+y,1/2-z
-x,-y,-z
x,1/2-y,1/2+z
loop_
_atom_site_type_symbol
_atom_site_label
_atom_site_fract_x
_atom_site_fract_y
_atom_site_fract_z
Si Si1 0.468748 0.942282 0.122053
Si Si2 0.610399 0.936637 0.427211
Si Si3 0.938687 0.676036 0.093677
Si Si4 0.778404 0.555392 0.588745
Si Si5 0.937197 0.309523 0.081497
Si Si6 0.769133 0.065448 0.612389
Si Si7 0.275659 0.298850 0.421188
Si Si8 0.284589 0.811532 0.937572
O O1 0.566845 0.933248 0.283421
O O2 0.661015 0.955343 0.140453
O O3 0.340170 0.877072 0.028997
O O4 0.311191 0.004566 0.041757
O O5 0.784727 0.883531 0.543620
O O6 0.401220 0.919055 0.384623
O O7 0.691812 0.009358 0.494860
O O8 0.821873 0.745682 0.049388
O O9 0.128702 0.669284 0.267568
O O10 0.023954 0.672797 0.019022
O O11 0.739016 0.630059 0.527972
O O12 0.021778 0.541479 0.725655
O O13 0.801046 0.367933 0.062987
O O14 0.812454 0.240862 0.029688
O O15 0.155860 0.303476 0.250602
O O16 0.512227 0.279396 0.514614
#
# Coordination Sequence:
#
# PCOD8125984 Si02
#       8
#     4   4   4   4   4   4   4   4
#     4  10  21  37  60  86 115 149 188 232 280 335
#     4  11  23  38  57  83 114 150 188 233 283 334
#     4  11  22  37  60  85 112 149 188 228 279 334
#     4   9  19  38  59  84 114 146 187 234 279 332
#     4  10  22  38  59  83 110 149 188 229 279 332
#     4  10  22  39  57  81 114 147 188 236 281 332
#     4   9  20  38  56  82 116 145 183 230 276 330
#     4  10  21  37  58  86 117 147 184 231 279 333
#
# _framework density 19.326191000000001
#
# number of rings (size 3 to 8) (size 9 to 14) (size 15 to 20)
#    0.000    2.000    0.000    3.750    0.000   10.500 
#    0.000    5.000    0.000    0.000    0.000    0.000 
#    0.000    0.000    0.000    0.000    0.000    0.000 
#
# Total GULP energy -396940.065676 kJ/mol
# GULP energy per Si atom -12404.377052 kJ/mol
# Density = 1.928220 g / cm^3
# Si number density = 19.326191 Si / 1000 Ang^3
#
#
#
# Elastic Constant Matrix: (Units=GPa)
#
#
# Indices 1 2 3 4 5 6 
#
# 1 91.0989 28.7696 41.3276 0.0000 21.3718 0.0000
# 2 28.7696 77.4727 29.3764 0.0000 10.2474 0.0000
# 3 41.3276 29.3764 78.3773 0.0000 16.4954 0.0000
# 4 0.0000 0.0000 0.0000 22.9755 0.0000 5.9057
# 5 21.3718 10.2474 16.4954 0.0000 31.6974 0.0000
# 6 0.0000 0.0000 0.0000 5.9057 0.0000 29.5089
#
#
#
# Elastic Compliance Matrix: (Units=1/GPa)
#
#
# Indices 1 2 3 4 5 6 
#
# 1 0.016227 -0.002822 -0.006051 0.000000 -0.006880 0.000000
# 2 -0.002822 0.015670 -0.004177 0.000000 -0.000990 0.000000
# 3 -0.006051 -0.004177 0.018386 0.000000 -0.004138 0.000000
# 4 0.000000 0.000000 0.000000 0.045885 0.000000 -0.009183
# 5 -0.006880 -0.000990 -0.004138 0.000000 0.038660 0.000000
# 6 0.000000 0.000000 0.000000 -0.009183 0.000000 0.035726
#
#
# Mechanical properties :
#
#
# Convention : Reuss Voigt Hill
#
# Bulk Modulus (GPa) = 41.34969 49.54402 45.44686
# Shear Modulus (GPa) = 24.42409 26.66806 25.54608
#
# Velocity S-wave (km/s) = 3.55883 3.71872 3.63965
# Velocity P-wave (km/s) = 6.19105 6.64303 6.42102
#
# Compressibility (1/GPa) = 0.02418398
#
# Stress axis : x y z
#
# Youngs Moduli (GPa) = 61.62468 63.81437 54.38934
#
# Poissons Ratio (x) = 0.18006 0.32911
# Poissons Ratio (y) = 0.17388 0.22720
# Poissons Ratio (z) = 0.37289 0.26657
#
# Static dielectric constant tensor:
#      x y z
#    x 3.508870 0.000000 0.246460 
#    y 0.000000 3.739930 0.000000 
#    z 0.246460 0.000000 3.474480 
# 
# 
# High freq. dielectric constant tensor:
#      x y z
#    x 1.752250 0.000000 0.017740 
#    y 0.000000 1.768340 0.000000 
#    z 0.017740 0.000000 1.750890 
# 
# From -- ./inp_files/26810.got.cif
#   From: 2010.03.12/outbox.cif.g09.slc.cpg/sg14_14_cif.got.tgz:26810.got - 2010.03.31 13:35:05.
