data_PCOD8125562
_publ_section_title
;
Structure prediction by ZEFSAII (Michael W. Deem and Ramdas Pophale) SiO2 
 PCOD8125562
Probable space group: P 21/C
;
_chemical_formula_sum "Si O2"
_cell_formula_units_Z 24
_cell_length_a 17.582272
_cell_length_b 8.521212
_cell_length_c 23.630986
_cell_angle_alpha 90.000000
_cell_angle_beta 159.984342
_cell_angle_gamma 90.000000
_cell_volume 1211.813648
_symmetry_space_group_name_H-M "P 21/C"
_symmetry_group_IT_number 14
_symmetry_cell_setting 'monoclinic'
loop_
_space_group_symop_operation_xyz
x,y,z
-x,1/2+y,1/2-z
-x,-y,-z
x,1/2-y,1/2+z
loop_
_atom_site_type_symbol
_atom_site_label
_atom_site_fract_x
_atom_site_fract_y
_atom_site_fract_z
Si Si1 0.539143 0.704087 0.942075
Si Si2 0.864752 0.202784 0.275107
Si Si3 0.343602 0.693641 0.588054
Si Si4 0.298657 0.868513 0.449017
Si Si5 0.069517 0.129780 0.724953
Si Si6 0.344140 0.325964 0.597754
O O1 0.695252 0.796640 0.094950
O O2 0.287075 0.759735 0.776510
O O3 0.556109 0.518828 0.966041
O O4 0.608330 0.731728 0.926080
O O5 0.097773 0.289090 0.447334
O O6 0.737317 0.262692 0.130680
O O7 0.897963 0.016598 0.293831
O O8 0.426940 0.763644 0.585892
O O9 0.083206 0.740651 0.414022
O O10 0.374771 0.509003 0.608862
O O11 0.482057 0.771480 0.734411
O O12 0.058905 0.924750 0.307066
#
# Coordination Sequence:
#
# PCOD8125562 Si02
#       6
#     4   4   4   4   4   4
#     4  12  23  38  65  93 124 159 202 253 301 359
#     4  12  23  38  65  93 124 159 202 253 301 359
#     4  10  23  38  71  82 120 172 196 254 301 364
#     4  10  20  40  60  89 121 160 202 245 303 350
#     4  10  20  40  60  89 121 160 202 245 303 350
#     4  12  21  44  59  90 122 160 208 244 311 354
#
# _framework density 19.805025000000001
#
# number of rings (size 3 to 8) (size 9 to 14) (size 15 to 20)
#    1.000    0.000    3.333    5.000    0.000    0.000 
#    0.000    8.333    0.000    0.000    0.000    0.000 
#    0.000    0.000    0.000    0.000    0.000    0.000 
#
# Total GULP energy -297633.846121 kJ/mol
# GULP energy per Si atom -12401.410255 kJ/mol
# Density = 1.975995 g / cm^3
# Si number density = 19.805025 Si / 1000 Ang^3
#
#
#
# Elastic Constant Matrix: (Units=GPa)
#
#
# Indices 1 2 3 4 5 6 
#
# 1 41.2890 3.3077 39.8471 0.0000 12.9480 0.0000
# 2 3.3077 80.2630 1.9776 0.0000 -3.5003 0.0000
# 3 39.8471 1.9776 79.4917 0.0000 2.0102 0.0000
# 4 0.0000 0.0000 0.0000 33.9624 0.0000 -12.5291
# 5 12.9480 -3.5003 2.0102 0.0000 31.1279 0.0000
# 6 0.0000 0.0000 0.0000 -12.5291 0.0000 7.6068
#
#
#
# Elastic Compliance Matrix: (Units=1/GPa)
#
#
# Indices 1 2 3 4 5 6 
#
# 1 0.060396 -0.002785 -0.029611 0.000000 -0.023523 0.000000
# 2 -0.002785 0.012658 0.001018 0.000000 0.002516 0.000000
# 3 -0.029611 0.001018 0.027128 0.000000 0.010679 0.000000
# 4 0.000000 0.000000 0.000000 0.075042 0.000000 0.123601
# 5 -0.023523 0.002516 0.010679 0.000000 0.041503 0.000000
# 6 0.000000 0.000000 0.000000 0.123601 0.000000 0.335045
#
#
# Mechanical properties :
#
#
# Convention : Reuss Voigt Hill
#
# Bulk Modulus (GPa) = 26.71985 32.36761 29.54373
# Shear Modulus (GPa) = 7.97443 24.93352 16.45398
#
# Velocity S-wave (km/s) = 2.00878 3.55202 2.88548
# Velocity P-wave (km/s) = 4.34753 5.76203 5.10402
#
# Compressibility (1/GPa) = 0.03742536
#
# Stress axis : x y z
#
# Youngs Moduli (GPa) = 16.55739 78.99837 36.86281
#
# Poissons Ratio (x) = 0.22003 1.09153
# Poissons Ratio (y) = 0.04612 -0.03751
# Poissons Ratio (z) = 0.49028 -0.08039
#
# Static dielectric constant tensor:
#      x y z
#    x 3.425180 0.000000 0.028010 
#    y 0.000000 3.639640 0.000000 
#    z 0.028010 0.000000 4.012420 
# 
# 
# High freq. dielectric constant tensor:
#      x y z
#    x 1.752360 0.000000 -0.002130 
#    y 0.000000 1.787670 0.000000 
#    z -0.002130 0.000000 1.765910 
# 
# From -- ./inp_files/74194.got.cif
#   From: 2010.03.12/outbox.cif.g09.slc.cpg/sg14_38_cif.got.tgz:74194.got - 2010.03.31 13:35:05.
