data_PCOD8125150
_publ_section_title
;
Structure prediction by ZEFSAII (Michael W. Deem and Ramdas Pophale) SiO2 
 PCOD8125150
Probable space group: P 21/C
;
_chemical_formula_sum "Si O2"
_cell_formula_units_Z 32
_cell_length_a 14.550123
_cell_length_b 14.946658
_cell_length_c 20.109195
_cell_angle_alpha 90.000000
_cell_angle_beta 159.357488
_cell_angle_gamma 90.000000
_cell_volume 1541.732485
_symmetry_space_group_name_H-M "P 21/C"
_symmetry_group_IT_number 14
_symmetry_cell_setting 'monoclinic'
loop_
_space_group_symop_operation_xyz
x,y,z
-x,1/2+y,1/2-z
-x,-y,-z
x,1/2-y,1/2+z
loop_
_atom_site_type_symbol
_atom_site_label
_atom_site_fract_x
_atom_site_fract_y
_atom_site_fract_z
Si Si1 0.384493 0.401655 0.410721
Si Si2 0.149438 0.197994 0.095949
Si Si3 0.314703 0.055636 0.111368
Si Si4 0.078250 0.516596 0.977290
Si Si5 0.668755 0.269482 0.511273
Si Si6 0.769418 0.143837 0.948802
Si Si7 0.808673 0.671727 0.987502
Si Si8 0.844636 0.817476 0.114142
O O1 0.500000 0.500000 0.500000
O O2 0.606428 0.345267 0.523518
O O3 0.324379 0.345419 0.436521
O O4 0.118309 0.410686 0.187279
O O5 0.213859 0.100838 0.110291
O O6 0.402246 0.229472 0.305679
O O7 0.047892 0.262630 0.967966
O O8 0.920974 0.195043 0.994267
O O9 0.628715 0.054056 0.326017
O O10 0.213802 0.108320 0.979499
O O11 0.171570 0.961000 0.010469
O O12 0.049040 0.424635 0.914430
O O13 0.000000 0.500000 0.000000
O O14 0.838207 0.314583 0.566939
O O15 0.846469 0.188946 0.660611
O O16 0.468223 0.156885 0.732566
O O17 0.778714 0.717875 0.039787
#
# Coordination Sequence:
#
# PCOD8125150 Si02
#       8
#     4   4   4   4   4   4   4   4
#     4  12  24  39  63  91 122 162 201 248 307 364
#     4  10  20  37  59  82 112 153 194 240 298 358
#     4  10  22  38  59  87 115 153 200 244 293 357
#     4  11  21  39  64  91 121 157 206 260 303 355
#     4  11  23  38  56  85 118 154 195 242 303 362
#     4  10  20  39  60  82 112 148 196 248 294 353
#     4   9  22  37  59  88 116 151 197 248 302 359
#     4  11  23  39  56  84 124 156 192 246 303 364
#
# _framework density 20.755870999999999
#
# number of rings (size 3 to 8) (size 9 to 14) (size 15 to 20)
#    0.000    1.500    0.000    6.375    0.000    8.000 
#    0.000    0.625    0.000    0.000    0.000    0.000 
#    0.000    0.000    0.000    0.000    0.000    0.000 
#
# Total GULP energy -396748.658491 kJ/mol
# GULP energy per Si atom -12398.395578 kJ/mol
# Density = 2.070863 g / cm^3
# Si number density = 20.755871 Si / 1000 Ang^3
#
#
#
# Elastic Constant Matrix: (Units=GPa)
#
#
# Indices 1 2 3 4 5 6 
#
# 1 149.9809 51.3641 13.6858 0.0000 6.0180 0.0000
# 2 51.3641 88.9308 11.2571 0.0000 8.7917 0.0000
# 3 13.6858 11.2571 36.1891 0.0000 0.2093 0.0000
# 4 0.0000 0.0000 0.0000 23.4245 0.0000 4.4913
# 5 6.0180 8.7917 0.2093 0.0000 26.9769 0.0000
# 6 0.0000 0.0000 0.0000 4.4913 0.0000 33.2076
#
#
#
# Elastic Compliance Matrix: (Units=1/GPa)
#
#
# Indices 1 2 3 4 5 6 
#
# 1 0.008419 -0.004605 -0.001749 0.000000 -0.000364 0.000000
# 2 -0.004605 0.014625 -0.002786 0.000000 -0.003717 0.000000
# 3 -0.001749 -0.002786 0.029155 0.000000 0.001072 0.000000
# 4 0.000000 0.000000 0.000000 0.043827 0.000000 -0.005928
# 5 -0.000364 -0.003717 0.001072 0.000000 0.038353 0.000000
# 6 0.000000 0.000000 0.000000 -0.005928 0.000000 0.030915
#
#
# Mechanical properties :
#
#
# Convention : Reuss Voigt Hill
#
# Bulk Modulus (GPa) = 29.48358 47.52385 38.50372
# Shear Modulus (GPa) = 25.65682 29.97473 27.81577
#
# Velocity S-wave (km/s) = 3.51967 3.80433 3.66476
# Velocity P-wave (km/s) = 5.54556 6.49950 6.04139
#
# Compressibility (1/GPa) = 0.03391718
#
# Stress axis : x y z
#
# Youngs Moduli (GPa) = 118.78116 68.37767 34.29988
#
# Poissons Ratio (x) = 0.31489 0.06000
# Poissons Ratio (y) = 0.54700 0.09556
# Poissons Ratio (z) = 0.20777 0.19051
#
# Static dielectric constant tensor:
#      x y z
#    x 4.026600 0.000000 -0.085630 
#    y 0.000000 4.590740 0.000000 
#    z -0.085630 0.000000 3.729130 
# 
# 
# High freq. dielectric constant tensor:
#      x y z
#    x 1.819140 0.000000 -0.007120 
#    y 0.000000 1.820240 0.000000 
#    z -0.007120 0.000000 1.808520 
# 
# From -- ./inp_files/68720.got.cif
#   From: 2010.03.12/outbox.cif.g09.slc.cpg/sg14_35_cif.got.tgz:68720.got - 2010.03.31 13:35:05.
