data_PCOD8125914
_publ_section_title
;
Structure prediction by ZEFSAII (Michael W. Deem and Ramdas Pophale) SiO2 
 PCOD8125914
Probable space group: P 21/C
;
_chemical_formula_sum "Si O2"
_cell_formula_units_Z 28
_cell_length_a 13.886396
_cell_length_b 8.769402
_cell_length_c 20.776958
_cell_angle_alpha 90.000000
_cell_angle_beta 30.720138
_cell_angle_gamma 90.000000
_cell_volume 1292.500504
_symmetry_space_group_name_H-M "P 21/C"
_symmetry_group_IT_number 14
_symmetry_cell_setting 'monoclinic'
loop_
_space_group_symop_operation_xyz
x,y,z
-x,1/2+y,1/2-z
-x,-y,-z
x,1/2-y,1/2+z
loop_
_atom_site_type_symbol
_atom_site_label
_atom_site_fract_x
_atom_site_fract_y
_atom_site_fract_z
Si Si1 0.772824 0.868584 0.693567
Si Si2 0.325029 0.599395 0.575108
Si Si3 0.101001 0.132501 0.982775
Si Si4 0.621699 0.620193 0.021772
Si Si5 0.401231 0.151625 0.609120
Si Si6 0.012814 0.882495 0.363162
Si Si7 0.602292 0.556860 0.588024
O O1 0.830202 0.772711 0.599296
O O2 0.747770 0.755100 0.768051
O O3 0.938883 0.986763 0.613287
O O4 0.580804 0.958697 0.790730
O O5 0.500000 0.500000 0.500000
O O6 0.396728 0.769124 0.519976
O O7 0.154255 0.606975 0.722259
O O8 0.263466 0.522960 0.542815
O O9 0.283721 0.060383 0.911190
O O10 0.973513 0.213857 0.111595
O O11 0.000000 0.000000 0.000000
O O12 0.690469 0.620321 0.907804
O O13 0.801860 0.580261 0.961434
O O14 0.451815 0.496749 0.123480
O O15 0.537187 0.779710 0.096479
#
# Coordination Sequence:
#
# PCOD8125914 Si02
#       7
#     4   4   4   4   4   4   4
#     4  11  23  43  65  86 129 183 215 258 331 407
#     4  11  19  41  69  93 129 173 211 273 340 402
#     4  11  28  44  63  99 133 172 223 277 317 395
#     4  10  21  36  60 101 130 163 223 286 335 381
#     4  10  21  37  62  97 130 171 219 267 335 396
#     4  11  23  41  68  93 131 173 218 279 336 384
#     4  10  22  44  66  90 128 174 220 267 336 395
#
# _framework density 21.663436000000001
#
# number of rings (size 3 to 8) (size 9 to 14) (size 15 to 20)
#    0.000    1.429    4.286    0.429    0.000   13.714 
#    0.000    0.000    0.000    0.000    0.000    0.000 
#    0.000    0.000    0.000    0.000    0.000    0.000 
#
# Total GULP energy -347118.792527 kJ/mol
# GULP energy per Si atom -12397.099733 kJ/mol
# Density = 2.161413 g / cm^3
# Si number density = 21.663436 Si / 1000 Ang^3
#
#
#
# Elastic Constant Matrix: (Units=GPa)
#
#
# Indices 1 2 3 4 5 6 
#
# 1 134.3495 69.1453 21.7937 0.0000 -0.8192 0.0000
# 2 69.1453 129.3542 38.4589 0.0000 -3.3928 0.0000
# 3 21.7937 38.4589 67.7423 0.0000 -0.3016 0.0000
# 4 0.0000 0.0000 0.0000 33.2942 0.0000 5.1341
# 5 -0.8192 -3.3928 -0.3016 0.0000 17.4521 0.0000
# 6 0.0000 0.0000 0.0000 5.1341 0.0000 43.5326
#
#
#
# Elastic Compliance Matrix: (Units=1/GPa)
#
#
# Indices 1 2 3 4 5 6 
#
# 1 0.010277 -0.005444 -0.000218 0.000000 -0.000580 0.000000
# 2 -0.005444 0.012236 -0.005186 0.000000 0.002034 0.000000
# 3 -0.000218 -0.005186 0.017773 0.000000 -0.000711 0.000000
# 4 0.000000 0.000000 0.000000 0.030592 0.000000 -0.003608
# 5 -0.000580 0.002034 -0.000711 0.000000 0.057656 0.000000
# 6 0.000000 0.000000 0.000000 -0.003608 0.000000 0.023397
#
#
# Mechanical properties :
#
#
# Convention : Reuss Voigt Hill
#
# Bulk Modulus (GPa) = 53.79371 65.58242 59.68806
# Shear Modulus (GPa) = 27.80514 32.32564 30.06539
#
# Velocity S-wave (km/s) = 3.58649 3.86706 3.72941
# Velocity P-wave (km/s) = 6.48352 7.09069 6.79389
#
# Compressibility (1/GPa) = 0.01858953
#
# Stress axis : x y z
#
# Youngs Moduli (GPa) = 97.30603 81.72675 56.26446
#
# Poissons Ratio (x) = 0.44490 0.01228
# Poissons Ratio (y) = 0.52971 0.29180
# Poissons Ratio (z) = 0.02124 0.42385
#
# Static dielectric constant tensor:
#      x y z
#    x 3.992730 0.000000 0.217090 
#    y 0.000000 4.294070 0.000000 
#    z 0.217090 0.000000 3.908260 
# 
# 
# High freq. dielectric constant tensor:
#      x y z
#    x 1.855590 0.000000 0.014600 
#    y 0.000000 1.867400 0.000000 
#    z 0.014600 0.000000 1.829570 
# 
# From -- ./inp_files/68300.got.cif
#   From: 2010.03.12/outbox.cif.g09.slc.cpg/sg14_35_cif.got.tgz:68300.got - 2010.03.31 13:35:05.
