data_PCOD8125276
_publ_section_title
;
Structure prediction by ZEFSAII (Michael W. Deem and Ramdas Pophale) SiO2 
 PCOD8125276
Probable space group: P 21/C
;
_chemical_formula_sum "Si O2"
_cell_formula_units_Z 28
_cell_length_a 11.181442
_cell_length_b 9.169329
_cell_length_c 25.253191
_cell_angle_alpha 90.000000
_cell_angle_beta 33.191602
_cell_angle_gamma 90.000000
_cell_volume 1417.387552
_symmetry_space_group_name_H-M "P 21/C"
_symmetry_group_IT_number 14
_symmetry_cell_setting 'monoclinic'
loop_
_space_group_symop_operation_xyz
x,y,z
-x,1/2+y,1/2-z
-x,-y,-z
x,1/2-y,1/2+z
loop_
_atom_site_type_symbol
_atom_site_label
_atom_site_fract_x
_atom_site_fract_y
_atom_site_fract_z
Si Si1 0.737663 0.667979 0.462638
Si Si2 0.883412 0.902358 0.796072
Si Si3 0.260372 0.792821 0.182644
Si Si4 0.760667 0.678974 0.227862
Si Si5 0.991060 0.925629 0.080077
Si Si6 0.256997 0.828834 0.885825
Si Si7 0.876376 0.368132 0.156236
O O1 0.732539 0.638665 0.401916
O O2 0.496782 0.706575 0.569992
O O3 0.826383 0.525661 0.459951
O O4 0.880448 0.809322 0.423557
O O5 0.780320 0.822121 0.783772
O O6 0.134092 0.854981 0.713713
O O7 0.886151 0.075016 0.785566
O O8 0.281475 0.806324 0.238545
O O9 0.872713 0.826555 0.167020
O O10 0.508817 0.669426 0.306533
O O11 0.884013 0.542878 0.154739
O O12 0.802322 0.024505 0.124124
O O13 0.108116 0.823215 0.993473
O O14 0.210574 0.685457 0.868171
#
# Coordination Sequence:
#
# PCOD8125276 Si02
#       7
#     4   4   4   4   4   4   4
#     4  10  20  39  60  80 111 151 182 224 278 330
#     4  10  21  35  57  86 111 143 187 223 272 334
#     4  10  20  38  59  79 112 147 181 231 275 325
#     4  11  21  36  55  84 117 143 181 236 274 319
#     4  10  21  37  61  84 106 145 197 224 265 340
#     4  10  21  38  58  81 111 150 185 228 278 324
#     4   9  21  37  55  83 112 143 186 225 280 331
#
# _framework density 19.754652
#
# number of rings (size 3 to 8) (size 9 to 14) (size 15 to 20)
#    0.000    2.000    0.000    3.857    0.000    4.000 
#    0.000   13.571    0.000    0.000    0.000    0.000 
#    0.000    0.000    0.000    0.000    0.000    0.000 
#
# Total GULP energy -347278.041844 kJ/mol
# GULP energy per Si atom -12402.787209 kJ/mol
# Density = 1.970969 g / cm^3
# Si number density = 19.754652 Si / 1000 Ang^3
#
#
#
# Elastic Constant Matrix: (Units=GPa)
#
#
# Indices 1 2 3 4 5 6 
#
# 1 86.1423 7.5454 48.4452 0.0000 11.3804 0.0000
# 2 7.5454 29.0829 29.6173 0.0000 -2.5009 0.0000
# 3 48.4452 29.6173 129.2669 0.0000 2.5278 0.0000
# 4 0.0000 0.0000 0.0000 25.3545 0.0000 8.2117
# 5 11.3804 -2.5009 2.5278 0.0000 25.4881 0.0000
# 6 0.0000 0.0000 0.0000 8.2117 0.0000 27.7534
#
#
#
# Elastic Compliance Matrix: (Units=1/GPa)
#
#
# Indices 1 2 3 4 5 6 
#
# 1 0.015756 0.001647 -0.006160 0.000000 -0.006263 0.000000
# 2 0.001647 0.045784 -0.011202 0.000000 0.004868 0.000000
# 3 -0.006160 -0.011202 0.012603 0.000000 0.000401 0.000000
# 4 0.000000 0.000000 0.000000 0.043621 0.000000 -0.012907
# 5 -0.006263 0.004868 0.000401 0.000000 0.042468 0.000000
# 6 0.000000 0.000000 0.000000 -0.012907 0.000000 0.039850
#
#
# Mechanical properties :
#
#
# Convention : Reuss Voigt Hill
#
# Bulk Modulus (GPa) = 23.41235 46.18977 34.80106
# Shear Modulus (GPa) = 20.34583 26.31147 23.32865
#
# Velocity S-wave (km/s) = 3.21273 3.65350 3.44018
# Velocity P-wave (km/s) = 5.06354 6.42105 5.78227
#
# Compressibility (1/GPa) = 0.04271250
#
# Stress axis : x y z
#
# Youngs Moduli (GPa) = 63.46822 21.84168 79.34527
#
# Poissons Ratio (x) = -0.03596 0.48874
# Poissons Ratio (y) = -0.10450 0.88884
# Poissons Ratio (z) = 0.39094 0.24467
#
# Static dielectric constant tensor:
#      x y z
#    x 3.763310 0.000000 0.215440 
#    y 0.000000 3.589140 0.000000 
#    z 0.215440 0.000000 3.504650 
# 
# 
# High freq. dielectric constant tensor:
#      x y z
#    x 1.782740 0.000000 0.010160 
#    y 0.000000 1.763330 0.000000 
#    z 0.010160 0.000000 1.767210 
# 
# From -- ./inp_files/36129.got.cif
#   From: 2010.03.12/outbox.cif.g09.slc.cpg/sg14_19_cif.got.tgz:36129.got - 2010.03.31 13:35:05.
