data_PCOD8125170
_publ_section_title
;
Structure prediction by ZEFSAII (Michael W. Deem and Ramdas Pophale) SiO2 
 PCOD8125170
Probable space group: P 21/C
;
_chemical_formula_sum "Si O2"
_cell_formula_units_Z 24
_cell_length_a 27.301804
_cell_length_b 8.374303
_cell_length_c 9.237449
_cell_angle_alpha 90.000000
_cell_angle_beta 29.934267
_cell_angle_gamma 90.000000
_cell_volume 1053.896442
_symmetry_space_group_name_H-M "P 21/C"
_symmetry_group_IT_number 14
_symmetry_cell_setting 'monoclinic'
loop_
_space_group_symop_operation_xyz
x,y,z
-x,1/2+y,1/2-z
-x,-y,-z
x,1/2-y,1/2+z
loop_
_atom_site_type_symbol
_atom_site_label
_atom_site_fract_x
_atom_site_fract_y
_atom_site_fract_z
Si Si1 0.111255 0.557350 0.384187
Si Si2 0.239646 0.058687 0.150719
Si Si3 0.586664 0.396246 0.927778
Si Si4 0.065633 0.849053 0.688407
Si Si5 0.285975 0.356303 0.854617
Si Si6 0.511046 0.739525 0.084961
O O1 0.096466 0.673806 0.557490
O O2 0.076310 0.656089 0.333650
O O3 0.045240 0.397239 0.571561
O O4 0.224895 0.504501 0.078621
O O5 0.284538 0.133992 0.183346
O O6 0.132572 0.989218 0.450382
O O7 0.234790 0.192449 0.038622
O O8 0.307413 0.912742 0.918782
O O9 0.514931 0.284915 0.015418
O O10 0.541509 0.569599 0.071785
O O11 0.585938 0.305792 0.083803
O O12 0.397796 0.362647 0.626944
#
# Coordination Sequence:
#
# PCOD8125170 Si02
#       6
#     4   4   4   4   4   4
#     4  10  22  39  60  87 118 151 191 238 286 342
#     4  10  22  39  59  85 116 151 193 239 285 341
#     4  10  22  37  57  84 115 150 193 237 285 340
#     4  10  22  39  60  88 119 150 190 238 286 342
#     4  10  20  37  60  84 115 151 192 236 285 340
#     4  10  20  38  58  82 115 151 191 239 285 339
#
# _framework density 22.772635999999999
#
# number of rings (size 3 to 8) (size 9 to 14) (size 15 to 20)
#    0.000    2.000    0.000    4.000    0.000    6.667 
#    0.000    5.000    0.000    0.000    0.000    0.000 
#    0.000    0.000    0.000    0.000    0.000    0.000 
#
# Total GULP energy -297568.852174 kJ/mol
# GULP energy per Si atom -12398.702174 kJ/mol
# Density = 2.272080 g / cm^3
# Si number density = 22.772636 Si / 1000 Ang^3
#
#
#
# Elastic Constant Matrix: (Units=GPa)
#
#
# Indices 1 2 3 4 5 6 
#
# 1 45.7349 34.8062 29.5652 0.0000 -10.5442 0.0000
# 2 34.8062 61.5379 31.7085 0.0000 9.2376 0.0000
# 3 29.5652 31.7085 111.8294 0.0000 3.4742 0.0000
# 4 0.0000 0.0000 0.0000 60.3014 0.0000 9.0939
# 5 -10.5442 9.2376 3.4742 0.0000 18.3307 0.0000
# 6 0.0000 0.0000 0.0000 9.0939 0.0000 24.7904
#
#
#
# Elastic Compliance Matrix: (Units=1/GPa)
#
#
# Indices 1 2 3 4 5 6 
#
# 1 0.097737 -0.063304 -0.010690 0.000000 0.090148 0.000000
# 2 -0.063304 0.061490 0.001403 0.000000 -0.067667 0.000000
# 3 -0.010690 0.001403 0.011652 0.000000 -0.009065 0.000000
# 4 0.000000 0.000000 0.000000 0.017555 0.000000 -0.006440
# 5 0.090148 -0.067667 -0.009065 0.000000 0.142226 0.000000
# 6 0.000000 0.000000 0.000000 -0.006440 0.000000 0.042700
#
#
# Mechanical properties :
#
#
# Convention : Reuss Voigt Hill
#
# Bulk Modulus (GPa) = 38.91641 45.69579 42.30610
# Shear Modulus (GPa) = 9.48571 28.88600 19.18586
#
# Velocity S-wave (km/s) = 2.04314 3.56540 2.90573
# Velocity P-wave (km/s) = 4.76363 6.08762 5.46586
#
# Compressibility (1/GPa) = 0.02569610
#
# Stress axis : x y z
#
# Youngs Moduli (GPa) = 10.23156 16.26281 85.82054
#
# Poissons Ratio (x) = 1.02951 0.91746
# Poissons Ratio (y) = 0.64770 -0.12044
# Poissons Ratio (z) = 0.10938 -0.02282
#
# Static dielectric constant tensor:
#      x y z
#    x 3.803190 0.000000 -0.016560 
#    y 0.000000 3.891410 0.000000 
#    z -0.016560 0.000000 4.322410 
# 
# 
# High freq. dielectric constant tensor:
#      x y z
#    x 1.870880 0.000000 0.005560 
#    y 0.000000 1.888070 0.000000 
#    z 0.005560 0.000000 1.920370 
# 
# From -- ./inp_files/19925.got.cif
#   From: 2010.03.12/outbox.cif.g09.slc.cpg/sg14_10_cif.got.tgz:19925.got - 2010.03.31 13:35:05.
