data_PCOD8125561
_publ_section_title
;
Structure prediction by ZEFSAII (Michael W. Deem and Ramdas Pophale) SiO2 
 PCOD8125561
Probable space group: P 21/C
;
_chemical_formula_sum "Si O2"
_cell_formula_units_Z 28
_cell_length_a 25.668069
_cell_length_b 7.661091
_cell_length_c 13.600193
_cell_angle_alpha 90.000000
_cell_angle_beta 28.192266
_cell_angle_gamma 90.000000
_cell_volume 1263.478955
_symmetry_space_group_name_H-M "P 21/C"
_symmetry_group_IT_number 14
_symmetry_cell_setting 'monoclinic'
loop_
_space_group_symop_operation_xyz
x,y,z
-x,1/2+y,1/2-z
-x,-y,-z
x,1/2-y,1/2+z
loop_
_atom_site_type_symbol
_atom_site_label
_atom_site_fract_x
_atom_site_fract_y
_atom_site_fract_z
Si Si1 0.730983 0.865000 0.115525
Si Si2 0.620376 0.952199 0.492875
Si Si3 0.625826 0.912977 0.084694
Si Si4 0.099580 0.110785 0.723565
Si Si5 0.762068 0.203178 0.774816
Si Si6 0.913688 0.374379 0.377590
Si Si7 0.937360 0.246931 0.131576
O O1 0.637606 0.873735 0.354520
O O2 0.681067 0.945107 0.099087
O O3 0.780169 0.670414 0.015141
O O4 0.836876 0.963229 0.982076
O O5 0.637577 0.790792 0.538553
O O6 0.500032 0.032134 0.699197
O O7 0.702127 0.109440 0.385355
O O8 0.678958 0.038629 0.911746
O O9 0.012289 0.064062 0.783225
O O10 0.111724 0.947241 0.774785
O O11 0.046065 0.261020 0.882430
O O12 0.839172 0.217355 0.548831
O O13 0.837430 0.156543 0.743546
O O14 0.970018 0.319723 0.182632
#
# Coordination Sequence:
#
# PCOD8125561 Si02
#       7
#     4   4   4   4   4   4   4
#     4  11  24  42  65  98 127 169 218 269 319 387
#     4  11  25  44  68  96 129 166 221 274 324 389
#     4  12  23  45  68  94 127 174 213 274 332 382
#     4  10  22  37  61  92 126 170 212 259 319 377
#     4  10  22  42  64  94 127 167 215 265 326 378
#     4  10  21  38  62  91 129 167 210 262 316 384
#     4  10  20  40  60  88 130 167 209 263 314 391
#
# _framework density 22.161033
#
# number of rings (size 3 to 8) (size 9 to 14) (size 15 to 20)
#    0.000    1.429    2.857    2.143    2.000    4.000 
#    0.000    0.714    0.000    0.000    0.000    0.000 
#    0.000    0.000    0.000    0.000    0.000    0.000 
#
# Total GULP energy -347028.151717 kJ/mol
# GULP energy per Si atom -12393.862561 kJ/mol
# Density = 2.211059 g / cm^3
# Si number density = 22.161033 Si / 1000 Ang^3
#
#
#
# Elastic Constant Matrix: (Units=GPa)
#
#
# Indices 1 2 3 4 5 6 
#
# 1 72.2456 0.7123 3.9801 0.0000 19.7806 0.0000
# 2 0.7123 62.8502 2.3343 0.0000 3.3320 0.0000
# 3 3.9801 2.3343 27.4925 0.0000 13.9674 0.0000
# 4 0.0000 0.0000 0.0000 36.3698 0.0000 -3.0826
# 5 19.7806 3.3320 13.9674 0.0000 26.9286 0.0000
# 6 0.0000 0.0000 0.0000 -3.0826 0.0000 29.3579
#
#
#
# Elastic Compliance Matrix: (Units=1/GPa)
#
#
# Indices 1 2 3 4 5 6 
#
# 1 0.017944 0.000445 0.005552 0.000000 -0.016115 0.000000
# 2 0.000445 0.016032 -0.000342 0.000000 -0.002133 0.000000
# 3 0.005552 -0.000342 0.051120 0.000000 -0.030551 0.000000
# 4 0.000000 0.000000 0.000000 0.027742 0.000000 0.002913
# 5 -0.016115 -0.002133 -0.030551 0.000000 0.065083 0.000000
# 6 0.000000 0.000000 0.000000 0.002913 0.000000 0.034368
#
#
# Mechanical properties :
#
#
# Convention : Reuss Voigt Hill
#
# Bulk Modulus (GPa) = 10.37288 19.62682 14.99985
# Shear Modulus (GPa) = 21.44867 28.90202 25.17534
#
# Velocity S-wave (km/s) = 3.11441 3.61526 3.37414
# Velocity P-wave (km/s) = 4.19805 5.12860 4.68648
#
# Compressibility (1/GPa) = 0.09640522
#
# Stress axis : x y z
#
# Youngs Moduli (GPa) = 55.72964 62.37683 19.56175
#
# Poissons Ratio (x) = -0.02775 -0.10860
# Poissons Ratio (y) = -0.02479 0.00669
# Poissons Ratio (z) = -0.30940 0.02132
#
# Static dielectric constant tensor:
#      x y z
#    x 3.835520 0.000000 0.156760 
#    y 0.000000 3.877860 0.000000 
#    z 0.156760 0.000000 4.278480 
# 
# 
# High freq. dielectric constant tensor:
#      x y z
#    x 1.868670 0.000000 0.007180 
#    y 0.000000 1.867100 0.000000 
#    z 0.007180 0.000000 1.879470 
# 
# From -- ./inp_files/36153.got.cif
#   From: 2010.03.12/outbox.cif.g09.slc.cpg/sg14_19_cif.got.tgz:36153.got - 2010.03.31 13:35:05.
