data_PCOD8125006
_publ_section_title
;
Structure prediction by ZEFSAII (Michael W. Deem and Ramdas Pophale) SiO2 
 PCOD8125006
Probable space group: P 21/C
;
_chemical_formula_sum "Si O2"
_cell_formula_units_Z 32
_cell_length_a 11.428420
_cell_length_b 9.516032
_cell_length_c 29.947162
_cell_angle_alpha 90.000000
_cell_angle_beta 29.112121
_cell_angle_gamma 90.000000
_cell_volume 1584.523375
_symmetry_space_group_name_H-M "P 21/C"
_symmetry_group_IT_number 14
_symmetry_cell_setting 'monoclinic'
loop_
_space_group_symop_operation_xyz
x,y,z
-x,1/2+y,1/2-z
-x,-y,-z
x,1/2-y,1/2+z
loop_
_atom_site_type_symbol
_atom_site_label
_atom_site_fract_x
_atom_site_fract_y
_atom_site_fract_z
Si Si1 0.151508 0.917434 0.101121
Si Si2 0.458695 0.350732 0.357384
Si Si3 0.049758 0.755665 0.475642
Si Si4 0.100824 0.360208 0.066344
Si Si5 0.530786 0.100317 0.205765
Si Si6 0.009916 0.333450 0.904410
Si Si7 0.773397 0.368156 0.715195
Si Si8 0.501756 0.856061 0.058295
O O1 0.258593 0.847807 0.110337
O O2 0.119836 0.796400 0.075457
O O3 0.906566 0.001889 0.195483
O O4 0.325440 0.030555 0.021242
O O5 0.554497 0.452411 0.286468
O O6 0.546550 0.189728 0.318974
O O7 0.563127 0.404484 0.369862
O O8 0.167739 0.357515 0.454455
O O9 0.311976 0.683764 0.383423
O O10 0.010727 0.859021 0.446597
O O11 0.042740 0.834611 0.525177
O O12 0.097726 0.523631 0.081213
O O13 0.943997 0.267245 0.152500
O O14 0.370699 0.296781 0.979324
O O15 0.294156 0.184206 0.299865
O O16 0.696511 0.069805 0.193131
#
# Coordination Sequence:
#
# PCOD8125006 Si02
#       8
#     4   4   4   4   4   4   4   4
#     4  10  22  40  63  85 114 160 214 252 302 362
#     4  11  19  38  61  85 120 166 203 248 304 363
#     4  10  21  36  57  93 126 162 197 243 310 376
#     4   9  20  37  58  88 119 156 195 249 304 364
#     4  11  22  35  60  92 128 156 203 247 308 374
#     4  12  21  37  61  93 128 157 199 255 309 362
#     4  10  20  36  58  86 120 159 197 243 307 361
#     4   9  21  43  63  81 114 163 212 256 299 359
#
# _framework density 20.195347000000002
#
# number of rings (size 3 to 8) (size 9 to 14) (size 15 to 20)
#    0.000    1.750    2.500    3.000    0.000    0.500 
#    6.750    0.000    0.000    0.000    0.000    0.000 
#    0.000    0.000    0.000    0.000    0.000    0.000 
#
# Total GULP energy -396726.594723 kJ/mol
# GULP energy per Si atom -12397.706085 kJ/mol
# Density = 2.014938 g / cm^3
# Si number density = 20.195347 Si / 1000 Ang^3
#
#
#
# Elastic Constant Matrix: (Units=GPa)
#
#
# Indices 1 2 3 4 5 6 
#
# 1 94.7814 41.1395 25.5692 0.0000 -5.9242 0.0000
# 2 41.1395 91.5121 26.3833 0.0000 -7.9751 0.0000
# 3 25.5692 26.3833 79.3689 0.0000 -4.6180 0.0000
# 4 0.0000 0.0000 0.0000 24.9894 0.0000 1.3034
# 5 -5.9242 -7.9751 -4.6180 0.0000 22.4025 0.0000
# 6 0.0000 0.0000 0.0000 1.3034 0.0000 20.9753
#
#
#
# Elastic Compliance Matrix: (Units=1/GPa)
#
#
# Indices 1 2 3 4 5 6 
#
# 1 0.013605 -0.005274 -0.002560 0.000000 0.001192 0.000000
# 2 -0.005274 0.014410 -0.002909 0.000000 0.003136 0.000000
# 3 -0.002560 -0.002909 0.014465 0.000000 0.001269 0.000000
# 4 0.000000 0.000000 0.000000 0.040147 0.000000 -0.002495
# 5 0.001192 0.003136 0.001269 0.000000 0.046331 0.000000
# 6 0.000000 0.000000 0.000000 -0.002495 0.000000 0.047830
#
#
# Mechanical properties :
#
#
# Convention : Reuss Voigt Hill
#
# Bulk Modulus (GPa) = 47.63250 50.20514 48.91882
# Shear Modulus (GPa) = 24.35778 25.17812 24.76795
#
# Velocity S-wave (km/s) = 3.47668 3.53474 3.50583
# Velocity P-wave (km/s) = 6.30503 6.44770 6.37677
#
# Compressibility (1/GPa) = 0.02099407
#
# Stress axis : x y z
#
# Youngs Moduli (GPa) = 73.50219 69.39467 69.13253
#
# Poissons Ratio (x) = 0.36599 0.17701
# Poissons Ratio (y) = 0.38766 0.20108
# Poissons Ratio (z) = 0.18819 0.20184
#
# Static dielectric constant tensor:
#      x y z
#    x 3.685160 0.000000 -0.060380 
#    y 0.000000 3.541900 0.000000 
#    z -0.060380 0.000000 3.673580 
# 
# 
# High freq. dielectric constant tensor:
#      x y z
#    x 1.769090 0.000000 0.001890 
#    y 0.000000 1.780240 0.000000 
#    z 0.001890 0.000000 1.785540 
# 
# From -- ./inp_files/80006.got.cif
#   From: 2010.03.12/outbox.cif.g09.slc.cpg/sg14_41_cif.got.tgz:80006.got - 2010.03.31 13:35:05.
