data_PCOD8125907
_publ_section_title
;
Structure prediction by ZEFSAII (Michael W. Deem and Ramdas Pophale) SiO2 
 PCOD8125907
Probable space group: P 21/C
;
_chemical_formula_sum "Si O2"
_cell_formula_units_Z 24
_cell_length_a 8.159694
_cell_length_b 7.843262
_cell_length_c 17.791534
_cell_angle_alpha 90.000000
_cell_angle_beta 110.175362
_cell_angle_gamma 90.000000
_cell_volume 1068.768645
_symmetry_space_group_name_H-M "P 21/C"
_symmetry_group_IT_number 14
_symmetry_cell_setting 'monoclinic'
loop_
_space_group_symop_operation_xyz
x,y,z
-x,1/2+y,1/2-z
-x,-y,-z
x,1/2-y,1/2+z
loop_
_atom_site_type_symbol
_atom_site_label
_atom_site_fract_x
_atom_site_fract_y
_atom_site_fract_z
Si Si1 0.368192 0.691181 0.334958
Si Si2 0.030470 0.631813 0.807024
Si Si3 0.579141 0.688670 0.995910
Si Si4 0.749227 0.789968 0.673774
Si Si5 0.535245 0.479041 0.789072
Si Si6 0.148811 0.077613 0.574200
O O1 0.160778 0.715988 0.304697
O O2 0.434244 0.693380 0.432046
O O3 0.419021 0.523987 0.293704
O O4 0.456186 0.841480 0.300218
O O5 0.131342 0.453594 0.827700
O O6 0.873558 0.636332 0.721017
O O7 0.946747 0.680959 0.874356
O O8 0.740289 0.695161 0.963774
O O9 0.500000 0.500000 0.000000
O O10 0.645238 0.772665 0.083424
O O11 0.608333 0.834882 0.715308
O O12 0.714928 0.444046 0.864802
O O13 0.000000 0.000000 0.500000
#
# Coordination Sequence:
#
# PCOD8125907 Si02
#       6
#     4   4   4   4   4   4
#     4  10  21  37  60  84 117 150 198 235 289 341
#     4  11  22  35  59  89 117 149 192 244 285 339
#     4  11  18  37  58  84 111 153 196 234 277 350
#     4  11  21  37  59  85 119 149 196 236 289 340
#     4  10  21  36  59  83 116 155 190 235 288 345
#     4  11  19  33  59  85 111 148 196 233 278 337
#
# _framework density 22.455748
#
# number of rings (size 3 to 8) (size 9 to 14) (size 15 to 20)
#    0.000    1.333    6.667    3.000    0.000    0.000 
#    0.000    0.000    3.667    6.000    0.000    0.000 
#    0.000    0.000    0.000    0.000    0.000    0.000 
#
# Total GULP energy -297375.739575 kJ/mol
# GULP energy per Si atom -12390.655816 kJ/mol
# Density = 2.240464 g / cm^3
# Si number density = 22.455748 Si / 1000 Ang^3
#
#
#
# Elastic Constant Matrix: (Units=GPa)
#
#
# Indices 1 2 3 4 5 6 
#
# 1 132.7679 2.5998 40.3314 0.0000 -4.5650 0.0000
# 2 2.5998 15.6597 -11.9963 0.0000 -1.1163 0.0000
# 3 40.3314 -11.9963 151.1044 0.0000 10.0233 0.0000
# 4 0.0000 0.0000 0.0000 38.1408 0.0000 -0.4307
# 5 -4.5650 -1.1163 10.0233 0.0000 53.3975 0.0000
# 6 0.0000 0.0000 0.0000 -0.4307 0.0000 29.5260
#
#
#
# Elastic Compliance Matrix: (Units=1/GPa)
#
#
# Indices 1 2 3 4 5 6 
#
# 1 0.008421 -0.003297 -0.002585 0.000000 0.001136 0.000000
# 2 -0.003297 0.069293 0.006383 0.000000 -0.000031 0.000000
# 3 -0.002585 0.006383 0.007919 0.000000 -0.001574 0.000000
# 4 0.000000 0.000000 0.000000 0.026223 0.000000 0.000382
# 5 0.001136 -0.000031 -0.001574 0.000000 0.019119 0.000000
# 6 0.000000 0.000000 0.000000 0.000382 0.000000 0.033874
#
#
# Mechanical properties :
#
#
# Convention : Reuss Voigt Hill
#
# Bulk Modulus (GPa) = 11.54250 40.15576 25.84913
# Shear Modulus (GPa) = 25.94369 42.11932 34.03150
#
# Velocity S-wave (km/s) = 3.40269 4.33559 3.89716
# Velocity P-wave (km/s) = 4.53752 6.55622 5.63796
#
# Compressibility (1/GPa) = 0.08663633
#
# Stress axis : x y z
#
# Youngs Moduli (GPa) = 118.75447 14.43139 126.27831
#
# Poissons Ratio (x) = 0.04758 0.32639
# Poissons Ratio (y) = 0.39154 -0.80608
# Poissons Ratio (z) = 0.30695 -0.09212
#
# Static dielectric constant tensor:
#      x y z
#    x 4.707060 0.000000 0.092320 
#    y 0.000000 3.585230 0.000000 
#    z 0.092320 0.000000 4.407390 
# 
# 
# High freq. dielectric constant tensor:
#      x y z
#    x 1.918360 0.000000 0.001010 
#    y 0.000000 1.828680 0.000000 
#    z 0.001010 0.000000 1.896620 
# 
# From -- ./inp_files/39582.got.cif
#   From: 2010.03.12/outbox.cif.g09.slc.cpg/sg14_20_cif.got.tgz:39582.got - 2010.03.31 13:35:05.
