data_PCOD8125651
_publ_section_title
;
Structure prediction by ZEFSAII (Michael W. Deem and Ramdas Pophale) SiO2 
 PCOD8125651
Probable space group: P 21/C
;
_chemical_formula_sum "Si O2"
_cell_formula_units_Z 16
_cell_length_a 13.319363
_cell_length_b 10.937627
_cell_length_c 15.385954
_cell_angle_alpha 90.000000
_cell_angle_beta 162.869240
_cell_angle_gamma 90.000000
_cell_volume 660.229694
_symmetry_space_group_name_H-M "P 21/C"
_symmetry_group_IT_number 14
_symmetry_cell_setting 'monoclinic'
loop_
_space_group_symop_operation_xyz
x,y,z
-x,1/2+y,1/2-z
-x,-y,-z
x,1/2-y,1/2+z
loop_
_atom_site_type_symbol
_atom_site_label
_atom_site_fract_x
_atom_site_fract_y
_atom_site_fract_z
Si Si1 0.546004 0.929131 0.629127
Si Si2 0.164479 0.236981 0.744646
Si Si3 0.665949 0.068389 0.257458
Si Si4 0.882088 0.027359 0.077155
O O1 0.693694 0.795344 0.728798
O O2 0.500000 0.000000 0.500000
O O3 0.787489 0.998352 0.898081
O O4 0.152135 0.925694 0.337933
O O5 0.794239 0.178362 0.423740
O O6 0.080624 0.342282 0.746207
O O7 0.435530 0.131276 0.992929
O O8 0.445089 0.973399 0.131514
O O9 0.000000 0.000000 0.500000
#
# Coordination Sequence:
#
# PCOD8125651 Si02
#       4
#     4   4   4   4
#     4  10  20  40  69  98 125 164 227 279 318 392
#     4  11  23  43  67  93 132 176 213 274 337 379
#     4  12  27  43  63  98 137 170 216 272 334 402
#     4  11  23  42  68  99 129 174 229 269 323 411
#
# _framework density 24.233989000000001
#
# number of rings (size 3 to 8) (size 9 to 14) (size 15 to 20)
#    0.000    1.000    0.000    9.750    0.000    6.000 
#    0.000    2.500    0.000    0.000    0.000    0.000 
#    0.000    0.000    0.000    0.000    0.000    0.000 
#
# Total GULP energy -198277.931470 kJ/mol
# GULP energy per Si atom -12392.370717 kJ/mol
# Density = 2.417883 g / cm^3
# Si number density = 24.233989 Si / 1000 Ang^3
#
#
#
# Elastic Constant Matrix: (Units=GPa)
#
#
# Indices 1 2 3 4 5 6 
#
# 1 55.6663 28.1747 8.8684 0.0000 17.8537 0.0000
# 2 28.1747 81.0829 28.0997 0.0000 19.7248 0.0000
# 3 8.8684 28.0997 118.2041 0.0000 12.8492 0.0000
# 4 0.0000 0.0000 0.0000 44.9303 0.0000 -2.2888
# 5 17.8537 19.7248 12.8492 0.0000 61.3795 0.0000
# 6 0.0000 0.0000 0.0000 -2.2888 0.0000 26.3406
#
#
#
# Elastic Compliance Matrix: (Units=1/GPa)
#
#
# Indices 1 2 3 4 5 6 
#
# 1 0.022884 -0.007010 0.000438 0.000000 -0.004495 0.000000
# 2 -0.007010 0.016480 -0.003108 0.000000 -0.002606 0.000000
# 3 0.000438 -0.003108 0.009283 0.000000 -0.001072 0.000000
# 4 0.000000 0.000000 0.000000 0.022356 0.000000 0.001943
# 5 -0.004495 -0.002606 -0.001072 0.000000 0.018662 0.000000
# 6 0.000000 0.000000 0.000000 0.001943 0.000000 0.038133
#
#
# Mechanical properties :
#
#
# Convention : Reuss Voigt Hill
#
# Bulk Modulus (GPa) = 34.14570 42.80433 38.47501
# Shear Modulus (GPa) = 31.86335 39.18410 35.52373
#
# Velocity S-wave (km/s) = 3.62998 4.02544 3.83281
# Velocity P-wave (km/s) = 5.62935 6.26952 5.95804
#
# Compressibility (1/GPa) = 0.02928626
#
# Stress axis : x y z
#
# Youngs Moduli (GPa) = 43.69818 60.67882 107.72934
#
# Poissons Ratio (x) = 0.42537 -0.04721
# Poissons Ratio (y) = 0.30633 0.33487
# Poissons Ratio (z) = -0.01915 0.18862
#
# Static dielectric constant tensor:
#      x y z
#    x 4.200810 0.000000 0.324260 
#    y 0.000000 4.440310 0.000000 
#    z 0.324260 0.000000 5.432550 
# 
# 
# High freq. dielectric constant tensor:
#      x y z
#    x 1.940330 0.000000 0.009140 
#    y 0.000000 1.949520 0.000000 
#    z 0.009140 0.000000 1.999000 
# 
# From -- ./inp_files/44730.got.cif
#   From: 2010.03.12/outbox.cif.g09.slc.cpg/sg14_23_cif.got.tgz:44730.got - 2010.03.31 13:35:05.
