data_PCOD8125003
_publ_section_title
;
Structure prediction by ZEFSAII (Michael W. Deem and Ramdas Pophale) SiO2 
 PCOD8125003
Probable space group: P 21/C
;
_chemical_formula_sum "Si O2"
_cell_formula_units_Z 24
_cell_length_a 7.455898
_cell_length_b 9.920466
_cell_length_c 14.528896
_cell_angle_alpha 90.000000
_cell_angle_beta 105.020674
_cell_angle_gamma 90.000000
_cell_volume 1037.926032
_symmetry_space_group_name_H-M "P 21/C"
_symmetry_group_IT_number 14
_symmetry_cell_setting 'monoclinic'
loop_
_space_group_symop_operation_xyz
x,y,z
-x,1/2+y,1/2-z
-x,-y,-z
x,1/2-y,1/2+z
loop_
_atom_site_type_symbol
_atom_site_label
_atom_site_fract_x
_atom_site_fract_y
_atom_site_fract_z
Si Si1 0.097932 0.801586 0.476741
Si Si2 0.589026 0.290161 0.700040
Si Si3 0.155926 0.094645 0.404652
Si Si4 0.495913 0.264942 0.478114
Si Si5 0.350892 0.405881 0.293656
Si Si6 0.998679 0.752499 0.775836
O O1 0.299671 0.756196 0.537840
O O2 0.010976 0.704487 0.385991
O O3 0.962630 0.806091 0.545092
O O4 0.119604 0.942356 0.425554
O O5 0.503296 0.295534 0.586747
O O6 0.605219 0.444835 0.737134
O O7 0.454525 0.206931 0.747330
O O8 0.791187 0.220471 0.729180
O O9 0.372694 0.130620 0.445229
O O10 0.090970 0.122943 0.291725
O O11 0.406003 0.388638 0.408623
O O12 0.130298 0.379823 0.254482
#
# Coordination Sequence:
#
# PCOD8125003 Si02
#       6
#     4   4   4   4   4   4
#     4  10  20  36  58  85 119 160 205 252 305 367
#     4  11  24  42  65  93 126 165 209 258 313 373
#     4  10  20  36  58  85 119 160 205 252 305 367
#     4  10  22  38  58  86 121 158 201 252 309 368
#     4  11  24  42  65  93 126 165 209 258 313 373
#     4  10  22  38  60  90 124 160 204 256 308 364
#
# _framework density 23.123038000000001
#
# number of rings (size 3 to 8) (size 9 to 14) (size 15 to 20)
#    0.000    1.667    0.000    4.000    0.000   10.667 
#    0.000    0.000    0.000   14.000    0.000    0.000 
#    0.000    0.000    0.000    0.000    0.000    0.000 
#
# Total GULP energy -297565.350277 kJ/mol
# GULP energy per Si atom -12398.556262 kJ/mol
# Density = 2.307041 g / cm^3
# Si number density = 23.123038 Si / 1000 Ang^3
#
#
#
# Elastic Constant Matrix: (Units=GPa)
#
#
# Indices 1 2 3 4 5 6 
#
# 1 111.0085 43.2501 58.0197 0.0000 21.4805 0.0000
# 2 43.2501 90.7074 33.7960 0.0000 -5.5423 0.0000
# 3 58.0197 33.7960 102.8700 0.0000 19.1058 0.0000
# 4 0.0000 0.0000 0.0000 23.9596 0.0000 -5.0410
# 5 21.4805 -5.5423 19.1058 0.0000 38.6335 0.0000
# 6 0.0000 0.0000 0.0000 -5.0410 0.0000 30.0106
#
#
#
# Elastic Compliance Matrix: (Units=1/GPa)
#
#
# Indices 1 2 3 4 5 6 
#
# 1 0.015431 -0.005672 -0.005611 0.000000 -0.006619 0.000000
# 2 -0.005672 0.015308 -0.003109 0.000000 0.006887 0.000000
# 3 -0.005611 -0.003109 0.014767 0.000000 -0.004629 0.000000
# 4 0.000000 0.000000 0.000000 0.043266 0.000000 0.007268
# 5 -0.006619 0.006887 -0.004629 0.000000 0.032842 0.000000
# 6 0.000000 0.000000 0.000000 0.007268 0.000000 0.034542
#
#
# Mechanical properties :
#
#
# Convention : Reuss Voigt Hill
#
# Bulk Modulus (GPa) = 59.79998 63.85749 61.82873
# Shear Modulus (GPa) = 26.24471 29.82209 28.03340
#
# Velocity S-wave (km/s) = 3.37263 3.59515 3.48567
# Velocity P-wave (km/s) = 6.40968 6.70148 6.55720
#
# Compressibility (1/GPa) = 0.01672241
#
# Stress axis : x y z
#
# Youngs Moduli (GPa) = 64.80290 65.32463 67.71913
#
# Poissons Ratio (x) = 0.37051 0.37996
# Poissons Ratio (y) = 0.36755 0.21057
# Poissons Ratio (z) = 0.36360 0.20312
#
# Static dielectric constant tensor:
#      x y z
#    x 4.306340 0.000000 0.173730 
#    y 0.000000 3.769660 0.000000 
#    z 0.173730 0.000000 4.396940 
# 
# 
# High freq. dielectric constant tensor:
#      x y z
#    x 1.922620 0.000000 0.017210 
#    y 0.000000 1.881230 0.000000 
#    z 0.017210 0.000000 1.933450 
# 
# From -- ./inp_files/39813.got.cif
#   From: 2010.03.12/outbox.cif.g09.slc.cpg/sg14_20_cif.got.tgz:39813.got - 2010.03.31 13:35:05.
