data_PCOD8125166
_publ_section_title
;
Structure prediction by ZEFSAII (Michael W. Deem and Ramdas Pophale) SiO2 
 PCOD8125166
Probable space group: P 21/C
;
_chemical_formula_sum "Si O2"
_cell_formula_units_Z 12
_cell_length_a 7.757934
_cell_length_b 6.076398
_cell_length_c 14.489260
_cell_angle_alpha 90.000000
_cell_angle_beta 38.663440
_cell_angle_gamma 90.000000
_cell_volume 426.718006
_symmetry_space_group_name_H-M "P 21/C"
_symmetry_group_IT_number 14
_symmetry_cell_setting 'monoclinic'
loop_
_space_group_symop_operation_xyz
x,y,z
-x,1/2+y,1/2-z
-x,-y,-z
x,1/2-y,1/2+z
loop_
_atom_site_type_symbol
_atom_site_label
_atom_site_fract_x
_atom_site_fract_y
_atom_site_fract_z
Si Si1 0.905983 0.210237 0.477703
Si Si2 0.679164 0.630742 0.832129
Si Si3 0.099977 0.176043 0.084628
O O1 0.634703 0.073641 0.563481
O O2 0.996334 0.151693 0.547461
O O3 0.167153 0.190415 0.298745
O O4 0.789511 0.465293 0.519740
O O5 0.838725 0.396984 0.757022
O O6 0.678810 0.717472 0.938159
#
# Coordination Sequence:
#
# PCOD8125166 Si02
#       3
#     4   4   4
#     4   9  21  38  57  82 114 146 182 227 278 325
#     4  10  20  37  60  81 112 148 182 228 275 327
#     4   9  21  38  59  80 114 147 183 225 281 323
#
# _framework density 28.121614999999998
#
# number of rings (size 3 to 8) (size 9 to 14) (size 15 to 20)
#    2.000    0.667    0.000    1.000    0.000    6.667 
#    0.000    3.333    0.000    0.000    0.000    0.000 
#    0.000    0.000    0.000    0.000    0.000    0.000 
#
# Total GULP energy -148749.361663 kJ/mol
# GULP energy per Si atom -12395.780139 kJ/mol
# Density = 2.805761 g / cm^3
# Si number density = 28.121615 Si / 1000 Ang^3
#
#
#
# Elastic Constant Matrix: (Units=GPa)
#
#
# Indices 1 2 3 4 5 6 
#
# 1 288.1384 59.1274 64.7579 0.0000 -2.8648 0.0000
# 2 59.1274 69.7502 2.0292 0.0000 4.8706 0.0000
# 3 64.7579 2.0292 115.7986 0.0000 -5.7815 0.0000
# 4 0.0000 0.0000 0.0000 23.5358 0.0000 22.1747
# 5 -2.8648 4.8706 -5.7815 0.0000 51.7471 0.0000
# 6 0.0000 0.0000 0.0000 22.1747 0.0000 64.1722
#
#
#
# Elastic Compliance Matrix: (Units=1/GPa)
#
#
# Indices 1 2 3 4 5 6 
#
# 1 0.004916 -0.004116 -0.002659 0.000000 0.000362 0.000000
# 2 -0.004116 0.017889 0.001903 0.000000 -0.001699 0.000000
# 3 -0.002659 0.001903 0.010130 0.000000 0.000805 0.000000
# 4 0.000000 0.000000 0.000000 0.062999 0.000000 -0.021769
# 5 0.000362 -0.001699 0.000805 0.000000 0.019595 0.000000
# 6 0.000000 0.000000 0.000000 -0.021769 0.000000 0.023105
#
#
# Mechanical properties :
#
#
# Convention : Reuss Voigt Hill
#
# Bulk Modulus (GPa) = 43.11839 80.61289 61.86564
# Shear Modulus (GPa) = 32.02930 51.07588 41.55259
#
# Velocity S-wave (km/s) = 3.37850 4.26637 3.84813
# Velocity P-wave (km/s) = 5.53039 7.27992 6.46461
#
# Compressibility (1/GPa) = 0.02319196
#
# Stress axis : x y z
#
# Youngs Moduli (GPa) = 203.40457 55.90060 98.72054
#
# Poissons Ratio (x) = 0.23006 0.26251
# Poissons Ratio (y) = 0.83712 -0.18789
# Poissons Ratio (z) = 0.54088 -0.10639
#
# Static dielectric constant tensor:
#      x y z
#    x 5.008780 0.000000 0.207500 
#    y 0.000000 5.327890 0.000000 
#    z 0.207500 0.000000 4.383640 
# 
# 
# High freq. dielectric constant tensor:
#      x y z
#    x 2.154050 0.000000 0.009650 
#    y 0.000000 2.172700 0.000000 
#    z 0.009650 0.000000 2.105850 
# 
# From -- ./inp_files/4757.got.cif
#   From: 2010.03.12/outbox.cif.g09.slc.cpg/sg14_3_cif.got.tgz:4757.got - 2010.03.31 13:35:05.
