data_PCOD8125275
_publ_section_title
;
Structure prediction by ZEFSAII (Michael W. Deem and Ramdas Pophale) SiO2 
 PCOD8125275
Probable space group: P 21/C
;
_chemical_formula_sum "Si O2"
_cell_formula_units_Z 24
_cell_length_a 8.891767
_cell_length_b 23.690070
_cell_length_c 5.277352
_cell_angle_alpha 90.000000
_cell_angle_beta 94.345431
_cell_angle_gamma 90.000000
_cell_volume 1108.460562
_symmetry_space_group_name_H-M "P 21/C"
_symmetry_group_IT_number 14
_symmetry_cell_setting 'monoclinic'
loop_
_space_group_symop_operation_xyz
x,y,z
-x,1/2+y,1/2-z
-x,-y,-z
x,1/2-y,1/2+z
loop_
_atom_site_type_symbol
_atom_site_label
_atom_site_fract_x
_atom_site_fract_y
_atom_site_fract_z
Si Si1 0.333429 0.522254 0.504320
Si Si2 0.834930 0.477567 0.026084
Si Si3 0.013560 0.784214 0.988903
Si Si4 0.337877 0.309775 0.550372
Si Si5 0.533562 0.814951 0.431182
Si Si6 0.758867 0.369842 0.270162
O O1 0.500000 0.500000 0.500000
O O2 0.243683 0.494269 0.733560
O O3 0.334328 0.590113 0.547374
O O4 0.255944 0.505227 0.233523
O O5 0.838326 0.409361 0.067067
O O6 0.000000 0.500000 0.000000
O O7 0.052638 0.759607 0.718226
O O8 0.838978 0.800014 0.965406
O O9 0.113858 0.839103 0.048835
O O10 0.379221 0.342883 0.297758
O O11 0.432044 0.251466 0.546260
O O12 0.397325 0.343588 0.805154
O O13 0.354828 0.826117 0.382030
#
# Coordination Sequence:
#
# PCOD8125275 Si02
#       6
#     4   4   4   4   4   4
#     4  10  23  47  70  99 134 173 227 289 347 402
#     4  10  23  47  70  98 136 174 224 288 350 403
#     4  12  24  42  61  96 139 182 217 268 323 403
#     4  10  20  40  59  84 133 177 217 258 317 375
#     4  10  20  38  58  91 124 172 218 262 311 386
#     4  10  28  38  72 100 135 171 233 269 346 397
#
# _framework density 21.65165
#
# number of rings (size 3 to 8) (size 9 to 14) (size 15 to 20)
#    1.000    0.667    3.333    1.000    9.333    0.000 
#    3.000    0.000    0.000    0.000    0.000    0.000 
#    0.000    0.000    0.000    0.000    0.000    0.000 
#
# Total GULP energy -297371.445404 kJ/mol
# GULP energy per Si atom -12390.476892 kJ/mol
# Density = 2.160237 g / cm^3
# Si number density = 21.651650 Si / 1000 Ang^3
#
#
#
# Elastic Constant Matrix: (Units=GPa)
#
#
# Indices 1 2 3 4 5 6 
#
# 1 142.1176 57.4118 49.7387 0.0000 18.2577 0.0000
# 2 57.4118 51.8094 13.1145 0.0000 15.8774 0.0000
# 3 49.7387 13.1145 187.6072 0.0000 3.6482 0.0000
# 4 0.0000 0.0000 0.0000 8.5847 0.0000 -3.2831
# 5 18.2577 15.8774 3.6482 0.0000 45.6937 0.0000
# 6 0.0000 0.0000 0.0000 -3.2831 0.0000 38.0855
#
#
#
# Elastic Compliance Matrix: (Units=1/GPa)
#
#
# Indices 1 2 3 4 5 6 
#
# 1 0.013936 -0.014692 -0.002663 0.000000 -0.000251 0.000000
# 2 -0.014692 0.037446 0.001419 0.000000 -0.007254 0.000000
# 3 -0.002663 0.001419 0.005935 0.000000 0.000097 0.000000
# 4 0.000000 0.000000 0.000000 0.120457 0.000000 0.010384
# 5 -0.000251 -0.007254 0.000097 0.000000 0.024498 0.000000
# 6 0.000000 0.000000 0.000000 0.010384 0.000000 0.027152
#
#
# Mechanical properties :
#
#
# Convention : Reuss Voigt Hill
#
# Bulk Modulus (GPa) = 39.30044 69.11825 54.20934
# Shear Modulus (GPa) = 18.53381 35.89072 27.21226
#
# Velocity S-wave (km/s) = 2.92892 4.07583 3.54901
# Velocity P-wave (km/s) = 5.44323 7.35813 6.47189
#
# Compressibility (1/GPa) = 0.02544501
#
# Stress axis : x y z
#
# Youngs Moduli (GPa) = 71.75849 26.70505 168.48663
#
# Poissons Ratio (x) = 0.39234 0.44864
# Poissons Ratio (y) = 1.05426 -0.23901
# Poissons Ratio (z) = 0.19108 -0.03788
#
# Static dielectric constant tensor:
#      x y z
#    x 3.641570 0.000000 -0.483580 
#    y 0.000000 3.506190 0.000000 
#    z -0.483580 0.000000 4.803350 
# 
# 
# High freq. dielectric constant tensor:
#      x y z
#    x 1.852510 0.000000 0.001770 
#    y 0.000000 1.803790 0.000000 
#    z 0.001770 0.000000 1.880930 
# 
# From -- ./inp_files/1689.got.cif
#   From: 2010.03.12/outbox.cif.g09.slc.cpg/sg14_1_cif.got.tgz:1689.got - 2010.03.31 13:35:05.
