data_PCOD8125763
_publ_section_title
;
Structure prediction by ZEFSAII (Michael W. Deem and Ramdas Pophale) SiO2 
 PCOD8125763
Probable space group: P 21/C
;
_chemical_formula_sum "Si O2"
_cell_formula_units_Z 32
_cell_length_a 14.450206
_cell_length_b 7.789996
_cell_length_c 22.509522
_cell_angle_alpha 90.000000
_cell_angle_beta 151.730162
_cell_angle_gamma 90.000000
_cell_volume 1200.084513
_symmetry_space_group_name_H-M "P 21/C"
_symmetry_group_IT_number 14
_symmetry_cell_setting 'monoclinic'
loop_
_space_group_symop_operation_xyz
x,y,z
-x,1/2+y,1/2-z
-x,-y,-z
x,1/2-y,1/2+z
loop_
_atom_site_type_symbol
_atom_site_label
_atom_site_fract_x
_atom_site_fract_y
_atom_site_fract_z
Si Si1 0.256123 0.647894 0.908982
Si Si2 0.070185 0.373608 0.726439
Si Si3 0.798591 0.370685 0.913218
Si Si4 0.066520 0.566042 0.134293
Si Si5 0.397823 0.242880 0.700119
Si Si6 0.414791 0.782572 0.881128
Si Si7 0.376146 0.411825 0.810721
Si Si8 0.792171 0.666166 0.527840
O O1 0.044510 0.719005 0.807694
O O2 0.373096 0.764186 0.927421
O O3 0.208313 0.464437 0.853393
O O4 0.398127 0.628196 0.045533
O O5 0.913062 0.494763 0.605699
O O6 0.221505 0.303348 0.762611
O O7 0.923988 0.334908 0.924551
O O8 0.635435 0.226716 0.832324
O O9 0.685030 0.552693 0.841685
O O10 0.951832 0.386532 0.055756
O O11 0.286601 0.554656 0.284352
O O12 0.941267 0.673583 0.111429
O O13 0.337059 0.362542 0.720923
O O14 0.327390 0.339521 0.600980
O O15 0.340450 0.614639 0.802484
O O16 0.642156 0.818131 0.998209
#
# Coordination Sequence:
#
# PCOD8125763 Si02
#       8
#     4   4   4   4   4   4   4   4
#     4  11  27  46  76 101 145 183 243 301 345 428
#     4  11  26  49  70 108 135 188 246 287 366 423
#     4  10  23  41  67 103 143 188 237 276 359 420
#     4  10  20  42  67 101 133 186 240 282 335 435
#     4  11  24  43  70 102 151 180 231 295 354 433
#     4  11  22  45  75  98 140 191 236 287 363 417
#     4  11  25  46  69 104 144 186 234 293 358 418
#     4  11  23  42  73 104 137 188 235 283 364 424
#
# _framework density 26.664788000000001
#
# number of rings (size 3 to 8) (size 9 to 14) (size 15 to 20)
#    0.000    1.250    3.750    3.000    5.250    2.000 
#   11.250    0.000    0.000    0.000    0.000    0.000 
#    0.000    0.000    0.000    0.000    0.000    0.000 
#
# Total GULP energy -396761.155254 kJ/mol
# GULP energy per Si atom -12398.786102 kJ/mol
# Density = 2.660410 g / cm^3
# Si number density = 26.664788 Si / 1000 Ang^3
#
#
#
# Elastic Constant Matrix: (Units=GPa)
#
#
# Indices 1 2 3 4 5 6 
#
# 1 101.0351 -3.4023 20.5084 0.0000 31.1426 0.0000
# 2 -3.4023 29.8274 16.7550 0.0000 -0.7132 0.0000
# 3 20.5084 16.7550 95.2071 0.0000 17.3471 0.0000
# 4 0.0000 0.0000 0.0000 40.0420 0.0000 7.2742
# 5 31.1426 -0.7132 17.3471 0.0000 53.8926 0.0000
# 6 0.0000 0.0000 0.0000 7.2742 0.0000 30.2415
#
#
#
# Elastic Compliance Matrix: (Units=1/GPa)
#
#
# Indices 1 2 3 4 5 6 
#
# 1 0.012364 0.002313 -0.001885 0.000000 -0.006507 0.000000
# 2 0.002313 0.038028 -0.007477 0.000000 0.001573 0.000000
# 3 -0.001885 -0.007477 0.012795 0.000000 -0.003128 0.000000
# 4 0.000000 0.000000 0.000000 0.026115 0.000000 -0.006282
# 5 -0.006507 0.001573 -0.003128 0.000000 0.023344 0.000000
# 6 0.000000 0.000000 0.000000 -0.006282 0.000000 0.034578
#
#
# Mechanical properties :
#
#
# Convention : Reuss Voigt Hill
#
# Bulk Modulus (GPa) = 20.37084 32.64353 26.50719
# Shear Modulus (GPa) = 28.13982 37.64912 32.89447
#
# Velocity S-wave (km/s) = 3.25209 3.76166 3.51612
# Velocity P-wave (km/s) = 4.66451 5.57992 5.14262
#
# Compressibility (1/GPa) = 0.04908977
#
# Stress axis : x y z
#
# Youngs Moduli (GPa) = 80.88131 26.29647 78.15371
#
# Poissons Ratio (x) = -0.06083 0.14730
# Poissons Ratio (y) = -0.18711 0.58438
# Poissons Ratio (z) = 0.15244 0.19663
#
# Static dielectric constant tensor:
#      x y z
#    x 5.113790 0.000000 0.273210 
#    y 0.000000 4.364100 0.000000 
#    z 0.273210 0.000000 4.988900 
# 
# 
# High freq. dielectric constant tensor:
#      x y z
#    x 2.088460 0.000000 0.013130 
#    y 0.000000 2.029450 0.000000 
#    z 0.013130 0.000000 2.085200 
# 
# From -- ./inp_files/73873.got.cif
#   From: 2010.03.12/outbox.cif.g09.slc.cpg/sg14_37_cif.got.tgz:73873.got - 2010.03.31 13:35:05.
