data_PCOD8125950
_publ_section_title
;
Structure prediction by ZEFSAII (Michael W. Deem and Ramdas Pophale) SiO2 
 PCOD8125950
Probable space group: P 21/C
;
_chemical_formula_sum "Si O2"
_cell_formula_units_Z 32
_cell_length_a 29.718150
_cell_length_b 8.819348
_cell_length_c 18.882543
_cell_angle_alpha 90.000000
_cell_angle_beta 18.457755
_cell_angle_gamma 90.000000
_cell_volume 1566.884528
_symmetry_space_group_name_H-M "P 21/C"
_symmetry_group_IT_number 14
_symmetry_cell_setting 'monoclinic'
loop_
_space_group_symop_operation_xyz
x,y,z
-x,1/2+y,1/2-z
-x,-y,-z
x,1/2-y,1/2+z
loop_
_atom_site_type_symbol
_atom_site_label
_atom_site_fract_x
_atom_site_fract_y
_atom_site_fract_z
Si Si1 0.059789 0.422901 0.840174
Si Si2 0.652503 0.798169 0.087759
Si Si3 0.089408 0.115021 0.553007
Si Si4 0.628645 0.454056 0.990093
Si Si5 0.052751 0.909674 0.989620
Si Si6 0.364652 0.968250 0.353228
Si Si7 0.361812 0.282888 0.558983
Si Si8 0.093727 0.594359 0.177218
O O1 0.229776 0.428227 0.572265
O O2 0.991387 0.498308 0.875396
O O3 0.000000 0.500000 0.000000
O O4 0.030065 0.245652 0.888413
O O5 0.671930 0.645466 0.106207
O O6 0.497141 0.845140 0.346480
O O7 0.668937 0.785506 0.978591
O O8 0.225532 0.176225 0.308562
O O9 0.980190 0.249407 0.738068
O O10 0.139122 0.016088 0.545643
O O11 0.780505 0.374944 0.753203
O O12 0.605593 0.605404 0.977613
O O13 0.615026 0.472056 0.093790
O O14 0.000000 0.000000 0.000000
O O15 0.022370 0.009246 0.103189
O O16 0.233961 0.871461 0.515908
O O17 0.510575 0.894027 0.105798
#
# Coordination Sequence:
#
# PCOD8125950 Si02
#       8
#     4   4   4   4   4   4   4   4
#     4  12  24  38  68 101 131 171 222 276 328 393
#     4  10  21  38  62 103 133 164 212 271 328 396
#     4  12  27  44  66  94 131 175 229 275 331 395
#     4  10  21  36  67 100 135 165 211 268 335 391
#     4  12  21  41  69  99 128 175 216 277 331 387
#     4  10  22  39  67  93 135 170 211 264 338 394
#     4  10  21  41  62  98 131 169 210 269 326 401
#     4  12  25  45  67  92 130 178 224 277 332 393
#
# _framework density 20.422692000000001
#
# number of rings (size 3 to 8) (size 9 to 14) (size 15 to 20)
#    0.000    1.000    5.000    2.250    3.500    1.500 
#    0.000    0.000    0.000    2.250    0.000    0.000 
#    0.000    0.000    0.000    0.000    0.000    0.000 
#
# Total GULP energy -396505.514980 kJ/mol
# GULP energy per Si atom -12390.797343 kJ/mol
# Density = 2.037621 g / cm^3
# Si number density = 20.422692 Si / 1000 Ang^3
#
#
#
# Elastic Constant Matrix: (Units=GPa)
#
#
# Indices 1 2 3 4 5 6 
#
# 1 42.8157 26.9545 28.9459 0.0000 -3.2079 0.0000
# 2 26.9545 87.1527 24.0024 0.0000 -2.9217 0.0000
# 3 28.9459 24.0024 121.5355 0.0000 -25.5503 0.0000
# 4 0.0000 0.0000 0.0000 34.3684 0.0000 -4.1621
# 5 -3.2079 -2.9217 -25.5503 0.0000 31.0241 0.0000
# 6 0.0000 0.0000 0.0000 -4.1621 0.0000 30.3435
#
#
#
# Elastic Compliance Matrix: (Units=1/GPa)
#
#
# Indices 1 2 3 4 5 6 
#
# 1 0.033073 -0.008445 -0.006842 0.000000 -0.003010 0.000000
# 2 -0.008445 0.014317 -0.000866 0.000000 -0.000238 0.000000
# 3 -0.006842 -0.000866 0.011928 0.000000 0.009034 0.000000
# 4 0.000000 0.000000 0.000000 0.029588 0.000000 0.004058
# 5 -0.003010 -0.000238 0.009034 0.000000 0.039340 0.000000
# 6 0.000000 0.000000 0.000000 0.004058 0.000000 0.033513
#
#
# Mechanical properties :
#
#
# Convention : Reuss Voigt Hill
#
# Bulk Modulus (GPa) = 37.02248 45.70107 41.36178
# Shear Modulus (GPa) = 24.62236 30.58726 27.60481
#
# Velocity S-wave (km/s) = 3.47600 3.87422 3.68050
# Velocity P-wave (km/s) = 5.85470 6.51452 6.19340
#
# Compressibility (1/GPa) = 0.02701062
#
# Stress axis : x y z
#
# Youngs Moduli (GPa) = 30.23655 69.84891 83.83700
#
# Poissons Ratio (x) = 0.58989 0.57360
# Poissons Ratio (y) = 0.25536 0.07261
# Poissons Ratio (z) = 0.20687 0.06050
#
# Static dielectric constant tensor:
#      x y z
#    x 3.438080 0.000000 -0.138270 
#    y 0.000000 3.918860 0.000000 
#    z -0.138270 0.000000 4.016610 
# 
# 
# High freq. dielectric constant tensor:
#      x y z
#    x 1.775960 0.000000 -0.017410 
#    y 0.000000 1.804700 0.000000 
#    z -0.017410 0.000000 1.807800 
# 
# From -- ./inp_files/62649.got.cif
#   From: 2010.03.12/outbox.cif.g09.slc.cpg/sg14_32_cif.got.tgz:62649.got - 2010.03.31 13:35:05.
