data_PCOD8125587
_publ_section_title
;
Structure prediction by ZEFSAII (Michael W. Deem and Ramdas Pophale) SiO2 
 PCOD8125587
Probable space group: P 21/C
;
_chemical_formula_sum "Si O2"
_cell_formula_units_Z 24
_cell_length_a 28.487244
_cell_length_b 9.737936
_cell_length_c 8.651423
_cell_angle_alpha 90.000000
_cell_angle_beta 150.899665
_cell_angle_gamma 90.000000
_cell_volume 1167.200125
_symmetry_space_group_name_H-M "P 21/C"
_symmetry_group_IT_number 14
_symmetry_cell_setting 'monoclinic'
loop_
_space_group_symop_operation_xyz
x,y,z
-x,1/2+y,1/2-z
-x,-y,-z
x,1/2-y,1/2+z
loop_
_atom_site_type_symbol
_atom_site_label
_atom_site_fract_x
_atom_site_fract_y
_atom_site_fract_z
Si Si1 0.442817 0.606905 0.227616
Si Si2 0.678343 0.143186 0.089470
Si Si3 0.106218 0.557913 0.298029
Si Si4 0.628215 0.629356 0.593068
Si Si5 0.188024 0.738421 0.275256
Si Si6 0.707460 0.601063 0.162595
O O1 0.500000 0.500000 0.500000
O O2 0.513447 0.651208 0.291048
O O3 0.406245 0.748199 0.202346
O O4 0.346727 0.523313 0.901056
O O5 0.762287 0.135425 0.203739
O O6 0.724500 0.191040 0.383045
O O7 0.634985 0.993328 0.989666
O O8 0.114969 0.654649 0.173064
O O9 0.127574 0.644216 0.513798
O O10 0.179068 0.428551 0.494043
O O11 0.000000 0.500000 0.000000
O O12 0.677809 0.757970 0.655423
O O13 0.681365 0.599474 0.906787
#
# Coordination Sequence:
#
# PCOD8125587 Si02
#       6
#     4   4   4   4   4   4
#     4  10  20  40  63  92 131 176 222 273 326 403
#     4  11  20  41  67  89 136 178 221 268 335 403
#     4  11  24  45  70  96 133 171 228 287 339 407
#     4  11  24  37  61  97 133 176 220 273 336 385
#     4  10  21  43  69  94 121 180 221 266 348 396
#     4  11  23  42  60  93 138 167 226 281 326 396
#
# _framework density 20.562028000000002
#
# number of rings (size 3 to 8) (size 9 to 14) (size 15 to 20)
#    0.000    1.333    5.000    2.000    2.333    2.667 
#    0.000    6.667    0.000    0.000    0.000    0.000 
#    0.000    0.000    0.000    0.000    0.000    0.000 
#
# Total GULP energy -297528.617014 kJ/mol
# GULP energy per Si atom -12397.025709 kJ/mol
# Density = 2.051523 g / cm^3
# Si number density = 20.562028 Si / 1000 Ang^3
#
#
#
# Elastic Constant Matrix: (Units=GPa)
#
#
# Indices 1 2 3 4 5 6 
#
# 1 99.7708 59.6081 48.7309 0.0000 18.3023 0.0000
# 2 59.6081 144.8715 36.6433 0.0000 20.4306 0.0000
# 3 48.7309 36.6433 81.8190 0.0000 23.3934 0.0000
# 4 0.0000 0.0000 0.0000 31.3133 0.0000 8.6611
# 5 18.3023 20.4306 23.3934 0.0000 42.3843 0.0000
# 6 0.0000 0.0000 0.0000 8.6611 0.0000 39.7008
#
#
#
# Elastic Compliance Matrix: (Units=1/GPa)
#
#
# Indices 1 2 3 4 5 6 
#
# 1 0.016786 -0.004883 -0.007612 0.000000 -0.000693 0.000000
# 2 -0.004883 0.009377 -0.000714 0.000000 -0.002017 0.000000
# 3 -0.007612 -0.000714 0.019043 0.000000 -0.006879 0.000000
# 4 0.000000 0.000000 0.000000 0.033986 0.000000 -0.007414
# 5 -0.000693 -0.002017 -0.006879 0.000000 0.028662 0.000000
# 6 0.000000 0.000000 0.000000 -0.007414 0.000000 0.026806
#
#
# Mechanical properties :
#
#
# Convention : Reuss Voigt Hill
#
# Bulk Modulus (GPa) = 53.23303 68.49175 60.86239
# Shear Modulus (GPa) = 29.87904 34.77826 32.32865
#
# Velocity S-wave (km/s) = 3.81611 4.11710 3.96946
# Velocity P-wave (km/s) = 6.73514 7.48217 7.11846
#
# Compressibility (1/GPa) = 0.01878533
#
# Stress axis : x y z
#
# Youngs Moduli (GPa) = 59.57432 106.64238 52.51375
#
# Poissons Ratio (x) = 0.52078 0.39975
# Poissons Ratio (y) = 0.29093 0.03751
# Poissons Ratio (z) = 0.45350 0.07618
#
# Static dielectric constant tensor:
#      x y z
#    x 3.980000 0.000000 0.055310 
#    y 0.000000 3.852780 0.000000 
#    z 0.055310 0.000000 3.670260 
# 
# 
# High freq. dielectric constant tensor:
#      x y z
#    x 1.810890 0.000000 -0.000590 
#    y 0.000000 1.809510 0.000000 
#    z -0.000590 0.000000 1.787030 
# 
# From -- ./inp_files/15012.got.cif
#   From: 2010.03.12/outbox.cif.g09.slc.cpg/sg14_8_cif.got.tgz:15012.got - 2010.03.31 13:35:05.
