data_PCOD8125931
_publ_section_title
;
Structure prediction by ZEFSAII (Michael W. Deem and Ramdas Pophale) SiO2 
 PCOD8125931
Probable space group: P 21/C
;
_chemical_formula_sum "Si O2"
_cell_formula_units_Z 24
_cell_length_a 11.850776
_cell_length_b 10.309741
_cell_length_c 14.764900
_cell_angle_alpha 90.000000
_cell_angle_beta 137.026916
_cell_angle_gamma 90.000000
_cell_volume 1229.672603
_symmetry_space_group_name_H-M "P 21/C"
_symmetry_group_IT_number 14
_symmetry_cell_setting 'monoclinic'
loop_
_space_group_symop_operation_xyz
x,y,z
-x,1/2+y,1/2-z
-x,-y,-z
x,1/2-y,1/2+z
loop_
_atom_site_type_symbol
_atom_site_label
_atom_site_fract_x
_atom_site_fract_y
_atom_site_fract_z
Si Si1 0.504332 0.803368 0.464358
Si Si2 0.902679 0.069867 0.172248
Si Si3 0.236268 0.857158 0.729516
Si Si4 0.746961 0.017209 0.578512
Si Si5 0.245321 0.371930 0.296850
Si Si6 0.102005 0.784505 0.463490
O O1 0.416203 0.709199 0.341188
O O2 0.360135 0.888509 0.422837
O O3 0.594878 0.718916 0.596313
O O4 0.635741 0.892089 0.487769
O O5 0.874973 0.163044 0.244667
O O6 0.836165 0.148996 0.045436
O O7 0.797635 0.938152 0.129761
O O8 0.094929 0.033717 0.272680
O O9 0.135183 0.789757 0.589411
O O10 0.272764 0.011990 0.739591
O O11 0.805708 0.089592 0.522573
O O12 0.092818 0.287290 0.171471
#
# Coordination Sequence:
#
# PCOD8125931 Si02
#       6
#     4   4   4   4   4   4
#     4  11  20  39  58  88 119 151 195 251 304 342
#     4   9  20  38  63  83 114 161 201 232 298 358
#     4  10  22  35  62  89 114 150 206 244 286 360
#     4  10  21  36  62  80 120 161 188 244 305 350
#     4   9  20  36  64  82 114 156 197 239 298 354
#     4  11  19  41  60  85 116 160 201 242 289 366
#
# _framework density 19.517392000000001
#
# number of rings (size 3 to 8) (size 9 to 14) (size 15 to 20)
#    1.000    1.000    3.333    1.000    0.000    0.000 
#    6.000    0.833    0.000    0.000    0.000    0.000 
#    0.000    0.000    0.000    0.000    0.000    0.000 
#
# Total GULP energy -297353.474211 kJ/mol
# GULP energy per Si atom -12389.728092 kJ/mol
# Density = 1.947297 g / cm^3
# Si number density = 19.517392 Si / 1000 Ang^3
#
#
#
# Elastic Constant Matrix: (Units=GPa)
#
#
# Indices 1 2 3 4 5 6 
#
# 1 54.5132 20.4132 32.2020 0.0000 7.2681 0.0000
# 2 20.4132 53.4178 39.1218 0.0000 12.5255 0.0000
# 3 32.2020 39.1218 94.7506 0.0000 3.3740 0.0000
# 4 0.0000 0.0000 0.0000 28.7846 0.0000 11.9345
# 5 7.2681 12.5255 3.3740 0.0000 28.0900 0.0000
# 6 0.0000 0.0000 0.0000 11.9345 0.0000 26.6532
#
#
#
# Elastic Compliance Matrix: (Units=1/GPa)
#
#
# Indices 1 2 3 4 5 6 
#
# 1 0.024060 -0.003430 -0.006622 0.000000 -0.003901 0.000000
# 2 -0.003430 0.030945 -0.011199 0.000000 -0.011566 0.000000
# 3 -0.006622 -0.011199 0.017264 0.000000 0.004634 0.000000
# 4 0.000000 0.000000 0.000000 0.042661 0.000000 -0.019102
# 5 -0.003901 -0.011566 0.004634 0.000000 0.041210 0.000000
# 6 0.000000 0.000000 0.000000 -0.019102 0.000000 0.046072
#
#
# Mechanical properties :
#
#
# Convention : Reuss Voigt Hill
#
# Bulk Modulus (GPa) = 33.59502 42.90618 38.25060
# Shear Modulus (GPa) = 19.63572 24.10186 21.86879
#
# Velocity S-wave (km/s) = 3.17529 3.51791 3.35098
# Velocity P-wave (km/s) = 5.54017 6.20744 5.88327
#
# Compressibility (1/GPa) = 0.02976632
#
# Stress axis : x y z
#
# Youngs Moduli (GPa) = 41.56204 32.31498 57.92478
#
# Poissons Ratio (x) = 0.11084 0.38358
# Poissons Ratio (y) = 0.14256 0.64873
# Poissons Ratio (z) = 0.27522 0.36191
#
# Static dielectric constant tensor:
#      x y z
#    x 3.326330 0.000000 0.292760 
#    y 0.000000 3.782420 0.000000 
#    z 0.292760 0.000000 3.293230 
# 
# 
# High freq. dielectric constant tensor:
#      x y z
#    x 1.730290 0.000000 0.029910 
#    y 0.000000 1.771750 0.000000 
#    z 0.029910 0.000000 1.737770 
# 
# From -- ./inp_files/44491.got.cif
#   From: 2010.03.12/outbox.cif.g09.slc.cpg/sg14_23_cif.got.tgz:44491.got - 2010.03.31 13:35:05.
