data_PCOD8125356
_publ_section_title
;
Structure prediction by ZEFSAII (Michael W. Deem and Ramdas Pophale) SiO2 
 PCOD8125356
Probable space group: P 21/C
;
_chemical_formula_sum "Si O2"
_cell_formula_units_Z 28
_cell_length_a 11.681136
_cell_length_b 11.083247
_cell_length_c 19.069827
_cell_angle_alpha 90.000000
_cell_angle_beta 31.991763
_cell_angle_gamma 90.000000
_cell_volume 1308.002638
_symmetry_space_group_name_H-M "P 21/C"
_symmetry_group_IT_number 14
_symmetry_cell_setting 'monoclinic'
loop_
_space_group_symop_operation_xyz
x,y,z
-x,1/2+y,1/2-z
-x,-y,-z
x,1/2-y,1/2+z
loop_
_atom_site_type_symbol
_atom_site_label
_atom_site_fract_x
_atom_site_fract_y
_atom_site_fract_z
Si Si1 0.058644 0.265637 0.517472
Si Si2 0.345270 0.592604 0.296093
Si Si3 0.350307 0.160962 0.245319
Si Si4 0.438710 0.407158 0.137454
Si Si5 0.419832 0.270370 0.430892
Si Si6 0.219753 0.438914 0.113919
Si Si7 0.184937 0.573149 0.763300
O O1 0.184470 0.218412 0.385403
O O2 0.214623 0.325153 0.495550
O O3 0.906412 0.373195 0.569421
O O4 0.932566 0.150862 0.615486
O O5 0.450074 0.596341 0.318748
O O6 0.384020 0.460937 0.242687
O O7 0.456325 0.689411 0.188960
O O8 0.442357 0.263012 0.144822
O O9 0.218474 0.063020 0.270154
O O10 0.254209 0.455987 0.179244
O O11 0.671320 0.452492 0.987657
O O12 0.338966 0.187817 0.536483
O O13 0.581125 0.371107 0.377962
O O14 0.966271 0.432077 0.227279
#
# Coordination Sequence:
#
# PCOD8125356 Si02
#       7
#     4   4   4   4   4   4   4
#     4   9  19  36  59  84 119 162 187 241 310 351
#     4   9  20  35  59  83 120 157 191 248 293 355
#     4  11  23  34  59  94 121 148 205 247 285 365
#     4  10  22  41  58  90 117 159 204 238 297 352
#     4   8  17  37  60  87 110 153 206 243 290 356
#     4   9  20  43  66  78 118 166 197 241 297 355
#     4  10  20  38  62  89 117 156 199 245 300 346
#
# _framework density 21.406683999999998
#
# number of rings (size 3 to 8) (size 9 to 14) (size 15 to 20)
#    0.000    2.571    0.000    1.286    8.000    0.571 
#   12.857    0.714    0.000    0.000    0.000    0.000 
#    0.000    0.000    0.000    0.000    0.000    0.000 
#
# Total GULP energy -347156.657716 kJ/mol
# GULP energy per Si atom -12398.452061 kJ/mol
# Density = 2.135796 g / cm^3
# Si number density = 21.406684 Si / 1000 Ang^3
#
#
#
# Elastic Constant Matrix: (Units=GPa)
#
#
# Indices 1 2 3 4 5 6 
#
# 1 120.5486 48.8468 39.7892 0.0000 -28.7564 0.0000
# 2 48.8468 97.0837 35.1158 0.0000 -10.8861 0.0000
# 3 39.7892 35.1158 63.4294 0.0000 -25.8370 0.0000
# 4 0.0000 0.0000 0.0000 21.8550 0.0000 -9.7122
# 5 -28.7564 -10.8861 -25.8370 0.0000 35.5658 0.0000
# 6 0.0000 0.0000 0.0000 -9.7122 0.0000 28.6282
#
#
#
# Elastic Compliance Matrix: (Units=1/GPa)
#
#
# Indices 1 2 3 4 5 6 
#
# 1 0.012698 -0.004694 -0.002514 0.000000 0.007004 0.000000
# 2 -0.004694 0.014693 -0.006965 0.000000 -0.004358 0.000000
# 3 -0.002514 -0.006965 0.027698 0.000000 0.015957 0.000000
# 4 0.000000 0.000000 0.000000 0.053879 0.000000 0.018278
# 5 0.007004 -0.004358 0.015957 0.000000 0.044038 0.000000
# 6 0.000000 0.000000 0.000000 0.018278 0.000000 0.041132
#
#
# Mechanical properties :
#
#
# Convention : Reuss Voigt Hill
#
# Bulk Modulus (GPa) = 37.39182 58.72949 48.06066
# Shear Modulus (GPa) = 21.60788 27.69714 24.65251
#
# Velocity S-wave (km/s) = 3.18055 3.60092 3.39724
# Velocity P-wave (km/s) = 5.56715 6.69205 6.15535
#
# Compressibility (1/GPa) = 0.02674381
#
# Stress axis : x y z
#
# Youngs Moduli (GPa) = 78.75257 68.06062 36.10366
#
# Poissons Ratio (x) = 0.31950 0.09075
# Poissons Ratio (y) = 0.36969 0.25145
# Poissons Ratio (z) = 0.19795 0.47401
#
# Static dielectric constant tensor:
#      x y z
#    x 3.977600 0.000000 -0.352510 
#    y 0.000000 3.804910 0.000000 
#    z -0.352510 0.000000 3.814150 
# 
# 
# High freq. dielectric constant tensor:
#      x y z
#    x 1.841360 0.000000 -0.019250 
#    y 0.000000 1.830680 0.000000 
#    z -0.019250 0.000000 1.819170 
# 
# From -- ./inp_files/35195.got.cif
#   From: 2010.03.12/outbox.cif.g09.slc.cpg/sg14_18_cif.got.tgz:35195.got - 2010.03.31 13:35:05.
