data_PCOD8125468
_publ_section_title
;
Structure prediction by ZEFSAII (Michael W. Deem and Ramdas Pophale) SiO2 
 PCOD8125468
Probable space group: P 21/C
;
_chemical_formula_sum "Si O2"
_cell_formula_units_Z 20
_cell_length_a 7.718536
_cell_length_b 13.958736
_cell_length_c 9.286246
_cell_angle_alpha 90.000000
_cell_angle_beta 90.940687
_cell_angle_gamma 90.000000
_cell_volume 1000.374647
_symmetry_space_group_name_H-M "P 21/C"
_symmetry_group_IT_number 14
_symmetry_cell_setting 'monoclinic'
loop_
_space_group_symop_operation_xyz
x,y,z
-x,1/2+y,1/2-z
-x,-y,-z
x,1/2-y,1/2+z
loop_
_atom_site_type_symbol
_atom_site_label
_atom_site_fract_x
_atom_site_fract_y
_atom_site_fract_z
Si Si1 0.335249 0.395431 0.879681
Si Si2 0.712962 0.079487 0.446252
Si Si3 0.124954 0.458469 0.294082
Si Si4 0.037442 0.190046 0.558425
Si Si5 0.150755 0.395644 0.599244
O O1 0.530333 0.365947 0.926529
O O2 0.313632 0.379455 0.707700
O O3 0.295219 0.505779 0.920562
O O4 0.203244 0.326039 0.959476
O O5 0.863817 0.156277 0.474229
O O6 0.743607 0.019568 0.300592
O O7 0.058225 0.365586 0.208227
O O8 0.220288 0.424170 0.441700
O O9 0.957817 0.519408 0.331904
O O10 0.026326 0.302649 0.589793
#
# Coordination Sequence:
#
# PCOD8125468 Si02
#       5
#     4   4   4   4   4
#     4  10  20  39  62  87 114 162 200 243 298 355
#     4  10  20  39  65  82 116 162 200 239 301 359
#     4  10  21  37  60  90 119 155 198 243 298 349
#     4  11  20  40  62  85 121 160 199 237 298 358
#     4  11  21  36  62  90 122 155 194 250 295 344
#
# _framework density 19.992509999999999
#
# number of rings (size 3 to 8) (size 9 to 14) (size 15 to 20)
#    0.000    1.600    4.000    2.400    0.000    0.800 
#    3.600    0.000    4.400    0.000    0.000    0.000 
#    0.000    0.000    0.000    0.000    0.000    0.000 
#
# Total GULP energy -248015.939856 kJ/mol
# GULP energy per Si atom -12400.796993 kJ/mol
# Density = 1.994701 g / cm^3
# Si number density = 19.992510 Si / 1000 Ang^3
#
#
#
# Elastic Constant Matrix: (Units=GPa)
#
#
# Indices 1 2 3 4 5 6 
#
# 1 104.2487 18.6736 51.8630 0.0000 7.4609 0.0000
# 2 18.6736 67.8545 46.3541 0.0000 6.1664 0.0000
# 3 51.8630 46.3541 157.7861 0.0000 10.6689 0.0000
# 4 0.0000 0.0000 0.0000 19.7074 0.0000 1.7135
# 5 7.4609 6.1664 10.6689 0.0000 19.4607 0.0000
# 6 0.0000 0.0000 0.0000 1.7135 0.0000 8.2247
#
#
#
# Elastic Compliance Matrix: (Units=1/GPa)
#
#
# Indices 1 2 3 4 5 6 
#
# 1 0.011598 -0.000604 -0.003476 0.000000 -0.002350 0.000000
# 2 -0.000604 0.018637 -0.005082 0.000000 -0.002888 0.000000
# 3 -0.003476 -0.005082 0.009112 0.000000 -0.002053 0.000000
# 4 0.000000 0.000000 0.000000 0.051679 0.000000 -0.010767
# 5 -0.002350 -0.002888 -0.002053 0.000000 0.054327 0.000000
# 6 0.000000 0.000000 0.000000 -0.010767 0.000000 0.123828
#
#
# Mechanical properties :
#
#
# Convention : Reuss Voigt Hill
#
# Bulk Modulus (GPa) = 47.56270 62.63008 55.09639
# Shear Modulus (GPa) = 16.97727 23.67846 20.32787
#
# Velocity S-wave (km/s) = 2.91723 3.44520 3.19215
# Velocity P-wave (km/s) = 5.93202 6.87173 6.41909
#
# Compressibility (1/GPa) = 0.02102488
#
# Stress axis : x y z
#
# Youngs Moduli (GPa) = 86.22177 53.65547 109.74728
#
# Poissons Ratio (x) = 0.03239 0.38148
# Poissons Ratio (y) = 0.05205 0.55769
# Poissons Ratio (z) = 0.29970 0.27265
#
# Static dielectric constant tensor:
#      x y z
#    x 3.391720 0.000000 0.023970 
#    y 0.000000 3.498880 0.000000 
#    z 0.023970 0.000000 3.997520 
# 
# 
# High freq. dielectric constant tensor:
#      x y z
#    x 1.754350 0.000000 0.002800 
#    y 0.000000 1.768640 0.000000 
#    z 0.002800 0.000000 1.798020 
# 
# From -- ./inp_files/8186.got.cif
#   From: 2010.03.12/outbox.cif.g09.slc.cpg/sg14_5_cif.got.tgz:8186.got - 2010.03.31 13:35:05.
