data_PCOD8125922
_publ_section_title
;
Structure prediction by ZEFSAII (Michael W. Deem and Ramdas Pophale) SiO2 
 PCOD8125922
Probable space group: P 21/C
;
_chemical_formula_sum "Si O2"
_cell_formula_units_Z 28
_cell_length_a 5.280930
_cell_length_b 21.846891
_cell_length_c 11.433708
_cell_angle_alpha 90.000000
_cell_angle_beta 105.707416
_cell_angle_gamma 90.000000
_cell_volume 1269.868041
_symmetry_space_group_name_H-M "P 21/C"
_symmetry_group_IT_number 14
_symmetry_cell_setting 'monoclinic'
loop_
_space_group_symop_operation_xyz
x,y,z
-x,1/2+y,1/2-z
-x,-y,-z
x,1/2-y,1/2+z
loop_
_atom_site_type_symbol
_atom_site_label
_atom_site_fract_x
_atom_site_fract_y
_atom_site_fract_z
Si Si1 0.501785 0.968999 0.183933
Si Si2 0.505142 0.092287 0.056080
Si Si3 0.198044 0.204633 0.368492
Si Si4 0.931996 0.668084 0.585484
Si Si5 0.920352 0.417877 0.207316
Si Si6 0.830201 0.206744 0.111837
Si Si7 0.244740 0.830172 0.499314
O O1 0.291833 0.964280 0.262949
O O2 0.787730 0.946321 0.262549
O O3 0.527343 0.040263 0.156025
O O4 0.386551 0.931844 0.056777
O O5 0.204769 0.110019 0.993480
O O6 0.632670 0.153389 0.127350
O O7 0.264815 0.276326 0.402786
O O8 0.465577 0.165463 0.406732
O O9 0.090263 0.199740 0.222926
O O10 0.978918 0.180967 0.431950
O O11 0.081865 0.644386 0.717833
O O12 0.137430 0.695403 0.521574
O O13 0.823149 0.395779 0.067701
O O14 0.734101 0.277311 0.099734
#
# Coordination Sequence:
#
# PCOD8125922 Si02
#       7
#     4   4   4   4   4   4   4
#     4  10  23  36  65  88 125 157 203 250 312 349
#     4  10  21  37  58  95 123 155 200 258 305 362
#     4  11  24  38  59  92 122 164 196 240 307 366
#     4  10  21  36  60  91 123 155 196 248 308 358
#     4  11  21  41  61  89 123 160 199 251 298 371
#     4  11  22  38  62  89 128 157 198 256 302 364
#     4  11  24  40  61  88 126 164 201 244 305 366
#
# _framework density 22.049537000000001
#
# number of rings (size 3 to 8) (size 9 to 14) (size 15 to 20)
#    0.000    1.429    4.286    0.857    4.000    1.714 
#    0.000    0.000    0.000    5.143    0.000    0.000 
#    0.000    0.000    0.000    0.000    0.000    0.000 
#
# Total GULP energy -346983.607152 kJ/mol
# GULP energy per Si atom -12392.271684 kJ/mol
# Density = 2.199935 g / cm^3
# Si number density = 22.049537 Si / 1000 Ang^3
#
#
#
# Elastic Constant Matrix: (Units=GPa)
#
#
# Indices 1 2 3 4 5 6 
#
# 1 100.3781 0.8987 10.3371 0.0000 13.9604 0.0000
# 2 0.8987 44.9763 -10.5250 0.0000 0.8298 0.0000
# 3 10.3371 -10.5250 34.6708 0.0000 13.5329 0.0000
# 4 0.0000 0.0000 0.0000 29.0246 0.0000 4.6520
# 5 13.9604 0.8298 13.5329 0.0000 29.2149 0.0000
# 6 0.0000 0.0000 0.0000 4.6520 0.0000 24.4222
#
#
#
# Elastic Compliance Matrix: (Units=1/GPa)
#
#
# Indices 1 2 3 4 5 6 
#
# 1 0.010743 -0.000524 -0.001665 0.000000 -0.004347 0.000000
# 2 -0.000524 0.024558 0.009504 0.000000 -0.004850 0.000000
# 3 -0.001665 0.009504 0.039086 0.000000 -0.017580 0.000000
# 4 0.000000 0.000000 0.000000 0.035538 0.000000 -0.006769
# 5 -0.004347 -0.004850 -0.017580 0.000000 0.044587 0.000000
# 6 0.000000 0.000000 0.000000 -0.006769 0.000000 0.042236
#
#
# Mechanical properties :
#
#
# Convention : Reuss Voigt Hill
#
# Bulk Modulus (GPa) = 11.23380 20.16076 15.69728
# Shear Modulus (GPa) = 23.60807 28.48664 26.04735
#
# Velocity S-wave (km/s) = 3.27568 3.59825 3.44075
# Velocity P-wave (km/s) = 4.40598 5.14067 4.78744
#
# Compressibility (1/GPa) = 0.08901706
#
# Stress axis : x y z
#
# Youngs Moduli (GPa) = 93.08267 40.71990 25.58441
#
# Poissons Ratio (x) = 0.02134 0.04261
# Poissons Ratio (y) = 0.04879 -0.24316
# Poissons Ratio (z) = 0.15501 -0.38701
#
# Static dielectric constant tensor:
#      x y z
#    x 3.649700 0.000000 0.063960 
#    y 0.000000 4.051890 0.000000 
#    z 0.063960 0.000000 3.824610 
# 
# 
# High freq. dielectric constant tensor:
#      x y z
#    x 1.854930 0.000000 0.009220 
#    y 0.000000 1.858940 0.000000 
#    z 0.009220 0.000000 1.855760 
# 
# From -- ./inp_files/21507.got.cif
#   From: 2010.03.12/outbox.cif.g09.slc.cpg/sg14_11_cif.got.tgz:21507.got - 2010.03.31 13:35:05.
