data_PCOD8125310
_publ_section_title
;
Structure prediction by ZEFSAII (Michael W. Deem and Ramdas Pophale) SiO2 
 PCOD8125310
Probable space group: P 21/C
;
_chemical_formula_sum "Si O2"
_cell_formula_units_Z 28
_cell_length_a 22.518704
_cell_length_b 13.766452
_cell_length_c 25.180876
_cell_angle_alpha 90.000000
_cell_angle_beta 10.179523
_cell_angle_gamma 90.000000
_cell_volume 1379.602166
_symmetry_space_group_name_H-M "P 21/C"
_symmetry_group_IT_number 14
_symmetry_cell_setting 'monoclinic'
loop_
_space_group_symop_operation_xyz
x,y,z
-x,1/2+y,1/2-z
-x,-y,-z
x,1/2-y,1/2+z
loop_
_atom_site_type_symbol
_atom_site_label
_atom_site_fract_x
_atom_site_fract_y
_atom_site_fract_z
Si Si1 0.069612 0.277551 0.463827
Si Si2 0.827671 0.481916 0.284710
Si Si3 0.084858 0.385527 0.607771
Si Si4 0.176340 0.088976 0.314203
Si Si5 0.558918 0.259616 0.127853
Si Si6 0.406296 0.901001 0.554725
Si Si7 0.595341 0.046412 0.103870
O O1 0.992148 0.188620 0.492023
O O2 0.715933 0.320193 0.795294
O O3 0.301491 0.237567 0.306854
O O4 0.255899 0.364406 0.269793
O O5 0.843692 0.576897 0.232206
O O6 0.571343 0.405268 0.482786
O O7 0.687558 0.505850 0.466808
O O8 0.197841 0.438239 0.962121
O O9 0.253960 0.482176 0.481935
O O10 0.836042 0.339095 0.869259
O O11 0.894242 0.419042 0.722372
O O12 0.367052 0.304669 0.347147
O O13 0.000000 0.000000 0.500000
O O14 0.739094 0.156358 0.982039
O O15 0.500000 0.000000 0.500000
#
# Coordination Sequence:
#
# PCOD8125310 Si02
#       7
#     4   4   4   4   4   4   4
#     4  10  21  35  65  86 115 159 199 246 301 361
#     4  11  23  34  60  88 132 156 194 242 306 368
#     4  10  23  39  62  86 117 158 203 250 296 357
#     4  11  22  37  59  97 128 154 200 246 305 369
#     4  10  20  38  60  88 112 156 212 241 289 367
#     4  10  22  41  62  89 115 152 213 259 296 343
#     4  12  22  40  61  88 124 165 200 252 306 357
#
# _framework density 20.295705999999999
#
# number of rings (size 3 to 8) (size 9 to 14) (size 15 to 20)
#    0.000    1.429    2.857    2.143    8.000    0.000 
#    0.000    4.286    0.000    0.000    0.000    0.000 
#    0.000    0.000    0.000    0.000    0.000    0.000 
#
# Total GULP energy -347264.614785 kJ/mol
# GULP energy per Si atom -12402.307671 kJ/mol
# Density = 2.024951 g / cm^3
# Si number density = 20.295706 Si / 1000 Ang^3
#
#
#
# Elastic Constant Matrix: (Units=GPa)
#
#
# Indices 1 2 3 4 5 6 
#
# 1 80.5632 45.8994 19.2042 0.0000 10.0647 0.0000
# 2 45.8994 118.5622 14.1228 0.0000 -11.7028 0.0000
# 3 19.2042 14.1228 81.0775 0.0000 8.0170 0.0000
# 4 0.0000 0.0000 0.0000 18.0543 0.0000 3.1992
# 5 10.0647 -11.7028 8.0170 0.0000 26.3218 0.0000
# 6 0.0000 0.0000 0.0000 3.1992 0.0000 37.3732
#
#
#
# Elastic Compliance Matrix: (Units=1/GPa)
#
#
# Indices 1 2 3 4 5 6 
#
# 1 0.018717 -0.007999 -0.002042 0.000000 -0.010091 0.000000
# 2 -0.007999 0.012561 -0.001184 0.000000 0.009004 0.000000
# 3 -0.002042 -0.001184 0.013402 0.000000 -0.003827 0.000000
# 4 0.000000 0.000000 0.000000 0.056242 0.000000 -0.004814
# 5 -0.010091 0.009004 -0.003827 0.000000 0.047019 0.000000
# 6 0.000000 0.000000 0.000000 -0.004814 0.000000 0.027169
#
#
# Mechanical properties :
#
#
# Convention : Reuss Voigt Hill
#
# Bulk Modulus (GPa) = 44.98268 48.73953 46.86110
# Shear Modulus (GPa) = 24.39385 29.74830 27.07107
#
# Velocity S-wave (km/s) = 3.47064 3.83266 3.65613
# Velocity P-wave (km/s) = 6.18645 6.60700 6.40018
#
# Compressibility (1/GPa) = 0.02223078
#
# Stress axis : x y z
#
# Youngs Moduli (GPa) = 53.42633 79.61315 74.61441
#
# Poissons Ratio (x) = 0.63682 0.15238
# Poissons Ratio (y) = 0.42735 0.08831
# Poissons Ratio (z) = 0.10911 0.09423
#
# Static dielectric constant tensor:
#      x y z
#    x 3.707190 0.000000 0.293760 
#    y 0.000000 3.488410 0.000000 
#    z 0.293760 0.000000 3.844710 
# 
# 
# High freq. dielectric constant tensor:
#      x y z
#    x 1.780650 0.000000 0.028400 
#    y 0.000000 1.783800 0.000000 
#    z 0.028400 0.000000 1.798800 
# 
# From -- ./inp_files/63277.got.cif
#   From: 2010.03.12/outbox.cif.g09.slc.cpg/sg14_32_cif.got.tgz:63277.got - 2010.03.31 13:35:05.
