data_PCOD8125550
_publ_section_title
;
Structure prediction by ZEFSAII (Michael W. Deem and Ramdas Pophale) SiO2 
 PCOD8125550
Probable space group: P 21/C
;
_chemical_formula_sum "Si O2"
_cell_formula_units_Z 32
_cell_length_a 9.451287
_cell_length_b 9.601180
_cell_length_c 16.554354
_cell_angle_alpha 90.000000
_cell_angle_beta 83.529702
_cell_angle_gamma 90.000000
_cell_volume 1492.631746
_symmetry_space_group_name_H-M "P 21/C"
_symmetry_group_IT_number 14
_symmetry_cell_setting 'monoclinic'
loop_
_space_group_symop_operation_xyz
x,y,z
-x,1/2+y,1/2-z
-x,-y,-z
x,1/2-y,1/2+z
loop_
_atom_site_type_symbol
_atom_site_label
_atom_site_fract_x
_atom_site_fract_y
_atom_site_fract_z
Si Si1 0.989034 0.728030 0.802763
Si Si2 0.410282 0.327398 0.703597
Si Si3 0.720523 0.918570 0.370054
Si Si4 0.873853 0.553723 0.199960
Si Si5 0.106454 0.398881 0.539505
Si Si6 0.457448 0.816624 0.642177
Si Si7 0.238117 0.144658 0.453306
Si Si8 0.394581 0.532550 0.578239
O O1 0.855750 0.620777 0.806422
O O2 0.996666 0.845241 0.731341
O O3 0.982866 0.808200 0.889550
O O4 0.115973 0.613816 0.784294
O O5 0.391875 0.205825 0.638065
O O6 0.265395 0.382388 0.751637
O O7 0.514557 0.273089 0.766688
O O8 0.470681 0.457977 0.649750
O O9 0.764147 0.933635 0.460904
O O10 0.655933 0.061334 0.344652
O O11 0.868786 0.570910 0.103086
O O12 0.183125 0.302291 0.468099
O O13 0.232292 0.481430 0.576875
O O14 0.000000 0.500000 0.500000
O O15 0.601721 0.863215 0.589523
O O16 0.385073 0.695457 0.595755
O O17 0.500000 0.500000 0.500000
#
# Coordination Sequence:
#
# PCOD8125550 Si02
#       8
#     4   4   4   4   4   4   4   4
#     4  10  23  43  64  92 132 172 217 275 328 400
#     4  10  21  42  61  93 134 169 215 279 329 391
#     4  10  20  40  58  88 128 167 210 271 328 385
#     4  10  22  39  67  90 129 171 217 266 339 390
#     4  11  24  43  66  95 137 176 222 277 333 392
#     4  11  22  35  67  94 125 171 218 269 336 392
#     4  10  21  39  62  90 129 166 214 275 328 390
#     4  12  22  43  69  97 133 177 223 274 332 402
#
# _framework density 21.438645000000001
#
# number of rings (size 3 to 8) (size 9 to 14) (size 15 to 20)
#    0.000    1.500    5.000    1.125    1.750    5.000 
#    0.000    2.500    0.000    0.000    0.000    0.000 
#    0.000    0.000    0.000    0.000    0.000    0.000 
#
# Total GULP energy -396575.733747 kJ/mol
# GULP energy per Si atom -12392.991680 kJ/mol
# Density = 2.138985 g / cm^3
# Si number density = 21.438645 Si / 1000 Ang^3
#
#
#
# Elastic Constant Matrix: (Units=GPa)
#
#
# Indices 1 2 3 4 5 6 
#
# 1 42.6782 37.0677 28.0632 0.0000 13.2673 0.0000
# 2 37.0677 126.5825 37.8625 0.0000 17.0191 0.0000
# 3 28.0632 37.8625 111.7697 0.0000 21.9677 0.0000
# 4 0.0000 0.0000 0.0000 39.8508 0.0000 2.1659
# 5 13.2673 17.0191 21.9677 0.0000 25.7354 0.0000
# 6 0.0000 0.0000 0.0000 2.1659 0.0000 34.8482
#
#
#
# Elastic Compliance Matrix: (Units=1/GPa)
#
#
# Indices 1 2 3 4 5 6 
#
# 1 0.036333 -0.007997 -0.004532 0.000000 -0.009574 0.000000
# 2 -0.007997 0.010895 -0.001294 0.000000 -0.001978 0.000000
# 3 -0.004532 -0.001294 0.011891 0.000000 -0.006958 0.000000
# 4 0.000000 0.000000 0.000000 0.025179 0.000000 -0.001565
# 5 -0.009574 -0.001978 -0.006958 0.000000 0.051040 0.000000
# 6 0.000000 0.000000 0.000000 -0.001565 0.000000 0.028793
#
#
# Mechanical properties :
#
#
# Convention : Reuss Voigt Hill
#
# Bulk Modulus (GPa) = 31.77350 54.11304 42.94327
# Shear Modulus (GPa) = 24.71994 31.95601 28.33798
#
# Velocity S-wave (km/s) = 3.39935 3.86499 3.63963
# Velocity P-wave (km/s) = 5.50094 6.72408 6.14302
#
# Compressibility (1/GPa) = 0.03147276
#
# Stress axis : x y z
#
# Youngs Moduli (GPa) = 27.52338 91.78798 84.09909
#
# Poissons Ratio (x) = 0.73400 0.38112
# Poissons Ratio (y) = 0.22010 0.10883
# Poissons Ratio (z) = 0.12473 0.11878
#
# Static dielectric constant tensor:
#      x y z
#    x 3.766090 0.000000 0.243900 
#    y 0.000000 3.828340 0.000000 
#    z 0.243900 0.000000 4.157870 
# 
# 
# High freq. dielectric constant tensor:
#      x y z
#    x 1.816790 0.000000 0.006380 
#    y 0.000000 1.846860 0.000000 
#    z 0.006380 0.000000 1.851210 
# 
# From -- ./inp_files/43739.got.cif
#   From: 2010.03.12/outbox.cif.g09.slc.cpg/sg14_22_cif.got.tgz:43739.got - 2010.03.31 13:35:05.
