data_PCOD8125761
_publ_section_title
;
Structure prediction by ZEFSAII (Michael W. Deem and Ramdas Pophale) SiO2 
 PCOD8125761
Probable space group: P 21/C
;
_chemical_formula_sum "Si O2"
_cell_formula_units_Z 32
_cell_length_a 9.290272
_cell_length_b 16.616819
_cell_length_c 21.564348
_cell_angle_alpha 90.000000
_cell_angle_beta 27.869827
_cell_angle_gamma 90.000000
_cell_volume 1556.184694
_symmetry_space_group_name_H-M "P 21/C"
_symmetry_group_IT_number 14
_symmetry_cell_setting 'monoclinic'
loop_
_space_group_symop_operation_xyz
x,y,z
-x,1/2+y,1/2-z
-x,-y,-z
x,1/2-y,1/2+z
loop_
_atom_site_type_symbol
_atom_site_label
_atom_site_fract_x
_atom_site_fract_y
_atom_site_fract_z
Si Si1 0.154037 0.534901 0.382196
Si Si2 0.701842 0.443756 0.217763
Si Si3 0.952794 0.290527 0.545212
Si Si4 0.864327 0.931773 0.224807
Si Si5 0.399959 0.310685 0.259583
Si Si6 0.217975 0.848032 0.194443
Si Si7 0.593278 0.536392 0.029381
Si Si8 0.307301 0.213510 0.516612
O O1 0.512993 0.520221 0.263415
O O2 0.071115 0.627729 0.406047
O O3 0.005615 0.484411 0.381785
O O4 0.000000 0.500000 0.500000
O O5 0.650240 0.375949 0.185931
O O6 0.601944 0.399982 0.321351
O O7 0.047514 0.473391 0.093678
O O8 0.597755 0.267388 0.665892
O O9 0.141028 0.295198 0.409979
O O10 0.108266 0.225352 0.530647
O O11 0.762463 0.843425 0.240503
O O12 0.103447 0.915074 0.188854
O O13 0.578072 0.986717 0.353242
O O14 0.448775 0.786850 0.070817
O O15 0.928600 0.798417 0.335162
O O16 0.501286 0.630794 0.065156
O O17 0.500000 0.500000 0.000000
#
# Coordination Sequence:
#
# PCOD8125761 Si02
#       8
#     4   4   4   4   4   4   4   4
#     4  11  23  43  66  94 132 173 221 274 330 390
#     4  10  20  42  66  93 129 169 219 269 323 397
#     4  12  22  43  68  95 127 180 222 272 321 409
#     4  11  25  42  66  95 139 167 213 287 329 383
#     4  11  24  41  66  95 134 167 222 273 330 385
#     4  11  22  44  66  97 135 173 218 275 331 402
#     4  11  22  43  68  97 130 171 222 273 329 394
#     4  11  22  41  71  92 128 177 228 261 331 404
#
# _framework density 20.563110999999999
#
# number of rings (size 3 to 8) (size 9 to 14) (size 15 to 20)
#    0.000    1.000    8.750    0.000    3.500    4.000 
#    2.250    2.500    0.000    0.000    0.000    0.000 
#    0.000    0.000    0.000    0.000    0.000    0.000 
#
# Total GULP energy -396452.964679 kJ/mol
# GULP energy per Si atom -12389.155146 kJ/mol
# Density = 2.051631 g / cm^3
# Si number density = 20.563111 Si / 1000 Ang^3
#
#
#
# Elastic Constant Matrix: (Units=GPa)
#
#
# Indices 1 2 3 4 5 6 
#
# 1 72.8091 12.2724 6.3065 0.0000 7.3033 0.0000
# 2 12.2724 87.1490 25.4549 0.0000 5.7418 0.0000
# 3 6.3065 25.4549 82.2624 0.0000 6.4528 0.0000
# 4 0.0000 0.0000 0.0000 39.4109 0.0000 -3.6514
# 5 7.3033 5.7418 6.4528 0.0000 28.5713 0.0000
# 6 0.0000 0.0000 0.0000 -3.6514 0.0000 40.1696
#
#
#
# Elastic Compliance Matrix: (Units=1/GPa)
#
#
# Indices 1 2 3 4 5 6 
#
# 1 0.014378 -0.001718 -0.000315 0.000000 -0.003259 0.000000
# 2 -0.001718 0.012900 -0.003758 0.000000 -0.001305 0.000000
# 3 -0.000315 -0.003758 0.013517 0.000000 -0.002217 0.000000
# 4 0.000000 0.000000 0.000000 0.025589 0.000000 0.002326
# 5 -0.003259 -0.001305 -0.002217 0.000000 0.036596 0.000000
# 6 0.000000 0.000000 0.000000 0.002326 0.000000 0.025106
#
#
# Mechanical properties :
#
#
# Convention : Reuss Voigt Hill
#
# Bulk Modulus (GPa) = 34.23027 36.69867 35.46447
# Shear Modulus (GPa) = 33.46584 34.84280 34.15432
#
# Velocity S-wave (km/s) = 4.03857 4.12081 4.07990
# Velocity P-wave (km/s) = 6.19914 6.36609 6.28317
#
# Compressibility (1/GPa) = 0.02921391
#
# Stress axis : x y z
#
# Youngs Moduli (GPa) = 69.54914 77.51909 73.98069
#
# Poissons Ratio (x) = 0.13318 0.02331
# Poissons Ratio (y) = 0.11949 0.27800
# Poissons Ratio (z) = 0.02191 0.29129
#
# Static dielectric constant tensor:
#      x y z
#    x 3.248100 0.000000 0.034540 
#    y 0.000000 3.645960 0.000000 
#    z 0.034540 0.000000 3.842140 
# 
# 
# High freq. dielectric constant tensor:
#      x y z
#    x 1.801020 0.000000 0.001150 
#    y 0.000000 1.805550 0.000000 
#    z 0.001150 0.000000 1.800830 
# 
# From -- ./inp_files/66028.got.cif
#   From: 2010.03.12/outbox.cif.g09.slc.cpg/sg14_34_cif.got.tgz:66028.got - 2010.03.31 13:35:05.
