data_PCOD8125620
_publ_section_title
;
Structure prediction by ZEFSAII (Michael W. Deem and Ramdas Pophale) SiO2 
 PCOD8125620
Probable space group: P 21/C
;
_chemical_formula_sum "Si O2"
_cell_formula_units_Z 32
_cell_length_a 6.222394
_cell_length_b 17.262672
_cell_length_c 15.571756
_cell_angle_alpha 90.000000
_cell_angle_beta 71.740963
_cell_angle_gamma 90.000000
_cell_volume 1588.424440
_symmetry_space_group_name_H-M "P 21/C"
_symmetry_group_IT_number 14
_symmetry_cell_setting 'monoclinic'
loop_
_space_group_symop_operation_xyz
x,y,z
-x,1/2+y,1/2-z
-x,-y,-z
x,1/2-y,1/2+z
loop_
_atom_site_type_symbol
_atom_site_label
_atom_site_fract_x
_atom_site_fract_y
_atom_site_fract_z
Si Si1 0.350733 0.207702 0.603910
Si Si2 0.427949 0.871797 0.096081
Si Si3 0.182483 0.735276 0.506357
Si Si4 0.135523 0.356763 0.569427
Si Si5 0.201002 0.514259 0.857295
Si Si6 0.370693 0.399259 0.254783
Si Si7 0.935752 0.007060 0.818116
Si Si8 0.108848 0.122687 0.490496
O O1 0.611780 0.232487 0.576872
O O2 0.186228 0.281361 0.620325
O O3 0.280618 0.163250 0.698566
O O4 0.311707 0.153906 0.524890
O O5 0.278236 0.798343 0.084133
O O6 0.513005 0.853170 0.181416
O O7 0.282976 0.950320 0.115743
O O8 0.638308 0.884948 0.006703
O O9 0.062749 0.663832 0.472674
O O10 0.007469 0.805147 0.544346
O O11 0.046177 0.422502 0.643712
O O12 0.456957 0.541724 0.812129
O O13 0.073483 0.500802 0.783639
O O14 0.213930 0.433523 0.906371
O O15 0.073360 0.579265 0.927826
O O16 0.159822 0.447083 0.317835
#
# Coordination Sequence:
#
# PCOD8125620 Si02
#       8
#     4   4   4   4   4   4   4   4
#     4  10  21  40  64  88 127 163 206 256 316 373
#     4  10  23  40  66  91 122 164 215 256 313 375
#     4  10  21  41  63  90 121 168 207 256 315 367
#     4  10  23  42  64  91 121 168 209 261 313 375
#     4  10  22  38  63  94 123 164 208 257 309 376
#     4  11  22  39  64  93 128 168 206 259 319 376
#     4  11  23  42  63  92 128 161 212 262 317 372
#     4  10  20  40  65  89 126 165 211 254 310 376
#
# _framework density 20.145748999999999
#
# number of rings (size 3 to 8) (size 9 to 14) (size 15 to 20)
#    0.000    1.750    2.500    1.125    0.000    7.500 
#   11.250    0.000    0.000    0.000    0.000    0.000 
#    0.000    0.000    0.000    0.000    0.000    0.000 
#
# Total GULP energy -396928.967196 kJ/mol
# GULP energy per Si atom -12404.030225 kJ/mol
# Density = 2.009990 g / cm^3
# Si number density = 20.145749 Si / 1000 Ang^3
#
#
#
# Elastic Constant Matrix: (Units=GPa)
#
#
# Indices 1 2 3 4 5 6 
#
# 1 115.5409 50.4986 46.6928 0.0000 12.2940 0.0000
# 2 50.4986 122.9008 65.3150 0.0000 20.9053 0.0000
# 3 46.6928 65.3150 94.6199 0.0000 15.5067 0.0000
# 4 0.0000 0.0000 0.0000 35.4644 0.0000 3.0932
# 5 12.2940 20.9053 15.5067 0.0000 30.1366 0.0000
# 6 0.0000 0.0000 0.0000 3.0932 0.0000 24.1326
#
#
#
# Elastic Compliance Matrix: (Units=1/GPa)
#
#
# Indices 1 2 3 4 5 6 
#
# 1 0.011361 -0.002540 -0.003694 0.000000 -0.000972 0.000000
# 2 -0.002540 0.014073 -0.007679 0.000000 -0.004775 0.000000
# 3 -0.003694 -0.007679 0.018098 0.000000 -0.002479 0.000000
# 4 0.000000 0.000000 0.000000 0.028516 0.000000 -0.003655
# 5 -0.000972 -0.004775 -0.002479 0.000000 0.038167 0.000000
# 6 0.000000 0.000000 0.000000 -0.003655 0.000000 0.041906
#
#
# Mechanical properties :
#
#
# Convention : Reuss Voigt Hill
#
# Bulk Modulus (GPa) = 63.66230 73.11938 68.39084
# Shear Modulus (GPa) = 27.00031 29.31707 28.15869
#
# Velocity S-wave (km/s) = 3.66491 3.81891 3.74270
# Velocity P-wave (km/s) = 7.04118 7.47124 7.25940
#
# Compressibility (1/GPa) = 0.01570788
#
# Stress axis : x y z
#
# Youngs Moduli (GPa) = 88.01855 71.05674 55.25360
#
# Poissons Ratio (x) = 0.18046 0.20411
# Poissons Ratio (y) = 0.22353 0.42428
# Poissons Ratio (z) = 0.32515 0.54563
#
# Static dielectric constant tensor:
#      x y z
#    x 3.792270 0.000000 0.086490 
#    y 0.000000 3.652160 0.000000 
#    z 0.086490 0.000000 3.496260 
# 
# 
# High freq. dielectric constant tensor:
#      x y z
#    x 1.800010 0.000000 0.006370 
#    y 0.000000 1.788360 0.000000 
#    z 0.006370 0.000000 1.773890 
# 
# From -- ./inp_files/37847.got.cif
#   From: 2010.03.12/outbox.cif.g09.slc.cpg/sg14_19_cif.got.tgz:37847.got - 2010.03.31 13:35:05.
