data_PCOD8125405
_publ_section_title
;
Structure prediction by ZEFSAII (Michael W. Deem and Ramdas Pophale) SiO2 
 PCOD8125405
Probable space group: P 21/C
;
_chemical_formula_sum "Si O2"
_cell_formula_units_Z 24
_cell_length_a 8.873205
_cell_length_b 15.065291
_cell_length_c 8.951914
_cell_angle_alpha 90.000000
_cell_angle_beta 96.937555
_cell_angle_gamma 90.000000
_cell_volume 1187.907178
_symmetry_space_group_name_H-M "P 21/C"
_symmetry_group_IT_number 14
_symmetry_cell_setting 'monoclinic'
loop_
_space_group_symop_operation_xyz
x,y,z
-x,1/2+y,1/2-z
-x,-y,-z
x,1/2-y,1/2+z
loop_
_atom_site_type_symbol
_atom_site_label
_atom_site_fract_x
_atom_site_fract_y
_atom_site_fract_z
Si Si1 0.135479 0.595940 0.127595
Si Si2 0.528553 0.649908 0.851930
Si Si3 0.364860 0.756928 0.590833
Si Si4 0.307187 0.919682 0.921211
Si Si5 0.400618 0.472005 0.702104
Si Si6 0.206550 0.425467 0.954394
O O1 0.224520 0.689489 0.143721
O O2 0.165148 0.556281 0.297167
O O3 0.958918 0.616884 0.084124
O O4 0.193419 0.527599 0.007840
O O5 0.493304 0.724321 0.723878
O O6 0.466025 0.556390 0.793423
O O7 0.446739 0.674501 0.994076
O O8 0.706527 0.635590 0.912397
O O9 0.287578 0.673973 0.499932
O O10 0.459107 0.911216 0.835549
O O11 0.311784 0.999218 0.041439
O O12 0.291140 0.421197 0.804043
#
# Coordination Sequence:
#
# PCOD8125405 Si02
#       6
#     4   4   4   4   4   4
#     4  11  22  41  59  90 128 162 201 253 318 372
#     4  11  21  38  62  89 118 162 214 252 302 365
#     4  11  22  38  63  87 121 164 204 260 310 359
#     4  10  21  38  64  91 122 156 211 257 305 365
#     4  10  20  38  66  93 113 160 215 258 291 369
#     4  11  23  38  64  89 125 162 204 254 309 380
#
# _framework density 20.203596999999998
#
# number of rings (size 3 to 8) (size 9 to 14) (size 15 to 20)
#    0.000    1.333    5.000    1.500    0.000    0.667 
#    3.000    0.000    0.000    0.000    0.000    0.000 
#    0.000    0.000    0.000    0.000    0.000    0.000 
#
# Total GULP energy -297524.527857 kJ/mol
# GULP energy per Si atom -12396.855327 kJ/mol
# Density = 2.015761 g / cm^3
# Si number density = 20.203597 Si / 1000 Ang^3
#
#
#
# Elastic Constant Matrix: (Units=GPa)
#
#
# Indices 1 2 3 4 5 6 
#
# 1 72.5546 24.1239 60.8980 0.0000 31.6280 0.0000
# 2 24.1239 60.1638 23.9119 0.0000 11.2901 0.0000
# 3 60.8980 23.9119 127.2557 0.0000 14.6172 0.0000
# 4 0.0000 0.0000 0.0000 24.6764 0.0000 3.5801
# 5 31.6280 11.2901 14.6172 0.0000 33.4291 0.0000
# 6 0.0000 0.0000 0.0000 3.5801 0.0000 26.4619
#
#
#
# Elastic Compliance Matrix: (Units=1/GPa)
#
#
# Indices 1 2 3 4 5 6 
#
# 1 0.042347 -0.004802 -0.015737 0.000000 -0.031562 0.000000
# 2 -0.004802 0.019281 -0.001157 0.000000 -0.001462 0.000000
# 3 -0.015737 -0.001157 0.014584 0.000000 0.008903 0.000000
# 4 0.000000 0.000000 0.000000 0.041336 0.000000 -0.005592
# 5 -0.031562 -0.001462 0.008903 0.000000 0.056377 0.000000
# 6 0.000000 0.000000 0.000000 -0.005592 0.000000 0.038547
#
#
# Mechanical properties :
#
#
# Convention : Reuss Voigt Hill
#
# Bulk Modulus (GPa) = 30.47004 53.09351 41.78178
# Shear Modulus (GPa) = 18.74029 26.98284 22.86156
#
# Velocity S-wave (km/s) = 3.04891 3.65848 3.36751
# Velocity P-wave (km/s) = 5.24487 6.64697 5.98711
#
# Compressibility (1/GPa) = 0.03281912
#
# Stress axis : x y z
#
# Youngs Moduli (GPa) = 23.61428 51.86422 68.56822
#
# Poissons Ratio (x) = 0.24907 1.07909
# Poissons Ratio (y) = 0.11340 0.07932
# Poissons Ratio (z) = 0.37163 0.06000
#
# Static dielectric constant tensor:
#      x y z
#    x 3.464100 0.000000 0.120200 
#    y 0.000000 3.525990 0.000000 
#    z 0.120200 0.000000 4.236670 
# 
# 
# High freq. dielectric constant tensor:
#      x y z
#    x 1.759840 0.000000 0.009490 
#    y 0.000000 1.779230 0.000000 
#    z 0.009490 0.000000 1.813480 
# 
# From -- ./inp_files/8621.got.cif
#   From: 2010.03.12/outbox.cif.g09.slc.cpg/sg14_5_cif.got.tgz:8621.got - 2010.03.31 13:35:05.
