data_PCOD8125746
_publ_section_title
;
Structure prediction by ZEFSAII (Michael W. Deem and Ramdas Pophale) SiO2 
 PCOD8125746
Probable space group: P 21/C
;
_chemical_formula_sum "Si O2"
_cell_formula_units_Z 32
_cell_length_a 10.454791
_cell_length_b 8.926444
_cell_length_c 26.916188
_cell_angle_alpha 90.000000
_cell_angle_beta 34.488644
_cell_angle_gamma 90.000000
_cell_volume 1422.362031
_symmetry_space_group_name_H-M "P 21/C"
_symmetry_group_IT_number 14
_symmetry_cell_setting 'monoclinic'
loop_
_space_group_symop_operation_xyz
x,y,z
-x,1/2+y,1/2-z
-x,-y,-z
x,1/2-y,1/2+z
loop_
_atom_site_type_symbol
_atom_site_label
_atom_site_fract_x
_atom_site_fract_y
_atom_site_fract_z
Si Si1 0.782432 0.072920 0.676926
Si Si2 0.817564 0.682642 0.014556
Si Si3 0.745210 0.930548 0.967101
Si Si4 0.475076 0.731176 0.472941
Si Si5 0.927742 0.385083 0.845178
Si Si6 0.371122 0.276517 0.817637
Si Si7 0.390819 0.005712 0.632804
Si Si8 0.838456 0.898325 0.202564
O O1 0.626079 0.213656 0.744360
O O2 0.938334 0.115211 0.579152
O O3 0.619520 0.934988 0.713970
O O4 0.939860 0.026947 0.673296
O O5 0.781434 0.698679 0.084814
O O6 0.622948 0.583019 0.051210
O O7 0.811244 0.852892 0.997182
O O8 0.622765 0.802358 0.974145
O O9 0.958703 0.985660 0.867793
O O10 0.588277 0.071614 0.031045
O O11 0.261975 0.833020 0.555201
O O12 0.606215 0.827176 0.390356
O O13 0.818769 0.423536 0.826994
O O14 0.092229 0.243702 0.785557
O O15 0.244613 0.153649 0.824528
O O16 0.352859 0.015396 0.704470
#
# Coordination Sequence:
#
# PCOD8125746 Si02
#       8
#     4   4   4   4   4   4   4   4
#     4  11  25  48  70  97 138 176 227 289 332 406
#     4  12  25  43  75  98 130 185 230 276 351 402
#     4  10  23  41  67  99 140 180 216 282 343 413
#     4  10  20  42  64 100 143 170 218 277 351 420
#     4  10  21  43  67 100 135 174 220 282 352 406
#     4  11  27  49  66  98 136 184 239 281 328 409
#     4  12  23  40  72 104 132 178 227 282 349 420
#     4  10  26  43  63  97 144 176 228 288 334 396
#
# _framework density 22.497789000000001
#
# number of rings (size 3 to 8) (size 9 to 14) (size 15 to 20)
#    0.000    1.250    2.500    2.250    5.250    3.500 
#    0.000    0.000    0.000    0.000    0.000    0.000 
#    0.000    0.000    0.000    0.000    0.000    0.000 
#
# Total GULP energy -396766.805983 kJ/mol
# GULP energy per Si atom -12398.962687 kJ/mol
# Density = 2.244658 g / cm^3
# Si number density = 22.497789 Si / 1000 Ang^3
#
#
#
# Elastic Constant Matrix: (Units=GPa)
#
#
# Indices 1 2 3 4 5 6 
#
# 1 85.1224 38.6431 18.5406 0.0000 -1.7413 0.0000
# 2 38.6431 96.3164 31.4028 0.0000 -2.1666 0.0000
# 3 18.5406 31.4028 83.5801 0.0000 -4.9849 0.0000
# 4 0.0000 0.0000 0.0000 25.8976 0.0000 -10.8181
# 5 -1.7413 -2.1666 -4.9849 0.0000 33.2929 0.0000
# 6 0.0000 0.0000 0.0000 -10.8181 0.0000 40.7943
#
#
#
# Elastic Compliance Matrix: (Units=1/GPa)
#
#
# Indices 1 2 3 4 5 6 
#
# 1 0.014466 -0.005421 -0.001158 0.000000 0.000230 0.000000
# 2 -0.005421 0.013864 -0.004005 0.000000 0.000019 0.000000
# 3 -0.001158 -0.004005 0.013831 0.000000 0.001750 0.000000
# 4 0.000000 0.000000 0.000000 0.043424 0.000000 0.011515
# 5 0.000230 0.000019 0.001750 0.000000 0.030312 0.000000
# 6 0.000000 0.000000 0.000000 0.011515 0.000000 0.027567
#
#
# Mechanical properties :
#
#
# Convention : Reuss Voigt Hill
#
# Bulk Modulus (GPa) = 47.63949 49.13244 48.38596
# Shear Modulus (GPa) = 29.13263 31.75914 30.44589
#
# Velocity S-wave (km/s) = 3.60239 3.76128 3.68269
# Velocity P-wave (km/s) = 6.20678 6.38350 6.29576
#
# Compressibility (1/GPa) = 0.02099099
#
# Stress axis : x y z
#
# Youngs Moduli (GPa) = 69.12865 72.13104 72.30275
#
# Poissons Ratio (x) = 0.39102 0.08376
# Poissons Ratio (y) = 0.37474 0.28959
# Poissons Ratio (z) = 0.08008 0.28890
#
# Static dielectric constant tensor:
#      x y z
#    x 3.891150 0.000000 -0.220260 
#    y 0.000000 4.303360 0.000000 
#    z -0.220260 0.000000 3.863550 
# 
# 
# High freq. dielectric constant tensor:
#      x y z
#    x 1.879870 0.000000 -0.011340 
#    y 0.000000 1.903840 0.000000 
#    z -0.011340 0.000000 1.875590 
# 
# From -- ./inp_files/79945.got.cif
#   From: 2010.03.12/outbox.cif.g09.slc.cpg/sg14_40_cif.got.tgz:79945.got - 2010.03.31 13:35:05.
