data_PCOD8125794
_publ_section_title
;
Structure prediction by ZEFSAII (Michael W. Deem and Ramdas Pophale) SiO2 
 PCOD8125794
Probable space group: P 21/C
;
_chemical_formula_sum "Si O2"
_cell_formula_units_Z 20
_cell_length_a 10.188987
_cell_length_b 16.227190
_cell_length_c 13.281301
_cell_angle_alpha 90.000000
_cell_angle_beta 18.156197
_cell_angle_gamma 90.000000
_cell_volume 684.265019
_symmetry_space_group_name_H-M "P 21/C"
_symmetry_group_IT_number 14
_symmetry_cell_setting 'monoclinic'
loop_
_space_group_symop_operation_xyz
x,y,z
-x,1/2+y,1/2-z
-x,-y,-z
x,1/2-y,1/2+z
loop_
_atom_site_type_symbol
_atom_site_label
_atom_site_fract_x
_atom_site_fract_y
_atom_site_fract_z
Si Si1 0.515651 0.474561 0.623665
Si Si2 0.341728 0.864759 0.154200
Si Si3 0.484349 0.025439 0.376335
Si Si4 1.000000 0.756871 0.250000
Si Si5 0.658272 0.635241 0.845800
O O1 0.394344 0.400647 0.634734
O O2 0.216028 0.555854 0.816147
O O3 0.500000 0.445220 0.750000
O O4 1.000000 0.502916 0.250000
O O5 0.957705 0.814867 0.380933
O O6 0.592898 0.800724 0.039436
O O7 0.783972 0.944146 0.183853
O O8 0.605655 0.099353 0.365266
O O9 0.042295 0.814867 0.119067
O O10 0.407102 0.699276 0.960565
#
# Coordination Sequence:
#
# PCOD8125794 Si02
#       5
#     4   4   4   4   4
#     4  11  24  46  73 101 135 182 232 282 335 407
#     4  10  22  42  72  98 142 174 236 272 350 396
#     4  11  24  46  73 101 135 182 232 282 335 407
#     4  10  20  44  66 104 138 184 216 292 336 414
#     4  10  22  42  72  98 142 174 236 272 350 396
#
# _framework density 29.228442000000001
#
# number of rings (size 3 to 8) (size 9 to 14) (size 15 to 20)
#    0.000    1.600    4.000    0.000    0.000    6.400 
#    0.000   12.000    0.000    0.000    0.000    0.000 
#    0.000    0.000    0.000    0.000    0.000    0.000 
#
# Total GULP energy -247796.824940 kJ/mol
# GULP energy per Si atom -12389.841247 kJ/mol
# Density = 2.916192 g / cm^3
# Si number density = 29.228442 Si / 1000 Ang^3
#
#
#
# Elastic Constant Matrix: (Units=GPa)
#
#
# Indices 1 2 3 4 5 6 
#
# 1 209.3152 111.5373 48.0398 0.0000 -2.3556 0.0000
# 2 111.5373 242.1183 39.5396 0.0000 -0.7357 0.0000
# 3 48.0398 39.5396 43.8017 0.0000 11.6678 0.0000
# 4 0.0000 0.0000 0.0000 30.1795 0.0000 5.3904
# 5 -2.3556 -0.7357 11.6678 0.0000 55.2347 0.0000
# 6 0.0000 0.0000 0.0000 5.3904 0.0000 53.4386
#
#
#
# Elastic Compliance Matrix: (Units=1/GPa)
#
#
# Indices 1 2 3 4 5 6 
#
# 1 0.007600 -0.002418 -0.006602 0.000000 0.001687 0.000000
# 2 -0.002418 0.005671 -0.002607 0.000000 0.000523 0.000000
# 3 -0.006602 -0.002607 0.034447 0.000000 -0.007593 0.000000
# 4 0.000000 0.000000 0.000000 0.033743 0.000000 -0.003404
# 5 0.001687 0.000523 -0.007593 0.000000 0.019787 0.000000
# 6 0.000000 0.000000 0.000000 -0.003404 0.000000 0.019056
#
#
# Mechanical properties :
#
#
# Convention : Reuss Voigt Hill
#
# Bulk Modulus (GPa) = 40.87567 99.27428 70.07497
# Shear Modulus (GPa) = 32.95663 47.51178 40.23420
#
# Velocity S-wave (km/s) = 3.36155 4.03616 3.71420
# Velocity P-wave (km/s) = 5.39277 7.46723 6.51312
#
# Compressibility (1/GPa) = 0.02446443
#
# Stress axis : x y z
#
# Youngs Moduli (GPa) = 131.57676 176.32318 29.02998
#
# Poissons Ratio (x) = 0.42633 0.19166
# Poissons Ratio (y) = 0.31814 0.07568
# Poissons Ratio (z) = 0.86869 0.45969
#
# Static dielectric constant tensor:
#      x y z
#    x 6.064810 0.000000 -0.571230 
#    y 0.000000 5.851380 0.000000 
#    z -0.571230 0.000000 5.362600 
# 
# 
# High freq. dielectric constant tensor:
#      x y z
#    x 2.226100 0.000000 -0.027240 
#    y 0.000000 2.211300 0.000000 
#    z -0.027240 0.000000 2.155080 
# 
# From -- ./inp_files/26226.got.cif
#   From: 2010.03.12/outbox.cif.g09.slc.cpg/sg14_14_cif.got.tgz:26226.got - 2010.03.31 13:35:05.
