data_PCOD8125554
_publ_section_title
;
Structure prediction by ZEFSAII (Michael W. Deem and Ramdas Pophale) SiO2 
 PCOD8125554
Probable space group: P 21/C
;
_chemical_formula_sum "Si O2"
_cell_formula_units_Z 28
_cell_length_a 6.530003
_cell_length_b 16.102315
_cell_length_c 15.980125
_cell_angle_alpha 90.000000
_cell_angle_beta 53.596868
_cell_angle_gamma 90.000000
_cell_volume 1352.393106
_symmetry_space_group_name_H-M "P 21/C"
_symmetry_group_IT_number 14
_symmetry_cell_setting 'monoclinic'
loop_
_space_group_symop_operation_xyz
x,y,z
-x,1/2+y,1/2-z
-x,-y,-z
x,1/2-y,1/2+z
loop_
_atom_site_type_symbol
_atom_site_label
_atom_site_fract_x
_atom_site_fract_y
_atom_site_fract_z
Si Si1 0.660510 0.539960 0.657431
Si Si2 0.133967 0.880107 0.963586
Si Si3 0.284049 0.666246 0.794738
Si Si4 0.483050 0.259125 0.103250
Si Si5 0.970189 0.324142 0.695527
Si Si6 0.660888 0.467574 0.838371
Si Si7 0.739520 0.896659 0.453737
O O1 0.668131 0.457198 0.598155
O O2 0.413271 0.598237 0.701145
O O3 0.630726 0.517042 0.760905
O O4 0.916238 0.592941 0.580771
O O5 0.275555 0.801287 0.969972
O O6 0.006344 0.856208 0.905891
O O7 0.483745 0.690142 0.818786
O O8 0.222198 0.746223 0.753386
O O9 0.023318 0.635741 0.902176
O O10 0.444463 0.324103 0.037408
O O11 0.239398 0.200063 0.168990
O O12 0.866137 0.395051 0.780778
O O13 0.766002 0.527896 0.883401
O O14 0.385733 0.429266 0.930145
#
# Coordination Sequence:
#
# PCOD8125554 Si02
#       7
#     4   4   4   4   4   4   4
#     4  10  20  40  61  88 120 157 199 249 303 358
#     4   9  21  39  60  87 121 155 202 250 297 360
#     4  10  21  37  61  87 121 156 201 248 297 356
#     4  10  20  40  59  88 123 159 200 246 302 357
#     4   9  21  38  59  88 120 154 204 245 294 361
#     4  10  21  41  60  88 122 157 200 247 299 361
#     4  10  22  39  59  88 123 155 203 250 293 359
#
# _framework density 20.704039999999999
#
# number of rings (size 3 to 8) (size 9 to 14) (size 15 to 20)
#    0.000    2.286    1.429    0.000    2.000    5.143 
#    2.571    2.143    0.000    0.000    0.000    0.000 
#    0.000    0.000    0.000    0.000    0.000    0.000 
#
# Total GULP energy -347160.773145 kJ/mol
# GULP energy per Si atom -12398.599041 kJ/mol
# Density = 2.065692 g / cm^3
# Si number density = 20.704040 Si / 1000 Ang^3
#
#
#
# Elastic Constant Matrix: (Units=GPa)
#
#
# Indices 1 2 3 4 5 6 
#
# 1 83.1402 47.5435 35.3073 0.0000 -11.3594 0.0000
# 2 47.5435 132.4183 63.9480 0.0000 -15.2146 0.0000
# 3 35.3073 63.9480 116.0011 0.0000 -9.5244 0.0000
# 4 0.0000 0.0000 0.0000 32.4897 0.0000 -19.6012
# 5 -11.3594 -15.2146 -9.5244 0.0000 14.3222 0.0000
# 6 0.0000 0.0000 0.0000 -19.6012 0.0000 24.6392
#
#
#
# Elastic Compliance Matrix: (Units=1/GPa)
#
#
# Indices 1 2 3 4 5 6 
#
# 1 0.016184 -0.003937 -0.002163 0.000000 0.007215 0.000000
# 2 -0.003937 0.012089 -0.004938 0.000000 0.006437 0.000000
# 3 -0.002163 -0.004938 0.012090 0.000000 0.001079 0.000000
# 4 0.000000 0.000000 0.000000 0.059185 0.000000 0.047083
# 5 0.007215 0.006437 0.001079 0.000000 0.083099 0.000000
# 6 0.000000 0.000000 0.000000 0.047083 0.000000 0.078042
#
#
# Mechanical properties :
#
#
# Convention : Reuss Voigt Hill
#
# Bulk Modulus (GPa) = 54.68368 69.46191 62.07280
# Shear Modulus (GPa) = 17.30947 26.60762 21.95854
#
# Velocity S-wave (km/s) = 2.89458 3.58878 3.26021
# Velocity P-wave (km/s) = 6.13521 7.12707 6.64966
#
# Compressibility (1/GPa) = 0.01828699
#
# Stress axis : x y z
#
# Youngs Moduli (GPa) = 61.79094 82.71651 82.71568
#
# Poissons Ratio (x) = 0.32565 0.17892
# Poissons Ratio (y) = 0.24327 0.40843
# Poissons Ratio (z) = 0.13366 0.40844
#
# Static dielectric constant tensor:
#      x y z
#    x 3.467760 0.000000 -0.159670 
#    y 0.000000 4.233010 0.000000 
#    z -0.159670 0.000000 3.598300 
# 
# 
# High freq. dielectric constant tensor:
#      x y z
#    x 1.786000 0.000000 -0.013490 
#    y 0.000000 1.841560 0.000000 
#    z -0.013490 0.000000 1.795420 
# 
# From -- ./inp_files/37767.got.cif
#   From: 2010.03.12/outbox.cif.g09.slc.cpg/sg14_19_cif.got.tgz:37767.got - 2010.03.31 13:35:05.
