data_PCOD8125316
_publ_section_title
;
Structure prediction by ZEFSAII (Michael W. Deem and Ramdas Pophale) SiO2 
 PCOD8125316
Probable space group: P 21/C
;
_chemical_formula_sum "Si O2"
_cell_formula_units_Z 32
_cell_length_a 7.691032
_cell_length_b 23.174341
_cell_length_c 8.507345
_cell_angle_alpha 90.000000
_cell_angle_beta 102.304180
_cell_angle_gamma 90.000000
_cell_volume 1481.473779
_symmetry_space_group_name_H-M "P 21/C"
_symmetry_group_IT_number 14
_symmetry_cell_setting 'monoclinic'
loop_
_space_group_symop_operation_xyz
x,y,z
-x,1/2+y,1/2-z
-x,-y,-z
x,1/2-y,1/2+z
loop_
_atom_site_type_symbol
_atom_site_label
_atom_site_fract_x
_atom_site_fract_y
_atom_site_fract_z
Si Si1 0.543462 0.087948 0.587979
Si Si2 0.284829 0.565629 0.177935
Si Si3 0.558580 0.271581 0.443180
Si Si4 0.753756 0.943897 0.250819
Si Si5 0.007075 0.146363 0.518072
Si Si6 0.602238 0.882077 0.936895
Si Si7 0.302142 0.325481 0.847787
Si Si8 0.242987 0.807891 0.294593
O O1 0.627569 0.045742 0.472302
O O2 0.439692 0.053928 0.702817
O O3 0.421950 0.133629 0.475890
O O4 0.699013 0.125122 0.699580
O O5 0.179520 0.510573 0.230406
O O6 0.434082 0.585204 0.330203
O O7 0.154816 0.619337 0.114586
O O8 0.471250 0.332597 0.464020
O O9 0.401610 0.234733 0.327698
O O10 0.743006 0.282912 0.379477
O O11 0.612958 0.234786 0.602215
O O12 0.887724 0.904360 0.373925
O O13 0.726761 0.923917 0.065917
O O14 0.120314 0.182647 0.412187
O O15 0.941247 0.191613 0.641531
O O16 0.731073 0.856316 0.826612
#
# Coordination Sequence:
#
# PCOD8125316 Si02
#       8
#     4   4   4   4   4   4   4   4
#     4   8  17  34  61  85 114 157 212 245 281 374
#     4  10  21  39  62  88 125 166 205 255 311 355
#     4  11  20  39  64  83 120 166 205 246 300 371
#     4  11  20  38  63  92 120 163 212 256 304 356
#     4  10  23  42  59  92 130 159 198 254 311 379
#     4  11  22  39  63  91 119 159 215 261 286 362
#     4   9  20  39  59  85 124 162 197 244 312 364
#     4  10  20  38  60  90 117 160 203 246 307 367
#
# _framework density 21.600114000000001
#
# number of rings (size 3 to 8) (size 9 to 14) (size 15 to 20)
#    0.000    2.000    2.500    1.875    0.000    0.000 
#    6.750    0.625    0.000    0.000    0.000    0.000 
#    0.000    0.000    0.000    0.000    0.000    0.000 
#
# Total GULP energy -396451.206244 kJ/mol
# GULP energy per Si atom -12389.100195 kJ/mol
# Density = 2.155095 g / cm^3
# Si number density = 21.600114 Si / 1000 Ang^3
#
#
#
# Elastic Constant Matrix: (Units=GPa)
#
#
# Indices 1 2 3 4 5 6 
#
# 1 83.7257 6.2809 21.3302 0.0000 -30.4607 0.0000
# 2 6.2809 57.3250 14.2833 0.0000 -11.2315 0.0000
# 3 21.3302 14.2833 79.3046 0.0000 -14.5436 0.0000
# 4 0.0000 0.0000 0.0000 24.9135 0.0000 -3.1912
# 5 -30.4607 -11.2315 -14.5436 0.0000 41.8670 0.0000
# 6 0.0000 0.0000 0.0000 -3.1912 0.0000 20.2041
#
#
#
# Elastic Compliance Matrix: (Units=1/GPa)
#
#
# Indices 1 2 3 4 5 6 
#
# 1 0.016725 0.001074 -0.002571 0.000000 0.011563 0.000000
# 2 0.001074 0.018987 -0.002810 0.000000 0.004899 0.000000
# 3 -0.002571 -0.002810 0.014233 0.000000 0.002319 0.000000
# 4 0.000000 0.000000 0.000000 0.040968 0.000000 0.006471
# 5 0.011563 0.004899 0.002319 0.000000 0.034418 0.000000
# 6 0.000000 0.000000 0.000000 0.006471 0.000000 0.050517
#
#
# Mechanical properties :
#
#
# Convention : Reuss Voigt Hill
#
# Bulk Modulus (GPa) = 24.19591 33.79379 28.99485
# Shear Modulus (GPa) = 25.22207 29.29432 27.25819
#
# Velocity S-wave (km/s) = 3.42084 3.68667 3.55624
# Velocity P-wave (km/s) = 5.17967 5.81388 5.50591
#
# Compressibility (1/GPa) = 0.04132930
#
# Stress axis : x y z
#
# Youngs Moduli (GPa) = 59.78985 52.66853 70.26078
#
# Poissons Ratio (x) = -0.05655 0.18066
# Poissons Ratio (y) = -0.06420 0.19744
# Poissons Ratio (z) = 0.15374 0.14800
#
# Static dielectric constant tensor:
#      x y z
#    x 3.939010 0.000000 -0.323280 
#    y 0.000000 3.794390 0.000000 
#    z -0.323280 0.000000 3.855490 
# 
# 
# High freq. dielectric constant tensor:
#      x y z
#    x 1.825230 0.000000 -0.019980 
#    y 0.000000 1.844150 0.000000 
#    z -0.019980 0.000000 1.844330 
# 
# From -- ./inp_files/10698.got.cif
#   From: 2010.03.12/outbox.cif.g09.slc.cpg/sg14_6_cif.got.tgz:10698.got - 2010.03.31 13:35:05.
