data_PCOD8125680
_publ_section_title
;
Structure prediction by ZEFSAII (Michael W. Deem and Ramdas Pophale) SiO2 
 PCOD8125680
Probable space group: P 21/C
;
_chemical_formula_sum "Si O2"
_cell_formula_units_Z 32
_cell_length_a 5.178320
_cell_length_b 11.205918
_cell_length_c 23.880811
_cell_angle_alpha 90.000000
_cell_angle_beta 99.419854
_cell_angle_gamma 90.000000
_cell_volume 1367.065466
_symmetry_space_group_name_H-M "P 21/C"
_symmetry_group_IT_number 14
_symmetry_cell_setting 'monoclinic'
loop_
_space_group_symop_operation_xyz
x,y,z
-x,1/2+y,1/2-z
-x,-y,-z
x,1/2-y,1/2+z
loop_
_atom_site_type_symbol
_atom_site_label
_atom_site_fract_x
_atom_site_fract_y
_atom_site_fract_z
Si Si1 0.472300 0.457421 0.856272
Si Si2 0.575857 0.433205 0.681666
Si Si3 0.182341 0.459164 0.419191
Si Si4 0.746466 0.357205 0.331811
Si Si5 0.590150 0.724071 0.892236
Si Si6 0.533048 0.251410 0.928213
Si Si7 0.859688 0.293080 0.539270
Si Si8 0.928284 0.125595 0.293067
O O1 0.496118 0.596252 0.868578
O O2 0.442314 0.389257 0.916068
O O3 0.740028 0.426705 0.833649
O O4 0.219246 0.425753 0.809427
O O5 0.647585 0.485489 0.624263
O O6 0.399436 0.535072 0.706782
O O7 0.419616 0.310787 0.662900
O O8 0.831523 0.408773 0.727673
O O9 0.329801 0.342113 0.450248
O O10 0.120145 0.562278 0.462372
O O11 0.907515 0.419418 0.386340
O O12 0.547008 0.279062 0.361972
O O13 0.916569 0.271623 0.297201
O O14 0.389502 0.759978 0.932907
O O15 0.882512 0.727901 0.928050
O O16 0.802066 0.249521 0.973511
#
# Coordination Sequence:
#
# PCOD8125680 Si02
#       8
#     4   4   4   4   4   4   4   4
#     4  11  25  45  62  94 132 169 218 268 317 390
#     4  10  24  40  63  95 128 166 214 268 321 390
#     4  10  20  41  63  93 133 160 215 278 321 378
#     4  10  21  42  64  92 130 163 213 271 316 379
#     4  11  25  43  61  95 134 165 214 270 317 390
#     4  10  23  40  65  94 129 169 218 270 320 391
#     4  11  24  40  67  96 124 175 215 261 339 379
#     4  11  25  41  68  93 121 175 214 258 330 382
#
# _framework density 23.407802
#
# number of rings (size 3 to 8) (size 9 to 14) (size 15 to 20)
#    0.000    1.500    2.500    1.125    5.250    1.500 
#    0.000    0.000    0.000    0.000    0.000    0.000 
#    0.000    0.000    0.000    0.000    0.000    0.000 
#
# Total GULP energy -396521.585598 kJ/mol
# GULP energy per Si atom -12391.299550 kJ/mol
# Density = 2.335452 g / cm^3
# Si number density = 23.407802 Si / 1000 Ang^3
#
#
#
# Elastic Constant Matrix: (Units=GPa)
#
#
# Indices 1 2 3 4 5 6 
#
# 1 73.7558 15.1833 15.6561 0.0000 25.0634 0.0000
# 2 15.1833 144.1145 31.1944 0.0000 8.0398 0.0000
# 3 15.6561 31.1944 66.2740 0.0000 34.5632 0.0000
# 4 0.0000 0.0000 0.0000 22.8908 0.0000 9.6515
# 5 25.0634 8.0398 34.5632 0.0000 37.0581 0.0000
# 6 0.0000 0.0000 0.0000 9.6515 0.0000 35.2254
#
#
#
# Elastic Compliance Matrix: (Units=1/GPa)
#
#
# Indices 1 2 3 4 5 6 
#
# 1 0.018784 -0.002256 0.005831 0.000000 -0.017653 0.000000
# 2 -0.002256 0.008215 -0.006231 0.000000 0.005555 0.000000
# 3 0.005831 -0.006231 0.035039 0.000000 -0.035272 0.000000
# 4 0.000000 0.000000 0.000000 0.049392 0.000000 -0.013533
# 5 -0.017653 0.005555 -0.035272 0.000000 0.070616 0.000000
# 6 0.000000 0.000000 0.000000 -0.013533 0.000000 0.032097
#
#
# Mechanical properties :
#
#
# Convention : Reuss Voigt Hill
#
# Bulk Modulus (GPa) = 17.62869 45.35689 31.49279
# Shear Modulus (GPa) = 20.97633 33.84222 27.40927
#
# Velocity S-wave (km/s) = 2.99678 3.80645 3.42562
# Velocity P-wave (km/s) = 4.41834 6.22396 5.39719
#
# Compressibility (1/GPa) = 0.05672571
#
# Stress axis : x y z
#
# Youngs Moduli (GPa) = 53.23770 121.72153 28.53931
#
# Poissons Ratio (x) = 0.27464 -0.16641
# Poissons Ratio (y) = 0.12012 0.17783
# Poissons Ratio (z) = -0.31042 0.75845
#
# Static dielectric constant tensor:
#      x y z
#    x 4.031990 0.000000 0.119660 
#    y 0.000000 5.171070 0.000000 
#    z 0.119660 0.000000 4.026020 
# 
# 
# High freq. dielectric constant tensor:
#      x y z
#    x 1.921110 0.000000 0.016340 
#    y 0.000000 1.940690 0.000000 
#    z 0.016340 0.000000 1.909850 
# 
# From -- ./inp_files/71278.got.cif
#   From: 2010.03.12/outbox.cif.g09.slc.cpg/sg14_36_cif.got.tgz:71278.got - 2010.03.31 13:35:05.
