data_PCOD8125469
_publ_section_title
;
Structure prediction by ZEFSAII (Michael W. Deem and Ramdas Pophale) SiO2 
 PCOD8125469
Probable space group: P 21/C
;
_chemical_formula_sum "Si O2"
_cell_formula_units_Z 28
_cell_length_a 12.719323
_cell_length_b 9.270072
_cell_length_c 12.980703
_cell_angle_alpha 90.000000
_cell_angle_beta 59.304555
_cell_angle_gamma 90.000000
_cell_volume 1316.102330
_symmetry_space_group_name_H-M "P 21/C"
_symmetry_group_IT_number 14
_symmetry_cell_setting 'monoclinic'
loop_
_space_group_symop_operation_xyz
x,y,z
-x,1/2+y,1/2-z
-x,-y,-z
x,1/2-y,1/2+z
loop_
_atom_site_type_symbol
_atom_site_label
_atom_site_fract_x
_atom_site_fract_y
_atom_site_fract_z
Si Si1 0.399727 0.725733 0.692043
Si Si2 0.965920 0.751301 0.392505
Si Si3 0.794788 0.903642 0.115044
Si Si4 0.109890 0.016405 0.729457
Si Si5 0.524853 0.528483 0.771514
Si Si6 0.326755 0.862247 0.529990
Si Si7 0.174864 0.731064 0.430824
O O1 0.468948 0.577816 0.688775
O O2 0.398393 0.751455 0.570036
O O3 0.260263 0.713432 0.795854
O O4 0.458586 0.856590 0.730607
O O5 0.833204 0.705845 0.504533
O O6 0.951428 0.894133 0.331659
O O7 0.029130 0.625405 0.293199
O O8 0.043605 0.786651 0.457047
O O9 0.880051 0.883408 0.173870
O O10 0.653016 0.886392 0.216215
O O11 0.822804 0.060705 0.055643
O O12 0.252960 0.978218 0.635050
O O13 0.433205 0.570454 0.908663
O O14 0.217312 0.793023 0.518691
#
# Coordination Sequence:
#
# PCOD8125469 Si02
#       7
#     4   4   4   4   4   4   4
#     4  10  20  39  62  87 122 163 200 258 310 368
#     4  11  24  40  65  92 129 160 213 257 310 374
#     4  10  22  41  61  88 132 163 200 259 326 355
#     4  11  24  41  66  93 120 173 204 258 315 373
#     4  10  22  38  62  91 121 160 209 254 312 368
#     4  11  21  38  67  86 121 166 214 249 315 370
#     4   9  20  39  61  88 121 170 202 252 311 374
#
# _framework density 21.274940999999998
#
# number of rings (size 3 to 8) (size 9 to 14) (size 15 to 20)
#    0.000    1.714    4.286    2.143    6.000    0.571 
#    0.000    7.857    0.000    0.000    0.000    0.000 
#    0.000    0.000    0.000    0.000    0.000    0.000 
#
# Total GULP energy -346986.777289 kJ/mol
# GULP energy per Si atom -12392.384903 kJ/mol
# Density = 2.122652 g / cm^3
# Si number density = 21.274941 Si / 1000 Ang^3
#
#
#
# Elastic Constant Matrix: (Units=GPa)
#
#
# Indices 1 2 3 4 5 6 
#
# 1 78.1936 36.8557 30.7970 0.0000 1.4783 0.0000
# 2 36.8557 43.9604 22.1624 0.0000 5.6730 0.0000
# 3 30.7970 22.1624 94.9857 0.0000 -8.6614 0.0000
# 4 0.0000 0.0000 0.0000 17.8318 0.0000 3.0948
# 5 1.4783 5.6730 -8.6614 0.0000 34.8844 0.0000
# 6 0.0000 0.0000 0.0000 3.0948 0.0000 35.0800
#
#
#
# Elastic Compliance Matrix: (Units=1/GPa)
#
#
# Indices 1 2 3 4 5 6 
#
# 1 0.022009 -0.017049 -0.003060 0.000000 0.001080 0.000000
# 2 -0.017049 0.040195 -0.004482 0.000000 -0.006927 0.000000
# 3 -0.003060 -0.004482 0.012937 0.000000 0.004071 0.000000
# 4 0.000000 0.000000 0.000000 0.056952 0.000000 -0.005024
# 5 0.001080 -0.006927 0.004071 0.000000 0.030758 0.000000
# 6 0.000000 0.000000 0.000000 -0.005024 0.000000 0.028950
#
#
# Mechanical properties :
#
#
# Convention : Reuss Voigt Hill
#
# Bulk Modulus (GPa) = 38.52186 44.08555 41.30370
# Shear Modulus (GPa) = 20.02918 26.04752 23.03835
#
# Velocity S-wave (km/s) = 3.07163 3.50284 3.29429
# Velocity P-wave (km/s) = 5.54309 6.09316 5.82462
#
# Compressibility (1/GPa) = 0.02595929
#
# Stress axis : x y z
#
# Youngs Moduli (GPa) = 45.43522 24.87855 77.29824
#
# Poissons Ratio (x) = 0.42416 0.23650
# Poissons Ratio (y) = 0.77464 0.34648
# Poissons Ratio (z) = 0.13901 0.11151
#
# Static dielectric constant tensor:
#      x y z
#    x 4.047010 0.000000 -0.011650 
#    y 0.000000 3.585160 0.000000 
#    z -0.011650 0.000000 3.936960 
# 
# 
# High freq. dielectric constant tensor:
#      x y z
#    x 1.840720 0.000000 -0.004180 
#    y 0.000000 1.798370 0.000000 
#    z -0.004180 0.000000 1.845740 
# 
# From -- ./inp_files/43308.got.cif
#   From: 2010.03.12/outbox.cif.g09.slc.cpg/sg14_22_cif.got.tgz:43308.got - 2010.03.31 13:35:05.
