data_PCOD8125516
_publ_section_title
;
Structure prediction by ZEFSAII (Michael W. Deem and Ramdas Pophale) SiO2 
 PCOD8125516
Probable space group: P 21/C
;
_chemical_formula_sum "Si O2"
_cell_formula_units_Z 32
_cell_length_a 11.866806
_cell_length_b 18.434712
_cell_length_c 15.204741
_cell_angle_alpha 90.000000
_cell_angle_beta 152.947631
_cell_angle_gamma 90.000000
_cell_volume 1512.774414
_symmetry_space_group_name_H-M "P 21/C"
_symmetry_group_IT_number 14
_symmetry_cell_setting 'monoclinic'
loop_
_space_group_symop_operation_xyz
x,y,z
-x,1/2+y,1/2-z
-x,-y,-z
x,1/2-y,1/2+z
loop_
_atom_site_type_symbol
_atom_site_label
_atom_site_fract_x
_atom_site_fract_y
_atom_site_fract_z
Si Si1 0.689237 0.664998 0.123877
Si Si2 0.149955 0.699474 0.087132
Si Si3 0.397132 0.175592 0.968241
Si Si4 0.841265 0.592111 0.551631
Si Si5 0.832764 0.073665 0.010560
Si Si6 0.224790 0.857239 0.197958
Si Si7 0.612513 0.837865 0.232244
Si Si8 0.502734 0.324545 0.818620
O O1 0.753530 0.750070 0.157636
O O2 0.527908 0.651093 0.101133
O O3 0.941693 0.619799 0.290902
O O4 0.517775 0.646363 0.920362
O O5 0.360576 0.684111 0.304740
O O6 0.105649 0.786604 0.065518
O O7 0.225763 0.676476 0.039619
O O8 0.910074 0.650377 0.943891
O O9 0.216293 0.119318 0.890374
O O10 0.483940 0.147794 0.933865
O O11 0.847903 0.505698 0.560559
O O12 0.652038 0.619288 0.346626
O O13 0.104063 0.627038 0.708766
O O14 0.850771 0.075075 0.916962
O O15 0.557317 0.107118 0.831829
O O16 0.583082 0.758017 0.251482
#
# Coordination Sequence:
#
# PCOD8125516 Si02
#       8
#     4   4   4   4   4   4   4   4
#     4  10  23  39  67  98 125 169 219 264 314 380
#     4  10  20  39  64  96 119 163 220 263 307 372
#     4   9  23  40  62  96 120 166 216 263 305 370
#     4  11  23  42  65  92 140 166 205 268 324 377
#     4  12  25  42  61  99 136 168 205 265 326 381
#     4  11  21  39  64  91 129 171 208 265 320 377
#     4  11  22  39  67  87 126 167 211 260 313 373
#     4  10  20  40  63  92 128 162 215 264 312 376
#
# _framework density 21.153186000000002
#
# number of rings (size 3 to 8) (size 9 to 14) (size 15 to 20)
#    0.000    1.500    3.750    1.125    1.750    4.000 
#    0.000    2.500    0.000    0.000    0.000    0.000 
#    0.000    0.000    0.000    0.000    0.000    0.000 
#
# Total GULP energy -396481.798386 kJ/mol
# GULP energy per Si atom -12390.056200 kJ/mol
# Density = 2.110504 g / cm^3
# Si number density = 21.153186 Si / 1000 Ang^3
#
#
#
# Elastic Constant Matrix: (Units=GPa)
#
#
# Indices 1 2 3 4 5 6 
#
# 1 78.2620 28.3352 38.2737 0.0000 22.3464 0.0000
# 2 28.3352 78.8212 33.0851 0.0000 12.0263 0.0000
# 3 38.2737 33.0851 68.7764 0.0000 14.5559 0.0000
# 4 0.0000 0.0000 0.0000 17.3095 0.0000 -0.3493
# 5 22.3464 12.0263 14.5559 0.0000 35.9003 0.0000
# 6 0.0000 0.0000 0.0000 -0.3493 0.0000 20.3964
#
#
#
# Elastic Compliance Matrix: (Units=1/GPa)
#
#
# Indices 1 2 3 4 5 6 
#
# 1 0.020075 -0.002501 -0.008205 0.000000 -0.008331 0.000000
# 2 -0.002501 0.016405 -0.006198 0.000000 -0.001426 0.000000
# 3 -0.008205 -0.006198 0.022498 0.000000 -0.001938 0.000000
# 4 0.000000 0.000000 0.000000 0.057792 0.000000 0.000990
# 5 -0.008331 -0.001426 -0.001938 0.000000 0.034304 0.000000
# 6 0.000000 0.000000 0.000000 0.000990 0.000000 0.049045
#
#
# Mechanical properties :
#
#
# Convention : Reuss Voigt Hill
#
# Bulk Modulus (GPa) = 39.73188 47.24974 43.49081
# Shear Modulus (GPa) = 20.63414 23.13229 21.88322
#
# Velocity S-wave (km/s) = 3.12663 3.31049 3.21987
# Velocity P-wave (km/s) = 5.64430 6.08259 5.86754
#
# Compressibility (1/GPa) = 0.02516870
#
# Stress axis : x y z
#
# Youngs Moduli (GPa) = 49.81420 60.95581 44.44900
#
# Poissons Ratio (x) = 0.15248 0.36470
# Poissons Ratio (y) = 0.12461 0.27550
# Poissons Ratio (z) = 0.40872 0.37781
#
# Static dielectric constant tensor:
#      x y z
#    x 4.170550 0.000000 0.074400 
#    y 0.000000 3.510740 0.000000 
#    z 0.074400 0.000000 3.723540 
# 
# 
# High freq. dielectric constant tensor:
#      x y z
#    x 1.842680 0.000000 0.001970 
#    y 0.000000 1.791310 0.000000 
#    z 0.001970 0.000000 1.831210 
# 
# From -- ./inp_files/45448.got.cif
#   From: 2010.03.12/outbox.cif.g09.slc.cpg/sg14_23_cif.got.tgz:45448.got - 2010.03.31 13:35:05.
