data_PCOD8125841
_publ_section_title
;
Structure prediction by ZEFSAII (Michael W. Deem and Ramdas Pophale) SiO2 
 PCOD8125841
Probable space group: P 21/C
;
_chemical_formula_sum "Si O2"
_cell_formula_units_Z 32
_cell_length_a 11.423020
_cell_length_b 27.806490
_cell_length_c 13.930126
_cell_angle_alpha 90.000000
_cell_angle_beta 158.581495
_cell_angle_gamma 90.000000
_cell_volume 1615.794518
_symmetry_space_group_name_H-M "P 21/C"
_symmetry_group_IT_number 14
_symmetry_cell_setting 'monoclinic'
loop_
_space_group_symop_operation_xyz
x,y,z
-x,1/2+y,1/2-z
-x,-y,-z
x,1/2-y,1/2+z
loop_
_atom_site_type_symbol
_atom_site_label
_atom_site_fract_x
_atom_site_fract_y
_atom_site_fract_z
Si Si1 0.406601 0.448644 0.317329
Si Si2 0.455029 0.201190 0.347494
Si Si3 0.347231 0.943166 0.783051
Si Si4 0.121274 0.273691 0.320370
Si Si5 0.321237 0.173150 0.454637
Si Si6 0.609980 0.139027 0.863310
Si Si7 0.129829 0.206026 0.614164
Si Si8 0.507085 0.347936 0.701707
O O1 0.561010 0.432881 0.536693
O O2 0.480951 0.504690 0.354132
O O3 0.569520 0.417026 0.359306
O O4 0.027882 0.439275 0.025532
O O5 0.480260 0.178220 0.471943
O O6 0.516322 0.155604 0.324051
O O7 0.744963 0.237842 0.543309
O O8 0.146666 0.237110 0.092287
O O9 0.516599 0.903189 0.846743
O O10 0.300250 0.225253 0.489661
O O11 0.180667 0.319707 0.431878
O O12 0.251702 0.289375 0.315781
O O13 0.540571 0.142317 0.695358
O O14 0.967955 0.152403 0.166113
O O15 0.351589 0.170423 0.723312
O O16 0.777223 0.182310 0.348560
#
# Coordination Sequence:
#
# PCOD8125841 Si02
#       8
#     4   4   4   4   4   4   4   4
#     4  10  21  39  62  93 126 145 194 256 311 368
#     4  10  23  40  52  84 120 165 208 244 279 363
#     4  10  21  38  64  95 120 153 190 253 318 358
#     4  10  22  36  57  82 116 162 201 252 291 348
#     4  11  26  37  58  83 121 166 205 236 294 355
#     4  12  22  39  59  87 119 161 192 248 301 361
#     4  10  21  35  55  86 119 150 200 241 304 349
#     4  11  22  36  64  84 120 162 196 253 300 359
#
# _framework density 19.804497999999999
#
# number of rings (size 3 to 8) (size 9 to 14) (size 15 to 20)
#    0.000    1.500    2.500    2.250    8.750    1.000 
#    0.000    0.000    0.000    1.500    0.000    0.000 
#    0.000    0.000    0.000    0.000    0.000    0.000 
#
# Total GULP energy -396437.460712 kJ/mol
# GULP energy per Si atom -12388.670647 kJ/mol
# Density = 1.975942 g / cm^3
# Si number density = 19.804498 Si / 1000 Ang^3
#
#
#
# Elastic Constant Matrix: (Units=GPa)
#
#
# Indices 1 2 3 4 5 6 
#
# 1 100.2663 63.8303 19.7732 0.0000 -3.7794 0.0000
# 2 63.8303 134.8438 27.0030 0.0000 -14.0704 0.0000
# 3 19.7732 27.0030 53.2718 0.0000 -18.5772 0.0000
# 4 0.0000 0.0000 0.0000 18.1127 0.0000 -2.3412
# 5 -3.7794 -14.0704 -18.5772 0.0000 19.7168 0.0000
# 6 0.0000 0.0000 0.0000 -2.3412 0.0000 32.4489
#
#
#
# Elastic Compliance Matrix: (Units=1/GPa)
#
#
# Indices 1 2 3 4 5 6 
#
# 1 0.014931 -0.006859 -0.004132 0.000000 -0.005926 0.000000
# 2 -0.006859 0.011517 -0.001317 0.000000 0.005663 0.000000
# 3 -0.004132 -0.001317 0.030337 0.000000 0.026851 0.000000
# 4 0.000000 0.000000 0.000000 0.055730 0.000000 0.004021
# 5 -0.005926 0.005663 0.026851 0.000000 0.078923 0.000000
# 6 0.000000 0.000000 0.000000 0.004021 0.000000 0.031108
#
#
# Mechanical properties :
#
#
# Convention : Reuss Voigt Hill
#
# Bulk Modulus (GPa) = 31.08534 56.62166 43.85350
# Shear Modulus (GPa) = 19.38843 25.90737 22.64790
#
# Velocity S-wave (km/s) = 3.13228 3.62077 3.38535
# Velocity P-wave (km/s) = 5.36766 6.79208 6.12144
#
# Compressibility (1/GPa) = 0.03216951
#
# Stress axis : x y z
#
# Youngs Moduli (GPa) = 66.97334 86.82465 32.96319
#
# Poissons Ratio (x) = 0.59552 0.13620
# Poissons Ratio (y) = 0.45936 0.04342
# Poissons Ratio (z) = 0.27673 0.11438
#
# Static dielectric constant tensor:
#      x y z
#    x 3.661490 0.000000 -0.110890 
#    y 0.000000 3.648110 0.000000 
#    z -0.110890 0.000000 3.634670 
# 
# 
# High freq. dielectric constant tensor:
#      x y z
#    x 1.766380 0.000000 -0.011760 
#    y 0.000000 1.753880 0.000000 
#    z -0.011760 0.000000 1.775850 
# 
# From -- ./inp_files/45588.got.cif
#   From: 2010.03.12/outbox.cif.g09.slc.cpg/sg14_23_cif.got.tgz:45588.got - 2010.03.31 13:35:05.
