data_PCOD8125873
_publ_section_title
;
Structure prediction by ZEFSAII (Michael W. Deem and Ramdas Pophale) SiO2 
 PCOD8125873
Probable space group: P 21/C
;
_chemical_formula_sum "Si O2"
_cell_formula_units_Z 32
_cell_length_a 11.323833
_cell_length_b 19.482106
_cell_length_c 9.519031
_cell_angle_alpha 90.000000
_cell_angle_beta 52.594993
_cell_angle_gamma 90.000000
_cell_volume 1668.170005
_symmetry_space_group_name_H-M "P 21/C"
_symmetry_group_IT_number 14
_symmetry_cell_setting 'monoclinic'
loop_
_space_group_symop_operation_xyz
x,y,z
-x,1/2+y,1/2-z
-x,-y,-z
x,1/2-y,1/2+z
loop_
_atom_site_type_symbol
_atom_site_label
_atom_site_fract_x
_atom_site_fract_y
_atom_site_fract_z
Si Si1 0.917542 0.566553 0.219892
Si Si2 0.135828 0.442340 0.054738
Si Si3 0.911331 0.693104 0.411706
Si Si4 0.546119 0.694376 0.984302
Si Si5 0.559836 0.817694 0.162068
Si Si6 0.898853 0.817298 0.236793
Si Si7 0.475554 0.451647 0.886552
Si Si8 0.597327 0.969656 0.051574
O O1 0.969809 0.629270 0.278791
O O2 0.769014 0.532353 0.386923
O O3 0.051774 0.513731 0.126544
O O4 0.886783 0.591821 0.082725
O O5 0.069556 0.392035 0.221156
O O6 0.308448 0.457668 0.951357
O O7 0.734608 0.694028 0.543177
O O8 0.970130 0.761199 0.290481
O O9 0.971365 0.688676 0.528771
O O10 0.488722 0.762857 0.104938
O O11 0.483849 0.627027 0.107632
O O12 0.486696 0.695338 0.867461
O O13 0.723355 0.693171 0.853957
O O14 0.528205 0.895076 0.136289
O O15 0.589135 0.478784 0.688066
O O16 0.500000 0.500000 0.000000
O O17 0.500000 0.000000 0.000000
#
# Coordination Sequence:
#
# PCOD8125873 Si02
#       8
#     4   4   4   4   4   4   4   4
#     4  10  21  36  54  82 111 142 182 223 272 323
#     4  10  21  36  55  80 111 145 178 225 274 320
#     4   9  17  30  51  77 106 138 180 226 264 318
#     4   9  18  30  49  75 106 139 176 225 265 315
#     4   9  18  30  48  76 106 137 180 221 267 315
#     4   9  17  30  51  77 105 140 180 223 269 314
#     4  11  21  37  56  81 113 145 182 226 276 325
#     4  11  21  35  56  83 110 145 184 226 271 327
#
# _framework density 19.182697000000001
#
# number of rings (size 3 to 8) (size 9 to 14) (size 15 to 20)
#    0.000    2.250    2.500    0.750    3.500    3.500 
#    0.000    0.000    0.000    3.000    0.000    0.000 
#    0.000    0.000    0.000    0.000    0.000    0.000 
#
# Total GULP energy -396760.909483 kJ/mol
# GULP energy per Si atom -12398.778421 kJ/mol
# Density = 1.913904 g / cm^3
# Si number density = 19.182697 Si / 1000 Ang^3
#
#
#
# Elastic Constant Matrix: (Units=GPa)
#
#
# Indices 1 2 3 4 5 6 
#
# 1 39.5635 23.1624 27.5057 0.0000 20.9762 0.0000
# 2 23.1624 113.9518 53.0181 0.0000 22.7314 0.0000
# 3 27.5057 53.0181 106.1385 0.0000 40.7250 0.0000
# 4 0.0000 0.0000 0.0000 38.3213 0.0000 11.4966
# 5 20.9762 22.7314 40.7250 0.0000 35.7820 0.0000
# 6 0.0000 0.0000 0.0000 11.4966 0.0000 23.9157
#
#
#
# Elastic Compliance Matrix: (Units=1/GPa)
#
#
# Indices 1 2 3 4 5 6 
#
# 1 0.038056 -0.003574 -0.000689 0.000000 -0.019254 0.000000
# 2 -0.003574 0.011805 -0.005143 0.000000 0.000449 0.000000
# 3 -0.000689 -0.005143 0.019103 0.000000 -0.018071 0.000000
# 4 0.000000 0.000000 0.000000 0.030493 0.000000 -0.014658
# 5 -0.019254 0.000449 -0.018071 0.000000 0.059516 0.000000
# 6 0.000000 0.000000 0.000000 -0.014658 0.000000 0.048860
#
#
# Mechanical properties :
#
#
# Convention : Reuss Voigt Hill
#
# Bulk Modulus (GPa) = 19.93939 51.89180 35.91559
# Shear Modulus (GPa) = 20.54550 30.00164 25.27357
#
# Velocity S-wave (km/s) = 3.27623 3.95903 3.63370
# Velocity P-wave (km/s) = 4.97279 6.92883 6.03064
#
# Compressibility (1/GPa) = 0.05015200
#
# Stress axis : x y z
#
# Youngs Moduli (GPa) = 26.27733 84.70658 52.34779
#
# Poissons Ratio (x) = 0.30273 0.03607
# Poissons Ratio (y) = 0.09391 0.26923
# Poissons Ratio (z) = 0.01810 0.43566
#
# Static dielectric constant tensor:
#      x y z
#    x 3.190980 0.000000 0.426570 
#    y 0.000000 3.635300 0.000000 
#    z 0.426570 0.000000 3.679740 
# 
# 
# High freq. dielectric constant tensor:
#      x y z
#    x 1.705610 0.000000 0.037200 
#    y 0.000000 1.756390 0.000000 
#    z 0.037200 0.000000 1.749160 
# 
# From -- ./inp_files/13733.got.cif
#   From: 2010.03.12/outbox.cif.g09.slc.cpg/sg14_7_cif.got.tgz:13733.got - 2010.03.31 13:35:05.
