data_PCOD8125263
_publ_section_title
;
Structure prediction by ZEFSAII (Michael W. Deem and Ramdas Pophale) SiO2 
 PCOD8125263
Probable space group: P 21/C
;
_chemical_formula_sum "Si O2"
_cell_formula_units_Z 32
_cell_length_a 18.772466
_cell_length_b 9.688146
_cell_length_c 9.963744
_cell_angle_alpha 90.000000
_cell_angle_beta 73.683850
_cell_angle_gamma 90.000000
_cell_volume 1739.129360
_symmetry_space_group_name_H-M "P 21/C"
_symmetry_group_IT_number 14
_symmetry_cell_setting 'monoclinic'
loop_
_space_group_symop_operation_xyz
x,y,z
-x,1/2+y,1/2-z
-x,-y,-z
x,1/2-y,1/2+z
loop_
_atom_site_type_symbol
_atom_site_label
_atom_site_fract_x
_atom_site_fract_y
_atom_site_fract_z
Si Si1 0.584955 0.450104 0.707437
Si Si2 0.330263 0.894953 0.101226
Si Si3 0.053364 0.117073 0.634162
Si Si4 0.216667 0.377972 0.729944
Si Si5 0.776492 0.865208 0.468372
Si Si6 0.953551 0.641054 0.168398
Si Si7 0.659653 0.416706 0.937346
Si Si8 0.554041 0.362727 0.232854
O O1 0.643707 0.448551 0.556499
O O2 0.630661 0.486951 0.816806
O O3 0.526386 0.570295 0.711034
O O4 0.544043 0.302541 0.744892
O O5 0.306974 0.734763 0.108963
O O6 0.396427 0.918014 0.171392
O O7 0.258030 0.977998 0.185102
O O8 0.140239 0.087226 0.609966
O O9 0.037908 0.175825 0.493435
O O10 0.024087 0.225189 0.758779
O O11 0.009647 0.977157 0.683471
O O12 0.247261 0.264624 0.609701
O O13 0.129809 0.407022 0.752353
O O14 0.231270 0.321804 0.872186
O O15 0.724423 0.994322 0.467141
O O16 0.589974 0.406822 0.073639
#
# Coordination Sequence:
#
# PCOD8125263 Si02
#       8
#     4   4   4   4   4   4   4   4
#     4  10  22  34  56  80 107 138 183 222 275 328
#     4  10  21  37  56  79 110 145 181 227 272 324
#     4   9  19  36  57  82 113 146 182 224 270 320
#     4  10  21  37  57  82 112 145 183 227 271 321
#     4  10  21  37  57  82 112 145 183 227 271 321
#     4   9  19  36  57  82 113 146 182 224 270 320
#     4  10  21  37  56  79 110 145 181 227 272 324
#     4  10  20  38  54  78 107 142 177 228 275 324
#
# _framework density 18.400012
#
# number of rings (size 3 to 8) (size 9 to 14) (size 15 to 20)
#    0.000    2.250    1.250    0.750    1.750    3.500 
#    0.000    0.000    0.000    0.000    0.000    0.000 
#    0.000    0.000    0.000    0.000    0.000    0.000 
#
# Total GULP energy -396936.866335 kJ/mol
# GULP energy per Si atom -12404.277073 kJ/mol
# Density = 1.835813 g / cm^3
# Si number density = 18.400012 Si / 1000 Ang^3
#
#
#
# Elastic Constant Matrix: (Units=GPa)
#
#
# Indices 1 2 3 4 5 6 
#
# 1 62.3880 30.5830 11.1961 0.0000 9.3764 0.0000
# 2 30.5830 53.5818 1.7938 0.0000 0.1236 0.0000
# 3 11.1961 1.7938 50.5445 0.0000 15.6781 0.0000
# 4 0.0000 0.0000 0.0000 25.7063 0.0000 1.1289
# 5 9.3764 0.1236 15.6781 0.0000 25.0463 0.0000
# 6 0.0000 0.0000 0.0000 1.1289 0.0000 32.7104
#
#
#
# Elastic Compliance Matrix: (Units=1/GPa)
#
#
# Indices 1 2 3 4 5 6 
#
# 1 0.024385 -0.013814 -0.002607 0.000000 -0.007429 0.000000
# 2 -0.013814 0.026514 0.000689 0.000000 0.004609 0.000000
# 3 -0.002607 0.000689 0.024863 0.000000 -0.014591 0.000000
# 4 0.000000 0.000000 0.000000 0.038960 0.000000 -0.001345
# 5 -0.007429 0.004609 -0.014591 0.000000 0.051818 0.000000
# 6 0.000000 0.000000 0.000000 -0.001345 0.000000 0.030618
#
#
# Mechanical properties :
#
#
# Convention : Reuss Voigt Hill
#
# Bulk Modulus (GPa) = 22.57376 28.18445 25.37910
# Shear Modulus (GPa) = 20.54347 24.88869 22.71608
#
# Velocity S-wave (km/s) = 3.34502 3.68182 3.51746
# Velocity P-wave (km/s) = 5.21669 5.78146 5.50632
#
# Compressibility (1/GPa) = 0.04429922
#
# Stress axis : x y z
#
# Youngs Moduli (GPa) = 41.00957 37.71623 40.21967
#
# Poissons Ratio (x) = 0.52100 0.10485
# Poissons Ratio (y) = 0.56649 -0.02772
# Poissons Ratio (z) = 0.10691 -0.02600
#
# Static dielectric constant tensor:
#      x y z
#    x 3.286790 0.000000 0.158740 
#    y 0.000000 3.298720 0.000000 
#    z 0.158740 0.000000 3.566080 
# 
# 
# High freq. dielectric constant tensor:
#      x y z
#    x 1.709380 0.000000 0.011000 
#    y 0.000000 1.705940 0.000000 
#    z 0.011000 0.000000 1.728340 
# 
# From -- ./inp_files/33576.got.cif
#   From: 2010.03.12/outbox.cif.g09.slc.cpg/sg14_17_cif.got.tgz:33576.got - 2010.03.31 13:35:05.
