data_PCOD8125847
_publ_section_title
;
Structure prediction by ZEFSAII (Michael W. Deem and Ramdas Pophale) SiO2 
 PCOD8125847
Probable space group: P 21/C
;
_chemical_formula_sum "Si O2"
_cell_formula_units_Z 32
_cell_length_a 27.045233
_cell_length_b 12.256793
_cell_length_c 27.072873
_cell_angle_alpha 90.000000
_cell_angle_beta 10.471054
_cell_angle_gamma 90.000000
_cell_volume 1630.983182
_symmetry_space_group_name_H-M "P 21/C"
_symmetry_group_IT_number 14
_symmetry_cell_setting 'monoclinic'
loop_
_space_group_symop_operation_xyz
x,y,z
-x,1/2+y,1/2-z
-x,-y,-z
x,1/2-y,1/2+z
loop_
_atom_site_type_symbol
_atom_site_label
_atom_site_fract_x
_atom_site_fract_y
_atom_site_fract_z
Si Si1 0.734520 0.127615 0.733434
Si Si2 0.444509 0.686938 0.694654
Si Si3 0.723511 0.874265 0.744742
Si Si4 0.979012 0.945816 0.692421
Si Si5 0.663497 0.361724 0.625514
Si Si6 0.824516 0.826831 0.537923
Si Si7 0.283138 0.766775 0.524116
Si Si8 0.850533 0.997527 0.371164
O O1 0.654298 0.198906 0.764625
O O2 0.047201 0.147507 0.439474
O O3 0.689983 0.001147 0.763729
O O4 0.556481 0.165380 0.955323
O O5 0.703828 0.607755 0.442307
O O6 0.472667 0.805919 0.691880
O O7 0.213198 0.641423 0.957307
O O8 0.784600 0.805312 0.635506
O O9 0.066041 0.050174 0.574989
O O10 0.952657 0.974865 0.775777
O O11 0.775291 0.280104 0.473127
O O12 0.928062 0.435077 0.381286
O O13 0.403512 0.427085 0.859857
O O14 0.544143 0.797544 0.787017
O O15 0.044415 0.749050 0.297777
O O16 0.294370 0.897836 0.511118
#
# Coordination Sequence:
#
# PCOD8125847 Si02
#       8
#     4   4   4   4   4   4   4   4
#     4  10  21  36  55  87 117 155 187 242 296 361
#     4  12  24  37  60  88 121 164 198 233 300 360
#     4  10  21  35  57  84 122 149 190 241 298 359
#     4  12  22  35  59  87 123 158 198 239 283 354
#     4  12  24  40  59  87 119 163 202 247 290 359
#     4  12  23  38  58  90 118 165 194 237 297 361
#     4  12  24  38  60  86 118 160 204 238 293 357
#     4  12  25  41  57  86 126 160 206 250 287 340
#
# _framework density 19.620066999999999
#
# number of rings (size 3 to 8) (size 9 to 14) (size 15 to 20)
#    0.000    0.500    5.000    4.500    5.250    0.000 
#    0.000    0.000    0.000    0.000    0.000   17.500 
#    0.000    0.000    0.000    0.000    0.000    0.000 
#
# Total GULP energy -396674.153836 kJ/mol
# GULP energy per Si atom -12396.067307 kJ/mol
# Density = 1.957541 g / cm^3
# Si number density = 19.620067 Si / 1000 Ang^3
#
#
#
# Elastic Constant Matrix: (Units=GPa)
#
#
# Indices 1 2 3 4 5 6 
#
# 1 108.7115 27.7567 24.4394 0.0000 16.2741 0.0000
# 2 27.7567 80.4967 37.4505 0.0000 1.7777 0.0000
# 3 24.4394 37.4505 121.6346 0.0000 0.0292 0.0000
# 4 0.0000 0.0000 0.0000 34.0427 0.0000 1.3609
# 5 16.2741 1.7777 0.0292 0.0000 28.2259 0.0000
# 6 0.0000 0.0000 0.0000 1.3609 0.0000 18.5214
#
#
#
# Elastic Compliance Matrix: (Units=1/GPa)
#
#
# Indices 1 2 3 4 5 6 
#
# 1 0.011228 -0.003133 -0.001290 0.000000 -0.006275 0.000000
# 2 -0.003133 0.015397 -0.004111 0.000000 0.000841 0.000000
# 3 -0.001290 -0.004111 0.009746 0.000000 0.000993 0.000000
# 4 0.000000 0.000000 0.000000 0.029461 0.000000 -0.002165
# 5 -0.006275 0.000841 0.000993 0.000000 0.038992 0.000000
# 6 0.000000 0.000000 0.000000 -0.002165 0.000000 0.054151
#
#
# Mechanical properties :
#
#
# Convention : Reuss Voigt Hill
#
# Bulk Modulus (GPa) = 51.80543 54.45955 53.13249
# Shear Modulus (GPa) = 27.40042 30.90441 29.15242
#
# Velocity S-wave (km/s) = 3.74110 3.97311 3.85885
# Velocity P-wave (km/s) = 6.71735 6.99034 6.85520
#
# Compressibility (1/GPa) = 0.01930300
#
# Stress axis : x y z
#
# Youngs Moduli (GPa) = 89.06383 64.94594 102.60442
#
# Poissons Ratio (x) = 0.20347 0.13234
# Poissons Ratio (y) = 0.27903 0.42186
# Poissons Ratio (z) = 0.11488 0.26702
#
# Static dielectric constant tensor:
#      x y z
#    x 3.387040 0.000000 0.096660 
#    y 0.000000 3.468760 0.000000 
#    z 0.096660 0.000000 3.639710 
# 
# 
# High freq. dielectric constant tensor:
#      x y z
#    x 1.750190 0.000000 0.003180 
#    y 0.000000 1.730000 0.000000 
#    z 0.003180 0.000000 1.789250 
# 
# From -- ./inp_files/78320.got.cif
#   From: 2010.03.12/outbox.cif.g09.slc.cpg/sg14_40_cif.got.tgz:78320.got - 2010.03.31 13:35:05.
