data_PCOD8125072
_publ_section_title
;
Structure prediction by ZEFSAII (Michael W. Deem and Ramdas Pophale) SiO2 
 PCOD8125072
Probable space group: P 21/C
;
_chemical_formula_sum "Si O2"
_cell_formula_units_Z 24
_cell_length_a 6.803040
_cell_length_b 15.448634
_cell_length_c 16.148670
_cell_angle_alpha 90.000000
_cell_angle_beta 132.144838
_cell_angle_gamma 90.000000
_cell_volume 1258.381425
_symmetry_space_group_name_H-M "P 21/C"
_symmetry_group_IT_number 14
_symmetry_cell_setting 'monoclinic'
loop_
_space_group_symop_operation_xyz
x,y,z
-x,1/2+y,1/2-z
-x,-y,-z
x,1/2-y,1/2+z
loop_
_atom_site_type_symbol
_atom_site_label
_atom_site_fract_x
_atom_site_fract_y
_atom_site_fract_z
Si Si1 0.642027 0.473970 0.956735
Si Si2 0.865908 0.866284 0.424984
Si Si3 0.268869 0.451595 0.701710
Si Si4 0.750597 0.560847 0.582508
Si Si5 0.930584 0.825786 0.985565
Si Si6 0.505029 0.894957 0.176031
O O1 0.774331 0.562560 0.964424
O O2 0.444945 0.433466 0.832335
O O3 0.500000 0.500000 0.000000
O O4 0.859565 0.400116 0.037581
O O5 0.898484 0.776698 0.482354
O O6 0.645546 0.849494 0.293033
O O7 0.182646 0.362429 0.633474
O O8 0.430952 0.506310 0.678977
O O9 0.013794 0.504196 0.659364
O O10 0.500000 0.500000 0.500000
O O11 0.770882 0.632378 0.516535
O O12 0.713484 0.608244 0.659683
O O13 0.241904 0.843973 0.077747
#
# Coordination Sequence:
#
# PCOD8125072 Si02
#       6
#     4   4   4   4   4   4
#     4  10  22  44  63  81 118 165 204 231 301 366
#     4  10  24  40  59  85 121 159 193 250 295 349
#     4  10  20  36  62  88 116 153 193 245 295 351
#     4  11  18  36  62  89 116 154 194 238 300 357
#     4  11  22  36  57  95 119 145 202 247 295 346
#     4  10  20  39  60  82 122 155 187 243 298 346
#
# _framework density 19.072116999999999
#
# number of rings (size 3 to 8) (size 9 to 14) (size 15 to 20)
#    0.000    1.667    3.333    2.000    2.333    1.333 
#    0.000    0.000    0.000    0.000    0.000    0.000 
#    0.000    0.000    0.000    0.000    0.000    0.000 
#
# Total GULP energy -297632.803475 kJ/mol
# GULP energy per Si atom -12401.366811 kJ/mol
# Density = 1.902871 g / cm^3
# Si number density = 19.072117 Si / 1000 Ang^3
#
#
#
# Elastic Constant Matrix: (Units=GPa)
#
#
# Indices 1 2 3 4 5 6 
#
# 1 126.0439 37.0936 36.2474 0.0000 -9.7486 0.0000
# 2 37.0936 102.4000 44.5517 0.0000 -0.1299 0.0000
# 3 36.2474 44.5517 99.8976 0.0000 11.1487 0.0000
# 4 0.0000 0.0000 0.0000 12.6081 0.0000 -2.0064
# 5 -9.7486 -0.1299 11.1487 0.0000 27.2360 0.0000
# 6 0.0000 0.0000 0.0000 -2.0064 0.0000 18.0095
#
#
#
# Elastic Compliance Matrix: (Units=1/GPa)
#
#
# Indices 1 2 3 4 5 6 
#
# 1 0.009852 -0.002202 -0.003128 0.000000 0.004796 0.000000
# 2 -0.002202 0.012758 -0.005040 0.000000 0.001336 0.000000
# 3 -0.003128 -0.005040 0.014168 0.000000 -0.006943 0.000000
# 4 0.000000 0.000000 0.000000 0.080746 0.000000 0.008996
# 5 0.004796 0.001336 -0.006943 0.000000 0.041281 0.000000
# 6 0.000000 0.000000 0.000000 0.008996 0.000000 0.056529
#
#
# Mechanical properties :
#
#
# Convention : Reuss Voigt Hill
#
# Bulk Modulus (GPa) = 62.35122 62.68076 62.51599
# Shear Modulus (GPa) = 20.71091 25.60063 23.15577
#
# Velocity S-wave (km/s) = 3.29891 3.66772 3.48820
# Velocity P-wave (km/s) = 6.87559 7.13251 7.00523
#
# Compressibility (1/GPa) = 0.01603818
#
# Stress axis : x y z
#
# Youngs Moduli (GPa) = 101.49930 78.38492 70.58295
#
# Poissons Ratio (x) = 0.17259 0.22080
# Poissons Ratio (y) = 0.22348 0.35572
# Poissons Ratio (z) = 0.31751 0.39504
#
# Static dielectric constant tensor:
#      x y z
#    x 3.920170 0.000000 0.157880 
#    y 0.000000 3.268260 0.000000 
#    z 0.157880 0.000000 3.774000 
# 
# 
# High freq. dielectric constant tensor:
#      x y z
#    x 1.749020 0.000000 0.005630 
#    y 0.000000 1.721740 0.000000 
#    z 0.005630 0.000000 1.753350 
# 
# From -- ./inp_files/32533.got.cif
#   From: 2010.03.12/outbox.cif.g09.slc.cpg/sg14_17_cif.got.tgz:32533.got - 2010.03.31 13:35:05.
