data_PCOD8125254
_publ_section_title
;
Structure prediction by ZEFSAII (Michael W. Deem and Ramdas Pophale) SiO2 
 PCOD8125254
Probable space group: P 21/C
;
_chemical_formula_sum "Si O2"
_cell_formula_units_Z 24
_cell_length_a 9.297570
_cell_length_b 13.305518
_cell_length_c 14.842890
_cell_angle_alpha 90.000000
_cell_angle_beta 139.480018
_cell_angle_gamma 90.000000
_cell_volume 1193.002638
_symmetry_space_group_name_H-M "P 21/C"
_symmetry_group_IT_number 14
_symmetry_cell_setting 'monoclinic'
loop_
_space_group_symop_operation_xyz
x,y,z
-x,1/2+y,1/2-z
-x,-y,-z
x,1/2-y,1/2+z
loop_
_atom_site_type_symbol
_atom_site_label
_atom_site_fract_x
_atom_site_fract_y
_atom_site_fract_z
Si Si1 0.158468 0.068300 0.220003
Si Si2 0.611451 0.737208 0.062215
Si Si3 0.686782 0.148388 0.943763
Si Si4 0.648240 0.248101 0.235906
Si Si5 0.042671 0.361087 0.355217
Si Si6 0.395341 0.061288 0.150899
O O1 0.293388 0.133413 0.355645
O O2 0.330929 0.039303 0.223348
O O3 0.086324 0.963581 0.233252
O O4 0.948641 0.131986 0.083615
O O5 0.407911 0.778919 0.024415
O O6 0.800697 0.823986 0.151774
O O7 0.535313 0.715500 0.923728
O O8 0.627814 0.192605 0.818784
O O9 0.564389 0.040355 0.886628
O O10 0.884468 0.267240 0.302990
O O11 0.613788 0.129866 0.242305
O O12 0.181573 0.381332 0.511161
#
# Coordination Sequence:
#
# PCOD8125254 Si02
#       6
#     4   4   4   4   4   4
#     4  11  20  39  63  84 117 163 192 235 299 348
#     4  11  25  36  60  94 119 149 196 252 288 341
#     4  11  21  40  62  85 116 157 203 233 289 354
#     4  11  21  38  61  88 116 152 197 244 288 344
#     4  10  21  39  60  86 118 155 199 237 287 354
#     4  10  20  37  66  84 113 161 199 234 286 355
#
# _framework density 20.117307
#
# number of rings (size 3 to 8) (size 9 to 14) (size 15 to 20)
#    0.000    1.333    5.000    2.000    0.000    8.000 
#    0.000    0.000    0.000    4.000    0.000    0.000 
#    0.000    0.000    0.000    0.000    0.000    0.000 
#
# Total GULP energy -297495.733153 kJ/mol
# GULP energy per Si atom -12395.655548 kJ/mol
# Density = 2.007152 g / cm^3
# Si number density = 20.117307 Si / 1000 Ang^3
#
#
#
# Elastic Constant Matrix: (Units=GPa)
#
#
# Indices 1 2 3 4 5 6 
#
# 1 69.3550 5.0810 9.6148 0.0000 5.6954 0.0000
# 2 5.0810 35.3413 10.1162 0.0000 13.8821 0.0000
# 3 9.6148 10.1162 43.6998 0.0000 -1.5675 0.0000
# 4 0.0000 0.0000 0.0000 36.5842 0.0000 6.6416
# 5 5.6954 13.8821 -1.5675 0.0000 22.6391 0.0000
# 6 0.0000 0.0000 0.0000 6.6416 0.0000 40.1155
#
#
#
# Elastic Compliance Matrix: (Units=1/GPa)
#
#
# Indices 1 2 3 4 5 6 
#
# 1 0.015247 0.000606 -0.003655 0.000000 -0.004461 0.000000
# 2 0.000606 0.041667 -0.010728 0.000000 -0.026445 0.000000
# 3 -0.003655 -0.010728 0.026506 0.000000 0.009333 0.000000
# 4 0.000000 0.000000 0.000000 0.028181 0.000000 -0.004666
# 5 -0.004461 -0.026445 0.009333 0.000000 0.062156 0.000000
# 6 0.000000 0.000000 0.000000 -0.004666 0.000000 0.025701
#
#
# Mechanical properties :
#
#
# Convention : Reuss Voigt Hill
#
# Bulk Modulus (GPa) = 17.89967 22.00224 19.95096
# Shear Modulus (GPa) = 20.35568 28.10669 24.23118
#
# Velocity S-wave (km/s) = 3.18441 3.74189 3.47435
# Velocity P-wave (km/s) = 4.73683 5.44332 5.10232
#
# Compressibility (1/GPa) = 0.05586695
#
# Stress axis : x y z
#
# Youngs Moduli (GPa) = 65.58602 24.00001 37.72777
#
# Poissons Ratio (x) = -0.01455 0.13790
# Poissons Ratio (y) = -0.03976 0.40473
# Poissons Ratio (z) = 0.23972 0.25746
#
# Static dielectric constant tensor:
#      x y z
#    x 3.683350 0.000000 0.070640 
#    y 0.000000 3.798740 0.000000 
#    z 0.070640 0.000000 3.593480 
# 
# 
# High freq. dielectric constant tensor:
#      x y z
#    x 1.781670 0.000000 -0.001270 
#    y 0.000000 1.786930 0.000000 
#    z -0.001270 0.000000 1.771290 
# 
# From -- ./inp_files/35351.got.cif
#   From: 2010.03.12/outbox.cif.g09.slc.cpg/sg14_18_cif.got.tgz:35351.got - 2010.03.31 13:35:05.
