data_PCOD8125086
_publ_section_title
;
Structure prediction by ZEFSAII (Michael W. Deem and Ramdas Pophale) SiO2 
 PCOD8125086
Probable space group: P 21/C
;
_chemical_formula_sum "Si O2"
_cell_formula_units_Z 28
_cell_length_a 14.917170
_cell_length_b 7.799821
_cell_length_c 16.450744
_cell_angle_alpha 90.000000
_cell_angle_beta 39.799139
_cell_angle_gamma 90.000000
_cell_volume 1225.189297
_symmetry_space_group_name_H-M "P 21/C"
_symmetry_group_IT_number 14
_symmetry_cell_setting 'monoclinic'
loop_
_space_group_symop_operation_xyz
x,y,z
-x,1/2+y,1/2-z
-x,-y,-z
x,1/2-y,1/2+z
loop_
_atom_site_type_symbol
_atom_site_label
_atom_site_fract_x
_atom_site_fract_y
_atom_site_fract_z
Si Si1 0.837655 0.903100 0.853608
Si Si2 0.819566 0.726585 0.700396
Si Si3 0.936697 0.277224 0.198588
Si Si4 0.394227 0.235201 0.382727
Si Si5 0.827185 0.975753 0.552898
Si Si6 0.884611 0.154397 0.065849
Si Si7 0.618382 0.528299 0.750609
O O1 0.847423 0.768524 0.773414
O O2 0.972724 0.862567 0.815051
O O3 0.839395 0.103996 0.825320
O O4 0.688934 0.862840 0.999743
O O5 0.810476 0.900416 0.654811
O O6 0.667653 0.630881 0.797610
O O7 0.951407 0.610538 0.571913
O O8 0.853743 0.176048 0.185212
O O9 0.030176 0.412171 0.085448
O O10 0.298682 0.080270 0.417560
O O11 0.453270 0.348201 0.266381
O O12 0.524339 0.138791 0.336177
O O13 0.841475 0.176877 0.546825
O O14 0.772532 0.020606 0.106699
#
# Coordination Sequence:
#
# PCOD8125086 Si02
#       7
#     4   4   4   4   4   4   4
#     4  11  22  37  61  92 128 149 192 254 307 353
#     4  10  20  36  63  91 122 153 194 248 303 351
#     4  10  21  34  57  91 126 151 192 245 310 354
#     4  10  24  41  60  88 114 163 209 244 297 350
#     4   9  17  38  62  84 116 162 195 237 294 370
#     4  11  19  37  63  91 116 162 200 238 300 365
#     4  11  24  40  62  82 121 163 210 246 281 369
#
# _framework density 22.853612999999999
#
# number of rings (size 3 to 8) (size 9 to 14) (size 15 to 20)
#    0.000    1.714    2.857    3.000    4.000    0.571 
#    0.000    0.714    0.000    0.000    0.000    0.000 
#    0.000    0.000    0.000    0.000    0.000    0.000 
#
# Total GULP energy -347022.919561 kJ/mol
# GULP energy per Si atom -12393.675699 kJ/mol
# Density = 2.280160 g / cm^3
# Si number density = 22.853613 Si / 1000 Ang^3
#
#
#
# Elastic Constant Matrix: (Units=GPa)
#
#
# Indices 1 2 3 4 5 6 
#
# 1 69.0073 20.0833 19.4499 0.0000 -2.2488 0.0000
# 2 20.0833 69.1285 12.5187 0.0000 -7.4646 0.0000
# 3 19.4499 12.5187 54.7802 0.0000 -6.3262 0.0000
# 4 0.0000 0.0000 0.0000 37.4558 0.0000 -8.7867
# 5 -2.2488 -7.4646 -6.3262 0.0000 34.9189 0.0000
# 6 0.0000 0.0000 0.0000 -8.7867 0.0000 35.5181
#
#
#
# Elastic Compliance Matrix: (Units=1/GPa)
#
#
# Indices 1 2 3 4 5 6 
#
# 1 0.017138 -0.004110 -0.005229 0.000000 -0.000722 0.000000
# 2 -0.004110 0.016321 -0.001939 0.000000 0.002873 0.000000
# 3 -0.005229 -0.001939 0.020905 0.000000 0.003036 0.000000
# 4 0.000000 0.000000 0.000000 0.028343 0.000000 0.007012
# 5 -0.000722 0.002873 0.003036 0.000000 0.029755 0.000000
# 6 0.000000 0.000000 0.000000 0.007012 0.000000 0.029889
#
#
# Mechanical properties :
#
#
# Convention : Reuss Voigt Hill
#
# Bulk Modulus (GPa) = 31.43816 33.00222 32.22019
# Shear Modulus (GPa) = 28.48848 30.96951 29.72900
#
# Velocity S-wave (km/s) = 3.53450 3.68520 3.61064
# Velocity P-wave (km/s) = 5.51753 5.70786 5.61350
#
# Compressibility (1/GPa) = 0.03180848
#
# Stress axis : x y z
#
# Youngs Moduli (GPa) = 58.35128 61.27020 47.83544
#
# Poissons Ratio (x) = 0.25181 0.25013
# Poissons Ratio (y) = 0.23982 0.09274
# Poissons Ratio (z) = 0.30512 0.11879
#
# Static dielectric constant tensor:
#      x y z
#    x 4.325930 0.000000 0.063380 
#    y 0.000000 4.341590 0.000000 
#    z 0.063380 0.000000 3.821600 
# 
# 
# High freq. dielectric constant tensor:
#      x y z
#    x 1.906550 0.000000 0.004670 
#    y 0.000000 1.922850 0.000000 
#    z 0.004670 0.000000 1.856300 
# 
# From -- ./inp_files/46687.got.cif
#   From: 2010.03.12/outbox.cif.g09.slc.cpg/sg14_24_cif.got.tgz:46687.got - 2010.03.31 13:35:05.
