data_PCOD8125467
_publ_section_title
;
Structure prediction by ZEFSAII (Michael W. Deem and Ramdas Pophale) SiO2 
 PCOD8125467
Probable space group: P 21/C
;
_chemical_formula_sum "Si O2"
_cell_formula_units_Z 24
_cell_length_a 14.783289
_cell_length_b 8.665279
_cell_length_c 14.866204
_cell_angle_alpha 90.000000
_cell_angle_beta 141.540375
_cell_angle_gamma 90.000000
_cell_volume 1184.454147
_symmetry_space_group_name_H-M "P 21/C"
_symmetry_group_IT_number 14
_symmetry_cell_setting 'monoclinic'
loop_
_space_group_symop_operation_xyz
x,y,z
-x,1/2+y,1/2-z
-x,-y,-z
x,1/2-y,1/2+z
loop_
_atom_site_type_symbol
_atom_site_label
_atom_site_fract_x
_atom_site_fract_y
_atom_site_fract_z
Si Si1 0.688524 0.723396 0.878986
Si Si2 0.596151 0.124195 0.280350
Si Si3 0.104426 0.377497 0.811613
Si Si4 0.378424 0.785384 0.381895
Si Si5 0.310420 0.137013 0.308436
Si Si6 0.191182 0.722959 0.906113
O O1 0.571610 0.837263 0.832393
O O2 0.616689 0.555826 0.813764
O O3 0.742739 0.789422 0.826225
O O4 0.828065 0.717247 0.052423
O O5 0.640946 0.165136 0.213863
O O6 0.693642 0.225106 0.423707
O O7 0.185473 0.329853 0.783302
O O8 0.118198 0.557325 0.840111
O O9 0.933985 0.345065 0.669522
O O10 0.542586 0.780024 0.545499
O O11 0.271945 0.729012 0.377503
O O12 0.339413 0.956014 0.317133
#
# Coordination Sequence:
#
# PCOD8125467 Si02
#       6
#     4   4   4   4   4   4
#     4  11  22  38  61  90 119 154 199 245 292 348
#     4  11  22  38  61  90 119 154 199 245 292 348
#     4  10  23  41  60  85 122 158 192 243 298 348
#     4  10  20  39  62  86 119 156 197 244 292 346
#     4  10  20  39  62  86 119 156 197 244 292 346
#     4  10  23  41  60  85 122 158 192 243 298 348
#
# _framework density 20.262497
#
# number of rings (size 3 to 8) (size 9 to 14) (size 15 to 20)
#    0.000    1.667    3.333    1.000    0.000    6.000 
#    0.000    6.667    0.000    0.000    0.000    0.000 
#    0.000    0.000    0.000    0.000    0.000    0.000 
#
# Total GULP energy -297735.845077 kJ/mol
# GULP energy per Si atom -12405.660212 kJ/mol
# Density = 2.021638 g / cm^3
# Si number density = 20.262497 Si / 1000 Ang^3
#
#
#
# Elastic Constant Matrix: (Units=GPa)
#
#
# Indices 1 2 3 4 5 6 
#
# 1 107.5355 8.4272 17.3418 0.0000 -11.0546 0.0000
# 2 8.4272 16.1234 -7.9465 0.0000 -2.4707 0.0000
# 3 17.3418 -7.9465 26.6176 0.0000 -8.5705 0.0000
# 4 0.0000 0.0000 0.0000 34.5585 0.0000 -1.0242
# 5 -11.0546 -2.4707 -8.5705 0.0000 37.4172 0.0000
# 6 0.0000 0.0000 0.0000 -1.0242 0.0000 34.1980
#
#
#
# Elastic Compliance Matrix: (Units=1/GPa)
#
#
# Indices 1 2 3 4 5 6 
#
# 1 0.012082 -0.011886 -0.011361 0.000000 0.000182 0.000000
# 2 -0.011886 0.088492 0.037693 0.000000 0.010965 0.000000
# 3 -0.011361 0.037693 0.060400 0.000000 0.012967 0.000000
# 4 0.000000 0.000000 0.000000 0.028962 0.000000 0.000867
# 5 0.000182 0.010965 0.012967 0.000000 0.030474 0.000000
# 6 0.000000 0.000000 0.000000 0.000867 0.000000 0.029267
#
#
# Mechanical properties :
#
#
# Convention : Reuss Voigt Hill
#
# Bulk Modulus (GPa) = 5.26691 20.65794 12.96243
# Shear Modulus (GPa) = 17.60114 30.06501 23.83307
#
# Velocity S-wave (km/s) = 2.95049 3.85616 3.43332
# Velocity P-wave (km/s) = 3.76991 5.48123 4.70405
#
# Compressibility (1/GPa) = 0.18986452
#
# Stress axis : x y z
#
# Youngs Moduli (GPa) = 82.77011 11.30050 16.55643
#
# Poissons Ratio (x) = 0.13432 0.18810
# Poissons Ratio (y) = 0.98382 -0.62407
# Poissons Ratio (z) = 0.94037 -0.42595
#
# Static dielectric constant tensor:
#      x y z
#    x 3.730370 0.000000 -0.153340 
#    y 0.000000 3.508380 0.000000 
#    z -0.153340 0.000000 3.676080 
# 
# 
# High freq. dielectric constant tensor:
#      x y z
#    x 1.799320 0.000000 -0.009720 
#    y 0.000000 1.785250 0.000000 
#    z -0.009720 0.000000 1.790100 
# 
# From -- ./inp_files/38889.got.cif
#   From: 2010.03.12/outbox.cif.g09.slc.cpg/sg14_20_cif.got.tgz:38889.got - 2010.03.31 13:35:05.
