data_PCOD8125212
_publ_section_title
;
Structure prediction by ZEFSAII (Michael W. Deem and Ramdas Pophale) SiO2 
 PCOD8125212
Probable space group: P 21/C
;
_chemical_formula_sum "Si O2"
_cell_formula_units_Z 28
_cell_length_a 8.269310
_cell_length_b 20.095579
_cell_length_c 7.643497
_cell_angle_alpha 90.000000
_cell_angle_beta 82.493947
_cell_angle_gamma 90.000000
_cell_volume 1259.286129
_symmetry_space_group_name_H-M "P 21/C"
_symmetry_group_IT_number 14
_symmetry_cell_setting 'monoclinic'
loop_
_space_group_symop_operation_xyz
x,y,z
-x,1/2+y,1/2-z
-x,-y,-z
x,1/2-y,1/2+z
loop_
_atom_site_type_symbol
_atom_site_label
_atom_site_fract_x
_atom_site_fract_y
_atom_site_fract_z
Si Si1 0.196289 0.453018 0.353753
Si Si2 0.443956 0.550504 0.792280
Si Si3 0.957876 0.087321 0.166242
Si Si4 0.086798 0.391377 0.020928
Si Si5 0.429784 0.405263 0.858548
Si Si6 0.300007 0.813090 0.727253
Si Si7 0.232600 0.831111 0.345910
O O1 0.386896 0.436246 0.333150
O O2 0.164362 0.531017 0.389609
O O3 0.115677 0.408739 0.518854
O O4 0.115010 0.441824 0.175556
O O5 0.384426 0.474275 0.761644
O O6 0.305221 0.602202 0.741731
O O7 0.466939 0.565101 0.994418
O O8 0.862247 0.157289 0.159146
O O9 0.003590 0.074311 0.363257
O O10 0.265541 0.365101 0.936910
O O11 0.965359 0.333903 0.111914
O O12 0.537567 0.352783 0.728569
O O13 0.310931 0.828087 0.523088
O O14 0.297398 0.733790 0.738223
#
# Coordination Sequence:
#
# PCOD8125212 Si02
#       7
#     4   4   4   4   4   4   4
#     4  10  20  37  62  89 118 152 193 250 302 349
#     4   9  18  36  60  90 115 154 198 245 304 357
#     4  10  21  37  59  89 119 152 197 245 299 355
#     4  10  22  37  60  90 113 156 199 243 297 360
#     4   9  18  36  64  84 117 153 198 250 298 352
#     4  10  21  42  57  82 123 160 194 250 304 364
#     4  10  23  38  60  86 117 160 203 242 308 361
#
# _framework density 22.234821
#
# number of rings (size 3 to 8) (size 9 to 14) (size 15 to 20)
#    0.000    2.286    1.429    0.429   10.000    0.000 
#    5.143    3.571    0.000    0.000    0.000    0.000 
#    0.000    0.000    0.000    0.000    0.000    0.000 
#
# Total GULP energy -346891.679179 kJ/mol
# GULP energy per Si atom -12388.988542 kJ/mol
# Density = 2.218421 g / cm^3
# Si number density = 22.234821 Si / 1000 Ang^3
#
#
#
# Elastic Constant Matrix: (Units=GPa)
#
#
# Indices 1 2 3 4 5 6 
#
# 1 115.7447 75.3197 31.2821 0.0000 -34.2809 0.0000
# 2 75.3197 124.9720 14.7288 0.0000 -28.1766 0.0000
# 3 31.2821 14.7288 57.2292 0.0000 -28.0208 0.0000
# 4 0.0000 0.0000 0.0000 26.5934 0.0000 -9.6762
# 5 -34.2809 -28.1766 -28.0208 0.0000 30.4672 0.0000
# 6 0.0000 0.0000 0.0000 -9.6762 0.0000 28.9259
#
#
#
# Elastic Compliance Matrix: (Units=1/GPa)
#
#
# Indices 1 2 3 4 5 6 
#
# 1 0.017479 -0.008014 -0.002713 0.000000 0.009760 0.000000
# 2 -0.008014 0.014208 0.004989 0.000000 0.008711 0.000000
# 3 -0.002713 0.004989 0.033541 0.000000 0.032409 0.000000
# 4 0.000000 0.000000 0.000000 0.042814 0.000000 0.014322
# 5 0.009760 0.008711 0.032409 0.000000 0.081667 0.000000
# 6 0.000000 0.000000 0.000000 0.014322 0.000000 0.039362
#
#
# Mechanical properties :
#
#
# Convention : Reuss Voigt Hill
#
# Bulk Modulus (GPa) = 18.60403 60.06747 39.33575
# Shear Modulus (GPa) = 19.34512 28.97165 24.15839
#
# Velocity S-wave (km/s) = 2.95284 3.61360 3.29980
# Velocity P-wave (km/s) = 4.47336 6.66967 5.67871
#
# Compressibility (1/GPa) = 0.05375178
#
# Stress axis : x y z
#
# Youngs Moduli (GPa) = 57.21280 70.38414 29.81449
#
# Poissons Ratio (x) = 0.56406 0.08088
# Poissons Ratio (y) = 0.45850 -0.14874
# Poissons Ratio (z) = 0.15520 -0.35115
#
# Static dielectric constant tensor:
#      x y z
#    x 4.052350 0.000000 -0.207750 
#    y 0.000000 5.145080 0.000000 
#    z -0.207750 0.000000 3.862490 
# 
# 
# High freq. dielectric constant tensor:
#      x y z
#    x 1.875850 0.000000 -0.020580 
#    y 0.000000 1.845620 0.000000 
#    z -0.020580 0.000000 1.862600 
# 
# From -- ./inp_files/9372.got.cif
#   From: 2010.03.12/outbox.cif.g09.slc.cpg/sg14_5_cif.got.tgz:9372.got - 2010.03.31 13:35:05.
