data_PCOD8125019
_publ_section_title
;
Structure prediction by ZEFSAII (Michael W. Deem and Ramdas Pophale) SiO2 
 PCOD8125019
Probable space group: P 21/C
;
_chemical_formula_sum "Si O2"
_cell_formula_units_Z 32
_cell_length_a 17.210763
_cell_length_b 5.015478
_cell_length_c 21.604087
_cell_angle_alpha 90.000000
_cell_angle_beta 63.374947
_cell_angle_gamma 90.000000
_cell_volume 1667.115403
_symmetry_space_group_name_H-M "P 21/C"
_symmetry_group_IT_number 14
_symmetry_cell_setting 'monoclinic'
loop_
_space_group_symop_operation_xyz
x,y,z
-x,1/2+y,1/2-z
-x,-y,-z
x,1/2-y,1/2+z
loop_
_atom_site_type_symbol
_atom_site_label
_atom_site_fract_x
_atom_site_fract_y
_atom_site_fract_z
Si Si1 0.011912 0.250098 0.037776
Si Si2 0.342333 0.312631 0.625309
Si Si3 0.827688 0.267018 0.130936
Si Si4 0.305414 0.833564 0.716695
Si Si5 0.352396 0.230478 0.985443
Si Si6 0.803155 0.732904 0.553628
Si Si7 0.479124 0.972058 0.721764
Si Si8 0.539520 0.282188 0.078537
O O1 0.930682 0.251316 0.114770
O O2 0.000000 0.500000 0.000000
O O3 0.112823 0.250767 0.023641
O O4 0.000000 0.000000 0.000000
O O5 0.334005 0.583895 0.665872
O O6 0.309884 0.353903 0.566442
O O7 0.443014 0.226420 0.585571
O O8 0.285494 0.082551 0.678694
O O9 0.778485 0.237261 0.213200
O O10 0.804589 0.546318 0.107007
O O11 0.800935 0.046955 0.090042
O O12 0.381431 0.916503 0.736123
O O13 0.279413 0.268012 0.960033
O O14 0.401519 0.509974 0.980541
O O15 0.420683 0.011447 0.937837
O O16 0.524218 0.690965 0.722320
O O17 0.538654 0.109368 0.648736
#
# Coordination Sequence:
#
# PCOD8125019 Si02
#       8
#     4   4   4   4   4   4   4   4
#     4   8  16  33  54  79 112 140 165 214 273 332
#     4  11  23  42  54  76 109 150 195 227 266 308
#     4  10  20  36  59  82 113 140 177 215 272 353
#     4  11  23  38  57  78 107 150 187 220 269 334
#     4  12  23  37  60  79 109 143 191 239 260 321
#     4  10  21  34  55  90 110 135 175 227 285 311
#     4  11  23  36  52  76 115 143 172 231 282 322
#     4  11  23  38  54  80 102 151 193 220 275 314
#
# _framework density 19.194831000000001
#
# number of rings (size 3 to 8) (size 9 to 14) (size 15 to 20)
#    0.000    1.500    0.000    6.750    5.250    0.000 
#    0.000    0.000    0.000    1.500    0.000    0.000 
#    0.000    0.000    0.000    0.000    0.000    0.000 
#
# Total GULP energy -396629.229612 kJ/mol
# GULP energy per Si atom -12394.663425 kJ/mol
# Density = 1.915114 g / cm^3
# Si number density = 19.194831 Si / 1000 Ang^3
#
#
#
# Elastic Constant Matrix: (Units=GPa)
#
#
# Indices 1 2 3 4 5 6 
#
# 1 37.3016 4.9908 29.3953 0.0000 -8.8279 0.0000
# 2 4.9908 90.1249 2.3614 0.0000 -5.5123 0.0000
# 3 29.3953 2.3614 88.4996 0.0000 -10.9580 0.0000
# 4 0.0000 0.0000 0.0000 36.0661 0.0000 -0.7160
# 5 -8.8279 -5.5123 -10.9580 0.0000 19.4338 0.0000
# 6 0.0000 0.0000 0.0000 -0.7160 0.0000 17.1854
#
#
#
# Elastic Compliance Matrix: (Units=1/GPa)
#
#
# Indices 1 2 3 4 5 6 
#
# 1 0.038512 -0.001178 -0.011434 0.000000 0.010713 0.000000
# 2 -0.001178 0.011328 0.000452 0.000000 0.002933 0.000000
# 3 -0.011434 0.000452 0.015543 0.000000 0.003699 0.000000
# 4 0.000000 0.000000 0.000000 0.027750 0.000000 0.001156
# 5 0.010713 0.002933 0.003699 0.000000 0.059241 0.000000
# 6 0.000000 0.000000 0.000000 0.001156 0.000000 0.058237
#
#
# Mechanical properties :
#
#
# Convention : Reuss Voigt Hill
#
# Bulk Modulus (GPa) = 24.35200 32.15789 28.25495
# Shear Modulus (GPa) = 20.11113 26.48229 23.29671
#
# Velocity S-wave (km/s) = 3.24039 3.71840 3.48759
# Velocity P-wave (km/s) = 5.16860 5.93508 5.56505
#
# Compressibility (1/GPa) = 0.04106440
#
# Stress axis : x y z
#
# Youngs Moduli (GPa) = 25.96598 88.27301 64.33699
#
# Poissons Ratio (x) = 0.10397 0.73562
# Poissons Ratio (y) = 0.03058 -0.02909
# Poissons Ratio (z) = 0.29689 -0.03991
#
# Static dielectric constant tensor:
#      x y z
#    x 3.518650 0.000000 -0.315510 
#    y 0.000000 3.848050 0.000000 
#    z -0.315510 0.000000 3.705890 
# 
# 
# High freq. dielectric constant tensor:
#      x y z
#    x 1.714500 0.000000 -0.013770 
#    y 0.000000 1.777420 0.000000 
#    z -0.013770 0.000000 1.740650 
# 
# From -- ./inp_files/68963.got.cif
#   From: 2010.03.12/outbox.cif.g09.slc.cpg/sg14_35_cif.got.tgz:68963.got - 2010.03.31 13:35:05.
