data_PCOD8125836
_publ_section_title
;
Structure prediction by ZEFSAII (Michael W. Deem and Ramdas Pophale) SiO2 
 PCOD8125836
Probable space group: P 21/C
;
_chemical_formula_sum "Si O2"
_cell_formula_units_Z 20
_cell_length_a 32.704294
_cell_length_b 5.170536
_cell_length_c 19.159394
_cell_angle_alpha 90.000000
_cell_angle_beta 19.300883
_cell_angle_gamma 90.000000
_cell_volume 1070.857299
_symmetry_space_group_name_H-M "P 21/C"
_symmetry_group_IT_number 14
_symmetry_cell_setting 'monoclinic'
loop_
_space_group_symop_operation_xyz
x,y,z
-x,1/2+y,1/2-z
-x,-y,-z
x,1/2-y,1/2+z
loop_
_atom_site_type_symbol
_atom_site_label
_atom_site_fract_x
_atom_site_fract_y
_atom_site_fract_z
Si Si1 0.099494 0.940402 0.449373
Si Si2 0.356441 0.482936 0.216539
Si Si3 0.825839 0.744802 0.893983
Si Si4 0.135937 0.454265 0.308551
Si Si5 0.230901 0.506606 0.879515
O O1 0.175732 0.709186 0.287949
O O2 0.952628 0.901799 0.677291
O O3 0.142724 0.208367 0.347416
O O4 0.130911 0.953184 0.480304
O O5 0.282366 0.444626 0.409194
O O6 0.321141 0.241931 0.222444
O O7 0.317509 0.744761 0.241900
O O8 0.500000 0.500000 0.000000
O O9 0.782529 0.600549 0.892419
O O10 0.844645 0.533293 0.925898
O O11 0.000000 0.500000 0.500000
#
# Coordination Sequence:
#
# PCOD8125836 Si02
#       5
#     4   4   4   4   4
#     4  11  22  35  56  89 125 140 186 233 298 345
#     4  10  22  38  59  83 110 150 202 237 276 332
#     4   9  23  32  62  82 118 149 192 221 290 337
#     4  10  21  35  53  84 122 159 177 221 284 363
#     4  10  23  35  60  86 115 147 188 245 287 325
#
# _framework density 18.676624
#
# number of rings (size 3 to 8) (size 9 to 14) (size 15 to 20)
#    1.200    0.800    0.000    4.200   11.200    0.000 
#    0.000    0.000    0.000    4.800    0.000    0.000 
#    0.000    0.000    0.000    0.000    0.000    0.000 
#
# Total GULP energy -247822.301927 kJ/mol
# GULP energy per Si atom -12391.115096 kJ/mol
# Density = 1.863411 g / cm^3
# Si number density = 18.676624 Si / 1000 Ang^3
#
#
#
# Elastic Constant Matrix: (Units=GPa)
#
#
# Indices 1 2 3 4 5 6 
#
# 1 79.4692 24.8037 31.1392 0.0000 23.4026 0.0000
# 2 24.8037 131.1211 16.8552 0.0000 4.4612 0.0000
# 3 31.1392 16.8552 62.3623 0.0000 -0.0427 0.0000
# 4 0.0000 0.0000 0.0000 15.5779 0.0000 -2.8245
# 5 23.4026 4.4612 -0.0427 0.0000 20.4918 0.0000
# 6 0.0000 0.0000 0.0000 -2.8245 0.0000 31.9122
#
#
#
# Elastic Compliance Matrix: (Units=1/GPa)
#
#
# Indices 1 2 3 4 5 6 
#
# 1 0.027676 -0.002485 -0.013169 0.000000 -0.031093 0.000000
# 2 -0.002485 0.008186 -0.000971 0.000000 0.001053 0.000000
# 3 -0.013169 -0.000971 0.022884 0.000000 0.015299 0.000000
# 4 0.000000 0.000000 0.000000 0.065241 0.000000 0.005774
# 5 -0.031093 0.001053 0.015299 0.000000 0.084113 0.000000
# 6 0.000000 0.000000 0.000000 0.005774 0.000000 0.031847
#
#
# Mechanical properties :
#
#
# Convention : Reuss Voigt Hill
#
# Bulk Modulus (GPa) = 39.22201 46.50543 42.86372
# Shear Modulus (GPa) = 17.74979 26.94001 22.34490
#
# Velocity S-wave (km/s) = 3.08616 3.80207 3.46267
# Velocity P-wave (km/s) = 5.80907 6.65047 6.24396
#
# Compressibility (1/GPa) = 0.02549589
#
# Stress axis : x y z
#
# Youngs Moduli (GPa) = 36.13272 122.16703 43.69877
#
# Poissons Ratio (x) = 0.30353 0.57547
# Poissons Ratio (y) = 0.08977 0.04243
# Poissons Ratio (z) = 0.47583 0.11863
#
# Static dielectric constant tensor:
#      x y z
#    x 4.514450 0.000000 0.279990 
#    y 0.000000 4.003600 0.000000 
#    z 0.279990 0.000000 3.167030 
# 
# 
# High freq. dielectric constant tensor:
#      x y z
#    x 1.718900 0.000000 0.018840 
#    y 0.000000 1.745200 0.000000 
#    z 0.018840 0.000000 1.679300 
# 
# From -- ./inp_files/50961.got.cif
#   From: 2010.03.12/outbox.cif.g09.slc.cpg/sg14_26_cif.got.tgz:50961.got - 2010.03.31 13:35:05.
