data_PCOD8125513
_publ_section_title
;
Structure prediction by ZEFSAII (Michael W. Deem and Ramdas Pophale) SiO2 
 PCOD8125513
Probable space group: P 21/C
;
_chemical_formula_sum "Si O2"
_cell_formula_units_Z 32
_cell_length_a 20.292817
_cell_length_b 10.773792
_cell_length_c 15.984662
_cell_angle_alpha 90.000000
_cell_angle_beta 152.891566
_cell_angle_gamma 90.000000
_cell_volume 1592.467155
_symmetry_space_group_name_H-M "P 21/C"
_symmetry_group_IT_number 14
_symmetry_cell_setting 'monoclinic'
loop_
_space_group_symop_operation_xyz
x,y,z
-x,1/2+y,1/2-z
-x,-y,-z
x,1/2-y,1/2+z
loop_
_atom_site_type_symbol
_atom_site_label
_atom_site_fract_x
_atom_site_fract_y
_atom_site_fract_z
Si Si1 0.794495 0.470578 0.589049
Si Si2 0.353192 0.436675 0.419143
Si Si3 0.647902 0.155931 0.203383
Si Si4 0.885121 0.454970 0.078192
Si Si5 0.876371 0.198985 0.732935
Si Si6 0.648205 0.936338 0.764166
Si Si7 0.191752 0.200745 0.591223
Si Si8 0.666744 0.403085 0.133754
O O1 0.709260 0.553904 0.559034
O O2 0.797344 0.325308 0.615693
O O3 0.715874 0.476617 0.411422
O O4 0.948898 0.537611 0.760678
O O5 0.356213 0.574628 0.385216
O O6 0.514945 0.383920 0.612393
O O7 0.254814 0.349120 0.249728
O O8 0.800807 0.141177 0.423215
O O9 0.624139 0.296537 0.151010
O O10 0.870699 0.407509 0.156314
O O11 0.819171 0.592061 0.990532
O O12 0.800382 0.138058 0.727566
O O13 0.040126 0.233525 0.941011
O O14 0.700742 0.795344 0.832515
O O15 0.474790 0.938685 0.579897
O O16 0.704560 0.981002 0.736360
#
# Coordination Sequence:
#
# PCOD8125513 Si02
#       8
#     4   4   4   4   4   4   4   4
#     4  11  23  42  66  93 127 166 218 265 320 375
#     4  10  21  38  66  93 122 168 211 262 318 376
#     4  10  20  39  64  94 124 161 210 265 315 377
#     4  10  23  38  64  96 127 162 212 264 316 374
#     4  11  23  42  65  97 125 170 217 259 317 386
#     4  11  24  46  60  93 133 168 204 272 317 385
#     4  10  22  43  64  89 136 165 210 264 321 377
#     4  11  24  42  67  89 132 169 212 259 327 382
#
# _framework density 20.094605999999999
#
# number of rings (size 3 to 8) (size 9 to 14) (size 15 to 20)
#    0.000    1.500    3.750    0.750    3.500    2.000 
#    2.250    0.000    0.000    0.000    0.000    0.000 
#    0.000    0.000    0.000    0.000    0.000    0.000 
#
# Total GULP energy -396847.090850 kJ/mol
# GULP energy per Si atom -12401.471589 kJ/mol
# Density = 2.004887 g / cm^3
# Si number density = 20.094606 Si / 1000 Ang^3
#
#
#
# Elastic Constant Matrix: (Units=GPa)
#
#
# Indices 1 2 3 4 5 6 
#
# 1 106.7762 29.7779 38.1786 0.0000 5.4131 0.0000
# 2 29.7779 69.6247 28.4953 0.0000 -1.3584 0.0000
# 3 38.1786 28.4953 117.3807 0.0000 -0.7963 0.0000
# 4 0.0000 0.0000 0.0000 26.4430 0.0000 -1.0680
# 5 5.4131 -1.3584 -0.7963 0.0000 18.3760 0.0000
# 6 0.0000 0.0000 0.0000 -1.0680 0.0000 30.7261
#
#
#
# Elastic Compliance Matrix: (Units=1/GPa)
#
#
# Indices 1 2 3 4 5 6 
#
# 1 0.011675 -0.003890 -0.002879 0.000000 -0.003851 0.000000
# 2 -0.003890 0.017262 -0.002910 0.000000 0.002296 0.000000
# 3 -0.002879 -0.002910 0.010169 0.000000 0.001074 0.000000
# 4 0.000000 0.000000 0.000000 0.037870 0.000000 0.001316
# 5 -0.003851 0.002296 0.001074 0.000000 0.055770 0.000000
# 6 0.000000 0.000000 0.000000 0.001316 0.000000 0.032591
#
#
# Mechanical properties :
#
#
# Convention : Reuss Voigt Hill
#
# Bulk Modulus (GPa) = 50.63632 54.07610 52.35621
# Shear Modulus (GPa) = 26.13992 28.26436 27.20214
#
# Velocity S-wave (km/s) = 3.61063 3.75449 3.68326
# Velocity P-wave (km/s) = 6.52962 6.76492 6.64831
#
# Compressibility (1/GPa) = 0.01974867
#
# Stress axis : x y z
#
# Youngs Moduli (GPa) = 85.65348 57.93027 98.33453
#
# Poissons Ratio (x) = 0.22535 0.28311
# Poissons Ratio (y) = 0.33320 0.28612
# Poissons Ratio (z) = 0.24660 0.16856
#
# Static dielectric constant tensor:
#      x y z
#    x 3.386840 0.000000 0.039100 
#    y 0.000000 3.734320 0.000000 
#    z 0.039100 0.000000 3.828250 
# 
# 
# High freq. dielectric constant tensor:
#      x y z
#    x 1.765830 0.000000 0.003890 
#    y 0.000000 1.791730 0.000000 
#    z 0.003890 0.000000 1.797360 
# 
# From -- ./inp_files/49032.got.cif
#   From: 2010.03.12/outbox.cif.g09.slc.cpg/sg14_25_cif.got.tgz:49032.got - 2010.03.31 13:35:05.
