data_PCOD8125390
_publ_section_title
;
Structure prediction by ZEFSAII (Michael W. Deem and Ramdas Pophale) SiO2 
 PCOD8125390
Probable space group: P 21/C
;
_chemical_formula_sum "Si O2"
_cell_formula_units_Z 32
_cell_length_a 16.955983
_cell_length_b 14.368062
_cell_length_c 11.824330
_cell_angle_alpha 90.000000
_cell_angle_beta 148.661303
_cell_angle_gamma 90.000000
_cell_volume 1498.239675
_symmetry_space_group_name_H-M "P 21/C"
_symmetry_group_IT_number 14
_symmetry_cell_setting 'monoclinic'
loop_
_space_group_symop_operation_xyz
x,y,z
-x,1/2+y,1/2-z
-x,-y,-z
x,1/2-y,1/2+z
loop_
_atom_site_type_symbol
_atom_site_label
_atom_site_fract_x
_atom_site_fract_y
_atom_site_fract_z
Si Si1 0.239212 0.313758 0.468748
Si Si2 0.770282 0.614555 0.120118
Si Si3 0.104919 0.576779 0.187059
Si Si4 0.660728 0.949101 0.717881
Si Si5 0.663971 0.556835 0.592678
Si Si6 0.900781 0.108285 0.064338
Si Si7 0.105336 0.687817 0.973544
Si Si8 0.681448 0.469813 0.842797
O O1 0.288980 0.205718 0.521067
O O2 0.341820 0.376830 0.678912
O O3 0.257015 0.352537 0.362765
O O4 0.062620 0.319521 0.285793
O O5 0.711627 0.616282 0.176514
O O6 0.952425 0.606482 0.336823
O O7 0.698529 0.521391 0.981632
O O8 0.276574 0.534700 0.403393
O O9 0.046078 0.597401 0.240390
O O10 0.105575 0.667946 0.108786
O O11 0.000000 0.500000 0.000000
O O12 0.500000 0.000000 0.500000
O O13 0.784611 0.029092 0.887004
O O14 0.715886 0.544271 0.785897
O O15 0.485713 0.570775 0.368858
O O16 0.823975 0.209628 0.956442
O O17 0.204630 0.616089 0.023949
#
# Coordination Sequence:
#
# PCOD8125390 Si02
#       8
#     4   4   4   4   4   4   4   4
#     4  11  23  42  67  96 128 174 226 266 331 403
#     4  11  26  39  68  97 130 173 222 280 327 398
#     4  11  19  39  70  89 125 176 217 273 334 390
#     4  12  26  47  66  95 143 185 217 271 349 400
#     4  10  20  38  65  88 125 161 213 272 316 398
#     4  11  24  42  67  98 133 174 227 276 335 400
#     4  10  23  39  67 102 126 174 223 285 332 394
#     4  10  22  40  61  98 126 163 220 269 335 376
#
# _framework density 21.358398999999999
#
# number of rings (size 3 to 8) (size 9 to 14) (size 15 to 20)
#    0.000    1.250    2.500    3.375    1.750    5.000 
#    4.500    0.000    0.000    0.000    0.000    0.000 
#    0.000    0.000    0.000    0.000    0.000    0.000 
#
# Total GULP energy -396742.433630 kJ/mol
# GULP energy per Si atom -12398.201051 kJ/mol
# Density = 2.130979 g / cm^3
# Si number density = 21.358399 Si / 1000 Ang^3
#
#
#
# Elastic Constant Matrix: (Units=GPa)
#
#
# Indices 1 2 3 4 5 6 
#
# 1 95.8971 39.8737 24.8101 0.0000 -2.3694 0.0000
# 2 39.8737 135.8822 47.5078 0.0000 -4.3376 0.0000
# 3 24.8101 47.5078 72.8951 0.0000 3.9951 0.0000
# 4 0.0000 0.0000 0.0000 27.0351 0.0000 -8.2474
# 5 -2.3694 -4.3376 3.9951 0.0000 24.0406 0.0000
# 6 0.0000 0.0000 0.0000 -8.2474 0.0000 26.7446
#
#
#
# Elastic Compliance Matrix: (Units=1/GPa)
#
#
# Indices 1 2 3 4 5 6 
#
# 1 0.012210 -0.002684 -0.002469 0.000000 0.001129 0.000000
# 2 -0.002684 0.010308 -0.005946 0.000000 0.002584 0.000000
# 3 -0.002469 -0.005946 0.018676 0.000000 -0.004420 0.000000
# 4 0.000000 0.000000 0.000000 0.040830 0.000000 0.012591
# 5 0.001129 0.002584 -0.004420 0.000000 0.042908 0.000000
# 6 0.000000 0.000000 0.000000 0.012591 0.000000 0.041273
#
#
# Mechanical properties :
#
#
# Convention : Reuss Voigt Hill
#
# Bulk Modulus (GPa) = 52.63927 58.78417 55.71172
# Shear Modulus (GPa) = 25.67570 28.39626 27.03598
#
# Velocity S-wave (km/s) = 3.47095 3.65020 3.56170
# Velocity P-wave (km/s) = 6.38455 6.73408 6.56164
#
# Compressibility (1/GPa) = 0.01899722
#
# Stress axis : x y z
#
# Youngs Moduli (GPa) = 81.89758 97.00856 53.54418
#
# Poissons Ratio (x) = 0.26037 0.13218
# Poissons Ratio (y) = 0.21981 0.31839
# Poissons Ratio (z) = 0.20217 0.57685
#
# Static dielectric constant tensor:
#      x y z
#    x 4.101450 0.000000 0.031860 
#    y 0.000000 3.900340 0.000000 
#    z 0.031860 0.000000 3.720730 
# 
# 
# High freq. dielectric constant tensor:
#      x y z
#    x 1.846830 0.000000 0.004170 
#    y 0.000000 1.836720 0.000000 
#    z 0.004170 0.000000 1.823040 
# 
# From -- ./inp_files/34247.got.cif
#   From: 2010.03.12/outbox.cif.g09.slc.cpg/sg14_18_cif.got.tgz:34247.got - 2010.03.31 13:35:05.
