data_PCOD8125458
_publ_section_title
;
Structure prediction by ZEFSAII (Michael W. Deem and Ramdas Pophale) SiO2 
 PCOD8125458
Probable space group: P 21/C
;
_chemical_formula_sum "Si O2"
_cell_formula_units_Z 28
_cell_length_a 12.263972
_cell_length_b 16.136931
_cell_length_c 15.736353
_cell_angle_alpha 90.000000
_cell_angle_beta 26.034956
_cell_angle_gamma 90.000000
_cell_volume 1366.913319
_symmetry_space_group_name_H-M "P 21/C"
_symmetry_group_IT_number 14
_symmetry_cell_setting 'monoclinic'
loop_
_space_group_symop_operation_xyz
x,y,z
-x,1/2+y,1/2-z
-x,-y,-z
x,1/2-y,1/2+z
loop_
_atom_site_type_symbol
_atom_site_label
_atom_site_fract_x
_atom_site_fract_y
_atom_site_fract_z
Si Si1 0.281891 0.982654 0.719157
Si Si2 0.027513 0.805972 0.375341
Si Si3 0.529912 0.884002 0.782107
Si Si4 0.699415 0.192836 0.205615
Si Si5 0.744966 0.690832 0.465796
Si Si6 0.513643 0.598723 0.486715
Si Si7 0.731036 0.541843 0.590884
O O1 0.307578 0.891530 0.737726
O O2 0.500000 0.000000 0.500000
O O3 0.296484 0.047125 0.787571
O O4 0.008019 0.989621 0.868877
O O5 0.789450 0.863537 0.555338
O O6 0.991775 0.743538 0.318599
O O7 0.062025 0.747968 0.435490
O O8 0.255484 0.867340 0.203412
O O9 0.318177 0.827516 0.883136
O O10 0.470604 0.980522 0.809212
O O11 0.546657 0.865448 0.869487
O O12 0.465151 0.242496 0.403786
O O13 0.748829 0.632747 0.378307
O O14 0.675159 0.632882 0.594850
O O15 0.500000 0.500000 0.500000
#
# Coordination Sequence:
#
# PCOD8125458 Si02
#       7
#     4   4   4   4   4   4   4
#     4  10  21  39  65  94 120 163 210 255 309 365
#     4  10  22  42  63  86 128 163 205 262 310 357
#     4  10  22  39  63  90 119 165 205 247 313 367
#     4   9  20  40  61  89 124 160 201 261 305 359
#     4  10  20  41  61  87 129 160 200 260 305 355
#     4  11  23  41  63  92 126 163 209 253 302 381
#     4  10  20  39  61  89 126 158 203 260 301 365
#
# _framework density 20.484107999999999
#
# number of rings (size 3 to 8) (size 9 to 14) (size 15 to 20)
#    0.000    2.000    2.857    0.000    0.000    5.143 
#   10.286    0.000    0.000    0.000    0.000    0.000 
#    0.000    0.000    0.000    0.000    0.000    0.000 
#
# Total GULP energy -346937.268780 kJ/mol
# GULP energy per Si atom -12390.616742 kJ/mol
# Density = 2.043749 g / cm^3
# Si number density = 20.484108 Si / 1000 Ang^3
#
#
#
# Elastic Constant Matrix: (Units=GPa)
#
#
# Indices 1 2 3 4 5 6 
#
# 1 126.5967 48.9208 37.9790 0.0000 3.8999 0.0000
# 2 48.9208 107.0737 25.9134 0.0000 -2.4812 0.0000
# 3 37.9790 25.9134 86.5223 0.0000 5.3541 0.0000
# 4 0.0000 0.0000 0.0000 23.3287 0.0000 -7.3637
# 5 3.8999 -2.4812 5.3541 0.0000 29.7488 0.0000
# 6 0.0000 0.0000 0.0000 -7.3637 0.0000 26.5096
#
#
#
# Elastic Compliance Matrix: (Units=1/GPa)
#
#
# Indices 1 2 3 4 5 6 
#
# 1 0.010482 -0.004008 -0.003332 0.000000 -0.001109 0.000000
# 2 -0.004008 0.011660 -0.001846 0.000000 0.001830 0.000000
# 3 -0.003332 -0.001846 0.013708 0.000000 -0.002184 0.000000
# 4 0.000000 0.000000 0.000000 0.046985 0.000000 0.013051
# 5 -0.001109 0.001830 -0.002184 0.000000 0.034306 0.000000
# 6 0.000000 0.000000 0.000000 0.013051 0.000000 0.041347
#
#
# Mechanical properties :
#
#
# Convention : Reuss Voigt Hill
#
# Bulk Modulus (GPa) = 57.21594 60.64656 58.93125
# Shear Modulus (GPa) = 27.36926 29.74273 28.55599
#
# Velocity S-wave (km/s) = 3.65927 3.81463 3.73776
# Velocity P-wave (km/s) = 6.77098 7.00520 6.88908
#
# Compressibility (1/GPa) = 0.01747765
#
# Stress axis : x y z
#
# Youngs Moduli (GPa) = 95.40387 85.76427 72.94873
#
# Poissons Ratio (x) = 0.34377 0.24306
# Poissons Ratio (y) = 0.38241 0.13466
# Poissons Ratio (z) = 0.31787 0.15831
#
# Static dielectric constant tensor:
#      x y z
#    x 4.416840 0.000000 -0.169910 
#    y 0.000000 3.897770 0.000000 
#    z -0.169910 0.000000 3.277330 
# 
# 
# High freq. dielectric constant tensor:
#      x y z
#    x 1.826740 0.000000 -0.016590 
#    y 0.000000 1.813830 0.000000 
#    z -0.016590 0.000000 1.750030 
# 
# From -- ./inp_files/45290.got.cif
#   From: 2010.03.12/outbox.cif.g09.slc.cpg/sg14_23_cif.got.tgz:45290.got - 2010.03.31 13:35:05.
