data_PCOD8125801
_publ_section_title
;
Structure prediction by ZEFSAII (Michael W. Deem and Ramdas Pophale) SiO2 
 PCOD8125801
Probable space group: P 21/C
;
_chemical_formula_sum "Si O2"
_cell_formula_units_Z 24
_cell_length_a 14.480028
_cell_length_b 11.477152
_cell_length_c 14.399040
_cell_angle_alpha 90.000000
_cell_angle_beta 27.453985
_cell_angle_gamma 90.000000
_cell_volume 1103.245083
_symmetry_space_group_name_H-M "P 21/C"
_symmetry_group_IT_number 14
_symmetry_cell_setting 'monoclinic'
loop_
_space_group_symop_operation_xyz
x,y,z
-x,1/2+y,1/2-z
-x,-y,-z
x,1/2-y,1/2+z
loop_
_atom_site_type_symbol
_atom_site_label
_atom_site_fract_x
_atom_site_fract_y
_atom_site_fract_z
Si Si1 0.015829 0.997472 0.774781
Si Si2 0.427368 0.132059 0.156432
Si Si3 0.676506 0.819837 0.553602
Si Si4 0.333123 0.536460 0.272757
Si Si5 0.698512 0.915426 0.927823
Si Si6 0.344089 0.643906 0.070355
O O1 0.170976 0.891344 0.652320
O O2 0.905342 0.975753 0.775220
O O3 0.135896 0.119004 0.663983
O O4 0.864447 0.002064 0.995530
O O5 0.293765 0.176480 0.361751
O O6 0.284324 0.130433 0.193171
O O7 0.615700 0.218358 0.971424
O O8 0.512437 0.003709 0.101337
O O9 0.470547 0.885835 0.716514
O O10 0.655701 0.688237 0.538048
O O11 0.270266 0.610775 0.239056
O O12 0.446431 0.419835 0.139444
#
# Coordination Sequence:
#
# PCOD8125801 Si02
#       6
#     4   4   4   4   4   4
#     4  11  24  41  70 103 131 177 234 283 334 405
#     4  11  24  45  71  96 139 184 222 279 351 412
#     4  11  24  44  69  95 135 186 223 281 341 407
#     4  10  20  44  69  99 137 175 230 282 335 407
#     4  11  25  45  67 101 136 178 229 279 348 411
#     4  10  22  41  73 100 130 180 227 286 342 398
#
# _framework density 21.754007999999999
#
# number of rings (size 3 to 8) (size 9 to 14) (size 15 to 20)
#    0.000    1.333    3.333    1.500    4.667    0.667 
#    3.000    0.000    0.000    0.000    0.000    0.000 
#    0.000    0.000    0.000    0.000    0.000    0.000 
#
# Total GULP energy -297702.317553 kJ/mol
# GULP energy per Si atom -12404.263231 kJ/mol
# Density = 2.170449 g / cm^3
# Si number density = 21.754008 Si / 1000 Ang^3
#
#
#
# Elastic Constant Matrix: (Units=GPa)
#
#
# Indices 1 2 3 4 5 6 
#
# 1 136.9860 34.4894 51.6195 0.0000 20.1435 0.0000
# 2 34.4894 114.9148 37.8703 0.0000 10.4876 0.0000
# 3 51.6195 37.8703 102.7909 0.0000 6.9730 0.0000
# 4 0.0000 0.0000 0.0000 14.6126 0.0000 5.3000
# 5 20.1435 10.4876 6.9730 0.0000 29.0059 0.0000
# 6 0.0000 0.0000 0.0000 5.3000 0.0000 33.1048
#
#
#
# Elastic Compliance Matrix: (Units=1/GPa)
#
#
# Indices 1 2 3 4 5 6 
#
# 1 0.009984 -0.001097 -0.004235 0.000000 -0.005518 0.000000
# 2 -0.001097 0.010246 -0.003074 0.000000 -0.002204 0.000000
# 3 -0.004235 -0.003074 0.012924 0.000000 0.000946 0.000000
# 4 0.000000 0.000000 0.000000 0.072653 0.000000 -0.011631
# 5 -0.005518 -0.002204 0.000946 0.000000 0.038877 0.000000
# 6 0.000000 0.000000 0.000000 -0.011631 0.000000 0.032069
#
#
# Mechanical properties :
#
#
# Convention : Reuss Voigt Hill
#
# Bulk Modulus (GPa) = 61.19900 66.96112 64.08006
# Shear Modulus (GPa) = 25.12414 30.72550 27.92482
#
# Velocity S-wave (km/s) = 3.40210 3.76228 3.58671
# Velocity P-wave (km/s) = 6.60498 7.05130 6.83178
#
# Compressibility (1/GPa) = 0.01634014
#
# Stress axis : x y z
#
# Youngs Moduli (GPa) = 100.16473 97.60277 77.37730
#
# Poissons Ratio (x) = 0.10708 0.32769
# Poissons Ratio (y) = 0.10989 0.23788
# Poissons Ratio (z) = 0.42420 0.30006
#
# Static dielectric constant tensor:
#      x y z
#    x 4.244440 0.000000 0.054360 
#    y 0.000000 3.961170 0.000000 
#    z 0.054360 0.000000 3.572520 
# 
# 
# High freq. dielectric constant tensor:
#      x y z
#    x 1.870890 0.000000 0.008280 
#    y 0.000000 1.860120 0.000000 
#    z 0.008280 0.000000 1.831610 
# 
# From -- ./inp_files/47048.got.cif
#   From: 2010.03.12/outbox.cif.g09.slc.cpg/sg14_24_cif.got.tgz:47048.got - 2010.03.31 13:35:05.
