data_PCOD8125364
_publ_section_title
;
Structure prediction by ZEFSAII (Michael W. Deem and Ramdas Pophale) SiO2 
 PCOD8125364
Probable space group: P 21/C
;
_chemical_formula_sum "Si O2"
_cell_formula_units_Z 32
_cell_length_a 9.822094
_cell_length_b 13.315138
_cell_length_c 12.813044
_cell_angle_alpha 90.000000
_cell_angle_beta 70.089015
_cell_angle_gamma 90.000000
_cell_volume 1575.552494
_symmetry_space_group_name_H-M "P 21/C"
_symmetry_group_IT_number 14
_symmetry_cell_setting 'monoclinic'
loop_
_space_group_symop_operation_xyz
x,y,z
-x,1/2+y,1/2-z
-x,-y,-z
x,1/2-y,1/2+z
loop_
_atom_site_type_symbol
_atom_site_label
_atom_site_fract_x
_atom_site_fract_y
_atom_site_fract_z
Si Si1 0.567702 0.246127 0.782512
Si Si2 0.126169 0.686971 0.714689
Si Si3 0.513425 0.929866 0.348467
Si Si4 0.365170 0.377156 0.966145
Si Si5 0.702314 0.066091 0.171391
Si Si6 0.123777 0.518556 0.552269
Si Si7 0.966434 0.104895 0.237365
Si Si8 0.052724 0.057396 0.587797
O O1 0.707227 0.223420 0.818772
O O2 0.544962 0.148138 0.720207
O O3 0.427948 0.279501 0.888493
O O4 0.592287 0.340501 0.698538
O O5 0.102764 0.624434 0.615754
O O6 0.020449 0.782689 0.722319
O O7 0.073935 0.627837 0.832178
O O8 0.554002 0.874400 0.444128
O O9 0.396279 0.017563 0.398917
O O10 0.655911 0.978564 0.261669
O O11 0.191835 0.372529 0.025607
O O12 0.853659 0.109517 0.171881
O O13 0.722674 0.021134 0.048863
O O14 0.000000 0.500000 0.500000
O O15 0.117757 0.433162 0.645004
O O16 0.906937 0.029148 0.340285
O O17 0.000000 0.000000 0.500000
#
# Coordination Sequence:
#
# PCOD8125364 Si02
#       8
#     4   4   4   4   4   4   4   4
#     4  10  22  37  61  95 119 159 210 252 304 371
#     4  10  22  38  59  92 120 152 210 255 305 372
#     4  10  20  38  63  83 124 160 205 255 301 374
#     4  10  22  39  63  91 120 168 206 252 317 367
#     4   9  18  36  59  84 111 157 203 235 303 360
#     4   9  19  34  58  83 118 156 193 252 312 367
#     4   9  19  37  55  86 118 153 198 245 298 367
#     4  11  22  39  61  90 125 159 201 256 312 364
#
# _framework density 20.310334999999998
#
# number of rings (size 3 to 8) (size 9 to 14) (size 15 to 20)
#    0.000    2.250    1.250    0.750    3.500    4.000 
#    2.250    0.625    0.000    0.000    0.000    0.000 
#    0.000    0.000    0.000    0.000    0.000    0.000 
#
# Total GULP energy -396523.842539 kJ/mol
# GULP energy per Si atom -12391.370079 kJ/mol
# Density = 2.026411 g / cm^3
# Si number density = 20.310335 Si / 1000 Ang^3
#
#
#
# Elastic Constant Matrix: (Units=GPa)
#
#
# Indices 1 2 3 4 5 6 
#
# 1 50.8554 18.5456 24.5841 0.0000 -4.5596 0.0000
# 2 18.5456 99.4190 44.6695 0.0000 3.7307 0.0000
# 3 24.5841 44.6695 119.9538 0.0000 -15.6649 0.0000
# 4 0.0000 0.0000 0.0000 27.5893 0.0000 5.2875
# 5 -4.5596 3.7307 -15.6649 0.0000 25.0405 0.0000
# 6 0.0000 0.0000 0.0000 5.2875 0.0000 22.6512
#
#
#
# Elastic Compliance Matrix: (Units=1/GPa)
#
#
# Indices 1 2 3 4 5 6 
#
# 1 0.022481 -0.002839 -0.003224 0.000000 0.002500 0.000000
# 2 -0.002839 0.013048 -0.005007 0.000000 -0.005593 0.000000
# 3 -0.003224 -0.005007 0.011851 0.000000 0.007573 0.000000
# 4 0.000000 0.000000 0.000000 0.037943 0.000000 -0.008857
# 5 0.002500 -0.005593 0.007573 0.000000 0.045961 0.000000
# 6 0.000000 0.000000 0.000000 -0.008857 0.000000 0.046215
#
#
# Mechanical properties :
#
#
# Convention : Reuss Voigt Hill
#
# Bulk Modulus (GPa) = 39.62033 49.53629 44.57831
# Shear Modulus (GPa) = 24.03223 27.21813 25.62518
#
# Velocity S-wave (km/s) = 3.44357 3.66473 3.55587
# Velocity P-wave (km/s) = 5.94649 6.50766 6.23339
#
# Compressibility (1/GPa) = 0.02523957
#
# Stress axis : x y z
#
# Youngs Moduli (GPa) = 44.48109 76.64126 84.38170
#
# Poissons Ratio (x) = 0.21759 0.27203
# Poissons Ratio (y) = 0.12628 0.42254
# Poissons Ratio (z) = 0.14340 0.38378
#
# Static dielectric constant tensor:
#      x y z
#    x 3.334820 0.000000 -0.337880 
#    y 0.000000 3.817340 0.000000 
#    z -0.337880 0.000000 4.109790 
# 
# 
# High freq. dielectric constant tensor:
#      x y z
#    x 1.756150 0.000000 -0.015590 
#    y 0.000000 1.793550 0.000000 
#    z -0.015590 0.000000 1.809950 
# 
# From -- ./inp_files/29351.got.cif
#   From: 2010.03.12/outbox.cif.g09.slc.cpg/sg14_15_cif.got.tgz:29351.got - 2010.03.31 13:35:05.
