data_PCOD8125022
_publ_section_title
;
Structure prediction by ZEFSAII (Michael W. Deem and Ramdas Pophale) SiO2 
 PCOD8125022
Probable space group: P 21/C
;
_chemical_formula_sum "Si O2"
_cell_formula_units_Z 32
_cell_length_a 30.121476
_cell_length_b 11.849813
_cell_length_c 24.994621
_cell_angle_alpha 90.000000
_cell_angle_beta 10.537285
_cell_angle_gamma 90.000000
_cell_volume 1631.508869
_symmetry_space_group_name_H-M "P 21/C"
_symmetry_group_IT_number 14
_symmetry_cell_setting 'monoclinic'
loop_
_space_group_symop_operation_xyz
x,y,z
-x,1/2+y,1/2-z
-x,-y,-z
x,1/2-y,1/2+z
loop_
_atom_site_type_symbol
_atom_site_label
_atom_site_fract_x
_atom_site_fract_y
_atom_site_fract_z
Si Si1 0.342487 0.212313 0.717742
Si Si2 0.769587 0.371264 0.771710
Si Si3 0.182866 0.812918 0.996122
Si Si4 0.688404 0.871215 0.360720
Si Si5 0.013958 0.463216 0.662358
Si Si6 0.903551 0.602792 0.314321
Si Si7 0.636368 0.169617 0.551087
Si Si8 0.061184 0.641219 0.760559
O O1 0.604948 0.218237 0.435038
O O2 0.370337 0.205028 0.621260
O O3 0.201060 0.100012 0.902582
O O4 0.196420 0.323446 0.908825
O O5 0.692156 0.495626 0.843507
O O6 0.048164 0.341176 0.426808
O O7 0.733817 0.363549 0.877471
O O8 0.471822 0.838325 0.658280
O O9 0.067459 0.817213 0.191848
O O10 0.122742 0.689837 0.042587
O O11 0.052765 0.902568 0.110240
O O12 0.080955 0.438026 0.643702
O O13 0.744606 0.422513 0.964941
O O14 0.651756 0.667590 0.603440
O O15 0.917184 0.493835 0.259549
O O16 0.723283 0.296180 0.462564
#
# Coordination Sequence:
#
# PCOD8125022 Si02
#       8
#     4   4   4   4   4   4   4   4
#     4  11  19  41  58  85 118 159 195 237 309 353
#     4  11  20  35  61  91 120 152 192 249 306 352
#     4  11  21  39  58  87 123 154 191 257 297 338
#     4  11  23  34  59  93 124 148 197 253 296 358
#     4  10  20  36  59  83 117 152 195 243 297 354
#     4  11  22  39  58  87 118 158 197 247 292 342
#     4  11  20  38  61  88 115 157 201 240 301 358
#     4  10  22  40  61  84 121 156 201 239 290 367
#
# _framework density 19.613745000000002
#
# number of rings (size 3 to 8) (size 9 to 14) (size 15 to 20)
#    0.000    1.250    7.500    1.125    1.750    0.000 
#    2.250    0.625    0.000    0.750    0.000    0.000 
#    0.000    0.000    0.000    0.000    0.000    0.000 
#
# Total GULP energy -396751.250835 kJ/mol
# GULP energy per Si atom -12398.476589 kJ/mol
# Density = 1.956910 g / cm^3
# Si number density = 19.613745 Si / 1000 Ang^3
#
#
#
# Elastic Constant Matrix: (Units=GPa)
#
#
# Indices 1 2 3 4 5 6 
#
# 1 52.0864 10.6884 14.4657 0.0000 -16.4548 0.0000
# 2 10.6884 112.7637 38.0335 0.0000 -12.8833 0.0000
# 3 14.4657 38.0335 95.8232 0.0000 -29.6280 0.0000
# 4 0.0000 0.0000 0.0000 21.4890 0.0000 -1.9561
# 5 -16.4548 -12.8833 -29.6280 0.0000 31.8154 0.0000
# 6 0.0000 0.0000 0.0000 -1.9561 0.0000 22.6617
#
#
#
# Elastic Compliance Matrix: (Units=1/GPa)
#
#
# Indices 1 2 3 4 5 6 
#
# 1 0.023057 -0.001028 0.000682 0.000000 0.012144 0.000000
# 2 -0.001028 0.010290 -0.003940 0.000000 -0.000033 0.000000
# 3 0.000682 -0.003940 0.016168 0.000000 0.013814 0.000000
# 4 0.000000 0.000000 0.000000 0.046904 0.000000 0.004049
# 5 0.012144 -0.000033 0.013814 0.000000 0.050562 0.000000
# 6 0.000000 0.000000 0.000000 0.004049 0.000000 0.044477
#
#
# Mechanical properties :
#
#
# Convention : Reuss Voigt Hill
#
# Bulk Modulus (GPa) = 24.42365 43.00538 33.71452
# Shear Modulus (GPa) = 23.39979 28.35893 25.87936
#
# Velocity S-wave (km/s) = 3.45777 3.80659 3.63636
# Velocity P-wave (km/s) = 5.33113 6.42603 5.90402
#
# Compressibility (1/GPa) = 0.04094392
#
# Stress axis : x y z
#
# Youngs Moduli (GPa) = 43.37118 97.17709 61.85181
#
# Poissons Ratio (x) = 0.09991 -0.04219
# Poissons Ratio (y) = 0.04459 0.24367
# Poissons Ratio (z) = -0.02959 0.38284
#
# Static dielectric constant tensor:
#      x y z
#    x 3.579350 0.000000 -0.188140 
#    y 0.000000 3.676270 0.000000 
#    z -0.188140 0.000000 3.639360 
# 
# 
# High freq. dielectric constant tensor:
#      x y z
#    x 1.755580 0.000000 -0.014560 
#    y 0.000000 1.742620 0.000000 
#    z -0.014560 0.000000 1.763000 
# 
# From -- ./inp_files/75323.got.cif
#   From: 2010.03.12/outbox.cif.g09.slc.cpg/sg14_38_cif.got.tgz:75323.got - 2010.03.31 13:35:05.
