data_PCOD8125707
_publ_section_title
;
Structure prediction by ZEFSAII (Michael W. Deem and Ramdas Pophale) SiO2 
 PCOD8125707
Probable space group: P 21/C
;
_chemical_formula_sum "Si O2"
_cell_formula_units_Z 24
_cell_length_a 20.906838
_cell_length_b 9.293573
_cell_length_c 11.716003
_cell_angle_alpha 90.000000
_cell_angle_beta 29.711635
_cell_angle_gamma 90.000000
_cell_volume 1128.268736
_symmetry_space_group_name_H-M "P 21/C"
_symmetry_group_IT_number 14
_symmetry_cell_setting 'monoclinic'
loop_
_space_group_symop_operation_xyz
x,y,z
-x,1/2+y,1/2-z
-x,-y,-z
x,1/2-y,1/2+z
loop_
_atom_site_type_symbol
_atom_site_label
_atom_site_fract_x
_atom_site_fract_y
_atom_site_fract_z
Si Si1 0.812616 0.139582 0.902290
Si Si2 0.637322 0.512472 0.041029
Si Si3 0.721653 0.428204 0.151647
Si Si4 0.849463 0.554544 0.532955
Si Si5 0.938746 0.628147 0.879687
Si Si6 0.396935 0.813633 0.952173
O O1 0.970091 0.122022 0.646488
O O2 0.761567 0.012330 0.066185
O O3 0.799219 0.292646 0.985176
O O4 0.735473 0.135842 0.904356
O O5 0.766389 0.565764 0.777102
O O6 0.662113 0.514827 0.137957
O O7 0.592815 0.357569 0.065119
O O8 0.521642 0.623427 0.194274
O O9 0.608168 0.372731 0.410983
O O10 0.811382 0.532264 0.088624
O O11 0.898602 0.709300 0.414919
O O12 0.970998 0.443038 0.361340
#
# Coordination Sequence:
#
# PCOD8125707 Si02
#       6
#     4   4   4   4   4   4
#     4   9  20  42  63  94 122 168 205 277 307 372
#     4  11  26  42  67  94 129 175 213 264 314 383
#     4  11  22  44  62  93 134 168 209 268 319 377
#     4  10  21  43  64  99 124 166 219 257 329 374
#     4  10  20  41  66  97 127 165 211 262 331 375
#     4  11  24  44  63  92 133 168 221 258 319 376
#
# _framework density 21.271529000000001
#
# number of rings (size 3 to 8) (size 9 to 14) (size 15 to 20)
#    1.000    0.667    3.333    0.500    2.333    3.333 
#    3.000    0.000    0.000    0.000    0.000    0.000 
#    0.000    0.000    0.000    0.000    0.000    0.000 
#
# Total GULP energy -297336.965111 kJ/mol
# GULP energy per Si atom -12389.040213 kJ/mol
# Density = 2.122311 g / cm^3
# Si number density = 21.271529 Si / 1000 Ang^3
#
#
#
# Elastic Constant Matrix: (Units=GPa)
#
#
# Indices 1 2 3 4 5 6 
#
# 1 44.1725 41.6206 16.9647 0.0000 -4.2677 0.0000
# 2 41.6206 118.3698 63.0314 0.0000 -9.6708 0.0000
# 3 16.9647 63.0314 75.4192 0.0000 -4.4415 0.0000
# 4 0.0000 0.0000 0.0000 29.6843 0.0000 -6.9137
# 5 -4.2677 -9.6708 -4.4415 0.0000 28.7251 0.0000
# 6 0.0000 0.0000 0.0000 -6.9137 0.0000 23.1534
#
#
#
# Elastic Compliance Matrix: (Units=1/GPa)
#
#
# Indices 1 2 3 4 5 6 
#
# 1 0.034637 -0.014382 0.004285 0.000000 0.000967 0.000000
# 2 -0.014382 0.021489 -0.014557 0.000000 0.002847 0.000000
# 3 0.004285 -0.014557 0.024432 0.000000 -0.000486 0.000000
# 4 0.000000 0.000000 0.000000 0.036206 0.000000 0.010811
# 5 0.000967 0.002847 -0.000486 0.000000 0.035840 0.000000
# 6 0.000000 0.000000 0.000000 0.010811 0.000000 0.046419
#
#
# Mechanical properties :
#
#
# Convention : Reuss Voigt Hill
#
# Bulk Modulus (GPa) = 31.99799 53.46611 42.73205
# Shear Modulus (GPa) = 19.32397 24.06888 21.69642
#
# Velocity S-wave (km/s) = 3.01731 3.36744 3.19717
# Velocity P-wave (km/s) = 5.21672 6.34895 5.81048
#
# Compressibility (1/GPa) = 0.03125196
#
# Stress axis : x y z
#
# Youngs Moduli (GPa) = 28.87083 46.53567 40.92943
#
# Poissons Ratio (x) = 0.66927 -0.17539
# Poissons Ratio (y) = 0.41521 0.59579
# Poissons Ratio (z) = -0.12372 0.67740
#
# Static dielectric constant tensor:
#      x y z
#    x 3.683430 0.000000 -0.129230 
#    y 0.000000 3.831490 0.000000 
#    z -0.129230 0.000000 3.579590 
# 
# 
# High freq. dielectric constant tensor:
#      x y z
#    x 1.813840 0.000000 -0.013110 
#    y 0.000000 1.844040 0.000000 
#    z -0.013110 0.000000 1.817480 
# 
# From -- ./inp_files/35676.got.cif
#   From: 2010.03.12/outbox.cif.g09.slc.cpg/sg14_18_cif.got.tgz:35676.got - 2010.03.31 13:35:05.
