data_PCOD8125979
_publ_section_title
;
Structure prediction by ZEFSAII (Michael W. Deem and Ramdas Pophale) SiO2 
 PCOD8125979
Probable space group: P 21/C
;
_chemical_formula_sum "Si O2"
_cell_formula_units_Z 16
_cell_length_a 13.767015
_cell_length_b 4.875882
_cell_length_c 26.659398
_cell_angle_alpha 90.000000
_cell_angle_beta 160.530072
_cell_angle_gamma 90.000000
_cell_volume 596.477879
_symmetry_space_group_name_H-M "P 21/C"
_symmetry_group_IT_number 14
_symmetry_cell_setting 'monoclinic'
loop_
_space_group_symop_operation_xyz
x,y,z
-x,1/2+y,1/2-z
-x,-y,-z
x,1/2-y,1/2+z
loop_
_atom_site_type_symbol
_atom_site_label
_atom_site_fract_x
_atom_site_fract_y
_atom_site_fract_z
Si Si1 0.213157 0.556923 0.261218
Si Si2 0.998995 0.894118 0.442590
Si Si3 0.564874 0.018755 0.748114
Si Si4 0.454809 0.947412 0.536133
O O1 0.319322 0.860589 0.324311
O O2 0.210567 0.550587 0.198866
O O3 0.449909 0.358965 0.402360
O O4 0.886966 0.491147 0.120314
O O5 0.339615 0.935562 0.592775
O O6 0.892567 0.573700 0.391879
O O7 0.000000 0.000000 0.500000
O O8 0.459551 0.829017 0.745004
O O9 0.500000 0.000000 0.500000
#
# Coordination Sequence:
#
# PCOD8125979 Si02
#       4
#     4   4   4   4
#     4  12  26  44  73 105 136 181 229 276 346 412
#     4  10  23  40  62  93 134 173 214 266 320 396
#     4  10  21  37  58  84 123 176 218 259 316 376
#     4  12  26  49  73 102 136 176 229 293 346 402
#
# _framework density 26.82413
#
# number of rings (size 3 to 8) (size 9 to 14) (size 15 to 20)
#    0.000    1.000    0.000    6.000    0.000   16.000 
#    0.000    0.000    0.000    0.000    0.000    0.000 
#    0.000    0.000    0.000    0.000    0.000    0.000 
#
# Total GULP energy -198214.813388 kJ/mol
# GULP energy per Si atom -12388.425837 kJ/mol
# Density = 2.676308 g / cm^3
# Si number density = 26.824130 Si / 1000 Ang^3
#
#
#
# Elastic Constant Matrix: (Units=GPa)
#
#
# Indices 1 2 3 4 5 6 
#
# 1 94.3884 11.6914 29.2619 0.0000 -15.6862 0.0000
# 2 11.6914 51.4992 16.8595 0.0000 -9.5625 0.0000
# 3 29.2619 16.8595 148.2184 0.0000 8.9464 -0.0001
# 4 0.0000 0.0000 0.0000 66.9509 0.0000 1.1687
# 5 -15.6862 -9.5625 8.9464 0.0000 62.3226 0.0000
# 6 0.0000 0.0000 -0.0001 1.1687 0.0000 29.0253
#
#
#
# Elastic Compliance Matrix: (Units=1/GPa)
#
#
# Indices 1 2 3 4 5 6 
#
# 1 0.012037 -0.001354 -0.002414 0.000000 0.003168 0.000000
# 2 -0.001354 0.021086 -0.002326 0.000000 0.003228 0.000000
# 3 -0.002414 -0.002326 0.007612 0.000000 -0.002057 0.000000
# 4 0.000000 0.000000 0.000000 0.014947 0.000000 -0.000602
# 5 0.003168 0.003228 -0.002057 0.000000 0.017634 0.000000
# 6 0.000000 0.000000 0.000000 -0.000602 0.000000 0.034477
#
#
# Mechanical properties :
#
#
# Convention : Reuss Voigt Hill
#
# Bulk Modulus (GPa) = 35.02925 45.52575 40.27750
# Shear Modulus (GPa) = 38.61117 47.41263 43.01190
#
# Velocity S-wave (km/s) = 3.79808 4.20877 4.00869
# Velocity P-wave (km/s) = 5.68517 6.37394 6.03938
#
# Compressibility (1/GPa) = 0.02854757
#
# Stress axis : x y z
#
# Youngs Moduli (GPa) = 83.07679 47.42453 131.37064
#
# Poissons Ratio (x) = 0.06422 0.31708
# Poissons Ratio (y) = 0.11250 0.30557
# Poissons Ratio (z) = 0.20051 0.11031
#
# Static dielectric constant tensor:
#      x y z
#    x 5.523980 0.000000 0.908990 
#    y 0.000000 4.795990 0.000000 
#    z 0.908990 0.000000 7.367690 
# 
# 
# High freq. dielectric constant tensor:
#      x y z
#    x 2.076940 0.000000 0.003460 
#    y 0.000000 2.077250 0.000000 
#    z 0.003460 0.000000 2.120970 
# 
# From -- ./inp_files/77378.got.cif
#   From: 2010.03.12/outbox.cif.g09.slc.cpg/sg14_39_cif.got.tgz:77378.got - 2010.03.31 13:35:05.
