data_PCOD8125936
_publ_section_title
;
Structure prediction by ZEFSAII (Michael W. Deem and Ramdas Pophale) SiO2 
 PCOD8125936
Probable space group: P 21/C
;
_chemical_formula_sum "Si O2"
_cell_formula_units_Z 32
_cell_length_a 6.676418
_cell_length_b 18.691127
_cell_length_c 14.512836
_cell_angle_alpha 90.000000
_cell_angle_beta 117.389463
_cell_angle_gamma 90.000000
_cell_volume 1608.034466
_symmetry_space_group_name_H-M "P 21/C"
_symmetry_group_IT_number 14
_symmetry_cell_setting 'monoclinic'
loop_
_space_group_symop_operation_xyz
x,y,z
-x,1/2+y,1/2-z
-x,-y,-z
x,1/2-y,1/2+z
loop_
_atom_site_type_symbol
_atom_site_label
_atom_site_fract_x
_atom_site_fract_y
_atom_site_fract_z
Si Si1 0.069892 0.306718 0.380770
Si Si2 0.669859 0.421284 0.715040
Si Si3 0.760220 0.578717 0.715041
Si Si4 0.894081 0.829834 0.736848
Si Si5 0.256975 0.569775 0.879528
Si Si6 0.420384 0.670167 0.763153
Si Si7 0.497918 0.569775 0.120472
Si Si8 0.308352 0.306719 0.619230
O O1 0.806783 0.321616 0.345545
O O2 0.192967 0.377881 0.368954
O O3 0.081258 0.246636 0.305078
O O4 0.188073 0.281872 0.500000
O O5 0.668665 0.500001 0.668668
O O6 0.656614 0.429483 0.822195
O O7 0.455053 0.377883 0.631045
O O8 0.899504 0.380981 0.741389
O O9 0.583280 0.619021 0.741393
O O10 0.987778 0.570517 0.822195
O O11 0.659667 0.861767 0.650278
O O12 0.884306 0.821615 0.845545
O O13 0.359109 0.638235 0.849723
O O14 0.345844 0.500001 0.845842
O O15 0.327355 0.571313 0.000000
O O16 0.528891 0.746638 0.805077
#
# Coordination Sequence:
#
# PCOD8125936 Si02
#       8
#     4   4   4   4   4   4   4   4
#     4  11  25  43  67  95 125 169 218 264 320 379
#     4  11  23  42  64  92 134 170 209 264 320 379
#     4  11  23  42  64  92 134 170 209 264 320 379
#     4  11  22  44  62  93 130 165 211 271 319 379
#     4  10  21  36  62  96 127 165 210 260 323 385
#     4  11  22  44  62  93 130 165 211 271 319 379
#     4  10  21  36  62  96 127 165 210 260 323 385
#     4  11  25  43  67  95 125 169 218 264 320 379
#
# _framework density 19.900071000000001
#
# number of rings (size 3 to 8) (size 9 to 14) (size 15 to 20)
#    0.000    1.250    5.000    0.750    0.000    4.000 
#    0.000    1.250    0.000    0.000    0.000    0.000 
#    0.000    0.000    0.000    0.000    0.000    0.000 
#
# Total GULP energy -396942.877774 kJ/mol
# GULP energy per Si atom -12404.464930 kJ/mol
# Density = 1.985478 g / cm^3
# Si number density = 19.900071 Si / 1000 Ang^3
#
#
#
# Elastic Constant Matrix: (Units=GPa)
#
#
# Indices 1 2 3 4 5 6 
#
# 1 125.1187 49.9527 37.2375 0.0000 -1.8163 0.0000
# 2 49.9527 123.5307 26.2619 0.0000 -0.8046 0.0000
# 3 37.2375 26.2619 77.4862 0.0000 0.1991 0.0000
# 4 0.0000 0.0000 0.0000 21.2841 0.0000 -0.9071
# 5 -1.8163 -0.8046 0.1991 0.0000 17.2506 0.0000
# 6 0.0000 0.0000 0.0000 -0.9071 0.0000 48.0325
#
#
#
# Elastic Compliance Matrix: (Units=1/GPa)
#
#
# Indices 1 2 3 4 5 6 
#
# 1 0.010536 -0.003424 -0.003905 0.000000 0.000995 0.000000
# 2 -0.003424 0.009840 -0.001690 0.000000 0.000118 0.000000
# 3 -0.003905 -0.001690 0.015357 0.000000 -0.000667 0.000000
# 4 0.000000 0.000000 0.000000 0.047021 0.000000 0.000888
# 5 0.000995 0.000118 -0.000667 0.000000 0.058087 0.000000
# 6 0.000000 0.000000 0.000000 0.000888 0.000000 0.020836
#
#
# Mechanical properties :
#
#
# Convention : Reuss Voigt Hill
#
# Bulk Modulus (GPa) = 56.51509 61.44888 58.98199
# Shear Modulus (GPa) = 26.93775 31.49235 29.21505
#
# Velocity S-wave (km/s) = 3.68319 3.98241 3.83572
# Velocity P-wave (km/s) = 6.82268 7.21747 7.02285
#
# Compressibility (1/GPa) = 0.01769439
#
# Stress axis : x y z
#
# Youngs Moduli (GPa) = 94.91172 101.62947 65.11764
#
# Poissons Ratio (x) = 0.34796 0.25432
# Poissons Ratio (y) = 0.32496 0.11004
# Poissons Ratio (z) = 0.37068 0.17174
#
# Static dielectric constant tensor:
#      x y z
#    x 3.798770 0.000000 -0.016030 
#    y 0.000000 3.877550 0.000000 
#    z -0.016030 0.000000 3.326070 
# 
# 
# High freq. dielectric constant tensor:
#      x y z
#    x 1.793720 0.000000 -0.001320 
#    y 0.000000 1.793360 0.000000 
#    z -0.001320 0.000000 1.754680 
# 
# From -- ./inp_files/37876.got.cif
#   From: 2010.03.12/outbox.cif.g09.slc.cpg/sg14_19_cif.got.tgz:37876.got - 2010.03.31 13:35:05.
