data_PCOD8125731
_publ_section_title
;
Structure prediction by ZEFSAII (Michael W. Deem and Ramdas Pophale) SiO2 
 PCOD8125731
Probable space group: P 21/C
;
_chemical_formula_sum "Si O2"
_cell_formula_units_Z 28
_cell_length_a 14.268464
_cell_length_b 8.814391
_cell_length_c 12.490656
_cell_angle_alpha 90.000000
_cell_angle_beta 118.558419
_cell_angle_gamma 90.000000
_cell_volume 1379.788658
_symmetry_space_group_name_H-M "P 21/C"
_symmetry_group_IT_number 14
_symmetry_cell_setting 'monoclinic'
loop_
_space_group_symop_operation_xyz
x,y,z
-x,1/2+y,1/2-z
-x,-y,-z
x,1/2-y,1/2+z
loop_
_atom_site_type_symbol
_atom_site_label
_atom_site_fract_x
_atom_site_fract_y
_atom_site_fract_z
Si Si1 0.862786 0.604748 0.568745
Si Si2 0.623024 0.057281 0.447501
Si Si3 0.259600 0.837491 0.095322
Si Si4 0.048396 0.739206 0.068550
Si Si5 0.374196 0.053613 0.316292
Si Si6 0.271805 0.176636 0.639041
Si Si7 0.080899 0.072798 0.664498
O O1 0.808206 0.442353 0.522285
O O2 0.781041 0.731853 0.486269
O O3 0.885017 0.634625 0.703563
O O4 0.976096 0.619545 0.568431
O O5 0.685480 0.208559 0.446280
O O6 0.498567 0.092214 0.385045
O O7 0.663733 0.003333 0.587060
O O8 0.638245 0.927673 0.365998
O O9 0.173134 0.778564 0.133787
O O10 0.348445 0.927116 0.212337
O O11 0.033237 0.597399 0.141970
O O12 0.008414 0.687918 0.929035
O O13 0.316959 0.211147 0.254721
O O14 0.183910 0.068473 0.643721
#
# Coordination Sequence:
#
# PCOD8125731 Si02
#       7
#     4   4   4   4   4   4   4
#     4  10  23  37  59  89 121 160 200 251 305 361
#     4  11  22  40  66  89 122 167 207 261 322 371
#     4  11  23  40  62  92 123 162 207 256 308 371
#     4  10  22  39  56  89 122 157 203 250 297 369
#     4  10  24  40  61  95 124 158 211 267 316 368
#     4  10  20  42  60  86 124 160 207 253 307 370
#     4  10  21  38  59  86 119 161 204 240 306 367
#
# _framework density 20.292963
#
# number of rings (size 3 to 8) (size 9 to 14) (size 15 to 20)
#    0.000    1.714    1.429    2.143    4.000    0.000 
#    0.000    0.000    0.000    9.429    0.000    0.000 
#    0.000    0.000    0.000    0.000    0.000    0.000 
#
# Total GULP energy -347182.215708 kJ/mol
# GULP energy per Si atom -12399.364847 kJ/mol
# Density = 2.024677 g / cm^3
# Si number density = 20.292963 Si / 1000 Ang^3
#
#
#
# Elastic Constant Matrix: (Units=GPa)
#
#
# Indices 1 2 3 4 5 6 
#
# 1 87.2121 44.3670 20.6237 0.0000 7.7649 0.0000
# 2 44.3670 105.5514 43.8615 0.0000 -5.1181 0.0000
# 3 20.6237 43.8615 111.2614 0.0000 1.1162 0.0000
# 4 0.0000 0.0000 0.0000 14.7284 0.0000 -0.4222
# 5 7.7649 -5.1181 1.1162 0.0000 24.7808 0.0000
# 6 0.0000 0.0000 0.0000 -0.4222 0.0000 35.6180
#
#
#
# Elastic Compliance Matrix: (Units=1/GPa)
#
#
# Indices 1 2 3 4 5 6 
#
# 1 0.015493 -0.006754 -0.000147 0.000000 -0.006243 0.000000
# 2 -0.006754 0.014437 -0.004493 0.000000 0.005300 0.000000
# 3 -0.000147 -0.004493 0.010800 0.000000 -0.001368 0.000000
# 4 0.000000 0.000000 0.000000 0.067919 0.000000 0.000805
# 5 -0.006243 0.005300 -0.001368 0.000000 0.043466 0.000000
# 6 0.000000 0.000000 0.000000 0.000805 0.000000 0.028085
#
#
# Mechanical properties :
#
#
# Convention : Reuss Voigt Hill
#
# Bulk Modulus (GPa) = 55.73143 57.96992 56.85067
# Shear Modulus (GPa) = 23.92722 28.03696 25.98209
#
# Velocity S-wave (km/s) = 3.43751 3.72103 3.58208
# Velocity P-wave (km/s) = 6.57863 6.86221 6.72192
#
# Compressibility (1/GPa) = 0.01794320
#
# Stress axis : x y z
#
# Youngs Moduli (GPa) = 64.54662 69.26728 92.59428
#
# Poissons Ratio (x) = 0.46783 0.01357
# Poissons Ratio (y) = 0.43594 0.41598
# Poissons Ratio (z) = 0.00946 0.31119
#
# Static dielectric constant tensor:
#      x y z
#    x 3.565020 0.000000 0.091970 
#    y 0.000000 3.708720 0.000000 
#    z 0.091970 0.000000 3.630360 
# 
# 
# High freq. dielectric constant tensor:
#      x y z
#    x 1.788350 0.000000 0.007910 
#    y 0.000000 1.798850 0.000000 
#    z 0.007910 0.000000 1.793690 
# 
# From -- ./inp_files/31478.got.cif
#   From: 2010.03.12/outbox.cif.g09.slc.cpg/sg14_16_cif.got.tgz:31478.got - 2010.03.31 13:35:05.
