data_PCOD8125199
_publ_section_title
;
Structure prediction by ZEFSAII (Michael W. Deem and Ramdas Pophale) SiO2 
 PCOD8125199
Probable space group: P 21/C
;
_chemical_formula_sum "Si O2"
_cell_formula_units_Z 32
_cell_length_a 12.776804
_cell_length_b 14.748952
_cell_length_c 8.966652
_cell_angle_alpha 90.000000
_cell_angle_beta 110.538153
_cell_angle_gamma 90.000000
_cell_volume 1582.315565
_symmetry_space_group_name_H-M "P 21/C"
_symmetry_group_IT_number 14
_symmetry_cell_setting 'monoclinic'
loop_
_space_group_symop_operation_xyz
x,y,z
-x,1/2+y,1/2-z
-x,-y,-z
x,1/2-y,1/2+z
loop_
_atom_site_type_symbol
_atom_site_label
_atom_site_fract_x
_atom_site_fract_y
_atom_site_fract_z
Si Si1 0.380276 0.805512 0.035224
Si Si2 0.716243 0.072680 0.249090
Si Si3 0.003197 0.215380 0.817636
Si Si4 0.455720 0.865093 0.385188
Si Si5 0.095961 0.449427 0.232602
Si Si6 0.089942 0.089463 0.385313
Si Si7 0.665320 0.981135 0.522060
Si Si8 0.153019 0.726906 0.021777
O O1 0.455840 0.835244 0.212265
O O2 0.256646 0.790834 0.037375
O O3 0.374838 0.882830 0.905657
O O4 0.429336 0.716034 0.984941
O O5 0.809630 0.144059 0.353678
O O6 0.782633 0.995224 0.192433
O O7 0.650561 0.031086 0.355613
O O8 0.900700 0.189991 0.656078
O O9 0.945142 0.215580 0.949405
O O10 0.092477 0.133854 0.848108
O O11 0.065666 0.309709 0.813149
O O12 0.580087 0.897558 0.486303
O O13 0.365574 0.945483 0.365998
O O14 0.000136 0.520864 0.228069
O O15 0.079323 0.409520 0.058580
O O16 0.211211 0.057167 0.390391
#
# Coordination Sequence:
#
# PCOD8125199 Si02
#       8
#     4   4   4   4   4   4   4   4
#     4  12  22  39  67  94 118 158 207 263 305 363
#     4  11  21  41  65  92 120 162 207 249 311 371
#     4  12  21  36  58  92 125 161 202 244 302 373
#     4  11  23  42  64  91 120 155 210 262 310 356
#     4  10  20  37  61  87 126 162 197 245 302 374
#     4  10  20  38  60  86 119 169 199 236 311 374
#     4  10  23  42  64  87 120 163 204 259 311 364
#     4  12  20  34  61  92 120 155 205 248 296 363
#
# _framework density 20.223527000000001
#
# number of rings (size 3 to 8) (size 9 to 14) (size 15 to 20)
#    0.000    1.000    6.250    1.500    1.750    0.500 
#    6.750    1.250    0.000    0.000    0.000    0.000 
#    0.000    0.000    0.000    0.000    0.000    0.000 
#
# Total GULP energy -396872.794060 kJ/mol
# GULP energy per Si atom -12402.274814 kJ/mol
# Density = 2.017750 g / cm^3
# Si number density = 20.223527 Si / 1000 Ang^3
#
#
#
# Elastic Constant Matrix: (Units=GPa)
#
#
# Indices 1 2 3 4 5 6 
#
# 1 76.4183 35.0057 12.7114 0.0000 -5.0570 0.0000
# 2 35.0057 118.3688 31.5192 0.0000 -3.6153 0.0000
# 3 12.7114 31.5192 65.1697 0.0000 -1.5027 0.0000
# 4 0.0000 0.0000 0.0000 31.1737 0.0000 -6.0487
# 5 -5.0570 -3.6153 -1.5027 0.0000 18.0526 0.0000
# 6 0.0000 0.0000 0.0000 -6.0487 0.0000 38.3740
#
#
#
# Elastic Compliance Matrix: (Units=1/GPa)
#
#
# Indices 1 2 3 4 5 6 
#
# 1 0.015387 -0.004211 -0.000886 0.000000 0.003393 0.000000
# 2 -0.004211 0.010893 -0.004432 0.000000 0.000633 0.000000
# 3 -0.000886 -0.004432 0.017669 0.000000 0.000335 0.000000
# 4 0.000000 0.000000 0.000000 0.033090 0.000000 0.005216
# 5 0.003393 0.000633 0.000335 0.000000 0.056499 0.000000
# 6 0.000000 0.000000 0.000000 0.005216 0.000000 0.026881
#
#
# Mechanical properties :
#
#
# Convention : Reuss Voigt Hill
#
# Bulk Modulus (GPa) = 40.17778 46.49217 43.33497
# Shear Modulus (GPa) = 26.62761 29.56810 28.09786
#
# Velocity S-wave (km/s) = 3.63252 3.82784 3.73146
# Velocity P-wave (km/s) = 6.12402 6.52500 6.32769
#
# Compressibility (1/GPa) = 0.02488938
#
# Stress axis : x y z
#
# Youngs Moduli (GPa) = 64.99120 91.80178 56.59650
#
# Poissons Ratio (x) = 0.38655 0.05017
# Poissons Ratio (y) = 0.27366 0.25086
# Poissons Ratio (z) = 0.05761 0.40691
#
# Static dielectric constant tensor:
#      x y z
#    x 3.627460 0.000000 -0.188320 
#    y 0.000000 3.779160 0.000000 
#    z -0.188320 0.000000 3.458080 
# 
# 
# High freq. dielectric constant tensor:
#      x y z
#    x 1.785840 0.000000 -0.015650 
#    y 0.000000 1.795060 0.000000 
#    z -0.015650 0.000000 1.764800 
# 
# From -- ./inp_files/13382.got.cif
#   From: 2010.03.12/outbox.cif.g09.slc.cpg/sg14_7_cif.got.tgz:13382.got - 2010.03.31 13:35:05.
