data_PCOD8125268
_publ_section_title
;
Structure prediction by ZEFSAII (Michael W. Deem and Ramdas Pophale) SiO2 
 PCOD8125268
Probable space group: P 21/C
;
_chemical_formula_sum "Si O2"
_cell_formula_units_Z 28
_cell_length_a 12.153903
_cell_length_b 16.013083
_cell_length_c 8.798649
_cell_angle_alpha 90.000000
_cell_angle_beta 54.842458
_cell_angle_gamma 90.000000
_cell_volume 1400.014817
_symmetry_space_group_name_H-M "P 21/C"
_symmetry_group_IT_number 14
_symmetry_cell_setting 'monoclinic'
loop_
_space_group_symop_operation_xyz
x,y,z
-x,1/2+y,1/2-z
-x,-y,-z
x,1/2-y,1/2+z
loop_
_atom_site_type_symbol
_atom_site_label
_atom_site_fract_x
_atom_site_fract_y
_atom_site_fract_z
Si Si1 0.060966 0.693330 0.572577
Si Si2 0.016255 0.349146 0.691965
Si Si3 0.927323 0.523006 0.713219
Si Si4 0.355944 0.000366 0.690431
Si Si5 0.354880 0.675952 0.321991
Si Si6 0.529657 0.774106 0.945287
Si Si7 0.324657 0.349386 0.397445
O O1 0.214852 0.709094 0.502777
O O2 0.988165 0.780623 0.670863
O O3 0.069425 0.681805 0.384399
O O4 0.988840 0.613352 0.715105
O O5 0.165908 0.350902 0.508781
O O6 0.965455 0.442043 0.789490
O O7 0.764859 0.531937 0.825226
O O8 0.000000 0.500000 0.500000
O O9 0.373190 0.057292 0.825285
O O10 0.500000 0.000000 0.500000
O O11 0.315274 0.910425 0.778643
O O12 0.416706 0.734384 0.142775
O O13 0.458740 0.665885 0.378899
O O14 0.631195 0.826656 0.967944
O O15 0.615394 0.706558 0.785389
#
# Coordination Sequence:
#
# PCOD8125268 Si02
#       7
#     4   4   4   4   4   4   4
#     4  11  21  37  64  88 118 161 206 251 305 359
#     4  11  21  37  64  88 118 161 206 251 305 359
#     4  10  20  38  57  89 117 158 203 246 293 379
#     4  12  22  37  64  88 121 163 203 251 311 364
#     4  11  21  39  58  89 120 164 201 250 303 367
#     4  10  24  36  58  88 130 152 206 252 294 374
#     4  11  21  39  58  89 120 164 201 250 303 367
#
# _framework density 19.999789
#
# number of rings (size 3 to 8) (size 9 to 14) (size 15 to 20)
#    0.000    1.143    7.143    1.714    0.000    0.571 
#    0.000    0.714    0.000    1.714    0.000    0.000 
#    0.000    0.000    0.000    0.000    0.000    0.000 
#
# Total GULP energy -347006.698395 kJ/mol
# GULP energy per Si atom -12393.096371 kJ/mol
# Density = 1.995427 g / cm^3
# Si number density = 19.999789 Si / 1000 Ang^3
#
#
#
# Elastic Constant Matrix: (Units=GPa)
#
#
# Indices 1 2 3 4 5 6 
#
# 1 95.2503 17.9473 31.5769 0.0000 -20.4619 0.0000
# 2 17.9473 65.4430 14.5814 0.0000 -0.0601 0.0000
# 3 31.5769 14.5814 63.5590 0.0000 -17.3863 0.0000
# 4 0.0000 0.0000 0.0000 37.0834 0.0000 -1.4003
# 5 -20.4619 -0.0601 -17.3863 0.0000 37.3728 0.0000
# 6 0.0000 0.0000 0.0000 -1.4003 0.0000 32.5326
#
#
#
# Elastic Compliance Matrix: (Units=1/GPa)
#
#
# Indices 1 2 3 4 5 6 
#
# 1 0.013719 -0.002700 -0.004747 0.000000 0.005299 0.000000
# 2 -0.002700 0.016759 -0.003323 0.000000 -0.002997 0.000000
# 3 -0.004747 -0.003323 0.020787 0.000000 0.007066 0.000000
# 4 0.000000 0.000000 0.000000 0.027010 0.000000 0.001163
# 5 0.005299 -0.002997 0.007066 0.000000 0.032941 0.000000
# 6 0.000000 0.000000 0.000000 0.001163 0.000000 0.030788
#
#
# Mechanical properties :
#
#
# Convention : Reuss Voigt Hill
#
# Bulk Modulus (GPa) = 33.64214 39.16261 36.40238
# Shear Modulus (GPa) = 28.82620 32.07421 30.45021
#
# Velocity S-wave (km/s) = 3.80060 4.00900 3.90619
# Velocity P-wave (km/s) = 6.00976 6.40730 6.21171
#
# Compressibility (1/GPa) = 0.02972462
#
# Stress axis : x y z
#
# Youngs Moduli (GPa) = 72.88947 59.67084 48.10670
#
# Poissons Ratio (x) = 0.16110 0.22837
# Poissons Ratio (y) = 0.19679 0.15987
# Poissons Ratio (z) = 0.34602 0.19830
#
# Static dielectric constant tensor:
#      x y z
#    x 4.139370 0.000000 -0.540500 
#    y 0.000000 4.100640 0.000000 
#    z -0.540500 0.000000 3.663050 
# 
# 
# High freq. dielectric constant tensor:
#      x y z
#    x 1.784030 0.000000 -0.028410 
#    y 0.000000 1.787280 0.000000 
#    z -0.028410 0.000000 1.760300 
# 
# From -- ./inp_files/13235.got.cif
#   From: 2010.03.12/outbox.cif.g09.slc.cpg/sg14_7_cif.got.tgz:13235.got - 2010.03.31 13:35:05.
