data_PCOD8125765
_publ_section_title
;
Structure prediction by ZEFSAII (Michael W. Deem and Ramdas Pophale) SiO2 
 PCOD8125765
Probable space group: P 21/C
;
_chemical_formula_sum "Si O2"
_cell_formula_units_Z 24
_cell_length_a 19.576639
_cell_length_b 11.644153
_cell_length_c 14.108725
_cell_angle_alpha 90.000000
_cell_angle_beta 20.909346
_cell_angle_gamma 90.000000
_cell_volume 1147.806412
_symmetry_space_group_name_H-M "P 21/C"
_symmetry_group_IT_number 14
_symmetry_cell_setting 'monoclinic'
loop_
_space_group_symop_operation_xyz
x,y,z
-x,1/2+y,1/2-z
-x,-y,-z
x,1/2-y,1/2+z
loop_
_atom_site_type_symbol
_atom_site_label
_atom_site_fract_x
_atom_site_fract_y
_atom_site_fract_z
Si Si1 0.627063 0.542710 0.422344
Si Si2 0.345551 0.792731 0.097059
Si Si3 0.038200 0.042551 0.057172
Si Si4 0.678017 0.325392 0.068785
Si Si5 0.765809 0.734598 0.133424
Si Si6 0.889865 0.311688 0.440187
O O1 0.500000 0.500000 0.500000
O O2 0.691367 0.424252 0.388765
O O3 0.515631 0.620480 0.642027
O O4 0.798953 0.622987 0.158968
O O5 0.348766 0.710224 0.003963
O O6 0.542253 0.766405 0.897379
O O7 0.165518 0.765445 0.397677
O O8 0.839643 0.076723 0.364225
O O9 0.128451 0.943772 0.005543
O O10 0.182215 0.151246 0.873947
O O11 0.000000 0.000000 0.000000
O O12 0.741644 0.214423 0.047320
O O13 0.895330 0.721424 0.871454
#
# Coordination Sequence:
#
# PCOD8125765 Si02
#       6
#     4   4   4   4   4   4
#     4  10  20  42  67  90 132 170 217 272 330 389
#     4  11  23  44  68 100 131 176 221 278 333 402
#     4  11  23  42  65  95 136 176 221 278 331 388
#     4  11  23  43  68  98 129 179 220 275 341 393
#     4  10  24  40  70  97 128 185 222 267 345 392
#     4  11  23  43  65  95 138 169 224 276 330 398
#
# _framework density 20.909448999999999
#
# number of rings (size 3 to 8) (size 9 to 14) (size 15 to 20)
#    0.000    1.333    5.000    2.000    2.333    4.667 
#    0.000    5.000    0.000    0.000    0.000    0.000 
#    0.000    0.000    0.000    0.000    0.000    0.000 
#
# Total GULP energy -297508.149317 kJ/mol
# GULP energy per Si atom -12396.172888 kJ/mol
# Density = 2.086186 g / cm^3
# Si number density = 20.909449 Si / 1000 Ang^3
#
#
#
# Elastic Constant Matrix: (Units=GPa)
#
#
# Indices 1 2 3 4 5 6 
#
# 1 77.8260 44.4344 35.9234 0.0000 19.0553 0.0000
# 2 44.4344 150.5525 67.2157 0.0000 0.5501 0.0000
# 3 35.9234 67.2157 126.7942 0.0000 30.4446 0.0000
# 4 0.0000 0.0000 0.0000 34.8393 0.0000 3.3621
# 5 19.0553 0.5501 30.4446 0.0000 28.0181 0.0000
# 6 0.0000 0.0000 0.0000 3.3621 0.0000 41.0736
#
#
#
# Elastic Compliance Matrix: (Units=1/GPa)
#
#
# Indices 1 2 3 4 5 6 
#
# 1 0.019348 -0.006233 0.001289 0.000000 -0.014437 0.000000
# 2 -0.006233 0.011699 -0.007305 0.000000 0.011947 0.000000
# 3 0.001289 -0.007305 0.015654 0.000000 -0.017743 0.000000
# 4 0.000000 0.000000 0.000000 0.028932 0.000000 -0.002368
# 5 -0.014437 0.011947 -0.017743 0.000000 0.064555 0.000000
# 6 0.000000 0.000000 0.000000 -0.002368 0.000000 0.024540
#
#
# Mechanical properties :
#
#
# Convention : Reuss Voigt Hill
#
# Bulk Modulus (GPa) = 45.03665 72.25775 58.64720
# Shear Modulus (GPa) = 25.42878 34.62613 30.02746
#
# Velocity S-wave (km/s) = 3.49110 4.07382 3.79366
# Velocity P-wave (km/s) = 6.15110 7.53395 6.87737
#
# Compressibility (1/GPa) = 0.02220414
#
# Stress axis : x y z
#
# Youngs Moduli (GPa) = 51.68568 85.47410 63.88044
#
# Poissons Ratio (x) = 0.53277 -0.08235
# Poissons Ratio (y) = 0.32216 0.46662
# Poissons Ratio (z) = -0.06663 0.62436
#
# Static dielectric constant tensor:
#      x y z
#    x 3.623500 0.000000 0.218550 
#    y 0.000000 4.476310 0.000000 
#    z 0.218550 0.000000 3.836930 
# 
# 
# High freq. dielectric constant tensor:
#      x y z
#    x 1.801020 0.000000 0.024010 
#    y 0.000000 1.834830 0.000000 
#    z 0.024010 0.000000 1.819030 
# 
# From -- ./inp_files/50411.got.cif
#   From: 2010.03.12/outbox.cif.g09.slc.cpg/sg14_26_cif.got.tgz:50411.got - 2010.03.31 13:35:05.
