data_PCOD8125986
_publ_section_title
;
Structure prediction by ZEFSAII (Michael W. Deem and Ramdas Pophale) SiO2 
 PCOD8125986
Probable space group: P 21/C
;
_chemical_formula_sum "Si O2"
_cell_formula_units_Z 32
_cell_length_a 11.928051
_cell_length_b 8.548352
_cell_length_c 32.667680
_cell_angle_alpha 90.000000
_cell_angle_beta 27.005607
_cell_angle_gamma 90.000000
_cell_volume 1512.517275
_symmetry_space_group_name_H-M "P 21/C"
_symmetry_group_IT_number 14
_symmetry_cell_setting 'monoclinic'
loop_
_space_group_symop_operation_xyz
x,y,z
-x,1/2+y,1/2-z
-x,-y,-z
x,1/2-y,1/2+z
loop_
_atom_site_type_symbol
_atom_site_label
_atom_site_fract_x
_atom_site_fract_y
_atom_site_fract_z
Si Si1 0.869148 0.152131 0.092243
Si Si2 0.337989 0.164796 0.238530
Si Si3 0.826622 0.646022 0.784158
Si Si4 0.316993 0.188732 0.405713
Si Si5 0.044965 0.633136 0.861073
Si Si6 0.295167 0.933189 0.475549
Si Si7 0.132737 0.296193 0.384293
Si Si8 0.122936 0.696928 0.257569
O O1 0.634466 0.168146 0.138591
O O2 0.831493 0.265826 0.143182
O O3 0.892409 0.976286 0.098902
O O4 0.117598 0.187445 0.986773
O O5 0.225278 0.220598 0.232418
O O6 0.257579 0.285009 0.299648
O O7 0.245799 0.992100 0.280255
O O8 0.580747 0.606944 0.890260
O O9 0.925806 0.488115 0.730608
O O10 0.034296 0.711361 0.746458
O O11 0.298496 0.194649 0.362478
O O12 0.588791 0.238926 0.331508
O O13 0.261195 0.015561 0.441861
O O14 0.974097 0.744407 0.846051
O O15 0.796720 0.550284 0.958654
O O16 0.141385 0.774756 0.526613
#
# Coordination Sequence:
#
# PCOD8125986 Si02
#       8
#     4   4   4   4   4   4   4   4
#     4  11  21  35  59  90 123 155 195 246 299 356
#     4  11  22  37  59  87 121 158 200 245 298 355
#     4  11  24  42  64  87 117 160 205 250 300 359
#     4  10  21  37  58  86 122 158 194 243 303 358
#     4  10  22  40  60  89 124 159 199 249 304 361
#     4   9  22  40  61  89 124 161 197 245 306 362
#     4  11  21  35  60  91 121 155 198 246 296 354
#     4  11  23  40  62  85 116 157 204 250 299 358
#
# _framework density 21.156780999999999
#
# number of rings (size 3 to 8) (size 9 to 14) (size 15 to 20)
#    0.000    1.500    0.000    5.250    0.000    8.500 
#    0.000    3.750    0.000   11.250    0.000    0.000 
#    0.000    0.000    0.000    0.000    0.000    0.000 
#
# Total GULP energy -396901.549766 kJ/mol
# GULP energy per Si atom -12403.173430 kJ/mol
# Density = 2.110863 g / cm^3
# Si number density = 21.156781 Si / 1000 Ang^3
#
#
#
# Elastic Constant Matrix: (Units=GPa)
#
#
# Indices 1 2 3 4 5 6 
#
# 1 98.9949 13.6706 31.6329 0.0000 9.3782 0.0000
# 2 13.6706 83.5831 16.3472 0.0000 0.7590 0.0000
# 3 31.6329 16.3472 78.0556 0.0000 1.5385 0.0000
# 4 0.0000 0.0000 0.0000 31.0948 0.0000 7.2004
# 5 9.3782 0.7590 1.5385 0.0000 26.7333 0.0000
# 6 0.0000 0.0000 0.0000 7.2004 0.0000 29.9134
#
#
#
# Elastic Compliance Matrix: (Units=1/GPa)
#
#
# Indices 1 2 3 4 5 6 
#
# 1 0.012090 -0.001041 -0.004604 0.000000 -0.003947 0.000000
# 2 -0.001041 0.012566 -0.002212 0.000000 0.000136 0.000000
# 3 -0.004604 -0.002212 0.015125 0.000000 0.000807 0.000000
# 4 0.000000 0.000000 0.000000 0.034058 0.000000 -0.008198
# 5 -0.003947 0.000136 0.000807 0.000000 0.038741 0.000000
# 6 0.000000 0.000000 0.000000 -0.008198 0.000000 0.035403
#
#
# Mechanical properties :
#
#
# Convention : Reuss Voigt Hill
#
# Bulk Modulus (GPa) = 41.55263 42.65944 42.10604
# Shear Modulus (GPa) = 29.11721 30.81382 29.96551
#
# Velocity S-wave (km/s) = 3.71382 3.82049 3.76753
# Velocity P-wave (km/s) = 6.17033 6.29831 6.23465
#
# Compressibility (1/GPa) = 0.02406586
#
# Stress axis : x y z
#
# Youngs Moduli (GPa) = 82.71065 79.58038 66.11747
#
# Poissons Ratio (x) = 0.08286 0.30440
# Poissons Ratio (y) = 0.08612 0.14628
# Poissons Ratio (z) = 0.38079 0.17606
#
# Static dielectric constant tensor:
#      x y z
#    x 3.725090 0.000000 0.172310 
#    y 0.000000 3.898730 0.000000 
#    z 0.172310 0.000000 4.037200 
# 
# 
# High freq. dielectric constant tensor:
#      x y z
#    x 1.815170 0.000000 0.008010 
#    y 0.000000 1.841830 0.000000 
#    z 0.008010 0.000000 1.833590 
# 
# From -- ./inp_files/79986.got.cif
#   From: 2010.03.12/outbox.cif.g09.slc.cpg/sg14_40_cif.got.tgz:79986.got - 2010.03.31 13:35:05.
