data_PCOD8125292
_publ_section_title
;
Structure prediction by ZEFSAII (Michael W. Deem and Ramdas Pophale) SiO2 
 PCOD8125292
Probable space group: P 21/C
;
_chemical_formula_sum "Si O2"
_cell_formula_units_Z 12
_cell_length_a 9.990153
_cell_length_b 14.656122
_cell_length_c 4.925374
_cell_angle_alpha 90.000000
_cell_angle_beta 54.521891
_cell_angle_gamma 90.000000
_cell_volume 587.265877
_symmetry_space_group_name_H-M "P 21/C"
_symmetry_group_IT_number 14
_symmetry_cell_setting 'monoclinic'
loop_
_space_group_symop_operation_xyz
x,y,z
-x,1/2+y,1/2-z
-x,-y,-z
x,1/2-y,1/2+z
loop_
_atom_site_type_symbol
_atom_site_label
_atom_site_fract_x
_atom_site_fract_y
_atom_site_fract_z
Si Si1 0.187069 0.506246 0.196253
Si Si2 0.356342 0.689766 0.846067
Si Si3 0.636255 0.938139 0.983055
O O1 0.305269 0.481227 0.305181
O O2 0.000000 0.500000 0.500000
O O3 0.784586 0.564930 0.088162
O O4 0.227982 0.608613 0.052308
O O5 0.323393 0.725715 0.583048
O O6 0.547852 0.658216 0.647317
O O7 0.500000 0.000000 0.000000
#
# Coordination Sequence:
#
# PCOD8125292 Si02
#       3
#     4   4   4
#     4  11  22  39  61  86 118 156 190 232 293 356
#     4  11  21  37  59  86 114 150 196 246 283 327
#     4  10  20  38  60  82 110 154 197 226 276 355
#
# _framework density 20.433672999999999
#
# number of rings (size 3 to 8) (size 9 to 14) (size 15 to 20)
#    0.000    1.333    0.000   11.000    0.000    0.000 
#    0.000   10.000    0.000    0.000    0.000    0.000 
#    0.000    0.000    0.000    0.000    0.000    0.000 
#
# Total GULP energy -148768.699367 kJ/mol
# GULP energy per Si atom -12397.391614 kJ/mol
# Density = 2.038716 g / cm^3
# Si number density = 20.433673 Si / 1000 Ang^3
#
#
#
# Elastic Constant Matrix: (Units=GPa)
#
#
# Indices 1 2 3 4 5 6 
#
# 1 47.9573 28.5710 19.2695 0.0000 2.2444 0.0000
# 2 28.5710 79.9714 53.6626 0.0000 -9.0472 0.0000
# 3 19.2695 53.6626 148.8987 0.0000 -13.5509 0.0000
# 4 0.0000 0.0000 0.0000 35.9831 0.0000 8.9567
# 5 2.2444 -9.0472 -13.5509 0.0000 49.1923 0.0000
# 6 0.0000 0.0000 0.0000 8.9567 0.0000 24.9256
#
#
#
# Elastic Compliance Matrix: (Units=1/GPa)
#
#
# Indices 1 2 3 4 5 6 
#
# 1 0.026940 -0.009822 -0.000229 0.000000 -0.003099 0.000000
# 2 -0.009822 0.020173 -0.005765 0.000000 0.002570 0.000000
# 3 -0.000229 -0.005765 0.008952 0.000000 0.001416 0.000000
# 4 0.000000 0.000000 0.000000 0.030521 0.000000 -0.010967
# 5 -0.003099 0.002570 0.001416 0.000000 0.021333 0.000000
# 6 0.000000 0.000000 0.000000 -0.010967 0.000000 0.044060
#
#
# Mechanical properties :
#
#
# Convention : Reuss Voigt Hill
#
# Bulk Modulus (GPa) = 40.92702 53.31484 47.12093
# Shear Modulus (GPa) = 26.07492 33.70849 29.89171
#
# Velocity S-wave (km/s) = 3.57610 4.06600 3.82889
# Velocity P-wave (km/s) = 6.09294 6.94201 6.53129
#
# Compressibility (1/GPa) = 0.02443373
#
# Stress axis : x y z
#
# Youngs Moduli (GPa) = 37.11911 49.57156 111.70417
#
# Poissons Ratio (x) = 0.48689 0.02554
# Poissons Ratio (y) = 0.36458 0.64400
# Poissons Ratio (z) = 0.00849 0.28579
#
# Static dielectric constant tensor:
#      x y z
#    x 3.528990 0.000000 0.087040 
#    y 0.000000 3.739210 0.000000 
#    z 0.087040 0.000000 4.720970 
# 
# 
# High freq. dielectric constant tensor:
#      x y z
#    x 1.785010 0.000000 0.017510 
#    y 0.000000 1.778750 0.000000 
#    z 0.017510 0.000000 1.830860 
# 
# From -- ./inp_files/116.got.cif
#   From: 2010.03.12/outbox.cif.g09.slc.cpg/sg14_1_cif.got.tgz:116.got - 2010.03.31 13:35:05.
