data_PCOD8125357
_publ_section_title
;
Structure prediction by ZEFSAII (Michael W. Deem and Ramdas Pophale) SiO2 
 PCOD8125357
Probable space group: P 21/C
;
_chemical_formula_sum "Si O2"
_cell_formula_units_Z 32
_cell_length_a 14.042040
_cell_length_b 14.112926
_cell_length_c 8.627518
_cell_angle_alpha 90.000000
_cell_angle_beta 61.210956
_cell_angle_gamma 90.000000
_cell_volume 1498.424656
_symmetry_space_group_name_H-M "P 21/C"
_symmetry_group_IT_number 14
_symmetry_cell_setting 'monoclinic'
loop_
_space_group_symop_operation_xyz
x,y,z
-x,1/2+y,1/2-z
-x,-y,-z
x,1/2-y,1/2+z
loop_
_atom_site_type_symbol
_atom_site_label
_atom_site_fract_x
_atom_site_fract_y
_atom_site_fract_z
Si Si1 0.435572 0.751685 0.403094
Si Si2 0.781065 0.710213 0.268288
Si Si3 0.920274 0.680462 0.447728
Si Si4 0.307579 0.643057 0.751159
Si Si5 0.739657 0.546091 0.059302
Si Si6 0.063485 0.858000 0.374518
Si Si7 0.582987 0.675054 0.025510
Si Si8 0.968218 0.469997 0.797172
O O1 0.389350 0.668193 0.548566
O O2 0.339301 0.798600 0.380257
O O3 0.528105 0.703505 0.229117
O O4 0.490888 0.834872 0.464853
O O5 0.836235 0.664904 0.373797
O O6 0.779488 0.636682 0.126371
O O7 0.660584 0.739674 0.410159
O O8 0.850125 0.803327 0.158827
O O9 0.999257 0.768915 0.359803
O O10 0.994138 0.584493 0.390248
O O11 0.312943 0.531073 0.784106
O O12 0.187876 0.672995 0.792649
O O13 0.651057 0.578667 0.000834
O O14 0.842592 0.501942 0.888140
O O15 0.015883 0.893489 0.576083
O O16 0.049082 0.942156 0.261028
#
# Coordination Sequence:
#
# PCOD8125357 Si02
#       8
#     4   4   4   4   4   4   4   4
#     4  10  23  44  64  96 123 165 222 266 328 375
#     4  12  21  38  67  97 121 169 213 259 319 382
#     4  12  21  35  65  93 129 168 210 253 323 380
#     4  10  24  39  67  90 128 170 213 261 315 388
#     4  11  22  41  68  96 129 167 217 258 321 389
#     4  10  20  38  62  89 130 169 208 250 317 383
#     4  11  21  43  69  90 127 160 213 279 321 370
#     4  10  20  39  60  97 128 169 207 257 307 403
#
# _framework density 21.355761000000001
#
# number of rings (size 3 to 8) (size 9 to 14) (size 15 to 20)
#    0.000    1.250    5.000    1.500    3.500    1.000 
#    0.000    2.500   11.000    0.000    0.000    0.000 
#    0.000    0.000    0.000    0.000    0.000    0.000 
#
# Total GULP energy -396761.291907 kJ/mol
# GULP energy per Si atom -12398.790372 kJ/mol
# Density = 2.130715 g / cm^3
# Si number density = 21.355761 Si / 1000 Ang^3
#
#
#
# Elastic Constant Matrix: (Units=GPa)
#
#
# Indices 1 2 3 4 5 6 
#
# 1 113.8329 45.1431 40.2808 0.0000 -12.0290 0.0000
# 2 45.1431 86.5714 26.4601 0.0000 -10.0098 0.0000
# 3 40.2808 26.4601 84.4171 0.0000 -14.2510 0.0000
# 4 0.0000 0.0000 0.0000 33.9662 0.0000 -3.6790
# 5 -12.0290 -10.0098 -14.2510 0.0000 24.2174 0.0000
# 6 0.0000 0.0000 0.0000 -3.6790 0.0000 31.8078
#
#
#
# Elastic Compliance Matrix: (Units=1/GPa)
#
#
# Indices 1 2 3 4 5 6 
#
# 1 0.012391 -0.005027 -0.004051 0.000000 0.001693 0.000000
# 2 -0.005027 0.015049 -0.001876 0.000000 0.002619 0.000000
# 3 -0.004051 -0.001876 0.015429 0.000000 0.006292 0.000000
# 4 0.000000 0.000000 0.000000 0.029815 0.000000 0.003448
# 5 0.001693 0.002619 0.006292 0.000000 0.046919 0.000000
# 6 0.000000 0.000000 0.000000 0.003448 0.000000 0.031838
#
#
# Mechanical properties :
#
#
# Convention : Reuss Voigt Hill
#
# Bulk Modulus (GPa) = 47.70910 56.50994 52.10952
# Shear Modulus (GPa) = 27.72618 29.52744 28.62681
#
# Velocity S-wave (km/s) = 3.60710 3.72243 3.66522
# Velocity P-wave (km/s) = 6.30372 6.70775 6.50887
#
# Compressibility (1/GPa) = 0.02096036
#
# Stress axis : x y z
#
# Youngs Moduli (GPa) = 80.70459 66.44986 64.81279
#
# Poissons Ratio (x) = 0.33407 0.26255
# Poissons Ratio (y) = 0.40573 0.12159
# Poissons Ratio (z) = 0.32692 0.12466
#
# Static dielectric constant tensor:
#      x y z
#    x 3.996190 0.000000 -0.080280 
#    y 0.000000 3.768520 0.000000 
#    z -0.080280 0.000000 3.786760 
# 
# 
# High freq. dielectric constant tensor:
#      x y z
#    x 1.850590 0.000000 -0.007450 
#    y 0.000000 1.820860 0.000000 
#    z -0.007450 0.000000 1.829110 
# 
# From -- ./inp_files/16237.got.cif
#   From: 2010.03.12/outbox.cif.g09.slc.cpg/sg14_9_cif.got.tgz:16237.got - 2010.03.31 13:35:05.
