data_PCOD8125676
_publ_section_title
;
Structure prediction by ZEFSAII (Michael W. Deem and Ramdas Pophale) SiO2 
 PCOD8125676
Probable space group: P 21/C
;
_chemical_formula_sum "Si O2"
_cell_formula_units_Z 32
_cell_length_a 5.081266
_cell_length_b 18.550255
_cell_length_c 15.711761
_cell_angle_alpha 90.000000
_cell_angle_beta 60.976502
_cell_angle_gamma 90.000000
_cell_volume 1294.992224
_symmetry_space_group_name_H-M "P 21/C"
_symmetry_group_IT_number 14
_symmetry_cell_setting 'monoclinic'
loop_
_space_group_symop_operation_xyz
x,y,z
-x,1/2+y,1/2-z
-x,-y,-z
x,1/2-y,1/2+z
loop_
_atom_site_type_symbol
_atom_site_label
_atom_site_fract_x
_atom_site_fract_y
_atom_site_fract_z
Si Si1 0.672974 0.082072 0.094355
Si Si2 0.906714 0.683659 0.077149
Si Si3 0.314415 0.878468 0.728030
Si Si4 0.308329 0.469773 0.189240
Si Si5 0.182307 0.339569 0.450643
Si Si6 0.367945 0.554719 0.686699
Si Si7 0.417096 0.349507 0.043846
Si Si8 0.776900 0.795266 0.860947
O O1 0.796775 0.076574 0.171226
O O2 0.486335 0.155445 0.132293
O O3 0.484821 0.009829 0.105908
O O4 0.933718 0.095290 0.982708
O O5 0.657211 0.650443 0.179834
O O6 0.898642 0.769844 0.091983
O O7 0.819561 0.656476 0.996134
O O8 0.246306 0.660767 0.047662
O O9 0.076496 0.812018 0.756011
O O10 0.293547 0.945047 0.663396
O O11 0.547880 0.456857 0.227530
O O12 0.411197 0.426776 0.089413
O O13 0.986689 0.438868 0.268035
O O14 0.499250 0.370591 0.369856
O O15 0.177646 0.314021 0.547934
O O16 0.329012 0.288170 0.127894
#
# Coordination Sequence:
#
# PCOD8125676 Si02
#       8
#     4   4   4   4   4   4   4   4
#     4  10  20  41  63  89 132 166 198 260 321 369
#     4  11  25  42  66  94 122 166 217 255 309 374
#     4  10  24  41  64  94 124 167 212 256 310 375
#     4  11  25  43  63  94 128 166 212 256 313 365
#     4  10  23  39  60  97 126 162 209 257 312 378
#     4  11  24  39  65  97 125 165 211 253 309 384
#     4  11  25  44  64  92 128 165 208 265 315 359
#     4  10  21  41  64  87 134 163 201 259 321 365
#
# _framework density 24.710573
#
# number of rings (size 3 to 8) (size 9 to 14) (size 15 to 20)
#    0.000    1.500    2.500    1.125    5.250    2.500 
#    0.000    0.000    0.000    0.000    0.000    0.000 
#    0.000    0.000    0.000    0.000    0.000    0.000 
#
# Total GULP energy -396635.665611 kJ/mol
# GULP energy per Si atom -12394.864550 kJ/mol
# Density = 2.465433 g / cm^3
# Si number density = 24.710573 Si / 1000 Ang^3
#
#
#
# Elastic Constant Matrix: (Units=GPa)
#
#
# Indices 1 2 3 4 5 6 
#
# 1 46.5373 -8.8708 -8.4986 0.0000 -19.4406 0.0000
# 2 -8.8708 66.1948 20.3087 0.0000 -1.9815 0.0000
# 3 -8.4986 20.3087 72.5037 0.0000 -30.4135 0.0000
# 4 0.0000 0.0000 0.0000 40.1305 0.0000 -11.3711
# 5 -19.4406 -1.9815 -30.4135 0.0000 36.2793 0.0000
# 6 0.0000 0.0000 0.0000 -11.3711 0.0000 26.7462
#
#
#
# Elastic Compliance Matrix: (Units=1/GPa)
#
#
# Indices 1 2 3 4 5 6 
#
# 1 0.043403 0.000071 0.022866 0.000000 0.042431 0.000000
# 2 0.000071 0.017039 -0.006722 0.000000 -0.004666 0.000000
# 3 0.022866 -0.006722 0.036001 0.000000 0.042066 0.000000
# 4 0.000000 0.000000 0.000000 0.028332 0.000000 0.012045
# 5 0.042431 -0.004666 0.042066 0.000000 0.085311 0.000000
# 6 0.000000 0.000000 0.000000 0.012045 0.000000 0.042510
#
#
# Mechanical properties :
#
#
# Convention : Reuss Voigt Hill
#
# Bulk Modulus (GPa) = 7.75951 21.23492 14.49722
# Shear Modulus (GPa) = 19.00262 32.78431 25.89347
#
# Velocity S-wave (km/s) = 2.77611 3.64638 3.24059
# Velocity P-wave (km/s) = 3.66370 5.13228 4.45886
#
# Compressibility (1/GPa) = 0.12887405
#
# Stress axis : x y z
#
# Youngs Moduli (GPa) = 23.04011 58.68885 27.77682
#
# Poissons Ratio (x) = -0.00418 -0.63515
# Poissons Ratio (y) = -0.00164 0.18671
# Poissons Ratio (z) = -0.52684 0.39449
#
# Static dielectric constant tensor:
#      x y z
#    x 4.171890 0.000000 -0.149750 
#    y 0.000000 4.776510 0.000000 
#    z -0.149750 0.000000 4.383650 
# 
# 
# High freq. dielectric constant tensor:
#      x y z
#    x 1.972250 0.000000 -0.009950 
#    y 0.000000 1.987590 0.000000 
#    z -0.009950 0.000000 1.976050 
# 
# From -- ./inp_files/53723.got.cif
#   From: 2010.03.12/outbox.cif.g09.slc.cpg/sg14_27_cif.got.tgz:53723.got - 2010.03.31 13:35:05.
