data_PCOD8125411
_publ_section_title
;
Structure prediction by ZEFSAII (Michael W. Deem and Ramdas Pophale) SiO2 
 PCOD8125411
Probable space group: P 21/C
;
_chemical_formula_sum "Si O2"
_cell_formula_units_Z 24
_cell_length_a 9.390876
_cell_length_b 7.495362
_cell_length_c 14.961914
_cell_angle_alpha 90.000000
_cell_angle_beta 114.709937
_cell_angle_gamma 90.000000
_cell_volume 956.709446
_symmetry_space_group_name_H-M "P 21/C"
_symmetry_group_IT_number 14
_symmetry_cell_setting 'monoclinic'
loop_
_space_group_symop_operation_xyz
x,y,z
-x,1/2+y,1/2-z
-x,-y,-z
x,1/2-y,1/2+z
loop_
_atom_site_type_symbol
_atom_site_label
_atom_site_fract_x
_atom_site_fract_y
_atom_site_fract_z
Si Si1 0.360078 0.650572 0.383223
Si Si2 0.325538 0.151556 0.542020
Si Si3 0.255599 0.765482 0.534625
Si Si4 0.916041 0.659741 0.874361
Si Si5 0.197673 0.293892 0.337147
Si Si6 0.870711 0.243220 0.817119
O O1 0.529672 0.719407 0.397919
O O2 0.349237 0.644580 0.488805
O O3 0.323490 0.447911 0.346856
O O4 0.234877 0.777823 0.299505
O O5 0.182457 0.220102 0.565162
O O6 0.281891 0.153865 0.424746
O O7 0.359760 0.945329 0.575470
O O8 0.222457 0.665833 0.620246
O O9 0.094832 0.811789 0.443407
O O10 0.857750 0.781653 0.774344
O O11 0.899455 0.451642 0.846337
O O12 0.035816 0.358987 0.344107
#
# Coordination Sequence:
#
# PCOD8125411 Si02
#       6
#     4   4   4   4   4   4
#     4  11  25  37  60  98 129 153 210 273 319 364
#     4  11  22  42  61  90 126 168 208 256 318 379
#     4  11  20  40  66  88 118 169 214 250 307 385
#     4  10  20  38  68  87 118 172 214 248 305 386
#     4  11  21  39  66  90 127 165 206 267 316 369
#     4  10  20  39  63  89 121 169 216 250 307 385
#
# _framework density 25.085984
#
# number of rings (size 3 to 8) (size 9 to 14) (size 15 to 20)
#    0.000    1.333    5.000    2.000    0.000    2.000 
#    0.000    3.333    0.000    0.000    0.000    0.000 
#    0.000    0.000    0.000    0.000    0.000    0.000 
#
# Total GULP energy -297392.990870 kJ/mol
# GULP energy per Si atom -12391.374620 kJ/mol
# Density = 2.502889 g / cm^3
# Si number density = 25.085984 Si / 1000 Ang^3
#
#
#
# Elastic Constant Matrix: (Units=GPa)
#
#
# Indices 1 2 3 4 5 6 
#
# 1 80.3496 8.2531 2.8432 0.0000 3.7467 0.0000
# 2 8.2531 10.3714 -1.9179 0.0000 5.7600 0.0000
# 3 2.8432 -1.9179 118.3968 0.0000 -15.2937 0.0000
# 4 0.0000 0.0000 0.0000 27.8326 0.0000 0.7681
# 5 3.7467 5.7600 -15.2937 0.0000 38.1163 0.0000
# 6 0.0000 0.0000 0.0000 0.7681 0.0000 31.5816
#
#
#
# Elastic Compliance Matrix: (Units=1/GPa)
#
#
# Indices 1 2 3 4 5 6 
#
# 1 0.013584 -0.010970 -0.000488 0.000000 0.000127 0.000000
# 2 -0.010970 0.114127 0.000025 0.000000 -0.016158 0.000000
# 3 -0.000488 0.000025 0.008927 0.000000 0.003626 0.000000
# 4 0.000000 0.000000 0.000000 0.035953 0.000000 -0.000874
# 5 0.000127 -0.016158 0.003626 0.000000 0.030120 0.000000
# 6 0.000000 0.000000 0.000000 -0.000874 0.000000 0.031685
#
#
# Mechanical properties :
#
#
# Convention : Reuss Voigt Hill
#
# Bulk Modulus (GPa) = 8.78950 25.27497 17.03224
# Shear Modulus (GPa) = 16.93857 32.83540 24.88699
#
# Velocity S-wave (km/s) = 2.60132 3.62182 3.15313
# Velocity P-wave (km/s) = 3.54032 5.25236 4.47890
#
# Compressibility (1/GPa) = 0.11377205
#
# Stress axis : x y z
#
# Youngs Moduli (GPa) = 73.61746 8.76219 112.02413
#
# Poissons Ratio (x) = 0.09612 0.05461
# Poissons Ratio (y) = 0.80758 -0.00280
# Poissons Ratio (z) = 0.03589 -0.00022
#
# Static dielectric constant tensor:
#      x y z
#    x 4.500070 0.000000 -0.200510 
#    y 0.000000 3.956400 0.000000 
#    z -0.200510 0.000000 5.180220 
# 
# 
# High freq. dielectric constant tensor:
#      x y z
#    x 1.997500 0.000000 -0.005260 
#    y 0.000000 1.952910 0.000000 
#    z -0.005260 0.000000 2.017010 
# 
# From -- ./inp_files/39059.got.cif
#   From: 2010.03.12/outbox.cif.g09.slc.cpg/sg14_20_cif.got.tgz:39059.got - 2010.03.31 13:35:05.
