data_PCOD8125526
_publ_section_title
;
Structure prediction by ZEFSAII (Michael W. Deem and Ramdas Pophale) SiO2 
 PCOD8125526
Probable space group: P 21/C
;
_chemical_formula_sum "Si O2"
_cell_formula_units_Z 32
_cell_length_a 26.267094
_cell_length_b 9.912529
_cell_length_c 8.712467
_cell_angle_alpha 90.000000
_cell_angle_beta 135.754188
_cell_angle_gamma 90.000000
_cell_volume 1582.814732
_symmetry_space_group_name_H-M "P 21/C"
_symmetry_group_IT_number 14
_symmetry_cell_setting 'monoclinic'
loop_
_space_group_symop_operation_xyz
x,y,z
-x,1/2+y,1/2-z
-x,-y,-z
x,1/2-y,1/2+z
loop_
_atom_site_type_symbol
_atom_site_label
_atom_site_fract_x
_atom_site_fract_y
_atom_site_fract_z
Si Si1 0.054878 0.891757 0.187102
Si Si2 0.421032 0.834059 0.547295
Si Si3 0.633123 0.423078 0.739136
Si Si4 0.356013 0.076324 0.242424
Si Si5 0.782371 0.085020 0.094507
Si Si6 0.946135 0.102562 0.459253
Si Si7 0.780156 0.371209 0.944490
Si Si8 0.411198 0.169418 0.038043
O O1 0.039842 0.747509 0.082459
O O2 0.037726 0.881958 0.328007
O O3 0.139868 0.929699 0.339538
O O4 0.000000 0.000000 0.000000
O O5 0.387695 0.883470 0.634908
O O6 0.382455 0.697149 0.413245
O O7 0.505778 0.798408 0.742193
O O8 0.408735 0.949892 0.393759
O O9 0.719814 0.455225 0.910641
O O10 0.589141 0.556691 0.596066
O O11 0.368664 0.119419 0.095285
O O12 0.371840 0.196276 0.394255
O O13 0.271475 0.032852 0.080006
O O14 0.866038 0.040738 0.256314
O O15 0.764122 0.119318 0.230166
O O16 0.770371 0.214971 0.963946
O O17 0.000000 0.000000 0.500000
#
# Coordination Sequence:
#
# PCOD8125526 Si02
#       8
#     4   4   4   4   4   4   4   4
#     4  10  21  39  65  94 128 164 204 252 307 363
#     4  12  24  40  66  91 120 165 215 260 313 377
#     4  12  22  40  63  93 122 160 213 255 311 365
#     4  12  24  44  61  88 127 164 212 257 325 370
#     4  10  21  40  65  93 123 165 204 258 301 370
#     4  10  21  40  64  96 130 161 207 248 305 371
#     4  10  20  39  65  93 123 156 210 253 299 364
#     4  12  25  42  61  89 128 165 206 269 316 370
#
# _framework density 20.217148000000002
#
# number of rings (size 3 to 8) (size 9 to 14) (size 15 to 20)
#    0.000    1.000    2.500    5.250    0.000    1.000 
#    2.250    1.250    0.000    0.000    0.000    0.000 
#    0.000    0.000    0.000    0.000    0.000    0.000 
#
# Total GULP energy -396909.662297 kJ/mol
# GULP energy per Si atom -12403.426947 kJ/mol
# Density = 2.017113 g / cm^3
# Si number density = 20.217148 Si / 1000 Ang^3
#
#
#
# Elastic Constant Matrix: (Units=GPa)
#
#
# Indices 1 2 3 4 5 6 
#
# 1 107.9600 37.6404 49.3120 0.0000 17.7531 0.0000
# 2 37.6404 105.9573 66.4059 0.0000 16.2336 0.0000
# 3 49.3120 66.4059 121.4077 0.0000 13.3731 0.0000
# 4 0.0000 0.0000 0.0000 46.0872 0.0000 -1.8073
# 5 17.7531 16.2336 13.3731 0.0000 21.6606 0.0000
# 6 0.0000 0.0000 0.0000 -1.8073 0.0000 30.9004
#
#
#
# Elastic Compliance Matrix: (Units=1/GPa)
#
#
# Indices 1 2 3 4 5 6 
#
# 1 0.012501 -0.000994 -0.003742 0.000000 -0.007190 0.000000
# 2 -0.000994 0.015301 -0.007287 0.000000 -0.006153 0.000000
# 3 -0.003742 -0.007287 0.013737 0.000000 0.000047 0.000000
# 4 0.000000 0.000000 0.000000 0.021748 0.000000 0.001272
# 5 -0.007190 -0.006153 0.000047 0.000000 0.056643 0.000000
# 6 0.000000 0.000000 0.000000 0.001272 0.000000 0.032436
#
#
# Mechanical properties :
#
#
# Convention : Reuss Voigt Hill
#
# Bulk Modulus (GPa) = 57.16776 71.33796 64.25286
# Shear Modulus (GPa) = 27.43587 31.86075 29.64831
#
# Velocity S-wave (km/s) = 3.68782 3.97410 3.83364
# Velocity P-wave (km/s) = 6.81701 7.51135 7.17259
#
# Compressibility (1/GPa) = 0.01749238
#
# Stress axis : x y z
#
# Youngs Moduli (GPa) = 79.99523 65.35550 72.79473
#
# Poissons Ratio (x) = 0.06498 0.27237
# Poissons Ratio (y) = 0.07953 0.53049
# Poissons Ratio (z) = 0.29931 0.47628
#
# Static dielectric constant tensor:
#      x y z
#    x 3.920600 0.000000 0.139890 
#    y 0.000000 3.677580 0.000000 
#    z 0.139890 0.000000 3.997110 
# 
# 
# High freq. dielectric constant tensor:
#      x y z
#    x 1.800520 0.000000 -0.001300 
#    y 0.000000 1.779360 0.000000 
#    z -0.001300 0.000000 1.806220 
# 
# From -- ./inp_files/19669.got.cif
#   From: 2010.03.12/outbox.cif.g09.slc.cpg/sg14_10_cif.got.tgz:19669.got - 2010.03.31 13:35:05.
