data_PCOD8125532
_publ_section_title
;
Structure prediction by ZEFSAII (Michael W. Deem and Ramdas Pophale) SiO2 
 PCOD8125532
Probable space group: P 21/C
;
_chemical_formula_sum "Si O2"
_cell_formula_units_Z 28
_cell_length_a 20.872929
_cell_length_b 9.135982
_cell_length_c 13.482949
_cell_angle_alpha 90.000000
_cell_angle_beta 147.426254
_cell_angle_gamma 90.000000
_cell_volume 1384.255422
_symmetry_space_group_name_H-M "P 21/C"
_symmetry_group_IT_number 14
_symmetry_cell_setting 'monoclinic'
loop_
_space_group_symop_operation_xyz
x,y,z
-x,1/2+y,1/2-z
-x,-y,-z
x,1/2-y,1/2+z
loop_
_atom_site_type_symbol
_atom_site_label
_atom_site_fract_x
_atom_site_fract_y
_atom_site_fract_z
Si Si1 0.895058 0.625488 0.166965
Si Si2 0.261178 0.160850 0.153849
Si Si3 0.516499 0.329499 0.035041
Si Si4 0.721058 0.283515 0.667273
Si Si5 0.858068 0.510166 0.317244
Si Si6 0.702171 0.378608 0.428790
Si Si7 0.117929 0.821877 0.445438
O O1 0.821179 0.602891 0.172097
O O2 0.933329 0.468187 0.171772
O O3 0.009914 0.722107 0.342350
O O4 0.810432 0.702091 0.978647
O O5 0.382862 0.233510 0.355744
O O6 0.184466 0.087807 0.139381
O O7 0.282822 0.041623 0.095525
O O8 0.594855 0.263810 0.048235
O O9 0.582106 0.304387 0.226391
O O10 0.500000 0.500000 0.000000
O O11 0.695240 0.387938 0.539178
O O12 0.794607 0.144871 0.725563
O O13 0.799729 0.365650 0.853160
O O14 0.000000 0.500000 0.500000
O O15 0.811742 0.275417 0.542355
#
# Coordination Sequence:
#
# PCOD8125532 Si02
#       7
#     4   4   4   4   4   4   4
#     4  12  25  39  66  94 131 171 209 267 323 389
#     4  11  24  43  63  94 132 168 216 267 319 384
#     4   9  19  41  63  88 126 170 208 263 319 379
#     4  11  21  38  68  93 124 170 217 261 318 384
#     4  12  21  40  64  93 127 173 211 253 333 384
#     4  10  20  39  66  89 122 169 215 259 316 382
#     4  11  22  40  60  96 128 164 211 263 320 381
#
# _framework density 20.227481999999998
#
# number of rings (size 3 to 8) (size 9 to 14) (size 15 to 20)
#    0.000    1.143    7.143    1.714    0.000    2.286 
#    0.000    6.429    0.000    0.000    0.000    0.000 
#    0.000    0.000    0.000    0.000    0.000    0.000 
#
# Total GULP energy -347126.876428 kJ/mol
# GULP energy per Si atom -12397.388444 kJ/mol
# Density = 2.018144 g / cm^3
# Si number density = 20.227482 Si / 1000 Ang^3
#
#
#
# Elastic Constant Matrix: (Units=GPa)
#
#
# Indices 1 2 3 4 5 6 
#
# 1 97.5040 16.3377 35.6906 0.0000 -9.7551 0.0000
# 2 16.3377 68.0714 14.0105 0.0000 -1.6759 0.0000
# 3 35.6906 14.0105 93.1874 0.0000 12.9339 0.0000
# 4 0.0000 0.0000 0.0000 30.3242 0.0000 -2.6937
# 5 -9.7551 -1.6759 12.9339 0.0000 37.6961 0.0000
# 6 0.0000 0.0000 0.0000 -2.6937 0.0000 22.5231
#
#
#
# Elastic Compliance Matrix: (Units=1/GPa)
#
#
# Indices 1 2 3 4 5 6 
#
# 1 0.013083 -0.001892 -0.005444 0.000000 0.005169 0.000000
# 2 -0.001892 0.015518 -0.001718 0.000000 0.000790 0.000000
# 3 -0.005444 -0.001718 0.013944 0.000000 -0.006270 0.000000
# 4 0.000000 0.000000 0.000000 0.033331 0.000000 0.003986
# 5 0.005169 0.000790 -0.006270 0.000000 0.030052 0.000000
# 6 0.000000 0.000000 0.000000 0.003986 0.000000 0.044876
#
#
# Mechanical properties :
#
#
# Convention : Reuss Voigt Hill
#
# Bulk Modulus (GPa) = 40.92118 43.42670 42.17394
# Shear Modulus (GPa) = 28.23952 30.95696 29.59824
#
# Velocity S-wave (km/s) = 3.74049 3.91633 3.82942
# Velocity P-wave (km/s) = 6.23935 6.47811 6.35985
#
# Compressibility (1/GPa) = 0.02443722
#
# Stress axis : x y z
#
# Youngs Moduli (GPa) = 76.43602 64.44275 71.71318
#
# Poissons Ratio (x) = 0.12195 0.39038
# Poissons Ratio (y) = 0.14464 0.12320
# Poissons Ratio (z) = 0.41609 0.11071
#
# Static dielectric constant tensor:
#      x y z
#    x 3.894900 0.000000 0.024920 
#    y 0.000000 3.573340 0.000000 
#    z 0.024920 0.000000 4.227160 
# 
# 
# High freq. dielectric constant tensor:
#      x y z
#    x 1.788650 0.000000 -0.005920 
#    y 0.000000 1.769380 0.000000 
#    z -0.005920 0.000000 1.805500 
# 
# From -- ./inp_files/50127.got.cif
#   From: 2010.03.12/outbox.cif.g09.slc.cpg/sg14_26_cif.got.tgz:50127.got - 2010.03.31 13:35:05.
