data_PCOD8125493
_publ_section_title
;
Structure prediction by ZEFSAII (Michael W. Deem and Ramdas Pophale) SiO2 
 PCOD8125493
Probable space group: P 21/C
;
_chemical_formula_sum "Si O2"
_cell_formula_units_Z 32
_cell_length_a 9.619694
_cell_length_b 12.301166
_cell_length_c 22.735436
_cell_angle_alpha 90.000000
_cell_angle_beta 143.538591
_cell_angle_gamma 90.000000
_cell_volume 1598.831999
_symmetry_space_group_name_H-M "P 21/C"
_symmetry_group_IT_number 14
_symmetry_cell_setting 'monoclinic'
loop_
_space_group_symop_operation_xyz
x,y,z
-x,1/2+y,1/2-z
-x,-y,-z
x,1/2-y,1/2+z
loop_
_atom_site_type_symbol
_atom_site_label
_atom_site_fract_x
_atom_site_fract_y
_atom_site_fract_z
Si Si1 0.557896 0.473839 0.180447
Si Si2 0.348207 0.522265 0.230235
Si Si3 0.310031 0.756166 0.977040
Si Si4 0.467975 0.811801 0.157415
Si Si5 0.880850 0.659855 0.266222
Si Si6 0.800747 0.701082 0.108403
Si Si7 0.741403 0.260369 0.290097
Si Si8 0.185393 0.513144 0.954967
O O1 0.509473 0.522144 0.228001
O O2 0.784823 0.536488 0.232727
O O3 0.613668 0.345970 0.204033
O O4 0.333563 0.492847 0.063934
O O5 0.445960 0.436691 0.311132
O O6 0.356608 0.641934 0.261726
O O7 0.086610 0.492200 0.120950
O O8 0.237441 0.630773 0.945746
O O9 0.127670 0.835087 0.883227
O O10 0.318749 0.791112 0.048120
O O11 0.561189 0.769668 0.030983
O O12 0.694257 0.735079 0.236488
O O13 0.302343 0.784837 0.156304
O O14 0.919735 0.698350 0.212964
O O15 0.747551 0.577720 0.070210
O O16 0.978001 0.762059 0.124504
#
# Coordination Sequence:
#
# PCOD8125493 Si02
#       8
#     4   4   4   4   4   4   4   4
#     4  11  22  38  64  96 127 159 208 268 307 372
#     4  10  20  39  63  94 125 162 203 261 319 370
#     4  11  22  40  65  91 122 170 213 250 315 379
#     4  10  20  41  64  91 122 160 210 258 308 379
#     4  11  22  40  62  89 128 161 207 255 317 363
#     4  10  24  39  59  94 125 165 204 263 305 379
#     4  10  22  41  62  91 133 157 206 266 316 358
#     4  11  20  36  65  94 119 160 216 254 309 364
#
# _framework density 20.014609
#
# number of rings (size 3 to 8) (size 9 to 14) (size 15 to 20)
#    0.000    1.500    5.000    0.750    1.750    1.000 
#    2.250    5.625    0.000    0.000    0.000    0.000 
#    0.000    0.000    0.000    0.000    0.000    0.000 
#
# Total GULP energy -396865.408772 kJ/mol
# GULP energy per Si atom -12402.044024 kJ/mol
# Density = 1.996905 g / cm^3
# Si number density = 20.014609 Si / 1000 Ang^3
#
#
#
# Elastic Constant Matrix: (Units=GPa)
#
#
# Indices 1 2 3 4 5 6 
#
# 1 101.6105 30.7374 34.7386 0.0000 9.1003 0.0000
# 2 30.7374 106.5344 40.9701 0.0000 7.3962 0.0000
# 3 34.7386 40.9701 107.6639 0.0000 0.8000 0.0000
# 4 0.0000 0.0000 0.0000 32.9747 0.0000 -0.8105
# 5 9.1003 7.3962 0.8000 0.0000 21.0989 0.0000
# 6 0.0000 0.0000 0.0000 -0.8105 0.0000 23.3798
#
#
#
# Elastic Compliance Matrix: (Units=1/GPa)
#
#
# Indices 1 2 3 4 5 6 
#
# 1 0.011862 -0.001948 -0.003054 0.000000 -0.004317 0.000000
# 2 -0.001948 0.011612 -0.003767 0.000000 -0.003087 0.000000
# 3 -0.003054 -0.003767 0.011691 0.000000 0.002194 0.000000
# 4 0.000000 0.000000 0.000000 0.030352 0.000000 0.001052
# 5 -0.004317 -0.003087 0.002194 0.000000 0.050257 0.000000
# 6 0.000000 0.000000 0.000000 0.001052 0.000000 0.042808
#
#
# Mechanical properties :
#
#
# Convention : Reuss Voigt Hill
#
# Bulk Modulus (GPa) = 56.73501 58.74456 57.73979
# Shear Modulus (GPa) = 27.47324 29.44820 28.46072
#
# Velocity S-wave (km/s) = 3.70896 3.83996 3.77503
# Velocity P-wave (km/s) = 6.83741 7.00535 6.92189
#
# Compressibility (1/GPa) = 0.01762580
#
# Stress axis : x y z
#
# Youngs Moduli (GPa) = 84.30625 86.11912 85.53775
#
# Poissons Ratio (x) = 0.16777 0.26121
# Poissons Ratio (y) = 0.16424 0.32224
# Poissons Ratio (z) = 0.25745 0.32443
#
# Static dielectric constant tensor:
#      x y z
#    x 3.686080 0.000000 0.137160 
#    y 0.000000 3.762910 0.000000 
#    z 0.137160 0.000000 3.470770 
# 
# 
# High freq. dielectric constant tensor:
#      x y z
#    x 1.790370 0.000000 0.007460 
#    y 0.000000 1.779420 0.000000 
#    z 0.007460 0.000000 1.764820 
# 
# From -- ./inp_files/72372.got.cif
#   From: 2010.03.12/outbox.cif.g09.slc.cpg/sg14_37_cif.got.tgz:72372.got - 2010.03.31 13:35:05.
