data_PCOD8125237
_publ_section_title
;
Structure prediction by ZEFSAII (Michael W. Deem and Ramdas Pophale) SiO2 
 PCOD8125237
Probable space group: P 21/C
;
_chemical_formula_sum "Si O2"
_cell_formula_units_Z 32
_cell_length_a 29.525075
_cell_length_b 5.112302
_cell_length_c 14.817070
_cell_angle_alpha 90.000000
_cell_angle_beta 39.835545
_cell_angle_gamma 90.000000
_cell_volume 1432.674144
_symmetry_space_group_name_H-M "P 21/C"
_symmetry_group_IT_number 14
_symmetry_cell_setting 'monoclinic'
loop_
_space_group_symop_operation_xyz
x,y,z
-x,1/2+y,1/2-z
-x,-y,-z
x,1/2-y,1/2+z
loop_
_atom_site_type_symbol
_atom_site_label
_atom_site_fract_x
_atom_site_fract_y
_atom_site_fract_z
Si Si1 0.333012 0.522723 0.248495
Si Si2 0.691676 0.590508 0.515177
Si Si3 0.455449 0.056801 0.830386
Si Si4 0.421752 0.484360 0.581930
Si Si5 0.740653 0.407504 0.831717
Si Si6 0.044375 0.454742 0.688548
Si Si7 0.039147 0.294766 0.881784
Si Si8 0.894306 0.498467 0.577768
O O1 0.288397 0.457184 0.409178
O O2 0.371625 0.799914 0.205332
O O3 0.285249 0.536934 0.230942
O O4 0.391643 0.302120 0.145512
O O5 0.607146 0.639777 0.641927
O O6 0.703872 0.334576 0.435548
O O7 0.731611 0.835589 0.408363
O O8 0.501692 0.315814 0.778135
O O9 0.422996 0.956597 0.973804
O O10 0.500000 0.500000 0.500000
O O11 0.824156 0.326594 0.697135
O O12 0.078085 0.413300 0.735504
O O13 0.106476 0.379203 0.521907
O O14 0.022180 0.759634 0.720490
O O15 0.105362 0.190488 0.837731
O O16 0.000000 0.500000 0.000000
O O17 0.975367 0.105358 0.950816
#
# Coordination Sequence:
#
# PCOD8125237 Si02
#       8
#     4   4   4   4   4   4   4   4
#     4  12  24  47  68  95 137 179 221 280 336 404
#     4  12  26  46  70  97 138 181 227 281 336 407
#     4  12  22  39  66 101 132 168 223 280 333 393
#     4  12  23  42  69 101 134 170 224 283 339 399
#     4  12  26  47  66  98 142 182 227 273 342 416
#     4  10  20  37  63  95 129 165 210 274 327 382
#     4  10  20  41  67  95 133 165 224 278 328 384
#     4  10  24  40  65  99 131 177 219 276 331 398
#
# _framework density 22.335854000000001
#
# number of rings (size 3 to 8) (size 9 to 14) (size 15 to 20)
#    0.000    0.750    3.750    4.125    1.750    1.000 
#    0.000    0.000    0.000    0.000    0.000    0.000 
#    0.000    0.000    0.000    0.000    0.000    0.000 
#
# Total GULP energy -396450.467487 kJ/mol
# GULP energy per Si atom -12389.077109 kJ/mol
# Density = 2.228502 g / cm^3
# Si number density = 22.335854 Si / 1000 Ang^3
#
#
#
# Elastic Constant Matrix: (Units=GPa)
#
#
# Indices 1 2 3 4 5 6 
#
# 1 75.2501 11.3364 51.0133 0.0000 19.6302 0.0000
# 2 11.3364 91.5004 12.7544 0.0000 1.8093 0.0000
# 3 51.0133 12.7544 94.5707 0.0000 19.8221 0.0000
# 4 0.0000 0.0000 0.0000 29.4986 0.0000 6.4587
# 5 19.6302 1.8093 19.8221 0.0000 50.6305 0.0000
# 6 0.0000 0.0000 0.0000 6.4587 0.0000 22.3925
#
#
#
# Elastic Compliance Matrix: (Units=1/GPa)
#
#
# Indices 1 2 3 4 5 6 
#
# 1 0.021846 -0.001125 -0.010747 0.000000 -0.004222 0.000000
# 2 -0.001125 0.011198 -0.000992 0.000000 0.000425 0.000000
# 3 -0.010747 -0.000992 0.017021 0.000000 -0.002462 0.000000
# 4 0.000000 0.000000 0.000000 0.036185 0.000000 -0.010437
# 5 -0.004222 0.000425 -0.002462 0.000000 0.022336 0.000000
# 6 0.000000 0.000000 0.000000 -0.010437 0.000000 0.047668
#
#
# Mechanical properties :
#
#
# Convention : Reuss Voigt Hill
#
# Bulk Modulus (GPa) = 41.09191 45.72549 43.40870
# Shear Modulus (GPa) = 26.30250 32.91880 29.61065
#
# Velocity S-wave (km/s) = 3.43533 3.84319 3.64497
# Velocity P-wave (km/s) = 5.84573 6.34111 6.09845
#
# Compressibility (1/GPa) = 0.02433569
#
# Stress axis : x y z
#
# Youngs Moduli (GPa) = 45.77570 89.29985 58.75033
#
# Poissons Ratio (x) = 0.10046 0.63141
# Poissons Ratio (y) = 0.05150 0.05830
# Poissons Ratio (z) = 0.49197 0.08862
#
# Static dielectric constant tensor:
#      x y z
#    x 4.123760 0.000000 0.508230 
#    y 0.000000 3.935590 0.000000 
#    z 0.508230 0.000000 4.154110 
# 
# 
# High freq. dielectric constant tensor:
#      x y z
#    x 1.885300 0.000000 0.029040 
#    y 0.000000 1.877340 0.000000 
#    z 0.029040 0.000000 1.880760 
# 
# From -- ./inp_files/52172.got.cif
#   From: 2010.03.12/outbox.cif.g09.slc.cpg/sg14_27_cif.got.tgz:52172.got - 2010.03.31 13:35:05.
