data_PCOD8125718
_publ_section_title
;
Structure prediction by ZEFSAII (Michael W. Deem and Ramdas Pophale) SiO2 
 PCOD8125718
Probable space group: P 21/C
;
_chemical_formula_sum "Si O2"
_cell_formula_units_Z 28
_cell_length_a 15.743803
_cell_length_b 7.953692
_cell_length_c 17.462234
_cell_angle_alpha 90.000000
_cell_angle_beta 33.492493
_cell_angle_gamma 90.000000
_cell_volume 1206.651161
_symmetry_space_group_name_H-M "P 21/C"
_symmetry_group_IT_number 14
_symmetry_cell_setting 'monoclinic'
loop_
_space_group_symop_operation_xyz
x,y,z
-x,1/2+y,1/2-z
-x,-y,-z
x,1/2-y,1/2+z
loop_
_atom_site_type_symbol
_atom_site_label
_atom_site_fract_x
_atom_site_fract_y
_atom_site_fract_z
Si Si1 0.826857 0.113956 0.852393
Si Si2 0.006915 0.200699 0.342833
Si Si3 0.222323 0.796625 0.760415
Si Si4 0.392652 0.999325 0.738265
Si Si5 0.090530 0.175023 0.935916
Si Si6 0.462930 0.663758 0.335854
Si Si7 0.786047 0.013306 0.615000
O O1 0.960053 0.177421 0.808803
O O2 0.794175 0.265432 0.816834
O O3 0.666775 0.074358 0.015418
O O4 0.879945 0.943278 0.772740
O O5 0.848461 0.125416 0.497493
O O6 0.098174 0.312642 0.337161
O O7 0.233156 0.618342 0.793324
O O8 0.373423 0.909694 0.668908
O O9 0.073098 0.900784 0.908457
O O10 0.231756 0.092741 0.874698
O O11 0.524497 0.141099 0.646409
O O12 0.413495 0.848938 0.783863
O O13 0.086529 0.369310 0.966910
O O14 0.620293 0.563560 0.223213
#
# Coordination Sequence:
#
# PCOD8125718 Si02
#       7
#     4   4   4   4   4   4   4
#     4  12  26  39  65  98 134 160 207 277 322 371
#     4  11  23  42  63  96 130 164 211 267 324 368
#     4  11  21  40  65  97 126 166 212 262 318 370
#     4  11  24  41  68  89 128 174 218 256 304 404
#     4  10  20  41  68  93 121 174 217 254 309 391
#     4  11  25  43  64  97 124 171 217 259 322 373
#     4  10  20  45  69  86 127 175 212 252 308 400
#
# _framework density 23.204719000000001
#
# number of rings (size 3 to 8) (size 9 to 14) (size 15 to 20)
#    0.000    1.143    2.857    4.714    4.000    1.143 
#    0.000    1.429    0.000    0.000    0.000    0.000 
#    0.000    0.000    0.000    0.000    0.000    0.000 
#
# Total GULP energy -347147.258557 kJ/mol
# GULP energy per Si atom -12398.116377 kJ/mol
# Density = 2.315190 g / cm^3
# Si number density = 23.204719 Si / 1000 Ang^3
#
#
#
# Elastic Constant Matrix: (Units=GPa)
#
#
# Indices 1 2 3 4 5 6 
#
# 1 139.0749 38.0087 26.5010 0.0000 9.5048 0.0000
# 2 38.0087 83.0513 9.1435 0.0000 -6.3790 0.0000
# 3 26.5010 9.1435 75.9020 0.0000 -2.8914 0.0000
# 4 0.0000 0.0000 0.0000 24.8763 0.0000 4.2988
# 5 9.5048 -6.3790 -2.8914 0.0000 28.0534 0.0000
# 6 0.0000 0.0000 0.0000 4.2988 0.0000 43.8871
#
#
#
# Elastic Compliance Matrix: (Units=1/GPa)
#
#
# Indices 1 2 3 4 5 6 
#
# 1 0.009190 -0.004226 -0.002866 0.000000 -0.004370 0.000000
# 2 -0.004226 0.014343 -0.000074 0.000000 0.004686 0.000000
# 3 -0.002866 -0.000074 0.014277 0.000000 0.002426 0.000000
# 4 0.000000 0.000000 0.000000 0.040891 0.000000 -0.004005
# 5 -0.004370 0.004686 0.002426 0.000000 0.038442 0.000000
# 6 0.000000 0.000000 0.000000 -0.004005 0.000000 0.023178
#
#
# Mechanical properties :
#
#
# Convention : Reuss Voigt Hill
#
# Bulk Modulus (GPa) = 42.59309 49.48162 46.03736
# Shear Modulus (GPa) = 30.77321 34.32172 32.54746
#
# Velocity S-wave (km/s) = 3.64560 3.85006 3.74922
# Velocity P-wave (km/s) = 6.00964 6.41359 6.21490
#
# Compressibility (1/GPa) = 0.02347799
#
# Stress axis : x y z
#
# Youngs Moduli (GPa) = 108.81247 69.72139 70.04338
#
# Poissons Ratio (x) = 0.29464 0.20075
# Poissons Ratio (y) = 0.45984 0.00517
# Poissons Ratio (z) = 0.31187 0.00515
#
# Static dielectric constant tensor:
#      x y z
#    x 4.425320 0.000000 -0.079420 
#    y 0.000000 4.602120 0.000000 
#    z -0.079420 0.000000 3.797830 
# 
# 
# High freq. dielectric constant tensor:
#      x y z
#    x 1.940780 0.000000 -0.007460 
#    y 0.000000 1.944230 0.000000 
#    z -0.007460 0.000000 1.876820 
# 
# From -- ./inp_files/46716.got.cif
#   From: 2010.03.12/outbox.cif.g09.slc.cpg/sg14_24_cif.got.tgz:46716.got - 2010.03.31 13:35:05.
