data_PCOD8125348
_publ_section_title
;
Structure prediction by ZEFSAII (Michael W. Deem and Ramdas Pophale) SiO2 
 PCOD8125348
Probable space group: P 21/C
;
_chemical_formula_sum "Si O2"
_cell_formula_units_Z 28
_cell_length_a 6.990366
_cell_length_b 15.028171
_cell_length_c 18.319875
_cell_angle_alpha 90.000000
_cell_angle_beta 46.712953
_cell_angle_gamma 90.000000
_cell_volume 1400.931321
_symmetry_space_group_name_H-M "P 21/C"
_symmetry_group_IT_number 14
_symmetry_cell_setting 'monoclinic'
loop_
_space_group_symop_operation_xyz
x,y,z
-x,1/2+y,1/2-z
-x,-y,-z
x,1/2-y,1/2+z
loop_
_atom_site_type_symbol
_atom_site_label
_atom_site_fract_x
_atom_site_fract_y
_atom_site_fract_z
Si Si1 0.143970 0.509723 0.038010
Si Si2 0.428839 0.873331 0.563060
Si Si3 0.056237 0.320209 0.735278
Si Si4 0.069852 0.638640 0.657344
Si Si5 0.224340 0.504253 0.737952
Si Si6 0.804909 0.925833 0.081242
Si Si7 0.660619 0.806027 0.987455
O O1 0.233011 0.608359 0.044127
O O2 0.949616 0.464961 0.147717
O O3 0.422581 0.462282 0.954641
O O4 0.000000 0.500000 0.000000
O O5 0.252003 0.845165 0.678796
O O6 0.651500 0.800362 0.491379
O O7 0.080657 0.221154 0.763628
O O8 0.223366 0.396672 0.732825
O O9 0.145193 0.328589 0.628877
O O10 0.090480 0.552430 0.703574
O O11 0.362323 0.661627 0.552822
O O12 0.901966 0.614750 0.631068
O O13 0.522336 0.532551 0.670538
O O14 0.783557 0.846364 0.028459
O O15 0.000000 0.000000 0.000000
#
# Coordination Sequence:
#
# PCOD8125348 Si02
#       7
#     4   4   4   4   4   4   4
#     4  10  21  37  59  85 117 156 198 242 297 366
#     4   9  21  38  56  84 118 152 191 244 299 350
#     4  10  20  38  62  84 117 156 192 242 302 356
#     4  10  22  41  60  87 123 157 200 250 305 364
#     4  10  22  39  59  87 118 154 199 248 302 361
#     4  11  23  39  62  88 118 159 205 254 304 361
#     4  10  21  38  59  85 116 152 197 246 294 356
#
# _framework density 19.986705000000001
#
# number of rings (size 3 to 8) (size 9 to 14) (size 15 to 20)
#    0.000    2.000    0.000    2.571    0.000   11.429 
#    0.000   11.429    0.000    0.000    0.000    0.000 
#    0.000    0.000    0.000    0.000    0.000    0.000 
#
# Total GULP energy -346974.308520 kJ/mol
# GULP energy per Si atom -12391.939590 kJ/mol
# Density = 1.994121 g / cm^3
# Si number density = 19.986705 Si / 1000 Ang^3
#
#
#
# Elastic Constant Matrix: (Units=GPa)
#
#
# Indices 1 2 3 4 5 6 
#
# 1 135.8998 52.9712 53.3706 0.0000 19.3638 0.0000
# 2 52.9712 109.4841 36.0238 0.0000 5.7302 0.0000
# 3 53.3706 36.0238 128.8220 0.0000 5.1329 0.0000
# 4 0.0000 0.0000 0.0000 33.5826 0.0000 -4.7908
# 5 19.3638 5.7302 5.1329 0.0000 27.0742 0.0000
# 6 0.0000 0.0000 0.0000 -4.7908 0.0000 26.6027
#
#
#
# Elastic Compliance Matrix: (Units=1/GPa)
#
#
# Indices 1 2 3 4 5 6 
#
# 1 0.011097 -0.003967 -0.003230 0.000000 -0.006485 0.000000
# 2 -0.003967 0.011547 -0.001613 0.000000 0.000699 0.000000
# 3 -0.003230 -0.001613 0.009518 0.000000 0.000847 0.000000
# 4 0.000000 0.000000 0.000000 0.030562 0.000000 0.005504
# 5 -0.006485 0.000699 0.000847 0.000000 0.041265 0.000000
# 6 0.000000 0.000000 0.000000 0.005504 0.000000 0.038581
#
#
# Mechanical properties :
#
#
# Convention : Reuss Voigt Hill
#
# Bulk Modulus (GPa) = 68.76531 73.21522 70.99027
# Shear Modulus (GPa) = 30.29587 32.90791 31.60189
#
# Velocity S-wave (km/s) = 3.89755 4.06210 3.98068
# Velocity P-wave (km/s) = 7.39830 7.66240 7.53150
#
# Compressibility (1/GPa) = 0.01454222
#
# Stress axis : x y z
#
# Youngs Moduli (GPa) = 90.11477 86.60015 105.06217
#
# Poissons Ratio (x) = 0.34353 0.33932
# Poissons Ratio (y) = 0.35748 0.16952
# Poissons Ratio (z) = 0.29105 0.13973
#
# Static dielectric constant tensor:
#      x y z
#    x 3.750980 0.000000 -0.156990 
#    y 0.000000 4.071290 0.000000 
#    z -0.156990 0.000000 3.830700 
# 
# 
# High freq. dielectric constant tensor:
#      x y z
#    x 1.763970 0.000000 -0.013420 
#    y 0.000000 1.787250 0.000000 
#    z -0.013420 0.000000 1.796040 
# 
# From -- ./inp_files/37801.got.cif
#   From: 2010.03.12/outbox.cif.g09.slc.cpg/sg14_19_cif.got.tgz:37801.got - 2010.03.31 13:35:05.
