data_PCOD8125189
_publ_section_title
;
Structure prediction by ZEFSAII (Michael W. Deem and Ramdas Pophale) SiO2 
 PCOD8125189
Probable space group: P 21/C
;
_chemical_formula_sum "Si O2"
_cell_formula_units_Z 24
_cell_length_a 24.101423
_cell_length_b 8.624764
_cell_length_c 15.112448
_cell_angle_alpha 90.000000
_cell_angle_beta 20.876889
_cell_angle_gamma 90.000000
_cell_volume 1119.476735
_symmetry_space_group_name_H-M "P 21/C"
_symmetry_group_IT_number 14
_symmetry_cell_setting 'monoclinic'
loop_
_space_group_symop_operation_xyz
x,y,z
-x,1/2+y,1/2-z
-x,-y,-z
x,1/2-y,1/2+z
loop_
_atom_site_type_symbol
_atom_site_label
_atom_site_fract_x
_atom_site_fract_y
_atom_site_fract_z
Si Si1 0.215063 0.894997 0.913271
Si Si2 0.068205 0.894804 0.705187
Si Si3 0.312299 0.482122 0.444981
Si Si4 0.656673 0.458188 0.965751
Si Si5 0.113987 0.726966 0.809560
Si Si6 0.172644 0.166879 0.662530
O O1 0.321813 0.923788 0.669790
O O2 0.320946 0.915881 0.842830
O O3 0.150690 0.716691 0.009656
O O4 0.081512 0.026846 0.116106
O O5 0.026704 0.783692 0.850352
O O6 0.174631 0.036491 0.583193
O O7 0.168141 0.546812 0.721137
O O8 0.278152 0.305425 0.470242
O O9 0.475151 0.489456 0.254627
O O10 0.719260 0.312402 0.928377
O O11 0.756354 0.605367 0.850730
O O12 0.004249 0.772494 0.055778
#
# Coordination Sequence:
#
# PCOD8125189 Si02
#       6
#     4   4   4   4   4   4
#     4  11  21  37  59  86 120 151 200 240 301 345
#     4  10  20  37  61  85 111 158 195 250 283 346
#     4  11  24  35  59  93 120 154 193 244 302 353
#     4  11  21  40  60  84 123 158 191 246 297 346
#     4  10  20  39  61  84 115 157 205 235 286 352
#     4  11  20  41  63  83 119 158 202 243 287 347
#
# _framework density 21.438589
#
# number of rings (size 3 to 8) (size 9 to 14) (size 15 to 20)
#    0.000    1.333    3.333    4.000    0.000    0.000 
#    0.000    0.833    0.000    0.000    0.000    0.000 
#    0.000    0.000    0.000    0.000    0.000    0.000 
#
# Total GULP energy -297478.697092 kJ/mol
# GULP energy per Si atom -12394.945712 kJ/mol
# Density = 2.138979 g / cm^3
# Si number density = 21.438589 Si / 1000 Ang^3
#
#
#
# Elastic Constant Matrix: (Units=GPa)
#
#
# Indices 1 2 3 4 5 6 
#
# 1 65.1397 11.6181 20.0329 0.0000 -10.2019 0.0000
# 2 11.6181 102.6009 31.0194 0.0000 -1.1746 0.0000
# 3 20.0329 31.0194 80.8853 0.0000 -15.4179 0.0000
# 4 0.0000 0.0000 0.0000 26.2104 0.0000 -0.5345
# 5 -10.2019 -1.1746 -15.4179 0.0000 33.5581 0.0000
# 6 0.0000 0.0000 0.0000 -0.5345 0.0000 24.8291
#
#
#
# Elastic Compliance Matrix: (Units=1/GPa)
#
#
# Indices 1 2 3 4 5 6 
#
# 1 0.017071 -0.000934 -0.003164 0.000000 0.003703 0.000000
# 2 -0.000934 0.011166 -0.004417 0.000000 -0.001923 0.000000
# 3 -0.003164 -0.004417 0.016032 0.000000 0.006249 0.000000
# 4 0.000000 0.000000 0.000000 0.038170 0.000000 0.000822
# 5 0.003703 -0.001923 0.006249 0.000000 0.033729 0.000000
# 6 0.000000 0.000000 0.000000 0.000822 0.000000 0.040293
#
#
# Mechanical properties :
#
#
# Convention : Reuss Voigt Hill
#
# Bulk Modulus (GPa) = 36.71261 41.55185 39.13223
# Shear Modulus (GPa) = 27.38675 29.31657 28.35166
#
# Velocity S-wave (km/s) = 3.57802 3.70194 3.64051
# Velocity P-wave (km/s) = 5.85076 6.13974 5.99699
#
# Compressibility (1/GPa) = 0.02723860
#
# Stress axis : x y z
#
# Youngs Moduli (GPa) = 58.57796 89.55995 62.37549
#
# Poissons Ratio (x) = 0.08366 0.19735
# Poissons Ratio (y) = 0.05472 0.27552
# Poissons Ratio (z) = 0.18533 0.39560
#
# Static dielectric constant tensor:
#      x y z
#    x 3.788460 0.000000 -0.215600 
#    y 0.000000 4.022530 0.000000 
#    z -0.215600 0.000000 3.521210 
# 
# 
# High freq. dielectric constant tensor:
#      x y z
#    x 1.842340 0.000000 -0.019060 
#    y 0.000000 1.850010 0.000000 
#    z -0.019060 0.000000 1.805550 
# 
# From -- ./inp_files/56971.got.cif
#   From: 2010.03.12/outbox.cif.g09.slc.cpg/sg14_29_cif.got.tgz:56971.got - 2010.03.31 13:35:05.
