data_PCOD8125191
_publ_section_title
;
Structure prediction by ZEFSAII (Michael W. Deem and Ramdas Pophale) SiO2 
 PCOD8125191
Probable space group: P 21/C
;
_chemical_formula_sum "Si O2"
_cell_formula_units_Z 32
_cell_length_a 16.867642
_cell_length_b 16.011992
_cell_length_c 11.892932
_cell_angle_alpha 90.000000
_cell_angle_beta 150.171091
_cell_angle_gamma 90.000000
_cell_volume 1597.734828
_symmetry_space_group_name_H-M "P 21/C"
_symmetry_group_IT_number 14
_symmetry_cell_setting 'monoclinic'
loop_
_space_group_symop_operation_xyz
x,y,z
-x,1/2+y,1/2-z
-x,-y,-z
x,1/2-y,1/2+z
loop_
_atom_site_type_symbol
_atom_site_label
_atom_site_fract_x
_atom_site_fract_y
_atom_site_fract_z
Si Si1 0.056885 0.278673 0.421168
Si Si2 0.128785 0.150776 0.787366
Si Si3 0.126570 0.871774 0.701847
Si Si4 0.529238 0.093458 0.983512
Si Si5 0.251854 0.512366 0.536119
Si Si6 0.570642 0.604913 0.884149
Si Si7 0.860836 0.549668 0.378099
Si Si8 0.636506 0.731761 0.585911
O O1 0.027285 0.293472 0.251398
O O2 0.051156 0.367686 0.472474
O O3 0.240310 0.247023 0.659936
O O4 0.917677 0.220901 0.304586
O O5 0.252087 0.211798 0.881707
O O6 0.012974 0.104239 0.556298
O O7 0.238324 0.082552 0.980589
O O8 0.291196 0.884379 0.835769
O O9 0.127766 0.930748 0.812838
O O10 0.419454 0.112252 0.739386
O O11 0.483899 0.158424 0.026221
O O12 0.500000 0.000000 0.000000
O O13 0.431061 0.540822 0.739658
O O14 0.214963 0.511129 0.621920
O O15 0.735942 0.566835 0.126424
O O16 0.536285 0.688972 0.915519
O O17 0.000000 0.500000 0.500000
#
# Coordination Sequence:
#
# PCOD8125191 Si02
#       8
#     4   4   4   4   4   4   4   4
#     4   9  21  38  57  83 114 153 199 243 300 361
#     4  10  20  38  59  83 115 158 201 246 300 360
#     4  10  22  37  59  88 120 156 200 254 304 360
#     4  11  24  40  61  93 124 158 204 252 304 365
#     4  10  21  38  58  83 116 155 198 239 295 359
#     4  10  22  40  59  86 120 159 198 244 302 361
#     4  10  22  38  60  87 114 151 196 246 298 351
#     4  10  20  37  61  85 117 156 197 248 305 361
#
# _framework density 20.028355000000001
#
# number of rings (size 3 to 8) (size 9 to 14) (size 15 to 20)
#    0.000    2.000    0.000    3.000    0.000   11.000 
#    0.000    3.750    0.000    0.000    0.000    0.000 
#    0.000    0.000    0.000    0.000    0.000    0.000 
#
# Total GULP energy -396467.657207 kJ/mol
# GULP energy per Si atom -12389.614288 kJ/mol
# Density = 1.998277 g / cm^3
# Si number density = 20.028355 Si / 1000 Ang^3
#
#
#
# Elastic Constant Matrix: (Units=GPa)
#
#
# Indices 1 2 3 4 5 6 
#
# 1 89.8684 54.3578 44.8822 0.0000 -1.1063 0.0000
# 2 54.3578 106.5875 33.6591 0.0000 6.6169 0.0000
# 3 44.8822 33.6591 65.5461 0.0000 -13.2537 0.0000
# 4 0.0000 0.0000 0.0000 28.9344 0.0000 7.3013
# 5 -1.1063 6.6169 -13.2537 0.0000 28.8286 0.0000
# 6 0.0000 0.0000 0.0000 7.3013 0.0000 37.1656
#
#
#
# Elastic Compliance Matrix: (Units=1/GPa)
#
#
# Indices 1 2 3 4 5 6 
#
# 1 0.020957 -0.006922 -0.011369 0.000000 -0.002834 0.000000
# 2 -0.006922 0.014420 -0.003736 0.000000 -0.005293 0.000000
# 3 -0.011369 -0.003736 0.027611 0.000000 0.013115 0.000000
# 4 0.000000 0.000000 0.000000 0.036364 0.000000 -0.007144
# 5 -0.002834 -0.005293 0.013115 0.000000 0.041823 0.000000
# 6 0.000000 0.000000 0.000000 -0.007144 0.000000 0.028310
#
#
# Mechanical properties :
#
#
# Convention : Reuss Voigt Hill
#
# Bulk Modulus (GPa) = 52.80846 58.64446 55.72646
# Shear Modulus (GPa) = 22.74282 27.59257 25.16769
#
# Velocity S-wave (km/s) = 3.37342 3.71573 3.54871
# Velocity P-wave (km/s) = 6.44960 6.91037 6.68396
#
# Compressibility (1/GPa) = 0.01893636
#
# Stress axis : x y z
#
# Youngs Moduli (GPa) = 47.71701 69.34740 36.21699
#
# Poissons Ratio (x) = 0.48000 0.41174
# Poissons Ratio (y) = 0.33028 0.13530
# Poissons Ratio (z) = 0.54248 0.25906
#
# Static dielectric constant tensor:
#      x y z
#    x 3.507480 0.000000 -0.204840 
#    y 0.000000 3.671640 0.000000 
#    z -0.204840 0.000000 3.712800 
# 
# 
# High freq. dielectric constant tensor:
#      x y z
#    x 1.786240 0.000000 -0.015030 
#    y 0.000000 1.787490 0.000000 
#    z -0.015030 0.000000 1.779000 
# 
# From -- ./inp_files/34240.got.cif
#   From: 2010.03.12/outbox.cif.g09.slc.cpg/sg14_18_cif.got.tgz:34240.got - 2010.03.31 13:35:05.
