data_PCOD8125225
_publ_section_title
;
Structure prediction by ZEFSAII (Michael W. Deem and Ramdas Pophale) SiO2 
 PCOD8125225
Probable space group: P 21/C
;
_chemical_formula_sum "Si O2"
_cell_formula_units_Z 24
_cell_length_a 7.336800
_cell_length_b 13.031153
_cell_length_c 16.864505
_cell_angle_alpha 90.000000
_cell_angle_beta 50.179468
_cell_angle_gamma 90.000000
_cell_volume 1238.382851
_symmetry_space_group_name_H-M "P 21/C"
_symmetry_group_IT_number 14
_symmetry_cell_setting 'monoclinic'
loop_
_space_group_symop_operation_xyz
x,y,z
-x,1/2+y,1/2-z
-x,-y,-z
x,1/2-y,1/2+z
loop_
_atom_site_type_symbol
_atom_site_label
_atom_site_fract_x
_atom_site_fract_y
_atom_site_fract_z
Si Si1 0.791492 0.990831 0.331649
Si Si2 0.848302 0.252582 0.579500
Si Si3 0.601681 0.343751 0.002310
Si Si4 0.614867 0.731294 0.580440
Si Si5 0.552120 0.096268 0.259928
Si Si6 0.732762 0.416956 0.237997
O O1 0.608605 0.896758 0.389702
O O2 0.058586 0.949299 0.260329
O O3 0.752896 0.071304 0.413412
O O4 0.756079 0.042534 0.255848
O O5 0.776856 0.213907 0.512846
O O6 0.672769 0.343314 0.654344
O O7 0.843117 0.159650 0.643030
O O8 0.111267 0.299329 0.503673
O O9 0.492680 0.258900 0.974741
O O10 0.599260 0.828793 0.642369
O O11 0.475750 0.634254 0.653519
O O12 0.366114 0.015957 0.278271
#
# Coordination Sequence:
#
# PCOD8125225 Si02
#       6
#     4   4   4   4   4   4
#     4  10  20  37  63  87 116 151 204 248 288 346
#     4  11  22  39  61  86 125 153 200 248 292 356
#     4  10  20  37  63  88 112 155 200 249 294 337
#     4  10  23  39  59  91 120 155 199 245 299 350
#     4  10  23  39  59  92 116 159 201 240 298 354
#     4  11  22  39  61  86 123 158 195 248 300 349
#
# _framework density 19.380113999999999
#
# number of rings (size 3 to 8) (size 9 to 14) (size 15 to 20)
#    0.000    1.667    3.333    1.000    0.000    4.667 
#    3.000    1.667    0.000    0.000    0.000    0.000 
#    0.000    0.000    0.000    0.000    0.000    0.000 
#
# Total GULP energy -297750.012901 kJ/mol
# GULP energy per Si atom -12406.250538 kJ/mol
# Density = 1.933600 g / cm^3
# Si number density = 19.380114 Si / 1000 Ang^3
#
#
#
# Elastic Constant Matrix: (Units=GPa)
#
#
# Indices 1 2 3 4 5 6 
#
# 1 89.2185 17.8791 21.0110 0.0000 -12.7668 0.0000
# 2 17.8791 49.1033 4.7804 0.0000 -4.6985 0.0000
# 3 21.0110 4.7804 41.3393 0.0000 -8.0871 0.0000
# 4 0.0000 0.0000 0.0000 9.0610 0.0000 -1.5672
# 5 -12.7668 -4.6985 -8.0871 0.0000 30.9583 0.0000
# 6 0.0000 0.0000 0.0000 -1.5672 0.0000 26.8965
#
#
#
# Elastic Compliance Matrix: (Units=1/GPa)
#
#
# Indices 1 2 3 4 5 6 
#
# 1 0.013945 -0.004160 -0.005907 0.000000 0.003576 0.000000
# 2 -0.004160 0.022045 -0.000122 0.000000 0.001598 0.000000
# 3 -0.005907 -0.000122 0.028166 0.000000 0.004903 0.000000
# 4 0.000000 0.000000 0.000000 0.111487 0.000000 0.006496
# 5 0.003576 0.001598 0.004903 0.000000 0.035300 0.000000
# 6 0.000000 0.000000 0.000000 0.006496 0.000000 0.037558
#
#
# Mechanical properties :
#
#
# Convention : Reuss Voigt Hill
#
# Bulk Modulus (GPa) = 22.84310 29.66687 26.25498
# Shear Modulus (GPa) = 17.63851 22.44921 20.04386
#
# Velocity S-wave (km/s) = 3.02012 3.40717 3.21946
# Velocity P-wave (km/s) = 4.89632 5.55153 5.23419
#
# Compressibility (1/GPa) = 0.04377690
#
# Stress axis : x y z
#
# Youngs Moduli (GPa) = 71.71039 45.36203 35.50430
#
# Poissons Ratio (x) = 0.18872 0.20972
# Poissons Ratio (y) = 0.29834 0.00433
# Poissons Ratio (z) = 0.42359 0.00554
#
# Static dielectric constant tensor:
#      x y z
#    x 3.487640 0.000000 0.072870 
#    y 0.000000 3.519890 0.000000 
#    z 0.072870 0.000000 3.417250 
# 
# 
# High freq. dielectric constant tensor:
#      x y z
#    x 1.764140 0.000000 0.000930 
#    y 0.000000 1.750830 0.000000 
#    z 0.000930 0.000000 1.745750 
# 
# From -- ./inp_files/32683.got.cif
#   From: 2010.03.12/outbox.cif.g09.slc.cpg/sg14_17_cif.got.tgz:32683.got - 2010.03.31 13:35:05.
