data_PCOD8125311
_publ_section_title
;
Structure prediction by ZEFSAII (Michael W. Deem and Ramdas Pophale) SiO2 
 PCOD8125311
Probable space group: P 21/C
;
_chemical_formula_sum "Si O2"
_cell_formula_units_Z 24
_cell_length_a 23.851448
_cell_length_b 4.942119
_cell_length_c 18.279207
_cell_angle_alpha 90.000000
_cell_angle_beta 155.872005
_cell_angle_gamma 90.000000
_cell_volume 880.787500
_symmetry_space_group_name_H-M "P 21/C"
_symmetry_group_IT_number 14
_symmetry_cell_setting 'monoclinic'
loop_
_space_group_symop_operation_xyz
x,y,z
-x,1/2+y,1/2-z
-x,-y,-z
x,1/2-y,1/2+z
loop_
_atom_site_type_symbol
_atom_site_label
_atom_site_fract_x
_atom_site_fract_y
_atom_site_fract_z
Si Si1 0.318368 0.612251 0.308255
Si Si2 0.947025 0.849285 0.778843
Si Si3 0.501763 0.655165 0.918891
Si Si4 0.124023 0.351689 0.967432
Si Si5 0.755753 0.353536 0.151060
Si Si6 0.415473 0.910867 0.167059
O O1 0.426114 0.445166 0.485743
O O2 0.405265 0.874866 0.378136
O O3 0.191523 0.696673 0.212436
O O4 0.263251 0.427997 0.175848
O O5 0.001334 0.545200 0.849786
O O6 0.856477 0.883680 0.596908
O O7 0.855706 0.911735 0.742165
O O8 0.078769 0.047954 0.933947
O O9 0.612401 0.446082 0.018008
O O10 0.384876 0.653823 0.715829
O O11 0.721885 0.156556 0.042518
O O12 0.546755 0.724243 0.301323
#
# Coordination Sequence:
#
# PCOD8125311 Si02
#       6
#     4   4   4   4   4   4
#     4  11  23  41  64  93 134 170 215 267 328 383
#     4  10  24  45  70  93 129 169 227 261 327 384
#     4  10  23  41  61  96 132 173 211 264 329 392
#     4  10  24  46  68  96 126 177 213 274 322 387
#     4  11  23  39  66  96 130 170 216 273 317 391
#     4  10  20  38  60  88 124 165 207 254 311 382
#
# _framework density 27.248343999999999
#
# number of rings (size 3 to 8) (size 9 to 14) (size 15 to 20)
#    0.000    1.667    1.667    1.500    4.667    1.333 
#    0.000    5.000    0.000    0.000    0.000    0.000 
#    0.000    0.000    0.000    0.000    0.000    0.000 
#
# Total GULP energy -297354.245500 kJ/mol
# GULP energy per Si atom -12389.760229 kJ/mol
# Density = 2.718633 g / cm^3
# Si number density = 27.248344 Si / 1000 Ang^3
#
#
#
# Elastic Constant Matrix: (Units=GPa)
#
#
# Indices 1 2 3 4 5 6 
#
# 1 140.7006 -14.6483 -1.1532 0.0000 -11.5826 0.0000
# 2 -14.6483 42.5294 -13.0943 0.0000 0.6415 0.0000
# 3 -1.1532 -13.0943 55.1298 0.0000 -7.1470 0.0000
# 4 0.0000 0.0000 0.0000 20.1123 0.0000 -1.4242
# 5 -11.5826 0.6415 -7.1470 0.0000 28.4316 0.0000
# 6 0.0000 0.0000 0.0000 -1.4242 0.0000 8.3263
#
#
#
# Elastic Compliance Matrix: (Units=1/GPa)
#
#
# Indices 1 2 3 4 5 6 
#
# 1 0.007712 0.003011 0.001318 0.000000 0.003405 0.000000
# 2 0.003011 0.026570 0.006672 0.000000 0.002304 0.000000
# 3 0.001318 0.006672 0.020469 0.000000 0.005532 0.000000
# 4 0.000000 0.000000 0.000000 0.050330 0.000000 0.008609
# 5 0.003405 0.002304 0.005532 0.000000 0.037898 0.000000
# 6 0.000000 0.000000 0.000000 0.008609 0.000000 0.121575
#
#
# Mechanical properties :
#
#
# Convention : Reuss Voigt Hill
#
# Bulk Modulus (GPa) = 13.02902 20.06313 16.54608
# Shear Modulus (GPa) = 18.64731 29.19105 23.91918
#
# Velocity S-wave (km/s) = 2.61884 3.27662 2.96602
# Velocity P-wave (km/s) = 3.73315 4.65768 4.22081
#
# Compressibility (1/GPa) = 0.07675173
#
# Stress axis : x y z
#
# Youngs Moduli (GPa) = 129.67099 37.63684 48.85547
#
# Poissons Ratio (x) = -0.11331 -0.06438
# Poissons Ratio (y) = -0.39038 -0.32599
# Poissons Ratio (z) = -0.17088 -0.25113
#
# Static dielectric constant tensor:
#      x y z
#    x 5.542700 0.000000 -0.797230 
#    y 0.000000 4.789700 0.000000 
#    z -0.797230 0.000000 4.720260 
# 
# 
# High freq. dielectric constant tensor:
#      x y z
#    x 2.115230 0.000000 -0.032460 
#    y 0.000000 2.097150 0.000000 
#    z -0.032460 0.000000 2.075920 
# 
# From -- ./inp_files/61611.got.cif
#   From: 2010.03.12/outbox.cif.g09.slc.cpg/sg14_31_cif.got.tgz:61611.got - 2010.03.31 13:35:05.
