data_PCOD8125367
_publ_section_title
;
Structure prediction by ZEFSAII (Michael W. Deem and Ramdas Pophale) SiO2 
 PCOD8125367
Probable space group: P 21/C
;
_chemical_formula_sum "Si O2"
_cell_formula_units_Z 28
_cell_length_a 8.858750
_cell_length_b 22.062973
_cell_length_c 12.664226
_cell_angle_alpha 90.000000
_cell_angle_beta 31.705478
_cell_angle_gamma 90.000000
_cell_volume 1300.863253
_symmetry_space_group_name_H-M "P 21/C"
_symmetry_group_IT_number 14
_symmetry_cell_setting 'monoclinic'
loop_
_space_group_symop_operation_xyz
x,y,z
-x,1/2+y,1/2-z
-x,-y,-z
x,1/2-y,1/2+z
loop_
_atom_site_type_symbol
_atom_site_label
_atom_site_fract_x
_atom_site_fract_y
_atom_site_fract_z
Si Si1 0.116785 0.863579 0.290090
Si Si2 0.286504 0.474442 0.979506
Si Si3 0.491805 0.075521 0.782841
Si Si4 0.753101 0.346243 0.957010
Si Si5 0.122065 0.948497 0.768168
Si Si6 0.868101 0.708430 0.109921
Si Si7 0.237962 0.785888 0.022007
O O1 0.401129 0.893625 0.171726
O O2 0.166361 0.842390 0.140359
O O3 0.852611 0.909770 0.460097
O O4 0.033303 0.802384 0.401882
O O5 0.297868 0.518693 0.870516
O O6 0.619902 0.467833 0.810394
O O7 0.098962 0.504726 0.184503
O O8 0.500832 0.122335 0.677895
O O9 0.168617 0.052428 0.991542
O O10 0.813908 0.381594 0.813924
O O11 0.682868 0.277080 0.963641
O O12 0.035958 0.344448 0.864612
O O13 0.532999 0.700875 0.285007
O O14 0.977659 0.773447 0.093600
#
# Coordination Sequence:
#
# PCOD8125367 Si02
#       7
#     4   4   4   4   4   4   4
#     4  11  23  39  62  88 121 165 197 244 311 352
#     4  10  23  38  58  93 121 151 207 250 287 364
#     4  10  20  40  61  85 121 160 195 247 304 351
#     4   8  20  37  58  84 122 148 199 250 289 357
#     4  10  20  38  63  87 119 159 199 244 302 348
#     4   9  22  40  55  88 119 152 202 250 290 360
#     4  10  22  40  61  84 123 156 204 249 299 357
#
# _framework density 21.524170000000002
#
# number of rings (size 3 to 8) (size 9 to 14) (size 15 to 20)
#    0.857    1.429    0.000    1.714    2.000    4.000 
#    2.571    0.000    0.000    0.000    0.000    0.000 
#    0.000    0.000    0.000    0.000    0.000    0.000 
#
# Total GULP energy -346929.806181 kJ/mol
# GULP energy per Si atom -12390.350221 kJ/mol
# Density = 2.147518 g / cm^3
# Si number density = 21.524170 Si / 1000 Ang^3
#
#
#
# Elastic Constant Matrix: (Units=GPa)
#
#
# Indices 1 2 3 4 5 6 
#
# 1 33.0180 8.9633 23.1917 0.0000 0.9988 0.0000
# 2 8.9633 81.2892 26.4253 0.0000 -3.5213 0.0000
# 3 23.1917 26.4253 109.3247 0.0000 -17.4863 0.0000
# 4 0.0000 0.0000 0.0000 32.2428 0.0000 5.2123
# 5 0.9988 -3.5213 -17.4863 0.0000 13.0495 0.0000
# 6 0.0000 0.0000 0.0000 5.2123 0.0000 31.3086
#
#
#
# Elastic Compliance Matrix: (Units=1/GPa)
#
#
# Indices 1 2 3 4 5 6 
#
# 1 0.038740 -0.001570 -0.010667 0.000000 -0.017683 0.000000
# 2 -0.001570 0.013423 -0.002944 0.000000 -0.000203 0.000000
# 3 -0.010667 -0.002944 0.015433 0.000000 0.020702 0.000000
# 4 0.000000 0.000000 0.000000 0.031872 0.000000 -0.005306
# 5 -0.017683 -0.000203 0.020702 0.000000 0.105671 0.000000
# 6 0.000000 0.000000 0.000000 -0.005306 0.000000 0.032823
#
#
# Mechanical properties :
#
#
# Convention : Reuss Voigt Hill
#
# Bulk Modulus (GPa) = 26.85708 37.86583 32.36145
# Shear Modulus (GPa) = 17.81035 26.32362 22.06699
#
# Velocity S-wave (km/s) = 2.87968 3.50091 3.20538
# Velocity P-wave (km/s) = 4.85401 5.82857 5.36347
#
# Compressibility (1/GPa) = 0.03723413
#
# Stress axis : x y z
#
# Youngs Moduli (GPa) = 25.81306 74.49848 64.79739
#
# Poissons Ratio (x) = 0.11696 0.69119
# Poissons Ratio (y) = 0.04053 0.19076
# Poissons Ratio (z) = 0.27535 0.21931
#
# Static dielectric constant tensor:
#      x y z
#    x 3.605770 0.000000 -0.011730 
#    y 0.000000 3.894570 0.000000 
#    z -0.011730 0.000000 3.573520 
# 
# 
# High freq. dielectric constant tensor:
#      x y z
#    x 1.823280 0.000000 -0.002900 
#    y 0.000000 1.842620 0.000000 
#    z -0.002900 0.000000 1.836950 
# 
# From -- ./inp_files/27112.got.cif
#   From: 2010.03.12/outbox.cif.g09.slc.cpg/sg14_14_cif.got.tgz:27112.got - 2010.03.31 13:35:05.
