data_PCOD8125924
_publ_section_title
;
Structure prediction by ZEFSAII (Michael W. Deem and Ramdas Pophale) SiO2 
 PCOD8125924
Probable space group: P 21/C
;
_chemical_formula_sum "Si O2"
_cell_formula_units_Z 28
_cell_length_a 18.376846
_cell_length_b 16.596543
_cell_length_c 7.688005
_cell_angle_alpha 90.000000
_cell_angle_beta 145.119276
_cell_angle_gamma 90.000000
_cell_volume 1340.909662
_symmetry_space_group_name_H-M "P 21/C"
_symmetry_group_IT_number 14
_symmetry_cell_setting 'monoclinic'
loop_
_space_group_symop_operation_xyz
x,y,z
-x,1/2+y,1/2-z
-x,-y,-z
x,1/2-y,1/2+z
loop_
_atom_site_type_symbol
_atom_site_label
_atom_site_fract_x
_atom_site_fract_y
_atom_site_fract_z
Si Si1 0.104879 0.643929 0.152140
Si Si2 0.641896 0.430161 0.937150
Si Si3 0.171636 0.145101 0.983197
Si Si4 0.298599 0.508222 0.575616
Si Si5 0.365654 0.437777 0.362338
Si Si6 0.160807 0.175769 0.349537
Si Si7 0.120350 0.681170 0.578651
O O1 0.191446 0.567109 0.290921
O O2 0.082432 0.661779 0.309282
O O3 0.159651 0.725041 0.170122
O O4 0.974242 0.618441 0.807596
O O5 0.503550 0.393409 0.612440
O O6 0.664671 0.509647 0.867836
O O7 0.634950 0.448545 0.130667
O O8 0.757867 0.369945 0.119420
O O9 0.190858 0.230486 0.928535
O O10 0.252728 0.078833 0.045261
O O11 0.211706 0.150119 0.261656
O O12 0.383904 0.492920 0.571725
O O13 0.248277 0.375323 0.155569
O O14 0.008837 0.160192 0.068485
#
# Coordination Sequence:
#
# PCOD8125924 Si02
#       7
#     4   4   4   4   4   4   4
#     4  10  21  36  60  94 125 164 201 262 310 372
#     4  10  24  43  61  92 123 164 209 256 302 383
#     4  11  21  38  60  95 129 158 214 255 315 374
#     4  11  22  40  65  91 128 164 210 254 314 371
#     4  11  23  42  65  88 126 164 206 256 315 358
#     4  11  22  38  65  92 124 167 206 263 309 371
#     4  10  21  39  61  90 126 156 213 251 314 367
#
# _framework density 20.881347000000002
#
# number of rings (size 3 to 8) (size 9 to 14) (size 15 to 20)
#    0.000    1.429    1.429    6.000    4.000    1.714 
#    0.000    7.143    0.000    0.000    0.000    0.000 
#    0.000    0.000    0.000    0.000    0.000    0.000 
#
# Total GULP energy -347055.927214 kJ/mol
# GULP energy per Si atom -12394.854543 kJ/mol
# Density = 2.083382 g / cm^3
# Si number density = 20.881347 Si / 1000 Ang^3
#
#
#
# Elastic Constant Matrix: (Units=GPa)
#
#
# Indices 1 2 3 4 5 6 
#
# 1 54.3114 35.3541 39.3182 0.0000 7.6630 0.0000
# 2 35.3541 -75.5477 -106.5802 0.0000 -40.7624 0.0000
# 3 39.3182 -106.5802 -62.2773 0.0000 -42.2605 0.0000
# 4 0.0000 0.0000 0.0000 40.2457 0.0000 34.3804
# 5 7.6630 -40.7624 -42.2605 0.0000 4.6890 0.0000
# 6 0.0000 0.0000 0.0000 34.3804 0.0000 114.2474
#
#
#
# Elastic Compliance Matrix: (Units=1/GPa)
#
#
# Indices 1 2 3 4 5 6 
#
# 1 0.015205 0.002754 0.000773 0.000000 0.006061 0.000000
# 2 0.002754 0.013486 -0.013750 0.000000 -0.011187 0.000000
# 3 0.000773 -0.013750 0.012638 0.000000 -0.006890 0.000000
# 4 0.000000 0.000000 0.000000 0.033445 0.000000 -0.010065
# 5 0.006061 -0.011187 -0.006890 0.000000 0.044007 0.000000
# 6 0.000000 0.000000 0.000000 -0.010065 0.000000 0.011782
#
#
# Mechanical properties :
#
#
# Convention : Reuss Voigt Hill
#
# Bulk Modulus (GPa) = 47.88476 -16.36993 15.75741
# Shear Modulus (GPa) = 31.65161 28.39604 30.02383
#
# Velocity S-wave (km/s) = 3.89753 3.69165 3.79599
# Velocity P-wave (km/s) = 6.57540 3.21162 5.17448
#
# Compressibility (1/GPa) = 0.02088347
#
# Stress axis : x y z
#
# Youngs Moduli (GPa) = 65.76938 74.14999 79.12458
#
# Poissons Ratio (x) = -0.20419 -0.06120
# Poissons Ratio (y) = -0.18111 1.08796
# Poissons Ratio (z) = -0.05087 1.01956
#
# Static dielectric constant tensor:
#      x y z
#    x 3.703900 0.000000 -0.147850 
#    y 0.000000 3.692790 0.000000 
#    z -0.147850 0.000000 3.893720 
# 
# 
# High freq. dielectric constant tensor:
#      x y z
#    x 1.818910 0.000000 -0.016310 
#    y 0.000000 1.808590 0.000000 
#    z -0.016310 0.000000 1.825680 
# 
# From -- ./inp_files/16295.got.cif
#   From: 2010.03.12/outbox.cif.g09.slc.cpg/sg14_9_cif.got.tgz:16295.got - 2010.03.31 13:35:05.
