data_PCOD8125200
_publ_section_title
;
Structure prediction by ZEFSAII (Michael W. Deem and Ramdas Pophale) SiO2 
 PCOD8125200
Probable space group: P 21/C
;
_chemical_formula_sum "Si O2"
_cell_formula_units_Z 28
_cell_length_a 5.260445
_cell_length_b 12.535601
_cell_length_c 19.869416
_cell_angle_alpha 90.000000
_cell_angle_beta 96.367418
_cell_angle_gamma 90.000000
_cell_volume 1302.162999
_symmetry_space_group_name_H-M "P 21/C"
_symmetry_group_IT_number 14
_symmetry_cell_setting 'monoclinic'
loop_
_space_group_symop_operation_xyz
x,y,z
-x,1/2+y,1/2-z
-x,-y,-z
x,1/2-y,1/2+z
loop_
_atom_site_type_symbol
_atom_site_label
_atom_site_fract_x
_atom_site_fract_y
_atom_site_fract_z
Si Si1 0.486196 0.107728 0.615753
Si Si2 0.569795 0.362239 0.863137
Si Si3 0.012371 0.274340 0.151846
Si Si4 0.939879 0.882157 0.081114
Si Si5 0.443881 0.230659 0.491602
Si Si6 0.031655 0.270047 0.805583
Si Si7 0.190342 0.892870 0.950523
O O1 0.284525 0.165176 0.659371
O O2 0.379980 0.129686 0.536985
O O3 0.776396 0.148613 0.628373
O O4 0.500683 0.984325 0.630916
O O5 0.326125 0.304642 0.822195
O O6 0.827329 0.355310 0.827349
O O7 0.632432 0.307996 0.937392
O O8 0.969111 0.234368 0.225620
O O9 0.019665 0.175161 0.098388
O O10 0.031364 0.844287 0.158210
O O11 0.770819 0.990798 0.082923
O O12 0.806868 0.775169 0.050600
O O13 0.147008 0.909880 0.029852
O O14 0.550886 0.324371 0.543540
#
# Coordination Sequence:
#
# PCOD8125200 Si02
#       7
#     4   4   4   4   4   4   4
#     4  11  23  40  65  91 125 164 207 253 314 373
#     4  11  23  40  65  91 125 164 207 253 314 373
#     4  11  24  43  62  92 128 165 207 263 308 373
#     4  10  20  37  61  88 120 163 209 257 309 366
#     4  10  20  38  60  94 124 160 204 266 306 370
#     4  11  24  43  62  92 128 165 207 263 308 373
#     4  10  20  37  61  88 120 163 209 257 309 366
#
# _framework density 21.502683000000001
#
# number of rings (size 3 to 8) (size 9 to 14) (size 15 to 20)
#    0.000    1.429    2.857    2.571    0.000    2.286 
#    0.000    4.286    0.000    0.000    0.000    0.000 
#    0.000    0.000    0.000    0.000    0.000    0.000 
#
# Total GULP energy -346952.619155 kJ/mol
# GULP energy per Si atom -12391.164970 kJ/mol
# Density = 2.145374 g / cm^3
# Si number density = 21.502683 Si / 1000 Ang^3
#
#
#
# Elastic Constant Matrix: (Units=GPa)
#
#
# Indices 1 2 3 4 5 6 
#
# 1 67.4806 2.2467 5.8380 0.0000 -8.5826 0.0000
# 2 2.2467 79.9640 29.9079 0.0000 4.1637 0.0000
# 3 5.8380 29.9079 93.7961 0.0000 -3.2725 0.0000
# 4 0.0000 0.0000 0.0000 13.6006 0.0000 -3.2590
# 5 -8.5826 4.1637 -3.2725 0.0000 23.8475 0.0000
# 6 0.0000 0.0000 0.0000 -3.2590 0.0000 27.5044
#
#
#
# Elastic Compliance Matrix: (Units=1/GPa)
#
#
# Indices 1 2 3 4 5 6 
#
# 1 0.015604 -0.000501 -0.000615 0.000000 0.005619 0.000000
# 2 -0.000501 0.014449 -0.004693 0.000000 -0.003347 0.000000
# 3 -0.000615 -0.004693 0.012276 0.000000 0.002282 0.000000
# 4 0.000000 0.000000 0.000000 0.075675 0.000000 0.008967
# 5 0.005619 -0.003347 0.002282 0.000000 0.044853 0.000000
# 6 0.000000 0.000000 0.000000 0.008967 0.000000 0.037420
#
#
# Mechanical properties :
#
#
# Convention : Reuss Voigt Hill
#
# Bulk Modulus (GPa) = 32.56240 35.24734 33.90487
# Shear Modulus (GPa) = 22.50916 26.54035 24.52475
#
# Velocity S-wave (km/s) = 3.23895 3.51704 3.38086
# Velocity P-wave (km/s) = 5.40037 5.73763 5.57156
#
# Compressibility (1/GPa) = 0.03071027
#
# Stress axis : x y z
#
# Youngs Moduli (GPa) = 64.08771 69.20798 81.46146
#
# Poissons Ratio (x) = 0.03466 0.05014
# Poissons Ratio (y) = 0.03209 0.38229
# Poissons Ratio (z) = 0.03944 0.32479
#
# Static dielectric constant tensor:
#      x y z
#    x 3.641600 0.000000 -0.028060 
#    y 0.000000 4.034660 0.000000 
#    z -0.028060 0.000000 4.116180 
# 
# 
# High freq. dielectric constant tensor:
#      x y z
#    x 1.833750 0.000000 -0.004000 
#    y 0.000000 1.843940 0.000000 
#    z -0.004000 0.000000 1.841580 
# 
# From -- ./inp_files/63321.got.cif
#   From: 2010.03.12/outbox.cif.g09.slc.cpg/sg14_32_cif.got.tgz:63321.got - 2010.03.31 13:35:05.
