data_PCOD8125642
_publ_section_title
;
Structure prediction by ZEFSAII (Michael W. Deem and Ramdas Pophale) SiO2 
 PCOD8125642
Probable space group: P 21/C
;
_chemical_formula_sum "Si O2"
_cell_formula_units_Z 24
_cell_length_a 18.237678
_cell_length_b 9.745859
_cell_length_c 16.642572
_cell_angle_alpha 90.000000
_cell_angle_beta 155.918608
_cell_angle_gamma 90.000000
_cell_volume 1206.997694
_symmetry_space_group_name_H-M "P 21/C"
_symmetry_group_IT_number 14
_symmetry_cell_setting 'monoclinic'
loop_
_space_group_symop_operation_xyz
x,y,z
-x,1/2+y,1/2-z
-x,-y,-z
x,1/2-y,1/2+z
loop_
_atom_site_type_symbol
_atom_site_label
_atom_site_fract_x
_atom_site_fract_y
_atom_site_fract_z
Si Si1 0.294498 0.352629 0.823626
Si Si2 0.704743 0.094238 0.131595
Si Si3 0.293960 0.647351 0.765232
Si Si4 0.294446 0.405845 0.221604
Si Si5 0.999450 0.485064 0.803626
Si Si6 0.999631 0.792844 0.843181
O O1 0.223441 0.499932 0.723627
O O2 0.274532 0.252062 0.727644
O O3 0.178900 0.298218 0.781926
O O4 0.500473 0.359839 0.059285
O O5 0.724806 0.252266 0.177377
O O6 0.821592 0.067048 0.170325
O O7 0.775338 0.000191 0.275211
O O8 0.499482 0.056226 0.905227
O O9 0.177212 0.702135 0.574959
O O10 0.176741 0.432566 0.025896
O O11 0.999798 0.649510 0.795275
O O12 0.999597 0.421465 0.715502
#
# Coordination Sequence:
#
# PCOD8125642 Si02
#       6
#     4   4   4   4   4   4
#     4  10  22  41  66  91 116 153 203 252 294 345
#     4  10  20  40  67  87 110 154 205 249 291 343
#     4  10  22  41  66  91 116 153 203 252 294 345
#     4  10  20  40  67  87 110 154 205 249 291 343
#     4  12  26  39  58  89 125 160 195 241 301 360
#     4  12  26  40  58  89 127 161 193 241 299 358
#
# _framework density 19.884046999999999
#
# number of rings (size 3 to 8) (size 9 to 14) (size 15 to 20)
#    0.000    1.333    3.333    2.000    4.667    1.333 
#    0.000    0.000    0.000    0.000    0.000    0.000 
#    0.000    0.000    0.000    0.000    0.000    0.000 
#
# Total GULP energy -297750.062594 kJ/mol
# GULP energy per Si atom -12406.252608 kJ/mol
# Density = 1.983879 g / cm^3
# Si number density = 19.884047 Si / 1000 Ang^3
#
#
#
# Elastic Constant Matrix: (Units=GPa)
#
#
# Indices 1 2 3 4 5 6 
#
# 1 57.3732 13.4556 48.7042 0.0000 1.7516 0.0000
# 2 13.4556 129.0710 15.1885 0.0000 2.1992 0.0000
# 3 48.7042 15.1885 70.5832 0.0000 14.6369 0.0000
# 4 0.0000 0.0000 0.0000 27.0490 0.0000 -6.7033
# 5 1.7516 2.1992 14.6369 0.0000 18.0830 0.0000
# 6 0.0000 0.0000 0.0000 -6.7033 0.0000 33.3505
#
#
#
# Elastic Compliance Matrix: (Units=1/GPa)
#
#
# Indices 1 2 3 4 5 6 
#
# 1 0.052392 -0.001020 -0.041947 0.000000 0.029002 0.000000
# 2 -0.001020 0.007973 -0.000999 0.000000 -0.000062 0.000000
# 3 -0.041947 -0.000999 0.051024 0.000000 -0.037116 0.000000
# 4 0.000000 0.000000 0.000000 0.038908 0.000000 0.007820
# 5 0.029002 -0.000062 -0.037116 0.000000 0.082542 0.000000
# 6 0.000000 0.000000 0.000000 0.007820 0.000000 0.031556
#
#
# Mechanical properties :
#
#
# Convention : Reuss Voigt Hill
#
# Bulk Modulus (GPa) = 42.63053 45.74712 44.18883
# Shear Modulus (GPa) = 13.88332 27.67509 20.77921
#
# Velocity S-wave (km/s) = 2.64524 3.73476 3.23618
# Velocity P-wave (km/s) = 5.55120 6.45406 6.01958
#
# Compressibility (1/GPa) = 0.02345737
#
# Stress axis : x y z
#
# Youngs Moduli (GPa) = 19.08683 125.42950 19.59877
#
# Poissons Ratio (x) = 0.12793 0.82210
# Poissons Ratio (y) = 0.01947 0.01958
# Poissons Ratio (z) = 0.80063 0.12529
#
# Static dielectric constant tensor:
#      x y z
#    x 3.389530 0.000000 0.216610 
#    y 0.000000 3.912650 0.000000 
#    z 0.216610 0.000000 3.590240 
# 
# 
# High freq. dielectric constant tensor:
#      x y z
#    x 1.756270 0.000000 0.021660 
#    y 0.000000 1.797660 0.000000 
#    z 0.021660 0.000000 1.776660 
# 
# From -- ./inp_files/48650.got.cif
#   From: 2010.03.12/outbox.cif.g09.slc.cpg/sg14_25_cif.got.tgz:48650.got - 2010.03.31 13:35:05.
