data_PCOD8125798
_publ_section_title
;
Structure prediction by ZEFSAII (Michael W. Deem and Ramdas Pophale) SiO2 
 PCOD8125798
Probable space group: P 21/C
;
_chemical_formula_sum "Si O2"
_cell_formula_units_Z 28
_cell_length_a 12.123920
_cell_length_b 11.425808
_cell_length_c 19.661697
_cell_angle_alpha 90.000000
_cell_angle_beta 152.873816
_cell_angle_gamma 90.000000
_cell_volume 1241.851903
_symmetry_space_group_name_H-M "P 21/C"
_symmetry_group_IT_number 14
_symmetry_cell_setting 'monoclinic'
loop_
_space_group_symop_operation_xyz
x,y,z
-x,1/2+y,1/2-z
-x,-y,-z
x,1/2-y,1/2+z
loop_
_atom_site_type_symbol
_atom_site_label
_atom_site_fract_x
_atom_site_fract_y
_atom_site_fract_z
Si Si1 0.815048 0.571818 0.825544
Si Si2 0.242812 0.664222 0.145297
Si Si3 0.018009 0.049752 0.168059
Si Si4 0.438435 0.882310 0.512864
Si Si5 0.853188 0.294261 0.271565
Si Si6 0.941217 0.937292 0.664275
Si Si7 0.367972 0.784207 0.086531
O O1 0.681139 0.467858 0.793841
O O2 0.603647 0.655267 0.684105
O O3 0.959212 0.518312 0.841133
O O4 0.980220 0.650394 0.965695
O O5 0.254140 0.746274 0.217287
O O6 0.422096 0.724563 0.189330
O O7 0.278979 0.113395 0.314797
O O8 0.900060 0.049435 0.179651
O O9 0.016943 0.916832 0.140441
O O10 0.852396 0.124483 0.026444
O O11 0.362912 0.818120 0.400967
O O12 0.293265 0.814755 0.492104
O O13 0.327361 0.015979 0.457443
O O14 0.051788 0.199059 0.353726
#
# Coordination Sequence:
#
# PCOD8125798 Si02
#       7
#     4   4   4   4   4   4   4
#     4  10  23  43  68  98 132 182 226 276 345 402
#     4  10  23  45  63  96 136 179 225 274 345 399
#     4  11  25  43  68 104 136 178 230 279 346 398
#     4  11  23  43  70 100 136 182 213 289 345 402
#     4  10  22  43  67  98 131 175 228 278 331 408
#     4  10  20  44  67  99 130 171 225 277 342 399
#     4  12  24  43  69 100 135 182 223 283 339 418
#
# _framework density 22.546972
#
# number of rings (size 3 to 8) (size 9 to 14) (size 15 to 20)
#    0.000    1.429    2.857    2.571    0.000    3.429 
#   18.000    0.000    0.000    0.000    0.000    0.000 
#    0.000    0.000    0.000    0.000    0.000    0.000 
#
# Total GULP energy -346970.659081 kJ/mol
# GULP energy per Si atom -12391.809253 kJ/mol
# Density = 2.249565 g / cm^3
# Si number density = 22.546972 Si / 1000 Ang^3
#
#
#
# Elastic Constant Matrix: (Units=GPa)
#
#
# Indices 1 2 3 4 5 6 
#
# 1 94.5760 32.4857 22.5795 0.0000 -22.7386 0.0000
# 2 32.4857 113.3650 32.6954 0.0000 -4.2033 0.0000
# 3 22.5795 32.6954 55.3486 0.0000 5.7417 0.0000
# 4 0.0000 0.0000 0.0000 29.3107 0.0000 -3.3959
# 5 -22.7386 -4.2033 5.7417 0.0000 24.7773 0.0000
# 6 0.0000 0.0000 0.0000 -3.3959 0.0000 40.0242
#
#
#
# Elastic Compliance Matrix: (Units=1/GPa)
#
#
# Indices 1 2 3 4 5 6 
#
# 1 0.017252 -0.002121 -0.007572 0.000000 0.017227 0.000000
# 2 -0.002121 0.011170 -0.005869 0.000000 0.001308 0.000000
# 3 -0.007572 -0.005869 0.026074 0.000000 -0.013987 0.000000
# 4 0.000000 0.000000 0.000000 0.034456 0.000000 0.002923
# 5 0.017227 0.001308 -0.013987 0.000000 0.059632 0.000000
# 6 0.000000 0.000000 0.000000 0.002923 0.000000 0.025233
#
#
# Mechanical properties :
#
#
# Convention : Reuss Voigt Hill
#
# Bulk Modulus (GPa) = 42.78605 48.75676 45.77141
# Shear Modulus (GPa) = 23.50386 30.52438 27.01412
#
# Velocity S-wave (km/s) = 3.23219 3.68341 3.46515
# Velocity P-wave (km/s) = 5.73995 6.30567 6.02945
#
# Compressibility (1/GPa) = 0.02337210
#
# Stress axis : x y z
#
# Youngs Moduli (GPa) = 57.96544 89.52566 38.35236
#
# Poissons Ratio (x) = 0.18989 0.29040
# Poissons Ratio (y) = 0.12295 0.22508
# Poissons Ratio (z) = 0.43891 0.52540
#
# Static dielectric constant tensor:
#      x y z
#    x 4.128960 0.000000 -0.217130 
#    y 0.000000 4.362670 0.000000 
#    z -0.217130 0.000000 3.634190 
# 
# 
# High freq. dielectric constant tensor:
#      x y z
#    x 1.894740 0.000000 -0.014100 
#    y 0.000000 1.910760 0.000000 
#    z -0.014100 0.000000 1.857200 
# 
# From -- ./inp_files/67364.got.cif
#   From: 2010.03.12/outbox.cif.g09.slc.cpg/sg14_34_cif.got.tgz:67364.got - 2010.03.31 13:35:05.
