data_PCOD8125253
_publ_section_title
;
Structure prediction by ZEFSAII (Michael W. Deem and Ramdas Pophale) SiO2 
 PCOD8125253
Probable space group: P 21/C
;
_chemical_formula_sum "Si O2"
_cell_formula_units_Z 32
_cell_length_a 8.577038
_cell_length_b 14.234030
_cell_length_c 25.552474
_cell_angle_alpha 90.000000
_cell_angle_beta 27.694927
_cell_angle_gamma 90.000000
_cell_volume 1449.874195
_symmetry_space_group_name_H-M "P 21/C"
_symmetry_group_IT_number 14
_symmetry_cell_setting 'monoclinic'
loop_
_space_group_symop_operation_xyz
x,y,z
-x,1/2+y,1/2-z
-x,-y,-z
x,1/2-y,1/2+z
loop_
_atom_site_type_symbol
_atom_site_label
_atom_site_fract_x
_atom_site_fract_y
_atom_site_fract_z
Si Si1 0.376514 0.104538 0.732033
Si Si2 0.007358 0.362268 0.515968
Si Si3 0.812242 0.545240 0.380251
Si Si4 0.782499 0.747810 0.141632
Si Si5 0.024644 0.768458 0.868073
Si Si6 0.574091 0.507342 0.339978
Si Si7 0.997683 0.434025 0.123684
Si Si8 0.827572 0.432310 0.008459
O O1 0.202654 0.201865 0.804857
O O2 0.665095 0.078774 0.687194
O O3 0.518196 0.118312 0.630374
O O4 0.130043 0.015951 0.803186
O O5 0.975427 0.282914 0.569345
O O6 0.668776 0.423090 0.619687
O O7 0.020937 0.317894 0.454811
O O8 0.343933 0.421018 0.427836
O O9 0.500000 0.500000 0.500000
O O10 0.758524 0.553047 0.334462
O O11 0.835077 0.651360 0.393409
O O12 0.403140 0.737221 0.234372
O O13 0.942150 0.644895 0.089078
O O14 0.840470 0.668407 0.913127
O O15 0.884011 0.478654 0.211719
O O16 0.267452 0.499132 0.012248
O O17 0.000000 0.500000 0.000000
#
# Coordination Sequence:
#
# PCOD8125253 Si02
#       8
#     4   4   4   4   4   4   4   4
#     4  10  21  39  63  95 127 167 220 265 327 391
#     4  11  20  37  67  92 123 168 222 271 315 390
#     4  12  24  40  62  95 135 175 209 280 342 394
#     4  11  20  36  67  98 125 165 226 276 316 389
#     4  11  22  37  64  94 128 168 224 269 332 388
#     4  11  22  39  63  94 132 167 218 273 331 390
#     4  10  21  42  65  96 124 172 224 277 318 399
#     4  10  20  37  65  95 126 165 216 275 328 378
#
# _framework density 22.070879999999999
#
# number of rings (size 3 to 8) (size 9 to 14) (size 15 to 20)
#    0.000    1.250    3.750    6.000    0.000    0.000 
#    0.000    6.875    0.000    1.500    0.000    0.000 
#    0.000    0.000    0.000    0.000    0.000    0.000 
#
# Total GULP energy -396646.336514 kJ/mol
# GULP energy per Si atom -12395.198016 kJ/mol
# Density = 2.202065 g / cm^3
# Si number density = 22.070880 Si / 1000 Ang^3
#
#
#
# Elastic Constant Matrix: (Units=GPa)
#
#
# Indices 1 2 3 4 5 6 
#
# 1 63.7047 35.7186 31.3542 0.0000 25.0573 0.0000
# 2 35.7186 157.2085 67.2995 0.0000 27.8719 0.0000
# 3 31.3542 67.2995 111.8020 0.0000 39.3008 0.0000
# 4 0.0000 0.0000 0.0000 42.0841 0.0000 9.8732
# 5 25.0573 27.8719 39.3008 0.0000 32.9624 0.0000
# 6 0.0000 0.0000 0.0000 9.8732 0.0000 28.6267
#
#
#
# Elastic Compliance Matrix: (Units=1/GPa)
#
#
# Indices 1 2 3 4 5 6 
#
# 1 0.023262 -0.002764 0.000920 0.000000 -0.016443 0.000000
# 2 -0.002764 0.008966 -0.004641 0.000000 0.000052 0.000000
# 3 0.000920 -0.004641 0.017811 0.000000 -0.018012 0.000000
# 4 0.000000 0.000000 0.000000 0.025854 0.000000 -0.008917
# 5 -0.016443 0.000052 -0.018012 0.000000 0.064269 0.000000
# 6 0.000000 0.000000 0.000000 -0.008917 0.000000 0.038008
#
#
# Mechanical properties :
#
#
# Convention : Reuss Voigt Hill
#
# Bulk Modulus (GPa) = 26.97523 66.82885 46.90204
# Shear Modulus (GPa) = 24.57063 33.95751 29.26407
#
# Velocity S-wave (km/s) = 3.34018 3.92671 3.64526
# Velocity P-wave (km/s) = 5.20810 7.13468 6.24612
#
# Compressibility (1/GPa) = 0.03707105
#
# Stress axis : x y z
#
# Youngs Moduli (GPa) = 42.98868 111.52949 56.14442
#
# Poissons Ratio (x) = 0.30826 -0.05167
# Poissons Ratio (y) = 0.11882 0.26054
# Poissons Ratio (z) = -0.03956 0.51756
#
# Static dielectric constant tensor:
#      x y z
#    x -6.886760 0.000000 -3.499930 
#    y 0.000000 4.964940 0.000000 
#    z -3.499930 0.000000 2.886690 
# 
# 
# High freq. dielectric constant tensor:
#      x y z
#    x 1.830340 0.000000 0.026790 
#    y 0.000000 1.880600 0.000000 
#    z 0.026790 0.000000 1.878830 
# 
# From -- ./inp_files/72473.got.cif
#   From: 2010.03.12/outbox.cif.g09.slc.cpg/sg14_37_cif.got.tgz:72473.got - 2010.03.31 13:35:05.
