data_PCOD8125491
_publ_section_title
;
Structure prediction by ZEFSAII (Michael W. Deem and Ramdas Pophale) SiO2 
 PCOD8125491
Probable space group: P 21/C
;
_chemical_formula_sum "Si O2"
_cell_formula_units_Z 28
_cell_length_a 8.929769
_cell_length_b 14.383950
_cell_length_c 10.881329
_cell_angle_alpha 90.000000
_cell_angle_beta 102.211640
_cell_angle_gamma 90.000000
_cell_volume 1366.031275
_symmetry_space_group_name_H-M "P 21/C"
_symmetry_group_IT_number 14
_symmetry_cell_setting 'monoclinic'
loop_
_space_group_symop_operation_xyz
x,y,z
-x,1/2+y,1/2-z
-x,-y,-z
x,1/2-y,1/2+z
loop_
_atom_site_type_symbol
_atom_site_label
_atom_site_fract_x
_atom_site_fract_y
_atom_site_fract_z
Si Si1 0.338532 0.356235 0.194173
Si Si2 0.628302 0.834618 0.913798
Si Si3 0.378337 0.762264 0.489108
Si Si4 0.370877 0.524882 0.729453
Si Si5 0.209236 0.795176 0.202414
Si Si6 0.853564 0.723554 0.643336
Si Si7 0.342987 0.391901 0.932700
O O1 0.406395 0.250962 0.186377
O O2 0.474669 0.418933 0.270728
O O3 0.197209 0.352217 0.263635
O O4 0.274253 0.403077 0.057987
O O5 0.492798 0.827421 0.993509
O O6 0.630877 0.935501 0.856983
O O7 0.794353 0.813795 0.001581
O O8 0.276033 0.768065 0.347543
O O9 0.282221 0.757207 0.597846
O O10 0.485115 0.852725 0.519977
O O11 0.228220 0.594026 0.681839
O O12 0.356589 0.490158 0.867577
O O13 0.033696 0.765402 0.172997
O O14 0.771733 0.822435 0.660729
#
# Coordination Sequence:
#
# PCOD8125491 Si02
#       7
#     4   4   4   4   4   4   4
#     4  10  20  39  63  93 123 170 214 265 315 389
#     4  10  22  40  67  90 129 168 220 268 327 381
#     4  10  23  43  64 100 126 178 218 280 321 383
#     4  12  21  41  70 101 122 168 231 276 315 389
#     4  12  25  39  68  97 137 167 224 267 335 392
#     4  10  23  41  61  91 139 175 200 262 344 392
#     4  10  21  39  68  88 125 175 219 264 320 391
#
# _framework density 20.497333999999999
#
# number of rings (size 3 to 8) (size 9 to 14) (size 15 to 20)
#    0.000    1.714    4.286    3.000    4.000    2.857 
#    0.000    3.571    0.000    0.000    0.000    0.000 
#    0.000    0.000    0.000    0.000    0.000    0.000 
#
# Total GULP energy -346975.193258 kJ/mol
# GULP energy per Si atom -12391.971188 kJ/mol
# Density = 2.045068 g / cm^3
# Si number density = 20.497334 Si / 1000 Ang^3
#
#
#
# Elastic Constant Matrix: (Units=GPa)
#
#
# Indices 1 2 3 4 5 6 
#
# 1 103.7680 18.5312 33.7931 0.0000 15.9658 0.0000
# 2 18.5312 81.5858 22.9634 0.0000 2.7430 0.0000
# 3 33.7931 22.9634 76.4688 0.0000 4.3002 0.0000
# 4 0.0000 0.0000 0.0000 28.2917 0.0000 -5.6841
# 5 15.9658 2.7430 4.3002 0.0000 33.7453 0.0000
# 6 0.0000 0.0000 0.0000 -5.6841 0.0000 16.9733
#
#
#
# Elastic Compliance Matrix: (Units=1/GPa)
#
#
# Indices 1 2 3 4 5 6 
#
# 1 0.012177 -0.001269 -0.004716 0.000000 -0.005057 0.000000
# 2 -0.001269 0.013532 -0.003500 0.000000 -0.000054 0.000000
# 3 -0.004716 -0.003500 0.016187 0.000000 0.000453 0.000000
# 4 0.000000 0.000000 0.000000 0.037896 0.000000 0.012691
# 5 -0.005057 -0.000054 0.000453 0.000000 0.031973 0.000000
# 6 0.000000 0.000000 0.000000 0.012691 0.000000 0.063166
#
#
# Mechanical properties :
#
#
# Convention : Reuss Voigt Hill
#
# Bulk Modulus (GPa) = 43.61648 45.82200 44.71924
# Shear Modulus (GPa) = 24.80855 28.23769 26.52312
#
# Velocity S-wave (km/s) = 3.48275 3.71567 3.60109
# Velocity P-wave (km/s) = 6.12357 6.38842 6.25739
#
# Compressibility (1/GPa) = 0.02292711
#
# Stress axis : x y z
#
# Youngs Moduli (GPa) = 82.11933 73.89836 61.77810
#
# Poissons Ratio (x) = 0.09374 0.29135
# Poissons Ratio (y) = 0.10417 0.21623
# Poissons Ratio (z) = 0.38728 0.25865
#
# Static dielectric constant tensor:
#      x y z
#    x 3.524360 0.000000 -0.222910 
#    y 0.000000 3.625150 0.000000 
#    z -0.222910 0.000000 4.020750 
# 
# 
# High freq. dielectric constant tensor:
#      x y z
#    x 1.778110 0.000000 -0.014580 
#    y 0.000000 1.783700 0.000000 
#    z -0.014580 0.000000 1.819670 
# 
# From -- ./inp_files/25315.got.cif
#   From: 2010.03.12/outbox.cif.g09.slc.cpg/sg14_13_cif.got.tgz:25315.got - 2010.03.31 13:35:05.
