data_PCOD8125740
_publ_section_title
;
Structure prediction by ZEFSAII (Michael W. Deem and Ramdas Pophale) SiO2 
 PCOD8125740
Probable space group: P 21/C
;
_chemical_formula_sum "Si O2"
_cell_formula_units_Z 24
_cell_length_a 14.614536
_cell_length_b 10.169182
_cell_length_c 14.519779
_cell_angle_alpha 90.000000
_cell_angle_beta 149.978586
_cell_angle_gamma 90.000000
_cell_volume 1079.647738
_symmetry_space_group_name_H-M "P 21/C"
_symmetry_group_IT_number 14
_symmetry_cell_setting 'monoclinic'
loop_
_space_group_symop_operation_xyz
x,y,z
-x,1/2+y,1/2-z
-x,-y,-z
x,1/2-y,1/2+z
loop_
_atom_site_type_symbol
_atom_site_label
_atom_site_fract_x
_atom_site_fract_y
_atom_site_fract_z
Si Si1 0.328693 0.330065 0.221926
Si Si2 0.696410 0.432745 0.478488
Si Si3 0.719759 0.975971 0.605817
Si Si4 0.260112 0.329838 0.369145
Si Si5 0.691941 0.961871 0.783151
Si Si6 0.949260 0.996739 0.636293
O O1 0.530094 0.334745 0.352126
O O2 0.349569 0.359284 0.348172
O O3 0.246353 0.185060 0.134876
O O4 0.193465 0.435734 0.058830
O O5 0.638131 0.578694 0.465947
O O6 0.739778 0.438276 0.406786
O O7 0.885461 0.392790 0.695290
O O8 0.711902 0.820190 0.576858
O O9 0.790114 0.002262 0.772065
O O10 0.854227 0.041173 0.649036
O O11 0.524263 0.042508 0.423290
O O12 0.043387 0.371220 0.176470
#
# Coordination Sequence:
#
# PCOD8125740 Si02
#       6
#     4   4   4   4   4   4
#     4  11  20  42  61  88 127 159 210 255 303 376
#     4  10  22  36  62  91 116 166 206 252 314 358
#     4  10  20  42  62  90 125 162 212 252 312 380
#     4   9  22  38  62  90 122 162 204 258 308 364
#     4  10  22  38  67  87 123 172 199 260 316 361
#     4  10  22  36  64  88 125 159 207 258 307 367
#
# _framework density 22.229472000000001
#
# number of rings (size 3 to 8) (size 9 to 14) (size 15 to 20)
#    1.000    1.000    1.667    2.000    0.000    2.000 
#    0.000    0.000    7.333    0.000    0.000    0.000 
#    0.000    0.000    0.000    0.000    0.000    0.000 
#
# Total GULP energy -297414.977859 kJ/mol
# GULP energy per Si atom -12392.290744 kJ/mol
# Density = 2.217888 g / cm^3
# Si number density = 22.229472 Si / 1000 Ang^3
#
#
#
# Elastic Constant Matrix: (Units=GPa)
#
#
# Indices 1 2 3 4 5 6 
#
# 1 92.1427 16.2358 -14.6274 0.0000 -10.8633 0.0000
# 2 16.2358 40.4583 -5.3000 0.0000 -3.2863 0.0000
# 3 -14.6274 -5.3000 48.6424 0.0000 -2.6079 0.0000
# 4 0.0000 0.0000 0.0000 21.6033 0.0000 -0.8878
# 5 -10.8633 -3.2863 -2.6079 0.0000 30.8404 0.0000
# 6 0.0000 0.0000 0.0000 -0.8878 0.0000 20.2877
#
#
#
# Elastic Compliance Matrix: (Units=1/GPa)
#
#
# Indices 1 2 3 4 5 6 
#
# 1 0.012682 -0.004270 0.003580 0.000000 0.004315 0.000000
# 2 -0.004270 0.026776 0.001714 0.000000 0.001494 0.000000
# 3 0.003580 0.001714 0.021999 0.000000 0.003304 0.000000
# 4 0.000000 0.000000 0.000000 0.046373 0.000000 0.002029
# 5 0.004315 0.001494 0.003304 0.000000 0.034383 0.000000
# 6 0.000000 0.000000 0.000000 0.002029 0.000000 0.049380
#
#
# Mechanical properties :
#
#
# Convention : Reuss Voigt Hill
#
# Bulk Modulus (GPa) = 15.74709 19.31778 17.53244
# Shear Modulus (GPa) = 23.72891 26.87528 25.30210
#
# Velocity S-wave (km/s) = 3.27073 3.48083 3.37742
# Velocity P-wave (km/s) = 4.62200 4.98638 4.80764
#
# Compressibility (1/GPa) = 0.06350379
#
# Stress axis : x y z
#
# Youngs Moduli (GPa) = 78.85142 37.34671 45.45757
#
# Poissons Ratio (x) = 0.15946 -0.16273
# Poissons Ratio (y) = 0.33668 -0.07790
# Poissons Ratio (z) = -0.28227 -0.06400
#
# Static dielectric constant tensor:
#      x y z
#    x 4.319820 0.000000 -0.065980 
#    y 0.000000 3.554340 0.000000 
#    z -0.065980 0.000000 3.675500 
# 
# 
# High freq. dielectric constant tensor:
#      x y z
#    x 1.896760 0.000000 -0.007750 
#    y 0.000000 1.841740 0.000000 
#    z -0.007750 0.000000 1.857450 
# 
# From -- ./inp_files/47186.got.cif
#   From: 2010.03.12/outbox.cif.g09.slc.cpg/sg14_24_cif.got.tgz:47186.got - 2010.03.31 13:35:05.
