data_PCOD8125888
_publ_section_title
;
Structure prediction by ZEFSAII (Michael W. Deem and Ramdas Pophale) SiO2 
 PCOD8125888
Probable space group: P 21/C
;
_chemical_formula_sum "Si O2"
_cell_formula_units_Z 32
_cell_length_a 23.396535
_cell_length_b 14.412858
_cell_length_c 9.739934
_cell_angle_alpha 90.000000
_cell_angle_beta 28.418670
_cell_angle_gamma 90.000000
_cell_volume 1563.087335
_symmetry_space_group_name_H-M "P 21/C"
_symmetry_group_IT_number 14
_symmetry_cell_setting 'monoclinic'
loop_
_space_group_symop_operation_xyz
x,y,z
-x,1/2+y,1/2-z
-x,-y,-z
x,1/2-y,1/2+z
loop_
_atom_site_type_symbol
_atom_site_label
_atom_site_fract_x
_atom_site_fract_y
_atom_site_fract_z
Si Si1 0.258168 0.402663 0.844116
Si Si2 0.874803 0.414024 0.370928
Si Si3 0.144727 0.072803 0.303903
Si Si4 0.551647 0.170361 0.215480
Si Si5 0.491369 0.968466 0.258270
Si Si6 0.252215 0.461705 0.152349
Si Si7 0.279302 0.194674 0.808939
Si Si8 0.352719 0.689457 0.200148
O O1 0.196206 0.451777 0.845242
O O2 0.402639 0.412493 0.539201
O O3 0.219857 0.295170 0.920464
O O4 0.209851 0.449133 0.085644
O O5 0.857263 0.476549 0.272990
O O6 0.842422 0.470117 0.577017
O O7 0.787417 0.325552 0.541512
O O8 0.012258 0.381767 0.092723
O O9 0.231909 0.145509 0.046197
O O10 0.548938 0.059235 0.207093
O O11 0.420553 0.207826 0.528568
O O12 0.637409 0.203449 0.157695
O O13 0.600753 0.218232 0.973491
O O14 0.387744 0.997448 0.369685
O O15 0.430369 0.902259 0.500346
O O16 0.248742 0.363029 0.237038
#
# Coordination Sequence:
#
# PCOD8125888 Si02
#       8
#     4   4   4   4   4   4   4   4
#     4  12  20  33  61  90 119 148 198 246 299 340
#     4   9  21  44  60  79 117 160 203 240 296 354
#     4  10  21  39  65  82 111 164 203 243 289 355
#     4  11  23  36  62  90 123 158 196 241 305 362
#     4  10  21  37  58  90 125 162 190 239 306 366
#     4   9  21  35  57  88 121 151 192 248 290 349
#     4  10  21  36  56  89 120 151 196 234 297 355
#     4  11  22  40  60  88 122 160 198 246 296 365
#
# _framework density 20.472304999999999
#
# number of rings (size 3 to 8) (size 9 to 14) (size 15 to 20)
#    0.000    1.750    1.250    3.750    3.500    2.500 
#    2.250    0.000    2.750    0.000    0.000    0.000 
#    0.000    0.000    0.000    0.000    0.000    0.000 
#
# Total GULP energy -396893.422908 kJ/mol
# GULP energy per Si atom -12402.919466 kJ/mol
# Density = 2.042571 g / cm^3
# Si number density = 20.472305 Si / 1000 Ang^3
#
#
#
# Elastic Constant Matrix: (Units=GPa)
#
#
# Indices 1 2 3 4 5 6 
#
# 1 98.4331 11.0257 38.5741 0.0000 26.2811 0.0000
# 2 11.0257 54.0022 3.0474 0.0000 6.2478 0.0000
# 3 38.5741 3.0474 81.4685 0.0000 -1.2689 0.0000
# 4 0.0000 0.0000 0.0000 25.1459 0.0000 -2.6261
# 5 26.2811 6.2478 -1.2689 0.0000 33.4526 0.0000
# 6 0.0000 0.0000 0.0000 -2.6261 0.0000 12.1293
#
#
#
# Elastic Compliance Matrix: (Units=1/GPa)
#
#
# Indices 1 2 3 4 5 6 
#
# 1 0.017192 -0.001475 -0.008296 0.000000 -0.013546 0.000000
# 2 -0.001475 0.019101 -0.000054 0.000000 -0.002411 0.000000
# 3 -0.008296 -0.000054 0.016316 0.000000 0.007146 0.000000
# 4 0.000000 0.000000 0.000000 0.040688 0.000000 0.008809
# 5 -0.013546 -0.002411 0.007146 0.000000 0.041256 0.000000
# 6 0.000000 0.000000 0.000000 0.008809 0.000000 0.084352
#
#
# Mechanical properties :
#
#
# Convention : Reuss Voigt Hill
#
# Bulk Modulus (GPa) = 30.33992 37.68869 34.01431
# Shear Modulus (GPa) = 20.03681 26.22933 23.13307
#
# Velocity S-wave (km/s) = 3.13186 3.58328 3.36515
# Velocity P-wave (km/s) = 5.28490 5.96401 5.63470
#
# Compressibility (1/GPa) = 0.03295987
#
# Stress axis : x y z
#
# Youngs Moduli (GPa) = 58.16643 52.35376 61.28943
#
# Poissons Ratio (x) = 0.07721 0.50846
# Poissons Ratio (y) = 0.08578 0.00329
# Poissons Ratio (z) = 0.48255 0.00281
#
# Static dielectric constant tensor:
#      x y z
#    x 3.482060 0.000000 -0.000680 
#    y 0.000000 3.605780 0.000000 
#    z -0.000680 0.000000 3.761910 
# 
# 
# High freq. dielectric constant tensor:
#      x y z
#    x 1.790260 0.000000 0.008600 
#    y 0.000000 1.790160 0.000000 
#    z 0.008600 0.000000 1.795910 
# 
# From -- ./inp_files/19540.got.cif
#   From: 2010.03.12/outbox.cif.g09.slc.cpg/sg14_10_cif.got.tgz:19540.got - 2010.03.31 13:35:05.
