data_PCOD8125381
_publ_section_title
;
Structure prediction by ZEFSAII (Michael W. Deem and Ramdas Pophale) SiO2 
 PCOD8125381
Probable space group: P 21/C
;
_chemical_formula_sum "Si O2"
_cell_formula_units_Z 28
_cell_length_a 9.136420
_cell_length_b 8.703387
_cell_length_c 24.206871
_cell_angle_alpha 90.000000
_cell_angle_beta 38.412144
_cell_angle_gamma 90.000000
_cell_volume 1195.952847
_symmetry_space_group_name_H-M "P 21/C"
_symmetry_group_IT_number 14
_symmetry_cell_setting 'monoclinic'
loop_
_space_group_symop_operation_xyz
x,y,z
-x,1/2+y,1/2-z
-x,-y,-z
x,1/2-y,1/2+z
loop_
_atom_site_type_symbol
_atom_site_label
_atom_site_fract_x
_atom_site_fract_y
_atom_site_fract_z
Si Si1 0.766188 0.597261 0.310161
Si Si2 0.572500 0.828821 0.564407
Si Si3 0.553345 0.143945 0.620004
Si Si4 0.845108 0.202768 0.857136
Si Si5 0.374356 0.659217 0.723253
Si Si6 0.087265 0.777921 0.901942
Si Si7 0.223556 0.398887 0.318785
O O1 0.561485 0.722007 0.383807
O O2 0.810103 0.472826 0.345243
O O3 0.668137 0.515801 0.283279
O O4 0.004919 0.690982 0.229019
O O5 0.408974 0.787779 0.559188
O O6 0.397285 0.768196 0.664022
O O7 0.808910 0.730123 0.493639
O O8 0.627905 0.008161 0.556032
O O9 0.784924 0.202872 0.583149
O O10 0.362191 0.074947 0.720103
O O11 0.980748 0.190449 0.875944
O O12 0.143797 0.693612 0.827766
O O13 0.605723 0.696401 0.691617
O O14 0.165463 0.952228 0.871649
#
# Coordination Sequence:
#
# PCOD8125381 Si02
#       7
#     4   4   4   4   4   4   4
#     4  10  20  38  66  89 121 170 213 253 321 379
#     4  11  23  41  65  93 130 166 210 263 325 379
#     4  10  20  39  63  94 121 169 214 266 310 377
#     4  10  22  37  62  95 126 170 209 259 323 385
#     4  10  22  41  67  93 120 169 211 265 314 372
#     4  11  22  38  67  97 124 163 218 267 314 376
#     4  10  20  38  64  90 126 160 213 263 310 380
#
# _framework density 23.412296000000001
#
# number of rings (size 3 to 8) (size 9 to 14) (size 15 to 20)
#    0.000    1.714    2.857    2.143    2.000    1.143 
#    0.000    0.714    0.000    0.000    0.000    0.000 
#    0.000    0.000    0.000    0.000    0.000    0.000 
#
# Total GULP energy -347021.014848 kJ/mol
# GULP energy per Si atom -12393.607673 kJ/mol
# Density = 2.335901 g / cm^3
# Si number density = 23.412296 Si / 1000 Ang^3
#
#
#
# Elastic Constant Matrix: (Units=GPa)
#
#
# Indices 1 2 3 4 5 6 
#
# 1 98.1806 19.0871 36.9530 0.0000 -31.2050 0.0000
# 2 19.0871 80.7768 15.4104 0.0000 -7.0571 0.0000
# 3 36.9530 15.4104 42.8847 0.0000 -26.4432 0.0000
# 4 0.0000 0.0000 0.0000 14.6305 0.0000 -11.4211
# 5 -31.2050 -7.0571 -26.4432 0.0000 37.4356 0.0000
# 6 0.0000 0.0000 0.0000 -11.4211 0.0000 43.6892
#
#
#
# Elastic Compliance Matrix: (Units=1/GPa)
#
#
# Indices 1 2 3 4 5 6 
#
# 1 0.016033 -0.001451 -0.009252 0.000000 0.006556 0.000000
# 2 -0.001451 0.013472 -0.004909 0.000000 -0.002137 0.000000
# 3 -0.009252 -0.004909 0.049125 0.000000 0.026063 0.000000
# 4 0.000000 0.000000 0.000000 0.085875 0.000000 0.022449
# 5 0.006556 -0.002137 0.026063 0.000000 0.050185 0.000000
# 6 0.000000 0.000000 0.000000 0.022449 0.000000 0.028758
#
#
# Mechanical properties :
#
#
# Convention : Reuss Voigt Hill
#
# Bulk Modulus (GPa) = 21.09337 40.52701 30.81019
# Shear Modulus (GPa) = 17.21330 29.17718 23.19524
#
# Velocity S-wave (km/s) = 2.71444 3.53403 3.15100
# Velocity P-wave (km/s) = 4.34205 5.83097 5.14070
#
# Compressibility (1/GPa) = 0.04740826
#
# Stress axis : x y z
#
# Youngs Moduli (GPa) = 62.37050 74.22586 20.35623
#
# Poissons Ratio (x) = 0.10769 0.18833
# Poissons Ratio (y) = 0.09049 0.09993
# Poissons Ratio (z) = 0.57702 0.36436
#
# Static dielectric constant tensor:
#      x y z
#    x 4.446660 0.000000 -0.277380 
#    y 0.000000 4.218030 0.000000 
#    z -0.277380 0.000000 3.780890 
# 
# 
# High freq. dielectric constant tensor:
#      x y z
#    x 1.939400 0.000000 -0.029480 
#    y 0.000000 1.928200 0.000000 
#    z -0.029480 0.000000 1.890600 
# 
# From -- ./inp_files/50215.got.cif
#   From: 2010.03.12/outbox.cif.g09.slc.cpg/sg14_26_cif.got.tgz:50215.got - 2010.03.31 13:35:05.
