data_PCOD8125133
_publ_section_title
;
Structure prediction by ZEFSAII (Michael W. Deem and Ramdas Pophale) SiO2 
 PCOD8125133
Probable space group: P 21/C
;
_chemical_formula_sum "Si O2"
_cell_formula_units_Z 32
_cell_length_a 9.304726
_cell_length_b 19.973774
_cell_length_c 18.298871
_cell_angle_alpha 90.000000
_cell_angle_beta 30.378342
_cell_angle_gamma 90.000000
_cell_volume 1719.838148
_symmetry_space_group_name_H-M "P 21/C"
_symmetry_group_IT_number 14
_symmetry_cell_setting 'monoclinic'
loop_
_space_group_symop_operation_xyz
x,y,z
-x,1/2+y,1/2-z
-x,-y,-z
x,1/2-y,1/2+z
loop_
_atom_site_type_symbol
_atom_site_label
_atom_site_fract_x
_atom_site_fract_y
_atom_site_fract_z
Si Si1 0.644641 0.426201 0.367701
Si Si2 0.288983 0.922739 0.649744
Si Si3 0.222172 0.815124 0.802235
Si Si4 0.715934 0.573789 0.334984
Si Si5 0.385922 0.814089 0.895742
Si Si6 0.761549 0.922759 0.328132
Si Si7 0.748538 0.812257 0.217935
Si Si8 0.413543 0.188978 0.875743
O O1 0.692625 0.499370 0.311157
O O2 0.382047 0.427556 0.538085
O O3 0.575691 0.375858 0.333270
O O4 0.918476 0.402627 0.292647
O O5 0.277001 0.879423 0.728307
O O6 0.581434 0.908578 0.479935
O O7 0.044366 0.904098 0.697814
O O8 0.264051 0.000127 0.685481
O O9 0.346330 0.829886 0.827826
O O10 0.387590 0.752499 0.694919
O O11 0.887529 0.798546 0.952680
O O12 0.532586 0.621107 0.364759
O O13 0.594973 0.752250 0.819672
O O14 0.086208 0.799222 0.066181
O O15 0.667868 0.876386 0.301865
O O16 0.622150 0.825194 0.193813
#
# Coordination Sequence:
#
# PCOD8125133 Si02
#       8
#     4   4   4   4   4   4   4   4
#     4  10  20  37  58  83 112 142 185 232 274 326
#     4  10  22  39  58  83 114 146 183 229 278 328
#     4  10  22  39  57  82 114 147 185 229 274 328
#     4  10  20  37  58  83 112 142 185 232 274 326
#     4  10  22  38  58  83 112 147 186 228 276 326
#     4  10  22  39  58  83 114 146 183 229 278 328
#     4  10  22  39  57  82 114 147 185 229 274 328
#     4  10  22  38  58  83 112 147 186 228 276 326
#
# _framework density 18.606401000000002
#
# number of rings (size 3 to 8) (size 9 to 14) (size 15 to 20)
#    0.000    2.000    2.500    0.000    3.500    3.000 
#    0.000    2.500    0.000    4.500    0.000    0.000 
#    0.000    0.000    0.000    0.000    0.000    0.000 
#
# Total GULP energy -396866.232082 kJ/mol
# GULP energy per Si atom -12402.069753 kJ/mol
# Density = 1.856405 g / cm^3
# Si number density = 18.606401 Si / 1000 Ang^3
#
#
#
# Elastic Constant Matrix: (Units=GPa)
#
#
# Indices 1 2 3 4 5 6 
#
# 1 69.5303 73.5469 29.4532 0.0000 -4.9527 0.0000
# 2 73.5469 127.3510 53.3355 0.0000 -4.9545 0.0000
# 3 29.4532 53.3355 83.4998 0.0000 0.4766 0.0000
# 4 0.0000 0.0000 0.0000 29.8614 0.0000 -0.7880
# 5 -4.9527 -4.9545 0.4766 0.0000 20.7788 0.0000
# 6 0.0000 0.0000 0.0000 -0.7880 0.0000 39.7696
#
#
#
# Elastic Compliance Matrix: (Units=1/GPa)
#
#
# Indices 1 2 3 4 5 6 
#
# 1 0.037280 -0.021665 0.000668 0.000000 0.003705 0.000000
# 2 -0.021665 0.023466 -0.007350 0.000000 0.000600 0.000000
# 3 0.000668 -0.007350 0.016447 0.000000 -0.001971 0.000000
# 4 0.000000 0.000000 0.000000 0.033506 0.000000 0.000664
# 5 0.003705 0.000600 -0.001971 0.000000 0.049197 0.000000
# 6 0.000000 0.000000 0.000000 0.000664 0.000000 0.025158
#
#
# Mechanical properties :
#
#
# Convention : Reuss Voigt Hill
#
# Bulk Modulus (GPa) = 48.78745 65.89470 57.34108
# Shear Modulus (GPa) = 20.11410 26.35164 23.23287
#
# Velocity S-wave (km/s) = 3.29147 3.76742 3.53746
# Velocity P-wave (km/s) = 6.38144 7.37676 6.89707
#
# Compressibility (1/GPa) = 0.02049707
#
# Stress axis : x y z
#
# Youngs Moduli (GPa) = 26.82397 42.61498 60.80206
#
# Poissons Ratio (x) = 0.92326 -0.04059
# Poissons Ratio (y) = 0.58115 0.44691
# Poissons Ratio (z) = -0.01791 0.31323
#
# Static dielectric constant tensor:
#      x y z
#    x 3.231040 0.000000 -0.156790 
#    y 0.000000 3.437810 0.000000 
#    z -0.156790 0.000000 3.616880 
# 
# 
# High freq. dielectric constant tensor:
#      x y z
#    x 1.712890 0.000000 -0.012460 
#    y 0.000000 1.725390 0.000000 
#    z -0.012460 0.000000 1.734390 
# 
# From -- ./inp_files/14182.got.cif
#   From: 2010.03.12/outbox.cif.g09.slc.cpg/sg14_8_cif.got.tgz:14182.got - 2010.03.31 13:35:05.
