data_PCOD8125104
_publ_section_title
;
Structure prediction by ZEFSAII (Michael W. Deem and Ramdas Pophale) SiO2 
 PCOD8125104
Probable space group: P 21/C
;
_chemical_formula_sum "Si O2"
_cell_formula_units_Z 28
_cell_length_a 8.487799
_cell_length_b 13.639215
_cell_length_c 11.843975
_cell_angle_alpha 90.000000
_cell_angle_beta 107.882426
_cell_angle_gamma 90.000000
_cell_volume 1304.898782
_symmetry_space_group_name_H-M "P 21/C"
_symmetry_group_IT_number 14
_symmetry_cell_setting 'monoclinic'
loop_
_space_group_symop_operation_xyz
x,y,z
-x,1/2+y,1/2-z
-x,-y,-z
x,1/2-y,1/2+z
loop_
_atom_site_type_symbol
_atom_site_label
_atom_site_fract_x
_atom_site_fract_y
_atom_site_fract_z
Si Si1 0.328627 0.621808 0.515638
Si Si2 0.134091 0.476962 0.320621
Si Si3 0.616648 0.302627 0.117884
Si Si4 0.089118 0.812693 0.145509
Si Si5 0.274457 0.960683 0.531758
Si Si6 0.027866 0.108196 0.396070
Si Si7 0.414318 0.085728 0.740028
O O1 0.263455 0.530977 0.429604
O O2 0.420362 0.701785 0.456321
O O3 0.184490 0.681383 0.547708
O O4 0.450316 0.572150 0.632839
O O5 0.031105 0.558186 0.231812
O O6 0.233218 0.403278 0.257580
O O7 0.005806 0.414596 0.364076
O O8 0.787247 0.293579 0.223553
O O9 0.465296 0.322183 0.172041
O O10 0.627429 0.395968 0.036890
O O11 0.955690 0.724826 0.116243
O O12 0.110687 0.904384 0.537168
O O13 0.402603 0.986259 0.661236
O O14 0.207433 0.064670 0.467475
#
# Coordination Sequence:
#
# PCOD8125104 Si02
#       7
#     4   4   4   4   4   4   4
#     4  11  23  41  65  93 128 171 207 263 316 383
#     4  11  22  42  63  94 134 158 212 268 319 369
#     4  11  21  40  66  91 125 169 220 248 317 394
#     4  11  22  39  65  96 121 170 219 254 325 378
#     4  10  20  40  62  91 127 163 212 266 311 373
#     4  10  20  36  66  94 119 163 212 271 309 366
#     4  10  25  38  61  91 125 171 208 252 322 374
#
# _framework density 21.457604
#
# number of rings (size 3 to 8) (size 9 to 14) (size 15 to 20)
#    0.000    1.429    4.286    1.286    0.000    1.143 
#    0.000    2.857    0.000    0.000    0.000    0.000 
#    0.000    0.000    0.000    0.000    0.000    0.000 
#
# Total GULP energy -347172.839234 kJ/mol
# GULP energy per Si atom -12399.029973 kJ/mol
# Density = 2.140877 g / cm^3
# Si number density = 21.457604 Si / 1000 Ang^3
#
#
#
# Elastic Constant Matrix: (Units=GPa)
#
#
# Indices 1 2 3 4 5 6 
#
# 1 48.1600 30.5081 26.7736 0.0000 -4.3882 0.0000
# 2 30.5081 90.6800 35.1472 0.0000 0.1187 0.0000
# 3 26.7736 35.1472 111.2006 0.0000 -1.7868 0.0000
# 4 0.0000 0.0000 0.0000 20.7575 0.0000 1.7891
# 5 -4.3882 0.1187 -1.7868 0.0000 25.2120 0.0000
# 6 0.0000 0.0000 0.0000 1.7891 0.0000 30.8640
#
#
#
# Elastic Compliance Matrix: (Units=1/GPa)
#
#
# Indices 1 2 3 4 5 6 
#
# 1 0.028635 -0.007974 -0.004298 0.000000 0.004717 0.000000
# 2 -0.007974 0.014791 -0.002782 0.000000 -0.001655 0.000000
# 3 -0.004298 -0.002782 0.010907 0.000000 0.000038 0.000000
# 4 0.000000 0.000000 0.000000 0.048417 0.000000 -0.002807
# 5 0.004717 -0.001655 0.000038 0.000000 0.040495 0.000000
# 6 0.000000 0.000000 0.000000 -0.002807 0.000000 0.032563
#
#
# Mechanical properties :
#
#
# Convention : Reuss Voigt Hill
#
# Bulk Modulus (GPa) = 41.27910 48.32203 44.80056
# Shear Modulus (GPa) = 23.36546 25.87415 24.61981
#
# Velocity S-wave (km/s) = 3.30345 3.47627 3.39096
# Velocity P-wave (km/s) = 5.81632 6.21943 6.02125
#
# Compressibility (1/GPa) = 0.02422534
#
# Stress axis : x y z
#
# Youngs Moduli (GPa) = 34.92264 67.60937 91.68057
#
# Poissons Ratio (x) = 0.53912 0.39406
# Poissons Ratio (y) = 0.27847 0.25502
# Poissons Ratio (z) = 0.15010 0.18807
#
# Static dielectric constant tensor:
#      x y z
#    x 3.750380 0.000000 -0.154730 
#    y 0.000000 3.686550 0.000000 
#    z -0.154730 0.000000 4.084610 
# 
# 
# High freq. dielectric constant tensor:
#      x y z
#    x 1.827540 0.000000 -0.010600 
#    y 0.000000 1.828960 0.000000 
#    z -0.010600 0.000000 1.855130 
# 
# From -- ./inp_files/24873.got.cif
#   From: 2010.03.12/outbox.cif.g09.slc.cpg/sg14_13_cif.got.tgz:24873.got - 2010.03.31 13:35:05.
