data_PCOD8125771
_publ_section_title
;
Structure prediction by ZEFSAII (Michael W. Deem and Ramdas Pophale) SiO2 
 PCOD8125771
Probable space group: P 21/C
;
_chemical_formula_sum "Si O2"
_cell_formula_units_Z 32
_cell_length_a 9.824067
_cell_length_b 23.769771
_cell_length_c 8.526436
_cell_angle_alpha 90.000000
_cell_angle_beta 47.915538
_cell_angle_gamma 90.000000
_cell_volume 1477.678670
_symmetry_space_group_name_H-M "P 21/C"
_symmetry_group_IT_number 14
_symmetry_cell_setting 'monoclinic'
loop_
_space_group_symop_operation_xyz
x,y,z
-x,1/2+y,1/2-z
-x,-y,-z
x,1/2-y,1/2+z
loop_
_atom_site_type_symbol
_atom_site_label
_atom_site_fract_x
_atom_site_fract_y
_atom_site_fract_z
Si Si1 0.584663 0.900076 0.607787
Si Si2 0.800051 0.401702 0.994875
Si Si3 0.580891 0.232188 0.813293
Si Si4 0.999097 0.899985 0.340618
Si Si5 0.480178 0.015523 0.833558
Si Si6 0.937895 0.515481 0.375918
Si Si7 0.509014 0.329939 0.090114
Si Si8 0.719657 0.323491 0.499427
O O1 0.527568 0.964287 0.679556
O O2 0.584843 0.884652 0.419528
O O3 0.785000 0.888184 0.519495
O O4 0.444237 0.861098 0.808194
O O5 0.723475 0.346551 0.961385
O O6 0.929239 0.434570 0.776313
O O7 0.918891 0.386510 0.053688
O O8 0.616868 0.434381 0.189024
O O9 0.475908 0.279057 0.994132
O O10 0.439684 0.195519 0.811443
O O11 0.728992 0.265057 0.587880
O O12 0.684260 0.188300 0.843556
O O13 0.037753 0.964198 0.263782
O O14 0.091077 0.858617 0.139812
O O15 0.272549 0.035669 0.962623
O O16 0.500000 0.000000 0.000000
O O17 0.000000 0.500000 0.500000
#
# Coordination Sequence:
#
# PCOD8125771 Si02
#       8
#     4   4   4   4   4   4   4   4
#     4  11  23  39  65  95 133 172 219 263 324 391
#     4  12  24  42  66  96 137 174 222 261 329 393
#     4   9  20  42  71  90 120 167 218 271 336 388
#     4  12  23  42  63  97 134 175 216 269 321 397
#     4  12  23  41  65  95 137 188 216 258 326 397
#     4  12  26  39  61  97 138 177 219 269 318 393
#     4  10  22  41  69  94 122 171 210 278 327 390
#     4  10  20  42  68  90 127 167 216 269 338 381
#
# _framework density 21.655587000000001
#
# number of rings (size 3 to 8) (size 9 to 14) (size 15 to 20)
#    0.000    1.000    5.000    1.875    3.500    1.000 
#    0.000    5.000    0.000    0.000    0.000    0.000 
#    0.000    0.000    0.000    0.000    0.000    0.000 
#
# Total GULP energy -396545.400730 kJ/mol
# GULP energy per Si atom -12392.043773 kJ/mol
# Density = 2.160630 g / cm^3
# Si number density = 21.655587 Si / 1000 Ang^3
#
#
#
# Elastic Constant Matrix: (Units=GPa)
#
#
# Indices 1 2 3 4 5 6 
#
# 1 108.5527 0.9535 30.7091 0.0000 0.7573 0.0000
# 2 0.9535 49.5183 7.1690 0.0000 2.4417 0.0000
# 3 30.7091 7.1690 84.9616 0.0000 -14.4497 0.0000
# 4 0.0000 0.0000 0.0000 21.0207 0.0000 11.4620
# 5 0.7573 2.4417 -14.4497 0.0000 45.4049 0.0000
# 6 0.0000 0.0000 0.0000 11.4620 0.0000 34.2631
#
#
#
# Elastic Compliance Matrix: (Units=1/GPa)
#
#
# Indices 1 2 3 4 5 6 
#
# 1 0.010360 0.000458 -0.004035 0.000000 -0.001482 0.000000
# 2 0.000458 0.020596 -0.002213 0.000000 -0.001819 0.000000
# 3 -0.004035 -0.002213 0.014216 0.000000 0.004711 0.000000
# 4 0.000000 0.000000 0.000000 0.058186 0.000000 -0.019465
# 5 -0.001482 -0.001819 0.004711 0.000000 0.023646 0.000000
# 6 0.000000 0.000000 0.000000 -0.019465 0.000000 0.035697
#
#
# Mechanical properties :
#
#
# Convention : Reuss Voigt Hill
#
# Bulk Modulus (GPa) = 29.76915 35.63287 32.70101
# Shear Modulus (GPa) = 26.95724 33.75111 30.35417
#
# Velocity S-wave (km/s) = 3.53202 3.95212 3.74796
# Velocity P-wave (km/s) = 5.51453 6.10866 5.81918
#
# Compressibility (1/GPa) = 0.03359182
#
# Stress axis : x y z
#
# Youngs Moduli (GPa) = 96.52539 48.55354 70.34139
#
# Poissons Ratio (x) = -0.02223 0.28384
# Poissons Ratio (y) = -0.04418 0.15565
# Poissons Ratio (z) = 0.38950 0.10744
#
# Static dielectric constant tensor:
#      x y z
#    x 4.223230 0.000000 0.193480 
#    y 0.000000 4.269910 0.000000 
#    z 0.193480 0.000000 4.077470 
# 
# 
# High freq. dielectric constant tensor:
#      x y z
#    x 1.853450 0.000000 0.027500 
#    y 0.000000 1.861500 0.000000 
#    z 0.027500 0.000000 1.836800 
# 
# From -- ./inp_files/11062.got.cif
#   From: 2010.03.12/outbox.cif.g09.slc.cpg/sg14_6_cif.got.tgz:11062.got - 2010.03.31 13:35:05.
