data_PCOD8125453
_publ_section_title
;
Structure prediction by ZEFSAII (Michael W. Deem and Ramdas Pophale) SiO2 
 PCOD8125453
Probable space group: P 21/C
;
_chemical_formula_sum "Si O2"
_cell_formula_units_Z 24
_cell_length_a 14.538247
_cell_length_b 8.230425
_cell_length_c 14.333854
_cell_angle_alpha 90.000000
_cell_angle_beta 141.954433
_cell_angle_gamma 90.000000
_cell_volume 1057.014584
_symmetry_space_group_name_H-M "P 21/C"
_symmetry_group_IT_number 14
_symmetry_cell_setting 'monoclinic'
loop_
_space_group_symop_operation_xyz
x,y,z
-x,1/2+y,1/2-z
-x,-y,-z
x,1/2-y,1/2+z
loop_
_atom_site_type_symbol
_atom_site_label
_atom_site_fract_x
_atom_site_fract_y
_atom_site_fract_z
Si Si1 0.937401 0.318842 0.823518
Si Si2 0.398227 0.654047 0.405759
Si Si3 0.018233 0.661213 0.456683
Si Si4 0.874608 0.980977 0.678626
Si Si5 0.354699 0.672526 0.685832
Si Si6 0.555992 0.390431 0.904298
O O1 0.767501 0.382584 0.687968
O O2 0.997773 0.305727 0.979440
O O3 0.041179 0.445153 0.851413
O O4 0.941914 0.145804 0.774923
O O5 0.500000 0.500000 0.500000
O O6 0.396195 0.694330 0.295696
O O7 0.466771 0.813744 0.511452
O O8 0.177645 0.662834 0.532668
O O9 0.000000 0.500000 0.500000
O O10 0.898760 0.661990 0.276021
O O11 0.700270 0.992629 0.516082
O O12 0.412988 0.493828 0.759794
O O13 0.426510 0.732909 0.647451
#
# Coordination Sequence:
#
# PCOD8125453 Si02
#       6
#     4   4   4   4   4   4
#     4   9  20  36  59  89 120 155 201 253 301 356
#     4  10  21  40  62  90 125 161 202 251 301 361
#     4   9  19  37  60  84 119 157 197 249 301 357
#     4  10  20  39  61  87 119 157 200 249 302 360
#     4  11  23  41  61  91 126 159 203 254 302 360
#     4  11  24  41  63  91 123 161 201 248 302 360
#
# _framework density 22.705456999999999
#
# number of rings (size 3 to 8) (size 9 to 14) (size 15 to 20)
#    0.000    2.000    0.000    4.500    0.000    4.000 
#    0.000   10.833    0.000    0.000    0.000    0.000 
#    0.000    0.000    0.000    0.000    0.000    0.000 
#
# Total GULP energy -297597.892191 kJ/mol
# GULP energy per Si atom -12399.912175 kJ/mol
# Density = 2.265378 g / cm^3
# Si number density = 22.705457 Si / 1000 Ang^3
#
#
#
# Elastic Constant Matrix: (Units=GPa)
#
#
# Indices 1 2 3 4 5 6 
#
# 1 77.1719 20.2507 18.2355 0.0000 -1.9543 0.0000
# 2 20.2507 64.8706 28.3802 0.0000 15.4375 0.0000
# 3 18.2355 28.3802 81.2021 0.0000 -8.5191 0.0000
# 4 0.0000 0.0000 0.0000 33.0972 0.0000 6.7254
# 5 -1.9543 15.4375 -8.5191 0.0000 19.1172 0.0000
# 6 0.0000 0.0000 0.0000 6.7254 0.0000 46.9998
#
#
#
# Elastic Compliance Matrix: (Units=1/GPa)
#
#
# Indices 1 2 3 4 5 6 
#
# 1 0.014761 -0.005653 -0.000736 0.000000 0.005746 0.000000
# 2 -0.005653 0.029681 -0.012252 0.000000 -0.030005 0.000000
# 3 -0.000736 -0.012252 0.018665 0.000000 0.018136 0.000000
# 4 0.000000 0.000000 0.000000 0.031119 0.000000 -0.004453
# 5 0.005746 -0.030005 0.018136 0.000000 0.085208 0.000000
# 6 0.000000 0.000000 0.000000 -0.004453 0.000000 0.021914
#
#
# Mechanical properties :
#
#
# Convention : Reuss Voigt Hill
#
# Bulk Modulus (GPa) = 38.72358 39.66416 39.19387
# Shear Modulus (GPa) = 20.22344 30.26805 25.24575
#
# Velocity S-wave (km/s) = 2.98767 3.65509 3.33810
# Velocity P-wave (km/s) = 5.38455 5.94305 5.67068
#
# Compressibility (1/GPa) = 0.02582406
#
# Stress axis : x y z
#
# Youngs Moduli (GPa) = 67.74581 33.69204 53.57635
#
# Poissons Ratio (x) = 0.19047 0.03944
# Poissons Ratio (y) = 0.38299 0.65640
# Poissons Ratio (z) = 0.04988 0.41279
#
# Static dielectric constant tensor:
#      x y z
#    x 4.239790 0.000000 -0.306090 
#    y 0.000000 3.786670 0.000000 
#    z -0.306090 0.000000 4.652910 
# 
# 
# High freq. dielectric constant tensor:
#      x y z
#    x 1.902240 0.000000 -0.018600 
#    y 0.000000 1.877790 0.000000 
#    z -0.018600 0.000000 1.897760 
# 
# From -- ./inp_files/46378.got.cif
#   From: 2010.03.12/outbox.cif.g09.slc.cpg/sg14_24_cif.got.tgz:46378.got - 2010.03.31 13:35:05.
