data_PCOD8125734
_publ_section_title
;
Structure prediction by ZEFSAII (Michael W. Deem and Ramdas Pophale) SiO2 
 PCOD8125734
Probable space group: P 21/C
;
_chemical_formula_sum "Si O2"
_cell_formula_units_Z 24
_cell_length_a 9.553216
_cell_length_b 13.601276
_cell_length_c 13.776676
_cell_angle_alpha 90.000000
_cell_angle_beta 40.748398
_cell_angle_gamma 90.000000
_cell_volume 1168.457638
_symmetry_space_group_name_H-M "P 21/C"
_symmetry_group_IT_number 14
_symmetry_cell_setting 'monoclinic'
loop_
_space_group_symop_operation_xyz
x,y,z
-x,1/2+y,1/2-z
-x,-y,-z
x,1/2-y,1/2+z
loop_
_atom_site_type_symbol
_atom_site_label
_atom_site_fract_x
_atom_site_fract_y
_atom_site_fract_z
Si Si1 0.988501 0.071228 0.416362
Si Si2 0.745005 0.466788 0.863890
Si Si3 0.239084 0.744938 0.383052
Si Si4 0.603646 0.698188 0.325668
Si Si5 0.242653 0.765118 0.159517
Si Si6 0.066763 0.141435 0.830958
O O1 0.880224 0.007074 0.389107
O O2 0.832906 0.164849 0.510863
O O3 0.228747 0.108291 0.264471
O O4 0.000000 0.000000 0.500000
O O5 0.762221 0.352249 0.835041
O O6 0.871458 0.527049 0.713656
O O7 0.500000 0.500000 0.000000
O O8 0.468802 0.702507 0.295754
O O9 0.235823 0.789862 0.277203
O O10 0.071320 0.657025 0.497569
O O11 0.453477 0.687680 0.499432
O O12 0.709317 0.804044 0.276028
O O13 0.043102 0.811943 0.207898
#
# Coordination Sequence:
#
# PCOD8125734 Si02
#       6
#     4   4   4   4   4   4
#     4  11  23  41  66  94 125 171 218 261 319 389
#     4  12  22  39  67  93 122 170 220 259 323 385
#     4  10  22  40  60  92 128 167 208 262 330 368
#     4  10  20  42  61  87 130 161 208 265 315 386
#     4  11  22  40  66  91 127 171 207 268 326 370
#     4  10  21  41  61  90 128 162 213 267 314 387
#
# _framework density 20.539897
#
# number of rings (size 3 to 8) (size 9 to 14) (size 15 to 20)
#    0.000    1.333    6.667    1.000    2.333    3.333 
#    0.000    7.500    0.000    0.000    0.000    0.000 
#    0.000    0.000    0.000    0.000    0.000    0.000 
#
# Total GULP energy -297427.044055 kJ/mol
# GULP energy per Si atom -12392.793502 kJ/mol
# Density = 2.049315 g / cm^3
# Si number density = 20.539897 Si / 1000 Ang^3
#
#
#
# Elastic Constant Matrix: (Units=GPa)
#
#
# Indices 1 2 3 4 5 6 
#
# 1 63.0883 -5.4019 37.3691 0.0000 -3.1850 0.0000
# 2 -5.4019 85.5220 32.6306 0.0000 -10.1437 0.0000
# 3 37.3691 32.6306 96.9030 0.0000 -3.0170 0.0000
# 4 0.0000 0.0000 0.0000 43.1665 0.0000 9.4055
# 5 -3.1850 -10.1437 -3.0170 0.0000 39.6293 0.0000
# 6 0.0000 0.0000 0.0000 9.4055 0.0000 47.7934
#
#
#
# Elastic Compliance Matrix: (Units=1/GPa)
#
#
# Indices 1 2 3 4 5 6 
#
# 1 0.022793 0.005807 -0.010667 0.000000 0.002506 0.000000
# 2 0.005807 0.015286 -0.007268 0.000000 0.003826 0.000000
# 3 -0.010667 -0.007268 0.016836 0.000000 -0.001436 0.000000
# 4 0.000000 0.000000 0.000000 0.024204 0.000000 -0.004763
# 5 0.002506 0.003826 -0.001436 0.000000 0.026305 0.000000
# 6 0.000000 0.000000 0.000000 -0.004763 0.000000 0.021861
#
#
# Mechanical properties :
#
#
# Convention : Reuss Voigt Hill
#
# Bulk Modulus (GPa) = 32.61635 41.63431 37.12533
# Shear Modulus (GPa) = 30.90984 38.17889 34.54436
#
# Velocity S-wave (km/s) = 3.88347 4.31602 4.10545
# Velocity P-wave (km/s) = 6.00187 6.71947 6.37078
#
# Compressibility (1/GPa) = 0.03065947
#
# Stress axis : x y z
#
# Youngs Moduli (GPa) = 43.87317 65.41731 59.39738
#
# Poissons Ratio (x) = -0.37987 0.63360
# Poissons Ratio (y) = -0.25477 0.43168
# Poissons Ratio (z) = 0.46800 0.47543
#
# Static dielectric constant tensor:
#      x y z
#    x 3.965860 0.000000 0.006380 
#    y 0.000000 3.719230 0.000000 
#    z 0.006380 0.000000 3.779830 
# 
# 
# High freq. dielectric constant tensor:
#      x y z
#    x 1.809840 0.000000 -0.009150 
#    y 0.000000 1.796870 0.000000 
#    z -0.009150 0.000000 1.801980 
# 
# From -- ./inp_files/35364.got.cif
#   From: 2010.03.12/outbox.cif.g09.slc.cpg/sg14_18_cif.got.tgz:35364.got - 2010.03.31 13:35:05.
