data_PCOD8125204
_publ_section_title
;
Structure prediction by ZEFSAII (Michael W. Deem and Ramdas Pophale) SiO2 
 PCOD8125204
Probable space group: P 21/C
;
_chemical_formula_sum "Si O2"
_cell_formula_units_Z 20
_cell_length_a 9.066977
_cell_length_b 6.372307
_cell_length_c 16.983514
_cell_angle_alpha 90.000000
_cell_angle_beta 84.389288
_cell_angle_gamma 90.000000
_cell_volume 976.564907
_symmetry_space_group_name_H-M "P 21/C"
_symmetry_group_IT_number 14
_symmetry_cell_setting 'monoclinic'
loop_
_space_group_symop_operation_xyz
x,y,z
-x,1/2+y,1/2-z
-x,-y,-z
x,1/2-y,1/2+z
loop_
_atom_site_type_symbol
_atom_site_label
_atom_site_fract_x
_atom_site_fract_y
_atom_site_fract_z
Si Si1 0.711156 0.366707 0.031491
Si Si2 0.200432 0.525061 0.591186
Si Si3 0.951272 0.220061 0.636501
Si Si4 0.386604 0.145522 0.604780
Si Si5 0.170057 0.598461 0.206883
O O1 0.848894 0.412289 0.081900
O O2 0.562658 0.362507 0.091072
O O3 0.743661 0.141706 0.990082
O O4 0.696562 0.548992 0.967763
O O5 0.338178 0.386341 0.614806
O O6 0.156237 0.683646 0.661963
O O7 0.059741 0.374284 0.581954
O O8 0.848033 0.359720 0.699539
O O9 0.042357 0.056773 0.683745
O O10 0.330389 0.010276 0.682829
#
# Coordination Sequence:
#
# PCOD8125204 Si02
#       5
#     4   4   4   4   4
#     4  10  21  38  61  87 113 148 193 234 283 338
#     4  10  20  37  62  83 114 149 189 236 283 332
#     4  11  21  37  58  85 114 154 191 234 282 339
#     4   9  21  40  57  85 118 147 187 240 281 336
#     4  10  21  38  56  80 120 151 188 234 282 337
#
# _framework density 20.479951
#
# number of rings (size 3 to 8) (size 9 to 14) (size 15 to 20)
#    0.000    2.000    2.000    1.200    0.000    8.800 
#    3.600    0.000    0.000    0.000    0.000    0.000 
#    0.000    0.000    0.000    0.000    0.000    0.000 
#
# Total GULP energy -247990.402430 kJ/mol
# GULP energy per Si atom -12399.520122 kJ/mol
# Density = 2.043334 g / cm^3
# Si number density = 20.479951 Si / 1000 Ang^3
#
#
#
# Elastic Constant Matrix: (Units=GPa)
#
#
# Indices 1 2 3 4 5 6 
#
# 1 73.5477 20.2516 20.5303 0.0000 -19.9769 0.0000
# 2 20.2516 82.8699 16.3424 0.0000 -10.7922 0.0000
# 3 20.5303 16.3424 41.6413 0.0000 -20.9112 0.0000
# 4 0.0000 0.0000 0.0000 26.8435 0.0000 -4.9505
# 5 -19.9769 -10.7922 -20.9112 0.0000 34.9843 0.0000
# 6 0.0000 0.0000 0.0000 -4.9505 0.0000 17.7539
#
#
#
# Elastic Compliance Matrix: (Units=1/GPa)
#
#
# Indices 1 2 3 4 5 6 
#
# 1 0.017250 -0.002530 -0.004226 0.000000 0.006544 0.000000
# 2 -0.002530 0.013497 -0.003836 0.000000 0.000426 0.000000
# 3 -0.004226 -0.003836 0.036862 0.000000 0.018437 0.000000
# 4 0.000000 0.000000 0.000000 0.039273 0.000000 0.010951
# 5 0.006544 0.000426 0.018437 0.000000 0.043473 0.000000
# 6 0.000000 0.000000 0.000000 0.010951 0.000000 0.059379
#
#
# Mechanical properties :
#
#
# Convention : Reuss Voigt Hill
#
# Bulk Modulus (GPa) = 21.53921 34.70084 28.12002
# Shear Modulus (GPa) = 20.29281 25.31200 22.80240
#
# Velocity S-wave (km/s) = 3.15121 3.51941 3.34039
# Velocity P-wave (km/s) = 4.87650 5.78754 5.35144
#
# Compressibility (1/GPa) = 0.04642696
#
# Stress axis : x y z
#
# Youngs Moduli (GPa) = 57.96995 74.08880 27.12823
#
# Poissons Ratio (x) = 0.18745 0.11463
# Poissons Ratio (y) = 0.14667 0.10405
# Poissons Ratio (z) = 0.24496 0.28418
#
# Static dielectric constant tensor:
#      x y z
#    x 3.594860 0.000000 -0.417960 
#    y 0.000000 3.803890 0.000000 
#    z -0.417960 0.000000 3.617960 
# 
# 
# High freq. dielectric constant tensor:
#      x y z
#    x 1.791080 0.000000 -0.035440 
#    y 0.000000 1.808120 0.000000 
#    z -0.035440 0.000000 1.788930 
# 
# From -- ./inp_files/53974.got.cif
#   From: 2010.03.12/outbox.cif.g09.slc.cpg/sg14_27_cif.got.tgz:53974.got - 2010.03.31 13:35:05.
