data_PCOD8125045
_publ_section_title
;
Structure prediction by ZEFSAII (Michael W. Deem and Ramdas Pophale) SiO2 
 PCOD8125045
Probable space group: P 21/C
;
_chemical_formula_sum "Si O2"
_cell_formula_units_Z 32
_cell_length_a 33.353948
_cell_length_b 8.751365
_cell_length_c 18.215650
_cell_angle_alpha 90.000000
_cell_angle_beta 162.521633
_cell_angle_gamma 90.000000
_cell_volume 1596.941902
_symmetry_space_group_name_H-M "P 21/C"
_symmetry_group_IT_number 14
_symmetry_cell_setting 'monoclinic'
loop_
_space_group_symop_operation_xyz
x,y,z
-x,1/2+y,1/2-z
-x,-y,-z
x,1/2-y,1/2+z
loop_
_atom_site_type_symbol
_atom_site_label
_atom_site_fract_x
_atom_site_fract_y
_atom_site_fract_z
Si Si1 0.892723 0.184534 0.093992
Si Si2 0.659643 0.187128 0.935357
Si Si3 0.347880 0.653646 0.926870
Si Si4 0.878406 0.164007 0.722839
Si Si5 0.355153 0.192880 0.411633
Si Si6 0.868682 0.812681 0.736528
Si Si7 0.347966 0.337606 0.547607
Si Si8 0.116176 0.333493 0.390080
O O1 0.908028 0.291024 0.191219
O O2 0.001983 0.229227 0.225065
O O3 0.918257 0.009870 0.159364
O O4 0.746516 0.208959 0.803892
O O5 0.505520 0.216333 0.645582
O O6 0.690203 0.008506 0.996932
O O7 0.700366 0.271841 0.081459
O O8 0.745734 0.251473 0.018763
O O9 0.339179 0.471783 0.922311
O O10 0.497510 0.703816 0.167338
O O11 0.859031 0.983386 0.689760
O O12 0.001625 0.215693 0.987786
O O13 0.318382 0.317615 0.409226
O O14 0.257947 0.211798 0.173136
O O15 0.737299 0.780871 0.554366
O O16 0.875535 0.695187 0.681659
#
# Coordination Sequence:
#
# PCOD8125045 Si02
#       8
#     4   4   4   4   4   4   4   4
#     4  11  23  39  59  83 113 147 185 229 277 330
#     4  10  20  36  60  86 112 146 187 227 271 328
#     4   9  20  38  58  83 116 149 180 224 280 329
#     4  11  24  40  57  80 113 149 185 230 281 328
#     4   9  20  38  58  83 116 149 180 224 280 329
#     4  11  24  40  57  80 113 149 185 230 281 328
#     4  10  20  36  60  86 112 146 187 227 271 328
#     4  11  23  39  59  83 113 147 185 229 277 330
#
# _framework density 20.038298999999999
#
# number of rings (size 3 to 8) (size 9 to 14) (size 15 to 20)
#    0.000    1.750    0.000    3.750    0.000   12.000 
#    0.000    5.000    0.000    0.000    0.000    0.000 
#    0.000    0.000    0.000    0.000    0.000    0.000 
#
# Total GULP energy -397016.824398 kJ/mol
# GULP energy per Si atom -12406.775762 kJ/mol
# Density = 1.999269 g / cm^3
# Si number density = 20.038299 Si / 1000 Ang^3
#
#
#
# Elastic Constant Matrix: (Units=GPa)
#
#
# Indices 1 2 3 4 5 6 
#
# 1 62.9248 6.0278 30.4872 0.0000 4.6715 0.0000
# 2 6.0278 43.8035 29.1329 0.0000 -1.1357 0.0000
# 3 30.4872 29.1329 90.0201 0.0000 0.8995 0.0000
# 4 0.0000 0.0000 0.0000 25.7681 0.0000 1.5877
# 5 4.6715 -1.1357 0.8995 0.0000 32.5528 0.0000
# 6 0.0000 0.0000 0.0000 1.5877 0.0000 40.3039
#
#
#
# Elastic Compliance Matrix: (Units=1/GPa)
#
#
# Indices 1 2 3 4 5 6 
#
# 1 0.019370 0.002059 -0.007201 0.000000 -0.002509 0.000000
# 2 0.002059 0.029363 -0.010210 0.000000 0.001011 0.000000
# 3 -0.007201 -0.010210 0.016850 0.000000 0.000212 0.000000
# 4 0.000000 0.000000 0.000000 0.038902 0.000000 -0.001532
# 5 -0.002509 0.001011 0.000212 0.000000 0.031109 0.000000
# 6 0.000000 0.000000 0.000000 -0.001532 0.000000 0.024872
#
#
# Mechanical properties :
#
#
# Convention : Reuss Voigt Hill
#
# Bulk Modulus (GPa) = 28.67174 36.44938 32.56056
# Shear Modulus (GPa) = 24.65539 28.46501 26.56020
#
# Velocity S-wave (km/s) = 3.51153 3.77308 3.64465
# Velocity P-wave (km/s) = 5.54803 6.10007 5.83059
#
# Compressibility (1/GPa) = 0.03487754
#
# Stress axis : x y z
#
# Youngs Moduli (GPa) = 51.62602 34.05702 59.34858
#
# Poissons Ratio (x) = -0.07012 0.42739
# Poissons Ratio (y) = -0.10629 0.60594
# Poissons Ratio (z) = 0.37178 0.34772
#
# Static dielectric constant tensor:
#      x y z
#    x 3.503460 0.000000 -0.016560 
#    y 0.000000 3.661880 0.000000 
#    z -0.016560 0.000000 3.800750 
# 
# 
# High freq. dielectric constant tensor:
#      x y z
#    x 1.779820 0.000000 0.003040 
#    y 0.000000 1.789040 0.000000 
#    z 0.003040 0.000000 1.792930 
# 
# From -- ./inp_files/62696.got.cif
#   From: 2010.03.12/outbox.cif.g09.slc.cpg/sg14_32_cif.got.tgz:62696.got - 2010.03.31 13:35:05.
