data_PCOD8125233
_publ_section_title
;
Structure prediction by ZEFSAII (Michael W. Deem and Ramdas Pophale) SiO2 
 PCOD8125233
Probable space group: P 21/C
;
_chemical_formula_sum "Si O2"
_cell_formula_units_Z 28
_cell_length_a 27.784609
_cell_length_b 11.321718
_cell_length_c 22.668054
_cell_angle_alpha 90.000000
_cell_angle_beta 168.463453
_cell_angle_gamma 90.000000
_cell_volume 1426.085475
_symmetry_space_group_name_H-M "P 21/C"
_symmetry_group_IT_number 14
_symmetry_cell_setting 'monoclinic'
loop_
_space_group_symop_operation_xyz
x,y,z
-x,1/2+y,1/2-z
-x,-y,-z
x,1/2-y,1/2+z
loop_
_atom_site_type_symbol
_atom_site_label
_atom_site_fract_x
_atom_site_fract_y
_atom_site_fract_z
Si Si1 0.105503 0.891620 0.300864
Si Si2 0.575609 0.580220 0.007491
Si Si3 0.151719 0.580071 0.583619
Si Si4 0.255340 0.784199 0.883007
Si Si5 0.900437 0.776979 0.350703
Si Si6 0.675871 0.891746 0.871222
Si Si7 0.639238 0.545263 0.458883
O O1 0.111312 0.786586 0.260344
O O2 0.366556 0.912035 0.642312
O O3 0.918026 0.856942 0.127064
O O4 0.028663 0.012164 0.176347
O O5 0.401985 0.611521 0.853047
O O6 0.437703 0.512342 0.789992
O O7 0.796156 0.500097 0.296135
O O8 0.672755 0.702674 0.099603
O O9 0.034138 0.702430 0.460970
O O10 0.076728 0.811411 0.615100
O O11 0.484536 0.713190 0.133508
O O12 0.349003 0.904949 0.023388
O O13 0.806499 0.897881 0.209709
O O14 0.736382 0.912172 0.012122
#
# Coordination Sequence:
#
# PCOD8125233 Si02
#       7
#     4   4   4   4   4   4   4
#     4  10  23  42  64  89 120 158 206 258 304 352
#     4  10  20  37  63  92 116 152 205 255 300 347
#     4  10  20  37  63  92 116 152 205 255 300 347
#     4  11  23  42  63  88 124 164 201 247 300 364
#     4  12  22  39  63  89 127 159 200 249 300 364
#     4  10  23  42  64  89 120 158 206 258 304 352
#     4  11  27  40  58  92 126 167 202 238 308 373
#
# _framework density 19.634167000000001
#
# number of rings (size 3 to 8) (size 9 to 14) (size 15 to 20)
#    0.000    1.429    2.857    2.571    8.000    2.286 
#    0.000    0.000    0.000    5.143    0.000    0.000 
#    0.000    0.000    0.000    0.000    0.000    0.000 
#
# Total GULP energy -347349.908496 kJ/mol
# GULP energy per Si atom -12405.353875 kJ/mol
# Density = 1.958948 g / cm^3
# Si number density = 19.634167 Si / 1000 Ang^3
#
#
#
# Elastic Constant Matrix: (Units=GPa)
#
#
# Indices 1 2 3 4 5 6 
#
# 1 110.5376 31.1899 65.2776 0.0000 13.9545 0.0000
# 2 31.1899 63.8545 28.6455 0.0000 4.1354 0.0000
# 3 65.2776 28.6455 101.5883 0.0000 0.9873 0.0000
# 4 0.0000 0.0000 0.0000 23.6715 0.0000 -17.2781
# 5 13.9545 4.1354 0.9873 0.0000 40.8073 0.0000
# 6 0.0000 0.0000 0.0000 -17.2781 0.0000 13.6068
#
#
#
# Elastic Compliance Matrix: (Units=1/GPa)
#
#
# Indices 1 2 3 4 5 6 
#
# 1 0.016169 -0.003363 -0.009393 0.000000 -0.004961 0.000000
# 2 -0.003363 0.018746 -0.003119 0.000000 -0.000674 0.000000
# 3 -0.009393 -0.003119 0.016729 0.000000 0.003123 0.000000
# 4 0.000000 0.000000 0.000000 0.577497 0.000000 0.733311
# 5 -0.004961 -0.000674 0.003123 0.000000 0.026195 0.000000
# 6 0.000000 0.000000 0.000000 0.733311 0.000000 1.004658
#
#
# Mechanical properties :
#
#
# Convention : Reuss Voigt Hill
#
# Bulk Modulus (GPa) = 50.26576 58.46737 54.36657
# Shear Modulus (GPa) = 2.94399 25.67496 14.30948
#
# Velocity S-wave (km/s) = 1.22584 3.62009 2.70257
# Velocity P-wave (km/s) = 5.25931 6.87870 6.12278
#
# Compressibility (1/GPa) = 0.01989426
#
# Stress axis : x y z
#
# Youngs Moduli (GPa) = 61.84673 53.34539 59.77807
#
# Poissons Ratio (x) = 0.17938 0.56152
# Poissons Ratio (y) = 0.20797 0.18642
# Poissons Ratio (z) = 0.58095 0.16636
#
# Static dielectric constant tensor:
#      x y z
#    x 3.645780 0.000000 0.058180 
#    y 0.000000 3.349220 0.000000 
#    z 0.058180 0.000000 3.611930 
# 
# 
# High freq. dielectric constant tensor:
#      x y z
#    x 1.772330 0.000000 0.001020 
#    y 0.000000 1.751210 0.000000 
#    z 0.001020 0.000000 1.771720 
# 
# From -- ./inp_files/75314.got.cif
#   From: 2010.03.12/outbox.cif.g09.slc.cpg/sg14_38_cif.got.tgz:75314.got - 2010.03.31 13:35:05.
