data_PCOD8125743
_publ_section_title
;
Structure prediction by ZEFSAII (Michael W. Deem and Ramdas Pophale) SiO2 
 PCOD8125743
Probable space group: P 21/C
;
_chemical_formula_sum "Si O2"
_cell_formula_units_Z 32
_cell_length_a 8.879610
_cell_length_b 18.798800
_cell_length_c 19.429321
_cell_angle_alpha 90.000000
_cell_angle_beta 28.843229
_cell_angle_gamma 90.000000
_cell_volume 1564.595856
_symmetry_space_group_name_H-M "P 21/C"
_symmetry_group_IT_number 14
_symmetry_cell_setting 'monoclinic'
loop_
_space_group_symop_operation_xyz
x,y,z
-x,1/2+y,1/2-z
-x,-y,-z
x,1/2-y,1/2+z
loop_
_atom_site_type_symbol
_atom_site_label
_atom_site_fract_x
_atom_site_fract_y
_atom_site_fract_z
Si Si1 0.840016 0.455063 0.122910
Si Si2 0.103943 0.553101 0.120264
Si Si3 0.139111 0.191756 0.687927
Si Si4 0.127552 0.800360 0.353323
Si Si5 0.135549 0.787846 0.590775
Si Si6 0.862831 0.792886 0.073945
Si Si7 0.877313 0.552480 0.607463
Si Si8 0.213020 0.037696 0.702410
O O1 0.488867 0.441116 0.245279
O O2 0.847265 0.500918 0.190184
O O3 0.995637 0.376827 0.068871
O O4 0.000000 0.500000 0.000000
O O5 0.139198 0.531280 0.185859
O O6 0.996067 0.634538 0.163748
O O7 0.411186 0.544349 0.949175
O O8 0.050955 0.213671 0.646343
O O9 0.910590 0.235630 0.827532
O O10 0.069160 0.108275 0.725539
O O11 0.492968 0.208783 0.569469
O O12 0.036904 0.734480 0.437051
O O13 0.500838 0.799141 0.198693
O O14 0.939305 0.762244 0.603830
O O15 0.008340 0.868854 0.038634
O O16 0.946959 0.527378 0.658190
O O17 0.000000 0.500000 0.500000
#
# Coordination Sequence:
#
# PCOD8125743 Si02
#       8
#     4   4   4   4   4   4   4   4
#     4  11  21  38  65  92 122 162 221 263 308 377
#     4  10  21  38  67  95 117 162 221 266 305 370
#     4  11  22  41  64  91 129 166 211 264 320 378
#     4  11  24  41  63  91 128 169 209 268 323 373
#     4  11  23  38  67  95 122 167 211 262 320 380
#     4  11  24  42  62  93 132 166 213 264 321 383
#     4  11  25  41  62  92 134 173 202 261 330 383
#     4  10  20  42  63  91 130 161 208 268 318 363
#
# _framework density 20.452566000000001
#
# number of rings (size 3 to 8) (size 9 to 14) (size 15 to 20)
#    0.000    1.250    3.750    2.250    3.500    4.000 
#    0.000    0.625    0.000    0.000    0.000    0.000 
#    0.000    0.000    0.000    0.000    0.000    0.000 
#
# Total GULP energy -396717.324928 kJ/mol
# GULP energy per Si atom -12397.416404 kJ/mol
# Density = 2.040601 g / cm^3
# Si number density = 20.452566 Si / 1000 Ang^3
#
#
#
# Elastic Constant Matrix: (Units=GPa)
#
#
# Indices 1 2 3 4 5 6 
#
# 1 109.0037 36.2273 12.2440 0.0000 20.6528 0.0000
# 2 36.2273 101.1639 22.3459 0.0000 9.5373 0.0000
# 3 12.2440 22.3459 41.1164 0.0000 21.5759 0.0000
# 4 0.0000 0.0000 0.0000 32.3856 0.0000 5.5983
# 5 20.6528 9.5373 21.5759 0.0000 39.2025 0.0000
# 6 0.0000 0.0000 0.0000 5.5983 0.0000 38.7541
#
#
#
# Elastic Compliance Matrix: (Units=1/GPa)
#
#
# Indices 1 2 3 4 5 6 
#
# 1 0.011429 -0.003948 0.001965 0.000000 -0.006142 0.000000
# 2 -0.003948 0.012619 -0.007260 0.000000 0.003005 0.000000
# 3 0.001965 -0.007260 0.038383 0.000000 -0.020394 0.000000
# 4 0.000000 0.000000 0.000000 0.031669 0.000000 -0.004575
# 5 -0.006142 0.003005 -0.020394 0.000000 0.039238 0.000000
# 6 0.000000 0.000000 0.000000 -0.004575 0.000000 0.026465
#
#
# Mechanical properties :
#
#
# Convention : Reuss Voigt Hill
#
# Bulk Modulus (GPa) = 22.75455 43.65760 33.20608
# Shear Modulus (GPa) = 25.91538 34.09957 30.00747
#
# Velocity S-wave (km/s) = 3.56349 4.08763 3.83453
# Velocity P-wave (km/s) = 5.29915 6.60836 5.98963
#
# Compressibility (1/GPa) = 0.04394725
#
# Stress axis : x y z
#
# Youngs Moduli (GPa) = 87.49602 79.24607 26.05297
#
# Poissons Ratio (x) = 0.31285 -0.05120
# Poissons Ratio (y) = 0.34542 0.18913
# Poissons Ratio (z) = -0.17196 0.57529
#
# Static dielectric constant tensor:
#      x y z
#    x 4.159180 0.000000 0.304290 
#    y 0.000000 3.908440 0.000000 
#    z 0.304290 0.000000 3.697970 
# 
# 
# High freq. dielectric constant tensor:
#      x y z
#    x 1.814110 0.000000 0.005020 
#    y 0.000000 1.812280 0.000000 
#    z 0.005020 0.000000 1.772650 
# 
# From -- ./inp_files/66031.got.cif
#   From: 2010.03.12/outbox.cif.g09.slc.cpg/sg14_34_cif.got.tgz:66031.got - 2010.03.31 13:35:05.
