data_PCOD8125963
_publ_section_title
;
Structure prediction by ZEFSAII (Michael W. Deem and Ramdas Pophale) SiO2 
 PCOD8125963
Probable space group: P 21/C
;
_chemical_formula_sum "Si O2"
_cell_formula_units_Z 28
_cell_length_a 24.333474
_cell_length_b 4.990200
_cell_length_c 14.243378
_cell_angle_alpha 90.000000
_cell_angle_beta 125.778521
_cell_angle_gamma 90.000000
_cell_volume 1403.160888
_symmetry_space_group_name_H-M "P 21/C"
_symmetry_group_IT_number 14
_symmetry_cell_setting 'monoclinic'
loop_
_space_group_symop_operation_xyz
x,y,z
-x,1/2+y,1/2-z
-x,-y,-z
x,1/2-y,1/2+z
loop_
_atom_site_type_symbol
_atom_site_label
_atom_site_fract_x
_atom_site_fract_y
_atom_site_fract_z
Si Si1 0.044807 0.649662 0.404041
Si Si2 0.159578 0.750036 0.159387
Si Si3 0.247695 0.249895 0.747780
Si Si4 0.455376 0.021527 0.205800
Si Si5 0.376020 0.482304 0.815812
Si Si6 0.375679 0.482302 0.437256
Si Si7 0.955322 0.149650 0.314773
O O1 0.115394 0.641802 0.528875
O O2 0.062809 0.643160 0.312661
O O3 0.997897 0.405841 0.387644
O O4 0.002265 0.905832 0.392003
O O5 0.203145 0.497862 0.165009
O O6 0.115188 0.641551 0.201165
O O7 0.202904 0.002476 0.240831
O O8 0.298813 0.373184 0.719286
O O9 0.298353 0.126731 0.878512
O O10 0.479767 0.327530 0.230112
O O11 0.411380 0.959970 0.253254
O O12 0.410375 0.960819 0.070318
O O13 0.374272 0.749780 0.875069
O O14 0.414808 0.249855 0.915584
#
# Coordination Sequence:
#
# PCOD8125963 Si02
#       7
#     4   4   4   4   4   4   4
#     4  10  21  37  56  83 117 150 192 256 310 344
#     4  12  20  37  60  87 110 156 212 238 290 380
#     4  10  22  41  58  85 122 162 200 240 306 364
#     4  12  26  40  70 102 118 162 218 242 308 384
#     4  10  22  45  62  88 132 165 191 262 309 354
#     4  10  22  45  62  88 132 165 191 262 309 354
#     4  10  21  37  56  83 117 150 192 256 310 344
#
# _framework density 19.954947000000001
#
# number of rings (size 3 to 8) (size 9 to 14) (size 15 to 20)
#    0.857    0.571    1.429    4.286    0.000    3.429 
#    5.143    0.000    0.000    0.000    0.000    0.000 
#    0.000    0.000    0.000    0.000    0.000    0.000 
#
# Total GULP energy -347050.617192 kJ/mol
# GULP energy per Si atom -12394.664900 kJ/mol
# Density = 1.990953 g / cm^3
# Si number density = 19.954947 Si / 1000 Ang^3
#
#
#
# Elastic Constant Matrix: (Units=GPa)
#
#
# Indices 1 2 3 4 5 6 
#
# 1 78.8636 42.9613 75.7895 0.0000 5.3809 0.0000
# 2 42.9613 159.2164 44.1411 0.0000 4.0991 0.0000
# 3 75.7895 44.1411 88.1382 0.0000 -3.3590 0.0000
# 4 0.0000 0.0000 0.0000 50.4899 0.0000 29.4070
# 5 5.3809 4.0991 -3.3590 0.0000 23.8056 0.0000
# 6 0.0000 0.0000 0.0000 29.4070 0.0000 62.5415
#
#
#
# Elastic Compliance Matrix: (Units=1/GPa)
#
#
# Indices 1 2 3 4 5 6 
#
# 1 0.093119 -0.002049 -0.080266 0.000000 -0.032021 0.000000
# 2 -0.002049 0.007414 -0.001993 0.000000 -0.001095 0.000000
# 3 -0.080266 -0.001993 0.082513 0.000000 0.030129 0.000000
# 4 0.000000 0.000000 0.000000 0.027276 0.000000 -0.012825
# 5 -0.032021 -0.001095 0.030129 0.000000 0.053684 0.000000
# 6 0.000000 0.000000 0.000000 -0.012825 0.000000 0.022020
#
#
# Mechanical properties :
#
#
# Convention : Reuss Voigt Hill
#
# Bulk Modulus (GPa) = 69.30465 72.44465 70.87465
# Shear Modulus (GPa) = 10.88253 38.25582 24.56917
#
# Velocity S-wave (km/s) = 2.33782 4.38323 3.51270
# Velocity P-wave (km/s) = 6.48792 7.87400 7.21433
#
# Compressibility (1/GPa) = 0.01442905
#
# Stress axis : x y z
#
# Youngs Moduli (GPa) = 10.73900 134.87324 12.11932
#
# Poissons Ratio (x) = 0.27631 0.97277
# Poissons Ratio (y) = 0.02200 0.02416
# Poissons Ratio (z) = 0.86198 0.26884
#
# Static dielectric constant tensor:
#      x y z
#    x 3.396960 0.000000 0.018640 
#    y 0.000000 3.862550 0.000000 
#    z 0.018640 0.000000 3.393150 
# 
# 
# High freq. dielectric constant tensor:
#      x y z
#    x 1.767950 0.000000 0.012110 
#    y 0.000000 1.807060 0.000000 
#    z 0.012110 0.000000 1.763750 
# 
# From -- ./inp_files/50905.got.cif
#   From: 2010.03.12/outbox.cif.g09.slc.cpg/sg14_26_cif.got.tgz:50905.got - 2010.03.31 13:35:05.
