data_PCOD8125964
_publ_section_title
;
Structure prediction by ZEFSAII (Michael W. Deem and Ramdas Pophale) SiO2 
 PCOD8125964
Probable space group: P 21/C
;
_chemical_formula_sum "Si O2"
_cell_formula_units_Z 32
_cell_length_a 10.307293
_cell_length_b 12.957133
_cell_length_c 12.166194
_cell_angle_alpha 90.000000
_cell_angle_beta 72.768167
_cell_angle_gamma 90.000000
_cell_volume 1551.898993
_symmetry_space_group_name_H-M "P 21/C"
_symmetry_group_IT_number 14
_symmetry_cell_setting 'monoclinic'
loop_
_space_group_symop_operation_xyz
x,y,z
-x,1/2+y,1/2-z
-x,-y,-z
x,1/2-y,1/2+z
loop_
_atom_site_type_symbol
_atom_site_label
_atom_site_fract_x
_atom_site_fract_y
_atom_site_fract_z
Si Si1 0.791669 0.645611 0.786075
Si Si2 0.600247 0.006910 0.781002
Si Si3 0.082436 0.958324 0.640714
Si Si4 0.686661 0.935751 0.097487
Si Si5 0.918527 0.243561 0.769918
Si Si6 0.154718 0.911968 0.380859
Si Si7 0.587413 0.689274 0.413366
Si Si8 0.296024 0.868127 0.038022
O O1 0.803923 0.541963 0.856046
O O2 0.787357 0.618636 0.657665
O O3 0.658210 0.703010 0.865421
O O4 0.923712 0.716027 0.764747
O O5 0.446874 0.039966 0.796291
O O6 0.694031 0.040164 0.655190
O O7 0.650930 0.066904 0.874120
O O8 0.611561 0.885370 0.802877
O O9 0.087008 0.867676 0.729646
O O10 0.104042 0.906151 0.517015
O O11 0.936311 0.014204 0.675033
O O12 0.655301 0.857697 0.005925
O O13 0.746294 0.046040 0.041960
O O14 0.851911 0.202002 0.672671
O O15 0.833711 0.200459 0.896265
O O16 0.423709 0.703654 0.467827
#
# Coordination Sequence:
#
# PCOD8125964 Si02
#       8
#     4   4   4   4   4   4   4   4
#     4  11  23  35  55  88 115 139 184 235 278 327
#     4   8  15  34  60  79 102 143 187 223 270 330
#     4  10  22  37  53  81 112 141 185 229 275 333
#     4   9  19  35  56  84 111 139 185 235 272 320
#     4  10  21  37  57  78 106 148 188 222 272 336
#     4   9  19  37  57  75 108 149 178 222 282 326
#     4   9  18  35  58  79 108 148 187 223 271 334
#     4   8  17  36  58  79 105 145 189 224 268 330
#
# _framework density 20.619899
#
# number of rings (size 3 to 8) (size 9 to 14) (size 15 to 20)
#    0.000    2.750    0.000    2.250    0.000    7.500 
#    0.000    8.750    0.000    0.000    0.000    0.000 
#    0.000    0.000    0.000    0.000    0.000    0.000 
#
# Total GULP energy -396646.456875 kJ/mol
# GULP energy per Si atom -12395.201777 kJ/mol
# Density = 2.057297 g / cm^3
# Si number density = 20.619899 Si / 1000 Ang^3
#
#
#
# Elastic Constant Matrix: (Units=GPa)
#
#
# Indices 1 2 3 4 5 6 
#
# 1 31.4220 18.4186 17.4983 0.0000 -6.6380 0.0000
# 2 18.4186 120.4680 30.8067 0.0000 -1.7501 0.0000
# 3 17.4983 30.8067 50.4454 0.0000 -6.2730 0.0000
# 4 0.0000 0.0000 0.0000 25.3014 0.0000 -3.5766
# 5 -6.6380 -1.7501 -6.2730 0.0000 30.0631 0.0000
# 6 0.0000 0.0000 0.0000 -3.5766 0.0000 24.4683
#
#
#
# Elastic Compliance Matrix: (Units=1/GPa)
#
#
# Indices 1 2 3 4 5 6 
#
# 1 0.041608 -0.003300 -0.011600 0.000000 0.006574 0.000000
# 2 -0.003300 0.010113 -0.005183 0.000000 -0.001221 0.000000
# 3 -0.011600 -0.005183 0.027367 0.000000 0.002847 0.000000
# 4 0.000000 0.000000 0.000000 0.040357 0.000000 0.005899
# 5 0.006574 -0.001221 0.002847 0.000000 0.035238 0.000000
# 6 0.000000 0.000000 0.000000 0.005899 0.000000 0.041731
#
#
# Mechanical properties :
#
#
# Convention : Reuss Voigt Hill
#
# Bulk Modulus (GPa) = 25.69277 37.30918 31.50098
# Shear Modulus (GPa) = 20.03569 25.00735 22.52152
#
# Velocity S-wave (km/s) = 3.12054 3.48627 3.30846
# Velocity P-wave (km/s) = 5.04687 5.85991 5.46852
#
# Compressibility (1/GPa) = 0.03892146
#
# Stress axis : x y z
#
# Youngs Moduli (GPa) = 24.03401 98.88038 36.54067
#
# Poissons Ratio (x) = 0.32626 0.42388
# Poissons Ratio (y) = 0.07930 0.18941
# Poissons Ratio (z) = 0.27880 0.51254
#
# Static dielectric constant tensor:
#      x y z
#    x 3.869710 0.000000 -0.404250 
#    y 0.000000 3.705090 0.000000 
#    z -0.404250 0.000000 3.765190 
# 
# 
# High freq. dielectric constant tensor:
#      x y z
#    x 1.795740 0.000000 -0.013500 
#    y 0.000000 1.801350 0.000000 
#    z -0.013500 0.000000 1.792570 
# 
# From -- ./inp_files/29059.got.cif
#   From: 2010.03.12/outbox.cif.g09.slc.cpg/sg14_15_cif.got.tgz:29059.got - 2010.03.31 13:35:05.
