data_PCOD8125506
_publ_section_title
;
Structure prediction by ZEFSAII (Michael W. Deem and Ramdas Pophale) SiO2 
 PCOD8125506
Probable space group: P 21/C
;
_chemical_formula_sum "Si O2"
_cell_formula_units_Z 20
_cell_length_a 15.705812
_cell_length_b 8.157139
_cell_length_c 25.425140
_cell_angle_alpha 90.000000
_cell_angle_beta 16.517995
_cell_angle_gamma 90.000000
_cell_volume 926.112247
_symmetry_space_group_name_H-M "P 21/C"
_symmetry_group_IT_number 14
_symmetry_cell_setting 'monoclinic'
loop_
_space_group_symop_operation_xyz
x,y,z
-x,1/2+y,1/2-z
-x,-y,-z
x,1/2-y,1/2+z
loop_
_atom_site_type_symbol
_atom_site_label
_atom_site_fract_x
_atom_site_fract_y
_atom_site_fract_z
Si Si1 0.889423 0.150873 0.501369
Si Si2 0.696872 0.130272 0.726957
Si Si3 0.437260 0.303227 0.976871
Si Si4 0.177561 0.844787 0.648995
Si Si5 0.539204 0.203530 0.116391
O O1 0.722433 0.208183 0.653737
O O2 0.674800 0.176725 0.579518
O O3 0.192433 0.257985 0.313703
O O4 0.982532 0.957221 0.448828
O O5 0.442281 0.987393 0.876943
O O6 0.617703 0.270467 0.816002
O O7 0.273957 0.477645 0.071017
O O8 0.182478 0.164354 0.134667
O O9 0.674567 0.296199 0.883363
O O10 0.284170 0.714135 0.542705
#
# Coordination Sequence:
#
# PCOD8125506 Si02
#       5
#     4   4   4   4   4
#     4   9  21  40  66  91 124 166 213 260 322 372
#     4   9  22  42  66  89 130 172 208 263 327 376
#     4  11  25  42  64  95 131 167 218 262 325 385
#     4  11  25  41  64  98 127 173 214 262 323 388
#     4  10  20  39  64  90 125 165 214 260 316 379
#
# _framework density 21.595655000000001
#
# number of rings (size 3 to 8) (size 9 to 14) (size 15 to 20)
#    1.200    0.800    0.000    2.400    2.800    6.400 
#    0.000    2.000    0.000    0.000    0.000    0.000 
#    0.000    0.000    0.000    0.000    0.000    0.000 
#
# Total GULP energy -247936.174147 kJ/mol
# GULP energy per Si atom -12396.808707 kJ/mol
# Density = 2.154650 g / cm^3
# Si number density = 21.595655 Si / 1000 Ang^3
#
#
#
# Elastic Constant Matrix: (Units=GPa)
#
#
# Indices 1 2 3 4 5 6 
#
# 1 83.9108 23.1948 34.9183 0.0000 20.7039 0.0000
# 2 23.1948 43.4955 18.7217 0.0000 -1.5506 0.0000
# 3 34.9183 18.7217 77.7636 0.0000 27.9141 0.0000
# 4 0.0000 0.0000 0.0000 32.8440 0.0000 8.4721
# 5 20.7039 -1.5506 27.9141 0.0000 43.3157 0.0000
# 6 0.0000 0.0000 0.0000 8.4721 0.0000 31.4277
#
#
#
# Elastic Compliance Matrix: (Units=1/GPa)
#
#
# Indices 1 2 3 4 5 6 
#
# 1 0.017074 -0.007775 -0.003598 0.000000 -0.006121 0.000000
# 2 -0.007775 0.030616 -0.007294 0.000000 0.009513 0.000000
# 3 -0.003598 -0.007294 0.020435 0.000000 -0.011710 0.000000
# 4 0.000000 0.000000 0.000000 0.032722 0.000000 -0.008821
# 5 -0.006121 0.009513 -0.011710 0.000000 0.033899 0.000000
# 6 0.000000 0.000000 0.000000 -0.008821 0.000000 0.034197
#
#
# Mechanical properties :
#
#
# Convention : Reuss Voigt Hill
#
# Bulk Modulus (GPa) = 32.47765 39.87106 36.17435
# Shear Modulus (GPa) = 23.09043 30.07316 26.58179
#
# Velocity S-wave (km/s) = 3.27343 3.73574 3.51220
# Velocity P-wave (km/s) = 5.41838 6.09183 5.76494
#
# Compressibility (1/GPa) = 0.03079041
#
# Stress axis : x y z
#
# Youngs Moduli (GPa) = 58.56900 32.66300 48.93622
#
# Poissons Ratio (x) = 0.25394 0.17607
# Poissons Ratio (y) = 0.45535 0.35697
# Poissons Ratio (z) = 0.21073 0.23826
#
# Static dielectric constant tensor:
#      x y z
#    x 3.704650 0.000000 0.126290 
#    y 0.000000 3.536370 0.000000 
#    z 0.126290 0.000000 3.966510 
# 
# 
# High freq. dielectric constant tensor:
#      x y z
#    x 1.847270 0.000000 0.015110 
#    y 0.000000 1.822900 0.000000 
#    z 0.015110 0.000000 1.853870 
# 
# From -- ./inp_files/19379.got.cif
#   From: 2010.03.12/outbox.cif.g09.slc.cpg/sg14_10_cif.got.tgz:19379.got - 2010.03.31 13:35:05.
