data_PCOD8125345
_publ_section_title
;
Structure prediction by ZEFSAII (Michael W. Deem and Ramdas Pophale) SiO2 
 PCOD8125345
Probable space group: P 21/C
;
_chemical_formula_sum "Si O2"
_cell_formula_units_Z 32
_cell_length_a 16.134242
_cell_length_b 19.984647
_cell_length_c 15.613103
_cell_angle_alpha 90.000000
_cell_angle_beta 18.311307
_cell_angle_gamma 90.000000
_cell_volume 1581.657885
_symmetry_space_group_name_H-M "P 21/C"
_symmetry_group_IT_number 14
_symmetry_cell_setting 'monoclinic'
loop_
_space_group_symop_operation_xyz
x,y,z
-x,1/2+y,1/2-z
-x,-y,-z
x,1/2-y,1/2+z
loop_
_atom_site_type_symbol
_atom_site_label
_atom_site_fract_x
_atom_site_fract_y
_atom_site_fract_z
Si Si1 0.884723 0.272879 0.415809
Si Si2 0.596641 0.680441 0.008284
Si Si3 0.761980 0.017561 0.794215
Si Si4 0.001400 0.159794 0.181516
Si Si5 0.154046 0.018587 0.102670
Si Si6 0.495976 0.207018 0.593097
Si Si7 0.639403 0.564183 0.086435
Si Si8 0.354167 0.850574 0.999499
O O1 0.894195 0.197973 0.370333
O O2 0.649207 0.278381 0.714175
O O3 0.857885 0.325155 0.363122
O O4 0.148350 0.283254 0.207978
O O5 0.598486 0.603685 0.037635
O O6 0.607899 0.682273 0.895645
O O7 0.771866 0.096140 0.810970
O O8 0.789833 0.971184 0.851377
O O9 0.000000 0.000000 0.500000
O O10 0.500000 0.000000 0.000000
O O11 0.047542 0.083692 0.160926
O O12 0.768276 0.166581 0.340607
O O13 0.275567 0.190862 0.880070
O O14 0.937581 0.960918 0.301520
O O15 0.429428 0.996336 0.789760
O O16 0.538364 0.287151 0.553025
O O17 0.589134 0.612417 0.217515
#
# Coordination Sequence:
#
# PCOD8125345 Si02
#       8
#     4   4   4   4   4   4   4   4
#     4  10  21  38  64  84 113 158 202 242 283 358
#     4  11  21  38  61  92 115 147 202 250 292 335
#     4  11  23  36  57  89 120 150 190 239 288 347
#     4  11  23  41  59  88 120 158 198 237 304 359
#     4  11  23  40  61  81 117 160 194 235 287 356
#     4  11  24  39  62  90 123 151 191 259 300 337
#     4  10  20  38  62  82 109 158 202 230 277 362
#     4   9  21  40  61  84 117 158 194 230 295 356
#
# _framework density 20.231935
#
# number of rings (size 3 to 8) (size 9 to 14) (size 15 to 20)
#    0.000    1.500    0.000    7.500    0.000    7.000 
#    0.000    3.750    0.000    0.000    0.000    0.000 
#    0.000    0.000    0.000    0.000    0.000    0.000 
#
# Total GULP energy -396828.130964 kJ/mol
# GULP energy per Si atom -12400.879093 kJ/mol
# Density = 2.018589 g / cm^3
# Si number density = 20.231935 Si / 1000 Ang^3
#
#
#
# Elastic Constant Matrix: (Units=GPa)
#
#
# Indices 1 2 3 4 5 6 
#
# 1 102.4211 46.9139 26.6379 0.0000 -13.5080 0.0000
# 2 46.9139 88.9955 11.4712 0.0000 2.5155 0.0000
# 3 26.6379 11.4712 100.6863 0.0000 -13.6937 0.0000
# 4 0.0000 0.0000 0.0000 28.6756 0.0000 2.4633
# 5 -13.5080 2.5155 -13.6937 0.0000 34.2022 0.0000
# 6 0.0000 0.0000 0.0000 2.4633 0.0000 30.9803
#
#
#
# Elastic Compliance Matrix: (Units=1/GPa)
#
#
# Indices 1 2 3 4 5 6 
#
# 1 0.014494 -0.007503 -0.002249 0.000000 0.005376 0.000000
# 2 -0.007503 0.015355 -0.000340 0.000000 -0.004228 0.000000
# 3 -0.002249 -0.000340 0.011050 0.000000 0.003561 0.000000
# 4 0.000000 0.000000 0.000000 0.035113 0.000000 -0.002792
# 5 0.005376 -0.004228 0.003561 0.000000 0.033098 0.000000
# 6 0.000000 0.000000 0.000000 -0.002792 0.000000 0.032501
#
#
# Mechanical properties :
#
#
# Convention : Reuss Voigt Hill
#
# Bulk Modulus (GPa) = 48.26977 51.34988 49.80983
# Shear Modulus (GPa) = 29.63896 32.57694 31.10795
#
# Velocity S-wave (km/s) = 3.83163 4.01705 3.92544
# Velocity P-wave (km/s) = 6.59433 6.85210 6.72445
#
# Compressibility (1/GPa) = 0.02071690
#
# Stress axis : x y z
#
# Youngs Moduli (GPa) = 68.99391 65.12616 90.49997
#
# Poissons Ratio (x) = 0.48862 0.20351
# Poissons Ratio (y) = 0.51764 0.03073
# Poissons Ratio (z) = 0.15515 0.02211
#
# Static dielectric constant tensor:
#      x y z
#    x 3.621210 0.000000 -0.089930 
#    y 0.000000 3.694250 0.000000 
#    z -0.089930 0.000000 3.838920 
# 
# 
# High freq. dielectric constant tensor:
#      x y z
#    x 1.783930 0.000000 -0.012680 
#    y 0.000000 1.785540 0.000000 
#    z -0.012680 0.000000 1.806220 
# 
# From -- ./inp_files/47612.got.cif
#   From: 2010.03.12/outbox.cif.g09.slc.cpg/sg14_24_cif.got.tgz:47612.got - 2010.03.31 13:35:05.
