data_PCOD8125659
_publ_section_title
;
Structure prediction by ZEFSAII (Michael W. Deem and Ramdas Pophale) SiO2 
 PCOD8125659
Probable space group: P 21/C
;
_chemical_formula_sum "Si O2"
_cell_formula_units_Z 28
_cell_length_a 8.673443
_cell_length_b 12.276988
_cell_length_c 20.301873
_cell_angle_alpha 90.000000
_cell_angle_beta 40.824804
_cell_angle_gamma 90.000000
_cell_volume 1413.285845
_symmetry_space_group_name_H-M "P 21/C"
_symmetry_group_IT_number 14
_symmetry_cell_setting 'monoclinic'
loop_
_space_group_symop_operation_xyz
x,y,z
-x,1/2+y,1/2-z
-x,-y,-z
x,1/2-y,1/2+z
loop_
_atom_site_type_symbol
_atom_site_label
_atom_site_fract_x
_atom_site_fract_y
_atom_site_fract_z
Si Si1 0.479185 0.293022 0.759501
Si Si2 0.115607 0.374468 0.335637
Si Si3 0.763643 0.005190 0.394157
Si Si4 0.157279 0.613664 0.265154
Si Si5 0.704000 0.284359 0.550042
Si Si6 0.797257 0.724416 0.830471
Si Si7 0.978458 0.913430 0.563057
O O1 0.347696 0.174178 0.798890
O O2 0.673889 0.297716 0.754325
O O3 0.604619 0.330776 0.650947
O O4 0.292494 0.384868 0.839165
O O5 0.142795 0.502220 0.312091
O O6 0.101087 0.294745 0.276454
O O7 0.871888 0.367929 0.455822
O O8 0.750649 0.084482 0.336248
O O9 0.930728 0.051918 0.395515
O O10 0.500000 0.000000 0.500000
O O11 0.861462 0.885559 0.347622
O O12 0.908188 0.673439 0.333443
O O13 0.482940 0.246210 0.577494
O O14 0.867313 0.183646 0.515657
O O15 0.000000 0.000000 0.500000
#
# Coordination Sequence:
#
# PCOD8125659 Si02
#       7
#     4   4   4   4   4   4   4
#     4  10  23  38  61  90 125 163 212 261 312 380
#     4   9  22  42  61  87 129 170 205 265 324 377
#     4  11  21  38  64  93 121 162 217 269 309 374
#     4  11  23  40  62  93 129 168 213 265 321 376
#     4  10  20  41  59  86 128 167 206 261 316 384
#     4  10  22  37  62  90 124 163 214 266 311 385
#     4  11  23  39  67  92 124 168 211 263 327 368
#
# _framework density 19.811985
#
# number of rings (size 3 to 8) (size 9 to 14) (size 15 to 20)
#    0.000    1.714    1.429    3.429    6.000    1.143 
#    0.000    0.000    0.000    0.000    0.000    0.000 
#    0.000    0.000    0.000    0.000    0.000    0.000 
#
# Total GULP energy -347027.653521 kJ/mol
# GULP energy per Si atom -12393.844769 kJ/mol
# Density = 1.976689 g / cm^3
# Si number density = 19.811985 Si / 1000 Ang^3
#
#
#
# Elastic Constant Matrix: (Units=GPa)
#
#
# Indices 1 2 3 4 5 6 
#
# 1 73.6379 28.4372 30.2260 0.0000 0.0070 0.0000
# 2 28.4372 82.3783 24.6793 0.0000 6.0171 0.0000
# 3 30.2260 24.6793 127.2229 0.0000 -4.8959 0.0000
# 4 0.0000 0.0000 0.0000 15.0836 0.0000 5.5182
# 5 0.0070 6.0171 -4.8959 0.0000 29.0959 0.0000
# 6 0.0000 0.0000 0.0000 5.5182 0.0000 38.1624
#
#
#
# Elastic Compliance Matrix: (Units=1/GPa)
#
#
# Indices 1 2 3 4 5 6 
#
# 1 0.016705 -0.004905 -0.002998 0.000000 0.000506 0.000000
# 2 -0.004905 0.014614 -0.001797 0.000000 -0.003323 0.000000
# 3 -0.002998 -0.001797 0.008994 0.000000 0.001886 0.000000
# 4 0.000000 0.000000 0.000000 0.070000 0.000000 -0.010122
# 5 0.000506 -0.003323 0.001886 0.000000 0.035374 0.000000
# 6 0.000000 0.000000 0.000000 -0.010122 0.000000 0.027667
#
#
# Mechanical properties :
#
#
# Convention : Reuss Voigt Hill
#
# Bulk Modulus (GPa) = 47.82116 49.99155 48.90635
# Shear Modulus (GPa) = 25.03447 29.79481 27.41464
#
# Velocity S-wave (km/s) = 3.55858 3.88219 3.72390
# Velocity P-wave (km/s) = 6.40894 6.73669 6.57486
#
# Compressibility (1/GPa) = 0.02091125
#
# Stress axis : x y z
#
# Youngs Moduli (GPa) = 59.86328 68.42911 111.18976
#
# Poissons Ratio (x) = 0.33567 0.33331
# Poissons Ratio (y) = 0.29365 0.19984
# Poissons Ratio (z) = 0.17945 0.12299
#
# Static dielectric constant tensor:
#      x y z
#    x 2.315030 0.000000 -0.215140 
#    y 0.000000 3.376160 0.000000 
#    z -0.215140 0.000000 3.678640 
# 
# 
# High freq. dielectric constant tensor:
#      x y z
#    x 1.774440 0.000000 -0.001540 
#    y 0.000000 1.765700 0.000000 
#    z -0.001540 0.000000 1.781330 
# 
# From -- ./inp_files/48796.got.cif
#   From: 2010.03.12/outbox.cif.g09.slc.cpg/sg14_25_cif.got.tgz:48796.got - 2010.03.31 13:35:05.
