data_PCOD8125362
_publ_section_title
;
Structure prediction by ZEFSAII (Michael W. Deem and Ramdas Pophale) SiO2 
 PCOD8125362
Probable space group: P 21/C
;
_chemical_formula_sum "Si O2"
_cell_formula_units_Z 24
_cell_length_a 11.301567
_cell_length_b 7.655693
_cell_length_c 22.549208
_cell_angle_alpha 90.000000
_cell_angle_beta 147.977947
_cell_angle_gamma 90.000000
_cell_volume 1034.502560
_symmetry_space_group_name_H-M "P 21/C"
_symmetry_group_IT_number 14
_symmetry_cell_setting 'monoclinic'
loop_
_space_group_symop_operation_xyz
x,y,z
-x,1/2+y,1/2-z
-x,-y,-z
x,1/2-y,1/2+z
loop_
_atom_site_type_symbol
_atom_site_label
_atom_site_fract_x
_atom_site_fract_y
_atom_site_fract_z
Si Si1 0.226653 0.388025 0.604759
Si Si2 0.141854 0.572843 0.756261
Si Si3 0.239542 0.178447 0.821204
Si Si4 0.555115 0.830538 0.488476
Si Si5 0.050596 0.294794 0.922839
Si Si6 0.317480 0.427906 0.226461
O O1 0.222813 0.259050 0.547279
O O2 0.439348 0.517547 0.694811
O O3 0.244225 0.261891 0.669881
O O4 0.000000 0.500000 0.500000
O O5 0.203297 0.371551 0.780069
O O6 0.354814 0.702774 0.857315
O O7 0.983225 0.598932 0.745600
O O8 0.057030 0.624101 0.654537
O O9 0.327268 0.069285 0.802426
O O10 0.420037 0.175999 0.952019
O O11 0.791502 0.880010 0.559349
O O12 0.500000 0.000000 0.500000
O O13 0.867234 0.428274 0.870595
#
# Coordination Sequence:
#
# PCOD8125362 Si02
#       6
#     4   4   4   4   4   4
#     4  12  28  47  69  97 128 177 230 280 337 393
#     4  10  20  38  62  98 135 169 216 269 331 407
#     4  10  21  37  63  94 130 171 212 270 336 398
#     4   9  19  34  60  93 126 164 206 257 324 392
#     4  11  23  42  67  95 130 173 218 273 334 398
#     4  12  26  46  68  97 135 176 227 285 332 396
#
# _framework density 23.199556000000001
#
# number of rings (size 3 to 8) (size 9 to 14) (size 15 to 20)
#    0.000    1.333    0.000    6.500    0.000    8.000 
#    0.000    4.167    0.000    0.000    0.000    0.000 
#    0.000    0.000    0.000    0.000    0.000    0.000 
#
# Total GULP energy -297396.465168 kJ/mol
# GULP energy per Si atom -12391.519382 kJ/mol
# Density = 2.314675 g / cm^3
# Si number density = 23.199556 Si / 1000 Ang^3
#
#
#
# Elastic Constant Matrix: (Units=GPa)
#
#
# Indices 1 2 3 4 5 6 
#
# 1 74.6664 18.0091 21.2808 0.0000 2.8030 0.0000
# 2 18.0091 71.6618 7.8199 0.0000 6.9175 0.0000
# 3 21.2808 7.8199 78.0303 0.0000 -2.2321 0.0000
# 4 0.0000 0.0000 0.0000 39.6326 0.0000 3.0245
# 5 2.8030 6.9175 -2.2321 0.0000 31.4207 0.0000
# 6 0.0000 0.0000 0.0000 3.0245 0.0000 39.1198
#
#
#
# Elastic Compliance Matrix: (Units=1/GPa)
#
#
# Indices 1 2 3 4 5 6 
#
# 1 0.015338 -0.003344 -0.003874 0.000000 -0.000907 0.000000
# 2 -0.003344 0.015169 -0.000697 0.000000 -0.003091 0.000000
# 3 -0.003874 -0.000697 0.013985 0.000000 0.001492 0.000000
# 4 0.000000 0.000000 0.000000 0.025381 0.000000 -0.001962
# 5 -0.000907 -0.003091 0.001492 0.000000 0.032694 0.000000
# 6 0.000000 0.000000 0.000000 -0.001962 0.000000 0.025714
#
#
# Mechanical properties :
#
#
# Convention : Reuss Voigt Hill
#
# Bulk Modulus (GPa) = 34.88898 35.39755 35.14327
# Shear Modulus (GPa) = 32.53859 33.85122 33.19491
#
# Velocity S-wave (km/s) = 3.74913 3.82400 3.78675
# Velocity P-wave (km/s) = 5.81486 5.89816 5.85666
#
# Compressibility (1/GPa) = 0.02866235
#
# Stress axis : x y z
#
# Youngs Moduli (GPa) = 65.19916 65.92301 71.50768
#
# Poissons Ratio (x) = 0.22046 0.27700
# Poissons Ratio (y) = 0.21804 0.04981
# Poissons Ratio (z) = 0.25257 0.04592
#
# Static dielectric constant tensor:
#      x y z
#    x 4.162510 0.000000 -0.225330 
#    y 0.000000 3.811540 0.000000 
#    z -0.225330 0.000000 8.257140 
# 
# 
# High freq. dielectric constant tensor:
#      x y z
#    x 1.919250 0.000000 -0.007620 
#    y 0.000000 1.911000 0.000000 
#    z -0.007620 0.000000 1.929820 
# 
# From -- ./inp_files/28184.got.cif
#   From: 2010.03.12/outbox.cif.g09.slc.cpg/sg14_15_cif.got.tgz:28184.got - 2010.03.31 13:35:05.
