data_PCOD8125954
_publ_section_title
;
Structure prediction by ZEFSAII (Michael W. Deem and Ramdas Pophale) SiO2 
 PCOD8125954
Probable space group: P 21/C
;
_chemical_formula_sum "Si O2"
_cell_formula_units_Z 28
_cell_length_a 25.121574
_cell_length_b 11.842968
_cell_length_c 14.132948
_cell_angle_alpha 90.000000
_cell_angle_beta 160.005905
_cell_angle_gamma 90.000000
_cell_volume 1437.701924
_symmetry_space_group_name_H-M "P 21/C"
_symmetry_group_IT_number 14
_symmetry_cell_setting 'monoclinic'
loop_
_space_group_symop_operation_xyz
x,y,z
-x,1/2+y,1/2-z
-x,-y,-z
x,1/2-y,1/2+z
loop_
_atom_site_type_symbol
_atom_site_label
_atom_site_fract_x
_atom_site_fract_y
_atom_site_fract_z
Si Si1 0.892598 0.678635 0.369659
Si Si2 0.130373 0.090552 0.559672
Si Si3 0.686214 0.000669 0.620962
Si Si4 0.661392 0.445910 0.467448
Si Si5 0.186038 0.709242 0.756378
Si Si6 0.801082 0.527976 0.510659
Si Si7 0.118650 0.219375 0.352904
O O1 0.859914 0.798598 0.361086
O O2 0.830276 0.577564 0.329351
O O3 0.809151 0.677550 0.126757
O O4 0.080197 0.665514 0.668400
O O5 0.156166 0.124713 0.493723
O O6 0.968070 0.028011 0.305905
O O7 0.266359 0.006249 0.819769
O O8 0.523789 0.939691 0.329979
O O9 0.689098 0.115775 0.565853
O O10 0.710050 0.029590 0.771464
O O11 0.720781 0.318970 0.556672
O O12 0.703336 0.514547 0.443034
O O13 0.068835 0.734171 0.472571
O O14 0.812116 0.660000 0.502652
#
# Coordination Sequence:
#
# PCOD8125954 Si02
#       7
#     4   4   4   4   4   4   4
#     4  10  21  41  63  92 123 164 211 256 307 373
#     4  12  20  39  68  91 120 166 214 263 302 369
#     4  12  26  38  64  95 135 162 203 265 325 361
#     4  12  25  40  62  98 130 166 203 267 319 370
#     4  10  22  41  61  90 127 163 217 252 310 375
#     4  12  20  41  63  96 122 172 218 249 300 387
#     4  10  21  36  68  94 117 161 224 257 291 369
#
# _framework density 19.475525000000001
#
# number of rings (size 3 to 8) (size 9 to 14) (size 15 to 20)
#    0.857    0.000    7.143    1.286    2.000    0.000 
#    0.000    2.143    0.000    0.000    0.000    0.000 
#    0.000    0.000    0.000    0.000    0.000    0.000 
#
# Total GULP energy -347166.953076 kJ/mol
# GULP energy per Si atom -12398.819753 kJ/mol
# Density = 1.943120 g / cm^3
# Si number density = 19.475525 Si / 1000 Ang^3
#
#
#
# Elastic Constant Matrix: (Units=GPa)
#
#
# Indices 1 2 3 4 5 6 
#
# 1 85.5539 26.2959 31.1915 0.0000 -10.6192 0.0000
# 2 26.2959 80.8749 25.0445 0.0000 8.6468 0.0000
# 3 31.1915 25.0445 96.1274 0.0000 5.1627 0.0000
# 4 0.0000 0.0000 0.0000 26.4289 0.0000 -3.7492
# 5 -10.6192 8.6468 5.1627 0.0000 22.9983 0.0000
# 6 0.0000 0.0000 0.0000 -3.7492 0.0000 21.8742
#
#
#
# Elastic Compliance Matrix: (Units=1/GPa)
#
#
# Indices 1 2 3 4 5 6 
#
# 1 0.016133 -0.004956 -0.004498 0.000000 0.010322 0.000000
# 2 -0.004956 0.015411 -0.001997 0.000000 -0.007634 0.000000
# 3 -0.004498 -0.001997 0.012606 0.000000 -0.004156 0.000000
# 4 0.000000 0.000000 0.000000 0.038780 0.000000 0.006647
# 5 0.010322 -0.007634 -0.004156 0.000000 0.052051 0.000000
# 6 0.000000 0.000000 0.000000 0.006647 0.000000 0.046855
#
#
# Mechanical properties :
#
#
# Convention : Reuss Voigt Hill
#
# Bulk Modulus (GPa) = 47.06424 47.51335 47.28880
# Shear Modulus (GPa) = 23.60485 26.26189 24.93337
#
# Velocity S-wave (km/s) = 3.48519 3.67612 3.58193
# Velocity P-wave (km/s) = 6.35718 6.51674 6.43745
#
# Compressibility (1/GPa) = 0.02124755
#
# Stress axis : x y z
#
# Youngs Moduli (GPa) = 61.98464 64.88928 79.32854
#
# Poissons Ratio (x) = 0.32161 0.35682
# Poissons Ratio (y) = 0.30721 0.15841
# Poissons Ratio (z) = 0.27880 0.12957
#
# Static dielectric constant tensor:
#      x y z
#    x 3.596740 0.000000 -0.098970 
#    y 0.000000 3.495920 0.000000 
#    z -0.098970 0.000000 3.332590 
# 
# 
# High freq. dielectric constant tensor:
#      x y z
#    x 1.758910 0.000000 -0.009170 
#    y 0.000000 1.762350 0.000000 
#    z -0.009170 0.000000 1.734930 
# 
# From -- ./inp_files/52003.got.cif
#   From: 2010.03.12/outbox.cif.g09.slc.cpg/sg14_27_cif.got.tgz:52003.got - 2010.03.31 13:35:05.
