data_PCOD8125094
_publ_section_title
;
Structure prediction by ZEFSAII (Michael W. Deem and Ramdas Pophale) SiO2 
 PCOD8125094
Probable space group: P 21/C
;
_chemical_formula_sum "Si O2"
_cell_formula_units_Z 32
_cell_length_a 8.946214
_cell_length_b 19.570416
_cell_length_c 18.618585
_cell_angle_alpha 90.000000
_cell_angle_beta 28.465504
_cell_angle_gamma 90.000000
_cell_volume 1553.699371
_symmetry_space_group_name_H-M "P 21/C"
_symmetry_group_IT_number 14
_symmetry_cell_setting 'monoclinic'
loop_
_space_group_symop_operation_xyz
x,y,z
-x,1/2+y,1/2-z
-x,-y,-z
x,1/2-y,1/2+z
loop_
_atom_site_type_symbol
_atom_site_label
_atom_site_fract_x
_atom_site_fract_y
_atom_site_fract_z
Si Si1 0.030734 0.874892 0.489892
Si Si2 0.277368 0.784383 0.653302
Si Si3 0.032030 0.885346 0.997546
Si Si4 0.355828 0.586640 0.217953
Si Si5 0.703226 0.698453 0.840027
Si Si6 0.345507 0.437329 0.218785
Si Si7 0.595555 0.802906 0.767213
Si Si8 0.543318 0.290719 0.289835
O O1 0.296332 0.926025 0.406151
O O2 0.161513 0.832275 0.366483
O O3 0.716046 0.909569 0.592770
O O4 0.940291 0.832155 0.601405
O O5 0.233916 0.854383 0.716081
O O6 0.460559 0.806284 0.506007
O O7 0.434005 0.724277 0.634875
O O8 0.963907 0.750104 0.757661
O O9 0.121463 0.919048 0.884451
O O10 0.349445 0.857454 0.903161
O O11 0.876440 0.939106 0.117148
O O12 0.787939 0.824139 0.087697
O O13 0.326191 0.512458 0.190991
O O14 0.782792 0.620690 0.782717
O O15 0.579772 0.733818 0.819660
O O16 0.449790 0.783996 0.750268
#
# Coordination Sequence:
#
# PCOD8125094 Si02
#       8
#     4   4   4   4   4   4   4   4
#     4  10  20  36  64  96 115 155 206 260 311 353
#     4  12  25  38  59  91 123 160 203 251 311 366
#     4  10  20  36  64  92 113 155 208 262 307 347
#     4  11  23  39  60  88 127 164 204 252 310 372
#     4  12  25  38  59  91 123 160 203 251 311 366
#     4  11  23  39  60  88 127 164 204 252 310 372
#     4  11  20  36  66  88 121 151 206 265 303 349
#     4  11  20  36  66  88 121 151 206 265 303 349
#
# _framework density 20.596004000000001
#
# number of rings (size 3 to 8) (size 9 to 14) (size 15 to 20)
#    0.000    1.000    5.000    4.500    0.000    0.500 
#    0.000    0.000    0.000    8.250    0.000    0.000 
#    0.000    0.000    0.000    0.000    0.000    0.000 
#
# Total GULP energy -396464.513078 kJ/mol
# GULP energy per Si atom -12389.516034 kJ/mol
# Density = 2.054913 g / cm^3
# Si number density = 20.596004 Si / 1000 Ang^3
#
#
#
# Elastic Constant Matrix: (Units=GPa)
#
#
# Indices 1 2 3 4 5 6 
#
# 1 65.6512 41.3103 33.5241 0.0000 9.9406 0.0000
# 2 41.3103 132.0980 44.2012 0.0000 3.4017 0.0000
# 3 33.5241 44.2012 134.8417 0.0000 12.5075 0.0000
# 4 0.0000 0.0000 0.0000 10.2383 0.0000 4.3937
# 5 9.9406 3.4017 12.5075 0.0000 30.4762 0.0000
# 6 0.0000 0.0000 0.0000 4.3937 0.0000 26.7994
#
#
#
# Elastic Compliance Matrix: (Units=1/GPa)
#
#
# Indices 1 2 3 4 5 6 
#
# 1 0.020911 -0.005421 -0.002958 0.000000 -0.005002 0.000000
# 2 -0.005421 0.009909 -0.002040 0.000000 0.001499 0.000000
# 3 -0.002958 -0.002040 0.009054 0.000000 -0.002523 0.000000
# 4 0.000000 0.000000 0.000000 0.105065 0.000000 -0.017225
# 5 -0.005002 0.001499 -0.002523 0.000000 0.035312 0.000000
# 6 0.000000 0.000000 0.000000 -0.017225 0.000000 0.040138
#
#
# Mechanical properties :
#
#
# Convention : Reuss Voigt Hill
#
# Bulk Modulus (GPa) = 52.52791 63.40690 57.96740
# Shear Modulus (GPa) = 20.19617 27.73981 23.96799
#
# Velocity S-wave (km/s) = 3.13483 3.67393 3.41504
# Velocity P-wave (km/s) = 6.21789 6.98927 6.61483
#
# Compressibility (1/GPa) = 0.01903750
#
# Stress axis : x y z
#
# Youngs Moduli (GPa) = 47.82244 100.91639 110.44670
#
# Poissons Ratio (x) = 0.54704 0.32669
# Poissons Ratio (y) = 0.25923 0.22527
# Poissons Ratio (z) = 0.14146 0.20583
#
# Static dielectric constant tensor:
#      x y z
#    x 3.577800 0.000000 0.143180 
#    y 0.000000 3.653390 0.000000 
#    z 0.143180 0.000000 4.082370 
# 
# 
# High freq. dielectric constant tensor:
#      x y z
#    x 1.778250 0.000000 0.004020 
#    y 0.000000 1.800200 0.000000 
#    z 0.004020 0.000000 1.827070 
# 
# From -- ./inp_files/56224.got.cif
#   From: 2010.03.12/outbox.cif.g09.slc.cpg/sg14_29_cif.got.tgz:56224.got - 2010.03.31 13:35:05.
