data_PCOD8125883
_publ_section_title
;
Structure prediction by ZEFSAII (Michael W. Deem and Ramdas Pophale) SiO2 
 PCOD8125883
Probable space group: P 21/C
;
_chemical_formula_sum "Si O2"
_cell_formula_units_Z 24
_cell_length_a 8.320117
_cell_length_b 9.328266
_cell_length_c 26.523777
_cell_angle_alpha 90.000000
_cell_angle_beta 32.350048
_cell_angle_gamma 90.000000
_cell_volume 1101.521429
_symmetry_space_group_name_H-M "P 21/C"
_symmetry_group_IT_number 14
_symmetry_cell_setting 'monoclinic'
loop_
_space_group_symop_operation_xyz
x,y,z
-x,1/2+y,1/2-z
-x,-y,-z
x,1/2-y,1/2+z
loop_
_atom_site_type_symbol
_atom_site_label
_atom_site_fract_x
_atom_site_fract_y
_atom_site_fract_z
Si Si1 0.667483 0.804917 0.418493
Si Si2 0.222047 0.832036 0.330102
Si Si3 0.304080 0.906433 0.950015
Si Si4 0.180758 0.220170 0.979098
Si Si5 0.680876 0.119889 0.388167
Si Si6 0.335795 0.380099 0.745164
O O1 0.543643 0.670479 0.421219
O O2 0.473718 0.828861 0.519588
O O3 0.012168 0.766573 0.341234
O O4 0.657014 0.948578 0.387184
O O5 0.533895 0.749338 0.255564
O O6 0.029337 0.825190 0.432485
O O7 0.284548 0.995624 0.299415
O O8 0.430697 0.927934 0.859674
O O9 0.235228 0.063666 0.990820
O O10 0.994738 0.811960 0.027144
O O11 0.505067 0.300680 0.888334
O O12 0.027777 0.168336 0.299227
#
# Coordination Sequence:
#
# PCOD8125883 Si02
#       6
#     4   4   4   4   4   4
#     4   9  19  37  56  79 111 147 185 223 271 339
#     4   9  20  38  57  80 112 148 186 222 275 340
#     4  10  21  36  56  84 115 142 184 237 276 316
#     4   9  20  38  56  80 113 151 185 221 276 340
#     4   9  19  35  56  79 109 148 186 221 270 336
#     4  10  21  37  57  84 112 142 186 238 274 316
#
# _framework density 21.788046000000001
#
# number of rings (size 3 to 8) (size 9 to 14) (size 15 to 20)
#    0.000    2.667    0.000    1.000    0.000   11.333 
#    0.000    6.667    0.000    0.000    0.000    0.000 
#    0.000    0.000    0.000    0.000    0.000    0.000 
#
# Total GULP energy -297396.928567 kJ/mol
# GULP energy per Si atom -12391.538690 kJ/mol
# Density = 2.173845 g / cm^3
# Si number density = 21.788046 Si / 1000 Ang^3
#
#
#
# Elastic Constant Matrix: (Units=GPa)
#
#
# Indices 1 2 3 4 5 6 
#
# 1 38.4318 -0.1796 15.3823 0.0000 -28.2290 0.0000
# 2 -0.1796 28.3391 16.1596 0.0000 -8.0644 0.0000
# 3 15.3823 16.1596 62.8995 0.0000 -26.7339 0.0000
# 4 0.0000 0.0000 0.0000 32.7753 0.0000 -12.4598
# 5 -28.2290 -8.0644 -26.7339 0.0000 42.4895 0.0000
# 6 0.0000 0.0000 0.0000 -12.4598 0.0000 46.9212
#
#
#
# Elastic Compliance Matrix: (Units=1/GPa)
#
#
# Indices 1 2 3 4 5 6 
#
# 1 0.053957 0.011097 0.000116 0.000000 0.038027 0.000000
# 2 0.011097 0.043705 -0.009941 0.000000 0.009413 0.000000
# 3 0.000116 -0.009941 0.024100 0.000000 0.013354 0.000000
# 4 0.000000 0.000000 0.000000 0.033937 0.000000 0.009012
# 5 0.038027 0.009413 0.013354 0.000000 0.058988 0.000000
# 6 0.000000 0.000000 0.000000 0.009012 0.000000 0.023705
#
#
# Mechanical properties :
#
#
# Convention : Reuss Voigt Hill
#
# Bulk Modulus (GPa) = 8.04473 21.37723 14.71098
# Shear Modulus (GPa) = 18.03209 30.99106 24.51158
#
# Velocity S-wave (km/s) = 2.87995 3.77555 3.35774
# Velocity P-wave (km/s) = 3.84176 5.37020 4.66895
#
# Compressibility (1/GPa) = 0.12430498
#
# Stress axis : x y z
#
# Youngs Moduli (GPa) = 18.53316 22.88085 41.49433
#
# Poissons Ratio (x) = -0.25391 -0.00482
# Poissons Ratio (y) = -0.20566 0.41252
# Poissons Ratio (z) = -0.00215 0.22747
#
# Static dielectric constant tensor:
#      x y z
#    x 4.057660 0.000000 -0.585700 
#    y 0.000000 3.837240 0.000000 
#    z -0.585700 0.000000 3.990080 
# 
# 
# High freq. dielectric constant tensor:
#      x y z
#    x 1.847210 0.000000 -0.038280 
#    y 0.000000 1.847060 0.000000 
#    z -0.038280 0.000000 1.845480 
# 
# From -- ./inp_files/61674.got.cif
#   From: 2010.03.12/outbox.cif.g09.slc.cpg/sg14_31_cif.got.tgz:61674.got - 2010.03.31 13:35:05.
