data_PCOD8125478
_publ_section_title
;
Structure prediction by ZEFSAII (Michael W. Deem and Ramdas Pophale) SiO2 
 PCOD8125478
Probable space group: P 21/C
;
_chemical_formula_sum "Si O2"
_cell_formula_units_Z 24
_cell_length_a 23.059955
_cell_length_b 5.177978
_cell_length_c 24.362917
_cell_angle_alpha 90.000000
_cell_angle_beta 161.879014
_cell_angle_gamma 90.000000
_cell_volume 904.779235
_symmetry_space_group_name_H-M "P 21/C"
_symmetry_group_IT_number 14
_symmetry_cell_setting 'monoclinic'
loop_
_space_group_symop_operation_xyz
x,y,z
-x,1/2+y,1/2-z
-x,-y,-z
x,1/2-y,1/2+z
loop_
_atom_site_type_symbol
_atom_site_label
_atom_site_fract_x
_atom_site_fract_y
_atom_site_fract_z
Si Si1 0.831666 0.304757 0.400589
Si Si2 0.449567 0.517704 0.036659
Si Si3 0.264139 0.047142 0.018260
Si Si4 0.136834 0.795831 0.190656
Si Si5 0.700448 0.452370 0.885926
Si Si6 0.252026 0.503624 0.390942
O O1 0.672046 0.514138 0.240876
O O2 0.892071 0.179815 0.396207
O O3 0.999321 0.465314 0.578800
O O4 0.758197 0.077156 0.373852
O O5 0.353237 0.602422 0.891820
O O6 0.379924 0.739043 0.016840
O O7 0.378409 0.236155 0.988658
O O8 0.210123 0.793159 0.003005
O O9 0.479338 0.058766 0.193478
O O10 0.212483 0.287756 0.010570
O O11 0.150021 0.053196 0.857620
O O12 0.105587 0.570160 0.209152
#
# Coordination Sequence:
#
# PCOD8125478 Si02
#       6
#     4   4   4   4   4   4
#     4  11  21  47  68 112 144 193 238 298 364 442
#     4  10  22  42  68 103 138 194 230 291 362 426
#     4  10  20  39  63 101 132 178 242 298 343 431
#     4   9  25  43  70 108 151 185 241 300 355 438
#     4  10  22  35  67 100 135 179 238 293 358 419
#     4  10  21  43  69 100 139 188 237 299 356 424
#
# _framework density 26.525811000000001
#
# number of rings (size 3 to 8) (size 9 to 14) (size 15 to 20)
#    1.000    1.000    1.667    1.500    4.667    0.667 
#    9.000    1.667    3.667    0.000    4.333    0.000 
#    0.000    0.000    0.000    0.000    0.000    0.000 
#
# Total GULP energy -297362.092847 kJ/mol
# GULP energy per Si atom -12390.087202 kJ/mol
# Density = 2.646544 g / cm^3
# Si number density = 26.525811 Si / 1000 Ang^3
#
#
#
# Elastic Constant Matrix: (Units=GPa)
#
#
# Indices 1 2 3 4 5 6 
#
# 1 72.2204 25.8118 46.1397 0.0000 -89.2351 0.0000
# 2 25.8118 153.6096 28.4846 0.0000 -32.8444 0.0000
# 3 46.1397 28.4846 55.4341 0.0000 22.7436 0.0000
# 4 0.0000 0.0000 0.0000 17.2357 0.0000 -13.7959
# 5 -89.2351 -32.8444 22.7436 0.0000 6.5240 0.0000
# 6 0.0000 0.0000 0.0000 -13.7959 0.0000 24.2447
#
#
#
# Elastic Compliance Matrix: (Units=1/GPa)
#
#
# Indices 1 2 3 4 5 6 
#
# 1 0.001408 -0.002861 0.003934 0.000000 -0.008861 0.000000
# 2 -0.002861 0.006996 -0.000903 0.000000 -0.000758 0.000000
# 3 0.003934 -0.000903 0.011575 0.000000 0.008907 0.000000
# 4 0.000000 0.000000 0.000000 0.106548 0.000000 0.060629
# 5 -0.008861 -0.000758 0.008907 0.000000 -0.002785 0.000000
# 6 0.000000 0.000000 0.000000 0.060629 0.000000 0.075746
#
#
# Mechanical properties :
#
#
# Convention : Reuss Voigt Hill
#
# Bulk Modulus (GPa) = 49.21526 53.57069 51.39297
# Shear Modulus (GPa) = 24.28125 21.65607 22.96866
#
# Velocity S-wave (km/s) = 3.02881 2.86040 2.94581
# Velocity P-wave (km/s) = 5.55208 5.58110 5.56661
#
# Compressibility (1/GPa) = 0.02031890
#
# Stress axis : x y z
#
# Youngs Moduli (GPa) = 710.41413 142.93969 86.39474
#
# Poissons Ratio (x) = 0.40888 -0.33984
# Poissons Ratio (y) = 2.03215 0.07800
# Poissons Ratio (z) = -2.79449 0.12905
#
# Static dielectric constant tensor:
#      x y z
#    x 4.740600 0.000000 -0.381070 
#    y 0.000000 4.608370 0.000000 
#    z -0.381070 0.000000 4.797850 
# 
# 
# High freq. dielectric constant tensor:
#      x y z
#    x 2.058690 0.000000 -0.018570 
#    y 0.000000 2.060130 0.000000 
#    z -0.018570 0.000000 2.064440 
# 
# From -- ./inp_files/74815.got.cif
#   From: 2010.03.12/outbox.cif.g09.slc.cpg/sg14_38_cif.got.tgz:74815.got - 2010.03.31 13:35:05.
