data_PCOD8125722
_publ_section_title
;
Structure prediction by ZEFSAII (Michael W. Deem and Ramdas Pophale) SiO2 
 PCOD8125722
Probable space group: P 21/C
;
_chemical_formula_sum "Si O2"
_cell_formula_units_Z 32
_cell_length_a 8.999887
_cell_length_b 15.021047
_cell_length_c 11.827095
_cell_angle_alpha 90.000000
_cell_angle_beta 91.069280
_cell_angle_gamma 90.000000
_cell_volume 1598.599647
_symmetry_space_group_name_H-M "P 21/C"
_symmetry_group_IT_number 14
_symmetry_cell_setting 'monoclinic'
loop_
_space_group_symop_operation_xyz
x,y,z
-x,1/2+y,1/2-z
-x,-y,-z
x,1/2-y,1/2+z
loop_
_atom_site_type_symbol
_atom_site_label
_atom_site_fract_x
_atom_site_fract_y
_atom_site_fract_z
Si Si1 0.144895 0.099163 0.531166
Si Si2 0.172833 0.496660 0.369616
Si Si3 0.332451 0.854279 0.288291
Si Si4 0.172822 0.824940 0.739831
Si Si5 0.829478 0.840727 0.718680
Si Si6 0.184132 0.600390 0.006126
Si Si7 0.174551 0.994846 0.132197
Si Si8 0.679592 0.661776 0.762937
O O1 0.184318 0.110862 0.401212
O O2 0.249385 0.158456 0.611247
O O3 0.974069 0.126254 0.552698
O O4 0.170316 0.996372 0.563704
O O5 0.220512 0.588630 0.311824
O O6 0.215406 0.502456 0.501439
O O7 0.260945 0.415215 0.317085
O O8 0.999143 0.477623 0.349340
O O9 0.257619 0.757974 0.293346
O O10 0.309582 0.897607 0.411824
O O11 0.261765 0.913535 0.189103
O O12 0.504750 0.846352 0.267638
O O13 0.222865 0.833686 0.609580
O O14 0.996587 0.808418 0.745591
O O15 0.719398 0.757542 0.712843
O O16 0.776968 0.911288 0.812335
#
# Coordination Sequence:
#
# PCOD8125722 Si02
#       8
#     4   4   4   4   4   4   4   4
#     4  10  20  41  69  91 116 156 214 265 299 352
#     4  10  22  43  68  92 119 160 216 263 301 354
#     4  12  26  40  60  93 134 166 196 247 315 384
#     4  10  22  41  66  92 120 161 213 262 301 353
#     4  10  22  41  66  92 120 161 213 262 301 353
#     4  10  20  41  69  91 116 156 214 265 299 352
#     4  10  22  43  68  92 119 160 216 263 301 354
#     4  12  26  40  60  93 134 166 196 247 315 384
#
# _framework density 20.017520999999999
#
# number of rings (size 3 to 8) (size 9 to 14) (size 15 to 20)
#    0.000    1.500    2.500    2.250    3.500    3.000 
#    0.000    0.000    0.000    0.000    0.000    0.000 
#    0.000    0.000    0.000    0.000    0.000    0.000 
#
# Total GULP energy -396973.782584 kJ/mol
# GULP energy per Si atom -12405.430706 kJ/mol
# Density = 1.997196 g / cm^3
# Si number density = 20.017521 Si / 1000 Ang^3
#
#
#
# Elastic Constant Matrix: (Units=GPa)
#
#
# Indices 1 2 3 4 5 6 
#
# 1 91.8361 51.7714 39.9857 0.0000 -12.0662 0.0000
# 2 51.7714 107.4969 38.3956 0.0000 -7.5803 0.0000
# 3 39.9857 38.3956 96.4318 0.0000 -12.0888 0.0000
# 4 0.0000 0.0000 0.0000 24.1046 0.0000 -4.1409
# 5 -12.0662 -7.5803 -12.0888 0.0000 19.6790 0.0000
# 6 0.0000 0.0000 0.0000 -4.1409 0.0000 6.7917
#
#
#
# Elastic Compliance Matrix: (Units=1/GPa)
#
#
# Indices 1 2 3 4 5 6 
#
# 1 0.016852 -0.006385 -0.003747 0.000000 0.005572 0.000000
# 2 -0.006385 0.013314 -0.002710 0.000000 -0.000451 0.000000
# 3 -0.003747 -0.002710 0.013634 0.000000 0.005034 0.000000
# 4 0.000000 0.000000 0.000000 0.046339 0.000000 0.028253
# 5 0.005572 -0.000451 0.005034 0.000000 0.057150 0.000000
# 6 0.000000 0.000000 0.000000 0.028253 0.000000 0.164463
#
#
# Mechanical properties :
#
#
# Convention : Reuss Voigt Hill
#
# Bulk Modulus (GPa) = 55.20114 61.78557 58.49335
# Shear Modulus (GPa) = 14.55711 21.15587 17.85649
#
# Velocity S-wave (km/s) = 2.69962 3.25448 2.98995
# Velocity P-wave (km/s) = 6.11176 6.71230 6.41905
#
# Compressibility (1/GPa) = 0.01811557
#
# Stress axis : x y z
#
# Youngs Moduli (GPa) = 59.34108 75.11053 73.34672
#
# Poissons Ratio (x) = 0.47956 0.27483
# Poissons Ratio (y) = 0.37887 0.19878
# Poissons Ratio (z) = 0.22235 0.20356
#
# Static dielectric constant tensor:
#      x y z
#    x 3.445070 0.000000 -0.000180 
#    y 0.000000 3.596020 0.000000 
#    z -0.000180 0.000000 3.672620 
# 
# 
# High freq. dielectric constant tensor:
#      x y z
#    x 1.759160 0.000000 -0.002050 
#    y 0.000000 1.787900 0.000000 
#    z -0.002050 0.000000 1.795010 
# 
# From -- ./inp_files/25532.got.cif
#   From: 2010.03.12/outbox.cif.g09.slc.cpg/sg14_13_cif.got.tgz:25532.got - 2010.03.31 13:35:05.
