data_PCOD8125703
_publ_section_title
;
Structure prediction by ZEFSAII (Michael W. Deem and Ramdas Pophale) SiO2 
 PCOD8125703
Probable space group: P 21/C
;
_chemical_formula_sum "Si O2"
_cell_formula_units_Z 28
_cell_length_a 9.132541
_cell_length_b 12.383170
_cell_length_c 13.169122
_cell_angle_alpha 90.000000
_cell_angle_beta 62.466121
_cell_angle_gamma 90.000000
_cell_volume 1320.612590
_symmetry_space_group_name_H-M "P 21/C"
_symmetry_group_IT_number 14
_symmetry_cell_setting 'monoclinic'
loop_
_space_group_symop_operation_xyz
x,y,z
-x,1/2+y,1/2-z
-x,-y,-z
x,1/2-y,1/2+z
loop_
_atom_site_type_symbol
_atom_site_label
_atom_site_fract_x
_atom_site_fract_y
_atom_site_fract_z
Si Si1 0.624522 0.873885 0.047279
Si Si2 0.362161 0.879070 0.959746
Si Si3 0.586999 0.291889 0.772049
Si Si4 0.112286 0.207251 0.590979
Si Si5 0.875430 0.246000 0.332231
Si Si6 0.617329 0.963187 0.551712
Si Si7 0.892635 0.396868 0.010759
O O1 0.518479 0.816106 0.169952
O O2 0.659392 0.997082 0.067998
O O3 0.528889 0.865675 0.970940
O O4 0.800437 0.816689 0.974574
O O5 0.371306 0.798645 0.860595
O O6 0.205481 0.842968 0.077087
O O7 0.750943 0.297120 0.786694
O O8 0.477453 0.396568 0.832744
O O9 0.238297 0.108098 0.545346
O O10 0.046359 0.214621 0.727237
O O11 0.946421 0.192440 0.575631
O O12 0.925970 0.146105 0.387061
O O13 0.500000 0.000000 0.500000
O O14 0.699588 0.067936 0.580212
O O15 0.000000 0.500000 0.000000
#
# Coordination Sequence:
#
# PCOD8125703 Si02
#       7
#     4   4   4   4   4   4   4
#     4   9  22  43  63  93 133 170 222 267 332 402
#     4  10  22  41  66  93 128 177 215 272 332 398
#     4  10  21  40  66  96 127 170 223 277 325 391
#     4  10  23  40  62  97 130 169 212 272 336 394
#     4  11  22  40  62  93 134 166 217 273 331 393
#     4  10  20  41  66  94 122 168 227 269 318 388
#     4  10  22  40  64  91 128 171 216 267 331 388
#
# _framework density 21.202279999999998
#
# number of rings (size 3 to 8) (size 9 to 14) (size 15 to 20)
#    0.000    2.000    1.429    0.857    0.000   10.286 
#    2.571    1.429    0.000    0.000    0.000    0.000 
#    0.000    0.000    0.000    0.000    0.000    0.000 
#
# Total GULP energy -347180.255651 kJ/mol
# GULP energy per Si atom -12399.294845 kJ/mol
# Density = 2.115402 g / cm^3
# Si number density = 21.202280 Si / 1000 Ang^3
#
#
#
# Elastic Constant Matrix: (Units=GPa)
#
#
# Indices 1 2 3 4 5 6 
#
# 1 93.4987 48.6753 30.8886 0.0000 2.6996 0.0000
# 2 48.6753 114.6058 48.4742 0.0000 2.6408 0.0000
# 3 30.8886 48.4742 126.2248 0.0000 -5.2850 0.0000
# 4 0.0000 0.0000 0.0000 26.0117 0.0000 5.5104
# 5 2.6996 2.6408 -5.2850 0.0000 29.5019 0.0000
# 6 0.0000 0.0000 0.0000 5.5104 0.0000 37.3193
#
#
#
# Elastic Compliance Matrix: (Units=1/GPa)
#
#
# Indices 1 2 3 4 5 6 
#
# 1 0.013956 -0.005301 -0.001424 0.000000 -0.001058 0.000000
# 2 -0.005301 0.012513 -0.003561 0.000000 -0.001273 0.000000
# 3 -0.001424 -0.003561 0.009730 0.000000 0.002192 0.000000
# 4 0.000000 0.000000 0.000000 0.039686 0.000000 -0.005860
# 5 -0.001058 -0.001273 0.002192 0.000000 0.034500 0.000000
# 6 0.000000 0.000000 0.000000 -0.005860 0.000000 0.027661
#
#
# Mechanical properties :
#
#
# Convention : Reuss Voigt Hill
#
# Bulk Modulus (GPa) = 63.99237 65.60063 64.79650
# Shear Modulus (GPa) = 30.52029 32.31931 31.41980
#
# Velocity S-wave (km/s) = 3.79817 3.90851 3.85373
# Velocity P-wave (km/s) = 7.03435 7.16771 7.10134
#
# Compressibility (1/GPa) = 0.01562686
#
# Stress axis : x y z
#
# Youngs Moduli (GPa) = 71.65486 79.91983 102.77229
#
# Poissons Ratio (x) = 0.42363 0.14633
# Poissons Ratio (y) = 0.37982 0.36601
# Poissons Ratio (z) = 0.10202 0.28462
#
# Static dielectric constant tensor:
#      x y z
#    x 4.184940 0.000000 0.099500 
#    y 0.000000 4.257050 0.000000 
#    z 0.099500 0.000000 3.734280 
# 
# 
# High freq. dielectric constant tensor:
#      x y z
#    x 1.835800 0.000000 -0.000660 
#    y 0.000000 1.837450 0.000000 
#    z -0.000660 0.000000 1.822810 
# 
# From -- ./inp_files/25202.got.cif
#   From: 2010.03.12/outbox.cif.g09.slc.cpg/sg14_13_cif.got.tgz:25202.got - 2010.03.31 13:35:05.
