data_PCOD8125918
_publ_section_title
;
Structure prediction by ZEFSAII (Michael W. Deem and Ramdas Pophale) SiO2 
 PCOD8125918
Probable space group: P 21/C
;
_chemical_formula_sum "Si O2"
_cell_formula_units_Z 28
_cell_length_a 7.854929
_cell_length_b 14.163840
_cell_length_c 14.653928
_cell_angle_alpha 90.000000
_cell_angle_beta 117.496140
_cell_angle_gamma 90.000000
_cell_volume 1446.177109
_symmetry_space_group_name_H-M "P 21/C"
_symmetry_group_IT_number 14
_symmetry_cell_setting 'monoclinic'
loop_
_space_group_symop_operation_xyz
x,y,z
-x,1/2+y,1/2-z
-x,-y,-z
x,1/2-y,1/2+z
loop_
_atom_site_type_symbol
_atom_site_label
_atom_site_fract_x
_atom_site_fract_y
_atom_site_fract_z
Si Si1 0.887944 0.918514 0.021336
Si Si2 0.091555 0.210857 0.459706
Si Si3 0.433691 0.267201 0.426450
Si Si4 0.782215 0.560265 0.687575
Si Si5 0.831701 0.545850 0.901660
Si Si6 0.338266 0.857301 0.657651
Si Si7 0.534563 0.119925 0.118268
O O1 0.664314 0.935472 0.946039
O O2 0.944113 0.813270 0.001890
O O3 0.929483 0.921973 0.140695
O O4 0.000000 0.000000 0.000000
O O5 0.230153 0.219775 0.405477
O O6 0.210109 0.146012 0.560889
O O7 0.884672 0.169667 0.382094
O O8 0.386470 0.360456 0.354935
O O9 0.565055 0.195500 0.402941
O O10 0.552221 0.297853 0.546492
O O11 0.891970 0.564926 0.811350
O O12 0.702225 0.455682 0.650444
O O13 0.653728 0.471211 0.859047
O O14 0.000000 0.500000 0.000000
O O15 0.454932 0.832994 0.778511
#
# Coordination Sequence:
#
# PCOD8125918 Si02
#       7
#     4   4   4   4   4   4   4
#     4  10  21  37  57  93 115 147 204 245 296 349
#     4   9  21  39  58  84 120 152 197 244 286 359
#     4  10  21  36  60  89 115 153 202 240 298 344
#     4   9  19  36  62  79 121 159 186 249 303 339
#     4   9  19  40  59  83 121 157 195 235 297 354
#     4  10  21  39  60  85 117 160 195 239 296 352
#     4   9  20  39  56  87 118 153 198 244 297 350
#
# _framework density 19.361391000000001
#
# number of rings (size 3 to 8) (size 9 to 14) (size 15 to 20)
#    0.000    2.857    0.000    1.714    8.000    0.571 
#   18.000    0.000    0.000    0.000    0.000    0.000 
#    0.000    0.000    0.000    0.000    0.000    0.000 
#
# Total GULP energy -346947.137946 kJ/mol
# GULP energy per Si atom -12390.969212 kJ/mol
# Density = 1.931732 g / cm^3
# Si number density = 19.361391 Si / 1000 Ang^3
#
#
#
# Elastic Constant Matrix: (Units=GPa)
#
#
# Indices 1 2 3 4 5 6 
#
# 1 77.0941 42.9355 40.2517 0.0000 -17.2729 0.0000
# 2 42.9355 124.1819 51.7314 0.0000 -23.8187 0.0000
# 3 40.2517 51.7314 149.7062 0.0000 -22.7911 0.0000
# 4 0.0000 0.0000 0.0000 31.5843 0.0000 -7.5635
# 5 -17.2729 -23.8187 -22.7911 0.0000 22.0389 0.0000
# 6 0.0000 0.0000 0.0000 -7.5635 0.0000 29.8046
#
#
#
# Elastic Compliance Matrix: (Units=1/GPa)
#
#
# Indices 1 2 3 4 5 6 
#
# 1 0.018020 -0.003786 -0.002385 0.000000 0.007565 0.000000
# 2 -0.003786 0.011592 -0.001819 0.000000 0.007681 0.000000
# 3 -0.002385 -0.001819 0.008742 0.000000 0.005205 0.000000
# 4 0.000000 0.000000 0.000000 0.033710 0.000000 0.008555
# 5 0.007565 0.007681 0.005205 0.000000 0.064988 0.000000
# 6 0.000000 0.000000 0.000000 0.008555 0.000000 0.035723
#
#
# Mechanical properties :
#
#
# Convention : Reuss Voigt Hill
#
# Bulk Modulus (GPa) = 44.69224 68.97992 56.83608
# Shear Modulus (GPa) = 25.48270 31.08980 28.28625
#
# Velocity S-wave (km/s) = 3.63183 4.01154 3.82640
# Velocity P-wave (km/s) = 6.38124 7.56053 6.99578
#
# Compressibility (1/GPa) = 0.02237525
#
# Stress axis : x y z
#
# Youngs Moduli (GPa) = 55.49468 86.26337 114.39092
#
# Poissons Ratio (x) = 0.32656 0.27284
# Poissons Ratio (y) = 0.21008 0.20803
# Poissons Ratio (z) = 0.13236 0.15688
#
# Static dielectric constant tensor:
#      x y z
#    x 3.182750 0.000000 -0.149300 
#    y 0.000000 3.989060 0.000000 
#    z -0.149300 0.000000 3.807830 
# 
# 
# High freq. dielectric constant tensor:
#      x y z
#    x 1.714900 0.000000 -0.008160 
#    y 0.000000 1.768430 0.000000 
#    z -0.008160 0.000000 1.758720 
# 
# From -- ./inp_files/40406.got.cif
#   From: 2010.03.12/outbox.cif.g09.slc.cpg/sg14_21_cif.got.tgz:40406.got - 2010.03.31 13:35:05.
