data_PCOD8125223
_publ_section_title
;
Structure prediction by ZEFSAII (Michael W. Deem and Ramdas Pophale) SiO2 
 PCOD8125223
Probable space group: P 21/C
;
_chemical_formula_sum "Si O2"
_cell_formula_units_Z 24
_cell_length_a 14.565852
_cell_length_b 15.267789
_cell_length_c 12.114286
_cell_angle_alpha 90.000000
_cell_angle_beta 27.615392
_cell_angle_gamma 90.000000
_cell_volume 1248.796127
_symmetry_space_group_name_H-M "P 21/C"
_symmetry_group_IT_number 14
_symmetry_cell_setting 'monoclinic'
loop_
_space_group_symop_operation_xyz
x,y,z
-x,1/2+y,1/2-z
-x,-y,-z
x,1/2-y,1/2+z
loop_
_atom_site_type_symbol
_atom_site_label
_atom_site_fract_x
_atom_site_fract_y
_atom_site_fract_z
Si Si1 0.995317 0.128915 0.095117
Si Si2 0.719139 0.470371 0.742928
Si Si3 0.375289 0.450082 0.724196
Si Si4 0.746780 0.074236 0.965365
Si Si5 0.031067 0.921616 0.634863
Si Si6 0.041311 0.174251 0.508675
O O1 0.979393 0.136401 0.244154
O O2 0.786436 0.098806 0.264791
O O3 0.065079 0.222029 0.974433
O O4 0.155549 0.058849 0.885781
O O5 0.744111 0.421054 0.600004
O O6 0.500000 0.500000 0.000000
O O7 0.500000 0.500000 0.500000
O O8 0.523297 0.414589 0.660167
O O9 0.256951 0.367523 0.800239
O O10 0.221770 0.516604 0.943319
O O11 0.885707 0.151813 0.771512
O O12 0.835428 0.981464 0.829111
O O13 0.049396 0.859928 0.509611
#
# Coordination Sequence:
#
# PCOD8125223 Si02
#       6
#     4   4   4   4   4   4
#     4  10  24  40  60  86 121 159 196 247 297 355
#     4  10  22  44  63  83 119 164 201 237 302 364
#     4  11  18  36  62  88 117 155 191 244 299 350
#     4  10  20  37  63  87 114 157 197 238 297 356
#     4  10  20  38  59  84 120 155 191 241 300 350
#     4  11  22  36  60  92 119 151 200 247 297 349
#
# _framework density 19.218509000000001
#
# number of rings (size 3 to 8) (size 9 to 14) (size 15 to 20)
#    0.000    1.667    3.333    2.000    2.333    2.667 
#    0.000    0.000    0.000    0.000    0.000    0.000 
#    0.000    0.000    0.000    0.000    0.000    0.000 
#
# Total GULP energy -297678.762061 kJ/mol
# GULP energy per Si atom -12403.281753 kJ/mol
# Density = 1.917477 g / cm^3
# Si number density = 19.218509 Si / 1000 Ang^3
#
#
#
# Elastic Constant Matrix: (Units=GPa)
#
#
# Indices 1 2 3 4 5 6 
#
# 1 110.6858 54.9964 43.7195 0.0000 -13.1597 0.0000
# 2 54.9964 106.2742 30.7801 0.0000 -1.9393 0.0000
# 3 43.7195 30.7801 92.3071 0.0000 -9.5544 0.0000
# 4 0.0000 0.0000 0.0000 18.2622 0.0000 -0.8798
# 5 -13.1597 -1.9393 -9.5544 0.0000 39.1648 0.0000
# 6 0.0000 0.0000 0.0000 -0.8798 0.0000 18.6071
#
#
#
# Elastic Compliance Matrix: (Units=1/GPa)
#
#
# Indices 1 2 3 4 5 6 
#
# 1 0.014131 -0.005993 -0.004344 0.000000 0.003392 0.000000
# 2 -0.005993 0.012961 -0.001668 0.000000 -0.001779 0.000000
# 3 -0.004344 -0.001668 0.013631 0.000000 0.001783 0.000000
# 4 0.000000 0.000000 0.000000 0.054883 0.000000 0.002595
# 5 0.003392 -0.001779 0.001783 0.000000 0.027020 0.000000
# 6 0.000000 0.000000 0.000000 0.002595 0.000000 0.053866
#
#
# Mechanical properties :
#
#
# Convention : Reuss Voigt Hill
#
# Bulk Modulus (GPa) = 59.82415 63.13989 61.48202
# Shear Modulus (GPa) = 24.26330 27.19156 25.72743
#
# Velocity S-wave (km/s) = 3.55702 3.76555 3.66277
# Velocity P-wave (km/s) = 6.93295 7.19936 7.06741
#
# Compressibility (1/GPa) = 0.01671566
#
# Stress axis : x y z
#
# Youngs Moduli (GPa) = 70.76561 77.15163 73.36045
#
# Poissons Ratio (x) = 0.46236 0.31864
# Poissons Ratio (y) = 0.42409 0.12235
# Poissons Ratio (z) = 0.30737 0.12867
#
# Static dielectric constant tensor:
#      x y z
#    x 3.814660 0.000000 -0.046620 
#    y 0.000000 3.278560 0.000000 
#    z -0.046620 0.000000 3.636090 
# 
# 
# High freq. dielectric constant tensor:
#      x y z
#    x 1.762940 0.000000 -0.000690 
#    y 0.000000 1.727230 0.000000 
#    z -0.000690 0.000000 1.748010 
# 
# From -- ./inp_files/32509.got.cif
#   From: 2010.03.12/outbox.cif.g09.slc.cpg/sg14_17_cif.got.tgz:32509.got - 2010.03.31 13:35:05.
