data_PCOD8125013
_publ_section_title
;
Structure prediction by ZEFSAII (Michael W. Deem and Ramdas Pophale) SiO2 
 PCOD8125013
Probable space group: P 21/C
;
_chemical_formula_sum "Si O2"
_cell_formula_units_Z 32
_cell_length_a 11.756461
_cell_length_b 19.690888
_cell_length_c 14.510735
_cell_angle_alpha 90.000000
_cell_angle_beta 153.101653
_cell_angle_gamma 90.000000
_cell_volume 1519.716356
_symmetry_space_group_name_H-M "P 21/C"
_symmetry_group_IT_number 14
_symmetry_cell_setting 'monoclinic'
loop_
_space_group_symop_operation_xyz
x,y,z
-x,1/2+y,1/2-z
-x,-y,-z
x,1/2-y,1/2+z
loop_
_atom_site_type_symbol
_atom_site_label
_atom_site_fract_x
_atom_site_fract_y
_atom_site_fract_z
Si Si1 0.443832 0.927808 0.576174
Si Si2 0.869088 0.177993 0.167264
Si Si3 0.624500 0.582700 0.535114
Si Si4 0.795677 0.940504 0.670405
Si Si5 0.876670 0.149736 0.374862
Si Si6 0.258568 0.489594 0.556704
Si Si7 0.062100 0.818543 0.379440
Si Si8 0.409707 0.090835 0.790295
O O1 0.571644 0.908955 0.570554
O O2 0.662878 0.933238 0.812218
O O3 0.256797 0.867694 0.467963
O O4 0.310419 0.001182 0.473568
O O5 0.872236 0.195016 0.278982
O O6 0.947554 0.245193 0.171987
O O7 0.068565 0.118056 0.290300
O O8 0.587798 0.156763 0.933875
O O9 0.356559 0.598143 0.295106
O O10 0.782798 0.539538 0.576701
O O11 0.591045 0.548296 0.612633
O O12 0.781927 0.651476 0.670737
O O13 0.991619 0.975064 0.884950
O O14 0.859932 0.192735 0.457123
O O15 0.131199 0.107120 0.558171
O O16 0.479157 0.545374 0.710983
#
# Coordination Sequence:
#
# PCOD8125013 Si02
#       8
#     4   4   4   4   4   4   4   4
#     4  11  22  39  65  89 124 166 211 253 314 370
#     4  10  23  43  62  88 128 162 207 261 311 371
#     4  10  20  36  58  91 124 154 197 252 302 363
#     4  10  23  41  60  91 126 163 205 263 308 369
#     4  10  21  41  61  90 119 158 208 252 312 365
#     4  11  19  37  60  89 120 156 202 249 309 363
#     4  11  23  41  62  93 124 165 208 253 310 377
#     4   9  21  36  60  89 120 156 201 252 307 366
#
# _framework density 21.056560000000001
#
# number of rings (size 3 to 8) (size 9 to 14) (size 15 to 20)
#    0.000    1.750    2.500    1.500    0.000    4.500 
#    2.250    2.500    0.000    0.000    0.000    0.000 
#    0.000    0.000    0.000    0.000    0.000    0.000 
#
# Total GULP energy -396679.106010 kJ/mol
# GULP energy per Si atom -12396.222063 kJ/mol
# Density = 2.100863 g / cm^3
# Si number density = 21.056560 Si / 1000 Ang^3
#
#
#
# Elastic Constant Matrix: (Units=GPa)
#
#
# Indices 1 2 3 4 5 6 
#
# 1 84.5790 23.7100 27.0468 0.0000 3.1126 0.0000
# 2 23.7100 53.1473 14.9784 0.0000 -0.5444 0.0000
# 3 27.0468 14.9784 97.4711 0.0000 4.7677 0.0000
# 4 0.0000 0.0000 0.0000 16.2496 0.0000 -5.6414
# 5 3.1126 -0.5444 4.7677 0.0000 30.9186 0.0000
# 6 0.0000 0.0000 0.0000 -5.6414 0.0000 23.1134
#
#
#
# Elastic Compliance Matrix: (Units=1/GPa)
#
#
# Indices 1 2 3 4 5 6 
#
# 1 0.014412 -0.005570 -0.003091 0.000000 -0.001072 0.000000
# 2 -0.005570 0.021840 -0.001871 0.000000 0.001234 0.000000
# 3 -0.003091 -0.001871 0.011478 0.000000 -0.001492 0.000000
# 4 0.000000 0.000000 0.000000 0.067238 0.000000 0.016411
# 5 -0.001072 0.001234 -0.001492 0.000000 0.032703 0.000000
# 6 0.000000 0.000000 0.000000 0.016411 0.000000 0.047271
#
#
# Mechanical properties :
#
#
# Convention : Reuss Voigt Hill
#
# Bulk Modulus (GPa) = 37.49915 40.74087 39.12001
# Shear Modulus (GPa) = 22.23276 25.35379 23.79327
#
# Velocity S-wave (km/s) = 3.25292 3.47375 3.36515
# Velocity P-wave (km/s) = 5.65297 5.95647 5.80671
#
# Compressibility (1/GPa) = 0.02666727
#
# Stress axis : x y z
#
# Youngs Moduli (GPa) = 69.38450 45.78697 87.12596
#
# Poissons Ratio (x) = 0.25501 0.26930
# Poissons Ratio (y) = 0.38644 0.16302
# Poissons Ratio (z) = 0.21446 0.08567
#
# Static dielectric constant tensor:
#      x y z
#    x 3.961880 0.000000 0.042290 
#    y 0.000000 3.330040 0.000000 
#    z 0.042290 0.000000 3.879570 
# 
# 
# High freq. dielectric constant tensor:
#      x y z
#    x 1.841730 0.000000 0.005150 
#    y 0.000000 1.785210 0.000000 
#    z 0.005150 0.000000 1.838140 
# 
# From -- ./inp_files/38072.got.cif
#   From: 2010.03.12/outbox.cif.g09.slc.cpg/sg14_20_cif.got.tgz:38072.got - 2010.03.31 13:35:05.
