data_PCOD8125315
_publ_section_title
;
Structure prediction by ZEFSAII (Michael W. Deem and Ramdas Pophale) SiO2 
 PCOD8125315
Probable space group: P 21/C
;
_chemical_formula_sum "Si O2"
_cell_formula_units_Z 28
_cell_length_a 11.584117
_cell_length_b 16.824662
_cell_length_c 14.133507
_cell_angle_alpha 90.000000
_cell_angle_beta 30.990490
_cell_angle_gamma 90.000000
_cell_volume 1418.334172
_symmetry_space_group_name_H-M "P 21/C"
_symmetry_group_IT_number 14
_symmetry_cell_setting 'monoclinic'
loop_
_space_group_symop_operation_xyz
x,y,z
-x,1/2+y,1/2-z
-x,-y,-z
x,1/2-y,1/2+z
loop_
_atom_site_type_symbol
_atom_site_label
_atom_site_fract_x
_atom_site_fract_y
_atom_site_fract_z
Si Si1 0.580176 0.272712 0.921015
Si Si2 0.912459 0.706089 0.730460
Si Si3 0.971134 0.769554 0.978890
Si Si4 0.940402 0.511253 0.189825
Si Si5 0.054157 0.647270 0.238467
Si Si6 0.679852 0.120023 0.965107
Si Si7 0.234847 0.401058 0.866720
O O1 0.756736 0.257957 0.711210
O O2 0.556384 0.189513 0.993658
O O3 0.683677 0.339491 0.919414
O O4 0.340984 0.303240 0.051069
O O5 0.995804 0.794942 0.692044
O O6 0.897797 0.691032 0.628437
O O7 0.078213 0.643734 0.662580
O O8 0.907003 0.827328 0.935069
O O9 0.852178 0.685805 0.043838
O O10 0.009187 0.557538 0.237673
O O11 0.730752 0.453867 0.360276
O O12 0.864903 0.574083 0.164473
O O13 0.156388 0.462356 0.002324
O O14 0.506097 0.096441 0.170313
#
# Coordination Sequence:
#
# PCOD8125315 Si02
#       7
#     4   4   4   4   4   4   4
#     4   9  20  38  59  87 117 154 207 252 289 361
#     4  11  20  40  62  84 122 157 207 251 297 352
#     4  10  20  38  60  90 114 157 205 247 294 355
#     4  11  21  40  59  90 130 154 193 256 312 355
#     4   9  21  38  58  90 119 155 200 249 302 358
#     4  11  22  37  61  89 122 159 198 253 306 358
#     4  11  21  37  64  90 119 155 206 247 304 360
#
# _framework density 19.741468999999999
#
# number of rings (size 3 to 8) (size 9 to 14) (size 15 to 20)
#    0.857    0.857    4.286    0.429    0.000    2.286 
#    2.571    1.429    0.000    0.000    0.000    0.000 
#    0.000    0.000    0.000    0.000    0.000    0.000 
#
# Total GULP energy -347008.458018 kJ/mol
# GULP energy per Si atom -12393.159215 kJ/mol
# Density = 1.969654 g / cm^3
# Si number density = 19.741469 Si / 1000 Ang^3
#
#
#
# Elastic Constant Matrix: (Units=GPa)
#
#
# Indices 1 2 3 4 5 6 
#
# 1 47.8537 13.3750 17.6556 0.0000 -2.6238 0.0000
# 2 13.3750 54.4475 23.8592 0.0000 -0.1154 0.0000
# 3 17.6556 23.8592 128.8786 0.0000 -14.5009 0.0000
# 4 0.0000 0.0000 0.0000 26.5705 0.0000 10.5927
# 5 -2.6238 -0.1154 -14.5009 0.0000 40.4269 0.0000
# 6 0.0000 0.0000 0.0000 10.5927 0.0000 24.6084
#
#
#
# Elastic Compliance Matrix: (Units=1/GPa)
#
#
# Indices 1 2 3 4 5 6 
#
# 1 0.023063 -0.004694 -0.002213 0.000000 0.000690 0.000000
# 2 -0.004694 0.021012 -0.003412 0.000000 -0.001469 0.000000
# 3 -0.002213 -0.003412 0.009042 0.000000 0.003090 0.000000
# 4 0.000000 0.000000 0.000000 0.045432 0.000000 -0.019556
# 5 0.000690 -0.001469 0.003090 0.000000 0.025885 0.000000
# 6 0.000000 0.000000 0.000000 -0.019556 0.000000 0.049054
#
#
# Mechanical properties :
#
#
# Convention : Reuss Voigt Hill
#
# Bulk Modulus (GPa) = 30.78992 37.88439 34.33715
# Shear Modulus (GPa) = 24.39591 30.07383 27.23487
#
# Velocity S-wave (km/s) = 3.51917 3.90729 3.71829
# Velocity P-wave (km/s) = 5.66949 6.29188 5.98878
#
# Compressibility (1/GPa) = 0.03247816
#
# Stress axis : x y z
#
# Youngs Moduli (GPa) = 43.35883 47.59295 110.59849
#
# Poissons Ratio (x) = 0.22342 0.24474
# Poissons Ratio (y) = 0.20354 0.37736
# Poissons Ratio (z) = 0.09595 0.16239
#
# Static dielectric constant tensor:
#      x y z
#    x 3.316520 0.000000 0.081130 
#    y 0.000000 3.376270 0.000000 
#    z 0.081130 0.000000 3.677250 
# 
# 
# High freq. dielectric constant tensor:
#      x y z
#    x 1.748450 0.000000 0.005730 
#    y 0.000000 1.749930 0.000000 
#    z 0.005730 0.000000 1.776460 
# 
# From -- ./inp_files/45263.got.cif
#   From: 2010.03.12/outbox.cif.g09.slc.cpg/sg14_23_cif.got.tgz:45263.got - 2010.03.31 13:35:05.
