data_PCOD8125976
_publ_section_title
;
Structure prediction by ZEFSAII (Michael W. Deem and Ramdas Pophale) SiO2 
 PCOD8125976
Probable space group: P 21/C
;
_chemical_formula_sum "Si O2"
_cell_formula_units_Z 32
_cell_length_a 20.884032
_cell_length_b 13.791731
_cell_length_c 9.068510
_cell_angle_alpha 90.000000
_cell_angle_beta 144.283119
_cell_angle_gamma 90.000000
_cell_volume 1524.820109
_symmetry_space_group_name_H-M "P 21/C"
_symmetry_group_IT_number 14
_symmetry_cell_setting 'monoclinic'
loop_
_space_group_symop_operation_xyz
x,y,z
-x,1/2+y,1/2-z
-x,-y,-z
x,1/2-y,1/2+z
loop_
_atom_site_type_symbol
_atom_site_label
_atom_site_fract_x
_atom_site_fract_y
_atom_site_fract_z
Si Si1 0.550896 0.557859 0.226039
Si Si2 0.788329 0.635478 0.693232
Si Si3 0.624098 0.283844 0.102241
Si Si4 0.173611 0.538225 0.045075
Si Si5 0.587640 0.060065 0.070706
Si Si6 0.773071 0.212060 0.141389
Si Si7 0.971898 0.167082 0.885171
Si Si8 0.111046 0.247771 0.882634
O O1 0.668803 0.605459 0.417147
O O2 0.560274 0.470430 0.355625
O O3 0.500000 0.500000 0.000000
O O4 0.475157 0.647446 0.131840
O O5 0.855545 0.550259 0.901443
O O6 0.850888 0.665582 0.661247
O O7 0.788365 0.717191 0.824026
O O8 0.704168 0.286788 0.111842
O O9 0.690036 0.329838 0.362826
O O10 0.578558 0.176711 0.062757
O O11 0.286933 0.524464 0.163780
O O12 0.184674 0.628989 0.173868
O O13 0.076753 0.560372 0.745230
O O14 0.500000 0.000000 0.000000
O O15 0.872642 0.263439 0.245558
O O16 0.019176 0.207902 0.820223
O O17 0.060432 0.165136 0.184660
#
# Coordination Sequence:
#
# PCOD8125976 Si02
#       8
#     4   4   4   4   4   4   4   4
#     4  11  24  41  62  92 127 165 212 254 314 397
#     4  10  24  44  62  89 129 169 216 261 313 389
#     4  11  21  35  62  89 123 167 203 259 336 369
#     4  10  21  37  64  91 126 161 213 268 320 383
#     4  10  21  37  57  92 128 162 211 263 314 381
#     4  11  19  36  62  96 122 154 204 267 321 374
#     4  11  19  39  64  93 124 160 212 269 318 373
#     4  10  23  41  65  89 127 174 211 260 321 380
#
# _framework density 20.986080000000001
#
# number of rings (size 3 to 8) (size 9 to 14) (size 15 to 20)
#    0.000    1.500    3.750    3.000    0.000    5.000 
#    0.000    2.500    5.500    0.000    0.000    0.000 
#    0.000    0.000    0.000    0.000    0.000    0.000 
#
# Total GULP energy -396455.284747 kJ/mol
# GULP energy per Si atom -12389.227648 kJ/mol
# Density = 2.093832 g / cm^3
# Si number density = 20.986080 Si / 1000 Ang^3
#
#
#
# Elastic Constant Matrix: (Units=GPa)
#
#
# Indices 1 2 3 4 5 6 
#
# 1 135.8491 37.1425 45.8861 0.0000 -2.0557 0.0000
# 2 37.1425 61.1219 13.0323 0.0000 16.6781 0.0000
# 3 45.8861 13.0323 113.3503 0.0000 0.8384 0.0000
# 4 0.0000 0.0000 0.0000 36.1092 0.0000 2.2212
# 5 -2.0557 16.6781 0.8384 0.0000 18.3372 0.0000
# 6 0.0000 0.0000 0.0000 2.2212 0.0000 25.7207
#
#
#
# Elastic Compliance Matrix: (Units=1/GPa)
#
#
# Indices 1 2 3 4 5 6 
#
# 1 0.010988 -0.008381 -0.003551 0.000000 0.009017 0.000000
# 2 -0.008381 0.028801 0.000282 0.000000 -0.027148 0.000000
# 3 -0.003551 0.000282 0.010236 0.000000 -0.001123 0.000000
# 4 0.000000 0.000000 0.000000 0.027842 0.000000 -0.002404
# 5 0.009017 -0.027148 -0.001123 0.000000 0.080287 0.000000
# 6 0.000000 0.000000 0.000000 -0.002404 0.000000 0.039087
#
#
# Mechanical properties :
#
#
# Convention : Reuss Voigt Hill
#
# Bulk Modulus (GPa) = 37.41779 55.82702 46.62241
# Shear Modulus (GPa) = 21.79130 30.31744 26.05437
#
# Velocity S-wave (km/s) = 3.22587 3.80497 3.52733
# Velocity P-wave (km/s) = 5.63414 6.77963 6.23325
#
# Compressibility (1/GPa) = 0.02672525
#
# Stress axis : x y z
#
# Youngs Moduli (GPa) = 91.00452 34.72110 97.69648
#
# Poissons Ratio (x) = 0.29098 0.34697
# Poissons Ratio (y) = 0.76267 -0.02755
# Poissons Ratio (z) = 0.32320 -0.00979
#
# Static dielectric constant tensor:
#      x y z
#    x 3.280980 0.000000 -0.074450 
#    y 0.000000 3.519990 0.000000 
#    z -0.074450 0.000000 4.217370 
# 
# 
# High freq. dielectric constant tensor:
#      x y z
#    x 1.822660 0.000000 -0.009080 
#    y 0.000000 1.809690 0.000000 
#    z -0.009080 0.000000 1.836650 
# 
# From -- ./inp_files/19036.got.cif
#   From: 2010.03.12/outbox.cif.g09.slc.cpg/sg14_10_cif.got.tgz:19036.got - 2010.03.31 13:35:05.
