data_PCOD8125375
_publ_section_title
;
Structure prediction by ZEFSAII (Michael W. Deem and Ramdas Pophale) SiO2 
 PCOD8125375
Probable space group: P 21/C
;
_chemical_formula_sum "Si O2"
_cell_formula_units_Z 24
_cell_length_a 20.318788
_cell_length_b 7.940020
_cell_length_c 23.496165
_cell_angle_alpha 90.000000
_cell_angle_beta 17.829093
_cell_angle_gamma 90.000000
_cell_volume 1160.623585
_symmetry_space_group_name_H-M "P 21/C"
_symmetry_group_IT_number 14
_symmetry_cell_setting 'monoclinic'
loop_
_space_group_symop_operation_xyz
x,y,z
-x,1/2+y,1/2-z
-x,-y,-z
x,1/2-y,1/2+z
loop_
_atom_site_type_symbol
_atom_site_label
_atom_site_fract_x
_atom_site_fract_y
_atom_site_fract_z
Si Si1 0.814079 0.993242 0.330820
Si Si2 0.977573 0.662934 0.585029
Si Si3 0.923461 0.796889 0.346300
Si Si4 0.433497 0.232488 0.277025
Si Si5 0.662987 0.562099 0.755617
Si Si6 0.188834 0.913232 0.487593
O O1 0.893024 0.834835 0.304337
O O2 0.913407 0.971098 0.186728
O O3 0.557333 0.991025 0.537532
O O4 0.877531 0.173366 0.306015
O O5 0.182412 0.597125 0.381517
O O6 0.037140 0.844238 0.562417
O O7 0.776812 0.686727 0.707416
O O8 0.709692 0.713576 0.549971
O O9 0.961359 0.980610 0.345154
O O10 0.374788 0.348041 0.272657
O O11 0.685051 0.257821 0.085607
O O12 0.378106 0.037792 0.307904
#
# Coordination Sequence:
#
# PCOD8125375 Si02
#       6
#     4   4   4   4   4   4
#     4  12  22  41  61  97 125 167 213 263 312 376
#     4  11  23  41  66  91 131 167 213 255 312 390
#     4  10  23  35  65  89 126 161 208 269 314 360
#     4  10  20  39  60  92 122 155 215 256 311 374
#     4  11  23  42  64  92 128 173 206 256 321 372
#     4  10  20  38  63  93 120 166 209 264 316 362
#
# _framework density 20.678538
#
# number of rings (size 3 to 8) (size 9 to 14) (size 15 to 20)
#    1.000    0.333    3.333    3.500    0.000    0.667 
#    0.000    2.500    0.000    0.000    0.000    0.000 
#    0.000    0.000    0.000    0.000    0.000    0.000 
#
# Total GULP energy -297492.350794 kJ/mol
# GULP energy per Si atom -12395.514616 kJ/mol
# Density = 2.063147 g / cm^3
# Si number density = 20.678538 Si / 1000 Ang^3
#
#
#
# Elastic Constant Matrix: (Units=GPa)
#
#
# Indices 1 2 3 4 5 6 
#
# 1 48.6145 -13.6452 16.0517 0.0000 -4.1738 0.0000
# 2 -13.6452 40.4379 14.1382 0.0000 -5.2620 0.0000
# 3 16.0517 14.1382 98.1685 0.0000 -9.1267 0.0000
# 4 0.0000 0.0000 0.0000 27.6975 0.0000 1.8791
# 5 -4.1738 -5.2620 -9.1267 0.0000 27.0892 0.0000
# 6 0.0000 0.0000 0.0000 1.8791 0.0000 28.8473
#
#
#
# Elastic Compliance Matrix: (Units=1/GPa)
#
#
# Indices 1 2 3 4 5 6 
#
# 1 0.025882 0.011200 -0.005443 0.000000 0.004330 0.000000
# 2 0.011200 0.031296 -0.005794 0.000000 0.005853 0.000000
# 3 -0.005443 -0.005794 0.012108 0.000000 0.002115 0.000000
# 4 0.000000 0.000000 0.000000 0.036265 0.000000 -0.002362
# 5 0.004330 0.005853 0.002115 0.000000 0.039432 0.000000
# 6 0.000000 0.000000 0.000000 -0.002362 0.000000 0.034819
#
#
# Mechanical properties :
#
#
# Convention : Reuss Voigt Hill
#
# Bulk Modulus (GPa) = 14.44839 24.47894 19.46366
# Shear Modulus (GPa) = 24.63705 28.10520 26.37112
#
# Velocity S-wave (km/s) = 3.45546 3.69066 3.57499
# Velocity P-wave (km/s) = 4.78775 5.47949 5.14526
#
# Compressibility (1/GPa) = 0.06921187
#
# Stress axis : x y z
#
# Youngs Moduli (GPa) = 38.63636 31.95294 82.59246
#
# Poissons Ratio (x) = -0.35787 0.44951
# Poissons Ratio (y) = -0.43272 0.47858
# Poissons Ratio (z) = 0.21028 0.18515
#
# Static dielectric constant tensor:
#      x y z
#    x 3.770720 0.000000 -0.021700 
#    y 0.000000 3.489310 0.000000 
#    z -0.021700 0.000000 3.704360 
# 
# 
# High freq. dielectric constant tensor:
#      x y z
#    x 1.803320 0.000000 0.004430 
#    y 0.000000 1.790390 0.000000 
#    z 0.004430 0.000000 1.811080 
# 
# From -- ./inp_files/74572.got.cif
#   From: 2010.03.12/outbox.cif.g09.slc.cpg/sg14_38_cif.got.tgz:74572.got - 2010.03.31 13:35:05.
