data_PCOD8125994
_publ_section_title
;
Structure prediction by ZEFSAII (Michael W. Deem and Ramdas Pophale) SiO2 
 PCOD8125994
Probable space group: P 21/C
;
_chemical_formula_sum "Si O2"
_cell_formula_units_Z 32
_cell_length_a 14.430931
_cell_length_b 5.199493
_cell_length_c 20.064462
_cell_angle_alpha 90.000000
_cell_angle_beta 83.670918
_cell_angle_gamma 90.000000
_cell_volume 1496.331432
_symmetry_space_group_name_H-M "P 21/C"
_symmetry_group_IT_number 14
_symmetry_cell_setting 'monoclinic'
loop_
_space_group_symop_operation_xyz
x,y,z
-x,1/2+y,1/2-z
-x,-y,-z
x,1/2-y,1/2+z
loop_
_atom_site_type_symbol
_atom_site_label
_atom_site_fract_x
_atom_site_fract_y
_atom_site_fract_z
Si Si1 0.607718 0.261916 0.595891
Si Si2 0.885603 0.002334 0.292389
Si Si3 0.554782 0.046042 0.347782
Si Si4 0.397103 0.365063 0.293463
Si Si5 0.282413 0.423042 0.501562
Si Si6 0.100282 0.498858 0.792501
Si Si7 0.268164 0.587578 0.086291
Si Si8 0.758704 0.881343 0.613173
O O1 0.509876 0.114010 0.595314
O O2 0.613602 0.354476 0.672393
O O3 0.617455 0.491064 0.540153
O O4 0.699821 0.089430 0.575281
O O5 0.867083 0.236786 0.243682
O O6 0.818182 0.022571 0.360181
O O7 0.989972 0.010299 0.312690
O O8 0.866118 0.737981 0.255494
O O9 0.599606 0.867680 0.286554
O O10 0.493580 0.259685 0.315986
O O11 0.639332 0.175624 0.381148
O O12 0.307513 0.198757 0.320124
O O13 0.238494 0.666696 0.543965
O O14 0.218020 0.344990 0.442261
O O15 0.295576 0.175509 0.546763
O O16 0.145983 0.484990 0.862369
#
# Coordination Sequence:
#
# PCOD8125994 Si02
#       8
#     4   4   4   4   4   4   4   4
#     4  10  22  42  60  87 123 168 212 266 296 373
#     4  10  23  43  64 106 129 156 199 267 315 394
#     4  11  23  36  62  92 124 166 205 271 325 370
#     4  10  21  37  58  94 126 147 218 259 320 375
#     4  11  25  45  60  90 128 173 226 251 291 381
#     4  10  22  41  73  97 130 156 204 255 335 377
#     4  12  26  41  66  89 133 171 208 258 317 365
#     4  10  22  41  68  88 121 175 207 261 309 368
#
# _framework density 21.385634
#
# number of rings (size 3 to 8) (size 9 to 14) (size 15 to 20)
#    0.000    1.500    2.500    1.500    7.000    1.000 
#    0.000    1.250    0.000    0.000    0.000    0.000 
#    0.000    0.000    0.000    0.000    0.000    0.000 
#
# Total GULP energy -396649.187583 kJ/mol
# GULP energy per Si atom -12395.287112 kJ/mol
# Density = 2.133696 g / cm^3
# Si number density = 21.385634 Si / 1000 Ang^3
#
#
#
# Elastic Constant Matrix: (Units=GPa)
#
#
# Indices 1 2 3 4 5 6 
#
# 1 84.2454 16.9484 43.9088 0.0000 4.2509 0.0000
# 2 16.9484 86.6396 24.8222 0.0000 -5.3497 0.0000
# 3 43.9088 24.8222 98.4045 0.0000 -7.4355 0.0000
# 4 0.0000 0.0000 0.0000 33.6948 0.0000 -1.5518
# 5 4.2509 -5.3497 -7.4355 0.0000 14.1490 0.0000
# 6 0.0000 0.0000 0.0000 -1.5518 0.0000 11.5684
#
#
#
# Elastic Compliance Matrix: (Units=1/GPa)
#
#
# Indices 1 2 3 4 5 6 
#
# 1 0.016759 -0.001646 -0.007800 0.000000 -0.009756 0.000000
# 2 -0.001646 0.012742 -0.002164 0.000000 0.004175 0.000000
# 3 -0.007800 -0.002164 0.014895 0.000000 0.009353 0.000000
# 4 0.000000 0.000000 0.000000 0.029863 0.000000 0.004006
# 5 -0.009756 0.004175 0.009353 0.000000 0.080101 0.000000
# 6 0.000000 0.000000 0.000000 0.004006 0.000000 0.086980
#
#
# Mechanical properties :
#
#
# Convention : Reuss Voigt Hill
#
# Bulk Modulus (GPa) = 47.22422 48.96091 48.09257
# Shear Modulus (GPa) = 18.40820 24.12312 21.26566
#
# Velocity S-wave (km/s) = 2.93708 3.36222 3.15682
# Velocity P-wave (km/s) = 5.79932 6.16577 5.98535
#
# Compressibility (1/GPa) = 0.02117557
#
# Stress axis : x y z
#
# Youngs Moduli (GPa) = 59.66992 78.48134 67.13615
#
# Poissons Ratio (x) = 0.12919 0.52366
# Poissons Ratio (y) = 0.09822 0.14529
# Poissons Ratio (z) = 0.46542 0.16984
#
# Static dielectric constant tensor:
#      x y z
#    x 3.675580 0.000000 -0.106980 
#    y 0.000000 4.095930 0.000000 
#    z -0.106980 0.000000 3.916260 
# 
# 
# High freq. dielectric constant tensor:
#      x y z
#    x 1.809760 0.000000 -0.005320 
#    y 0.000000 1.853290 0.000000 
#    z -0.005320 0.000000 1.840780 
# 
# From -- ./inp_files/67720.got.cif
#   From: 2010.03.12/outbox.cif.g09.slc.cpg/sg14_34_cif.got.tgz:67720.got - 2010.03.31 13:35:05.
