data_PCOD8125139
_publ_section_title
;
Structure prediction by ZEFSAII (Michael W. Deem and Ramdas Pophale) SiO2 
 PCOD8125139
Probable space group: P 21/C
;
_chemical_formula_sum "Si O2"
_cell_formula_units_Z 32
_cell_length_a 8.459376
_cell_length_b 10.930305
_cell_length_c 21.699985
_cell_angle_alpha 90.000000
_cell_angle_beta 52.251533
_cell_angle_gamma 90.000000
_cell_volume 1586.518177
_symmetry_space_group_name_H-M "P 21/C"
_symmetry_group_IT_number 14
_symmetry_cell_setting 'monoclinic'
loop_
_space_group_symop_operation_xyz
x,y,z
-x,1/2+y,1/2-z
-x,-y,-z
x,1/2-y,1/2+z
loop_
_atom_site_type_symbol
_atom_site_label
_atom_site_fract_x
_atom_site_fract_y
_atom_site_fract_z
Si Si1 0.569802 0.437692 0.734548
Si Si2 0.303419 0.130062 0.139578
Si Si3 0.973191 0.478521 0.208614
Si Si4 0.943204 0.271831 0.651366
Si Si5 0.686749 0.482300 0.567355
Si Si6 0.275891 0.138314 0.723429
Si Si7 0.862303 0.821537 0.651524
Si Si8 0.959797 0.695863 0.506195
O O1 0.760420 0.359863 0.711393
O O2 0.603610 0.471861 0.656092
O O3 0.558042 0.561372 0.778833
O O4 0.367593 0.364113 0.792491
O O5 0.504669 0.063327 0.066438
O O6 0.372798 0.252717 0.160010
O O7 0.151060 0.163755 0.121698
O O8 0.204615 0.034074 0.209363
O O9 0.166864 0.457314 0.204084
O O10 0.899286 0.350756 0.198879
O O11 0.012047 0.575294 0.143695
O O12 0.961826 0.240108 0.574647
O O13 0.753888 0.622372 0.540652
O O14 0.876351 0.397989 0.507142
O O15 0.122027 0.198781 0.809989
O O16 0.925652 0.797916 0.566248
#
# Coordination Sequence:
#
# PCOD8125139 Si02
#       8
#     4   4   4   4   4   4   4   4
#     4  11  20  34  62  89 116 155 206 259 294 351
#     4  10  20  39  62  89 117 163 206 252 305 349
#     4  10  21  37  60  87 122 155 201 251 299 355
#     4  10  23  38  58  90 125 160 199 252 304 365
#     4  10  20  37  61  85 121 160 203 255 299 359
#     4  10  20  37  58  90 120 147 205 262 295 351
#     4  11  23  37  63  91 121 163 200 250 310 364
#     4  10  23  39  57  92 127 160 199 249 313 369
#
# _framework density 20.169953
#
# number of rings (size 3 to 8) (size 9 to 14) (size 15 to 20)
#    0.000    1.750    5.000    0.000    3.500    1.000 
#    0.000    1.250    0.000    3.000    0.000    0.000 
#    0.000    0.000    0.000    0.000    0.000    0.000 
#
# Total GULP energy -396657.525423 kJ/mol
# GULP energy per Si atom -12395.547669 kJ/mol
# Density = 2.012405 g / cm^3
# Si number density = 20.169953 Si / 1000 Ang^3
#
#
#
# Elastic Constant Matrix: (Units=GPa)
#
#
# Indices 1 2 3 4 5 6 
#
# 1 78.7001 40.1547 16.9434 0.0000 -2.9790 0.0000
# 2 40.1547 81.0525 18.7633 0.0000 -0.3287 0.0000
# 3 16.9434 18.7633 54.0222 0.0000 -0.4746 0.0000
# 4 0.0000 0.0000 0.0000 20.1885 0.0000 7.0068
# 5 -2.9790 -0.3287 -0.4746 0.0000 24.9154 0.0000
# 6 0.0000 0.0000 0.0000 7.0068 0.0000 38.0636
#
#
#
# Elastic Compliance Matrix: (Units=1/GPa)
#
#
# Indices 1 2 3 4 5 6 
#
# 1 0.017444 -0.008016 -0.002670 0.000000 0.001929 0.000000
# 2 -0.008016 0.017100 -0.003432 0.000000 -0.000798 0.000000
# 3 -0.002670 -0.003432 0.020541 0.000000 0.000027 0.000000
# 4 0.000000 0.000000 0.000000 0.052914 0.000000 -0.009740
# 5 0.001929 -0.000798 0.000027 0.000000 0.040356 0.000000
# 6 0.000000 0.000000 0.000000 -0.009740 0.000000 0.028065
#
#
# Mechanical properties :
#
#
# Convention : Reuss Voigt Hill
#
# Bulk Modulus (GPa) = 37.24615 40.61085 38.92850
# Shear Modulus (GPa) = 23.40744 25.82771 24.61758
#
# Velocity S-wave (km/s) = 3.41032 3.58230 3.49737
# Velocity P-wave (km/s) = 5.83209 6.10643 5.97084
#
# Compressibility (1/GPa) = 0.02684842
#
# Stress axis : x y z
#
# Youngs Moduli (GPa) = 57.32480 58.47813 48.68394
#
# Poissons Ratio (x) = 0.46878 0.12999
# Poissons Ratio (y) = 0.45954 0.16709
# Poissons Ratio (z) = 0.15306 0.20071
#
# Static dielectric constant tensor:
#      x y z
#    x 3.887060 0.000000 0.025510 
#    y 0.000000 3.830420 0.000000 
#    z 0.025510 0.000000 3.402110 
# 
# 
# High freq. dielectric constant tensor:
#      x y z
#    x 1.795350 0.000000 0.007410 
#    y 0.000000 1.789570 0.000000 
#    z 0.007410 0.000000 1.755720 
# 
# From -- ./inp_files/55412.got.cif
#   From: 2010.03.12/outbox.cif.g09.slc.cpg/sg14_28_cif.got.tgz:55412.got - 2010.03.31 13:35:05.
