data_PCOD8125439
_publ_section_title
;
Structure prediction by ZEFSAII (Michael W. Deem and Ramdas Pophale) SiO2 
 PCOD8125439
Probable space group: P 21/C
;
_chemical_formula_sum "Si O2"
_cell_formula_units_Z 20
_cell_length_a 8.914209
_cell_length_b 8.586459
_cell_length_c 23.784834
_cell_angle_alpha 90.000000
_cell_angle_beta 32.129055
_cell_angle_gamma 90.000000
_cell_volume 968.207206
_symmetry_space_group_name_H-M "P 21/C"
_symmetry_group_IT_number 14
_symmetry_cell_setting 'monoclinic'
loop_
_space_group_symop_operation_xyz
x,y,z
-x,1/2+y,1/2-z
-x,-y,-z
x,1/2-y,1/2+z
loop_
_atom_site_type_symbol
_atom_site_label
_atom_site_fract_x
_atom_site_fract_y
_atom_site_fract_z
Si Si1 0.789909 0.782935 0.771907
Si Si2 0.786334 0.711697 0.149097
Si Si3 0.780936 0.545761 0.875469
Si Si4 0.814639 0.348221 0.558734
Si Si5 0.769415 0.357354 0.180912
O O1 0.831217 0.709128 0.696604
O O2 0.725754 0.651984 0.838583
O O3 0.508328 0.889489 0.854727
O O4 0.060947 0.891438 0.698311
O O5 0.722759 0.529331 0.172055
O O6 0.529358 0.799179 0.198688
O O7 0.073756 0.730655 0.024054
O O8 0.984231 0.644992 0.851297
O O9 0.500000 0.500000 0.000000
O O10 0.848988 0.263693 0.607187
O O11 0.000000 0.500000 0.500000
#
# Coordination Sequence:
#
# PCOD8125439 Si02
#       5
#     4   4   4   4   4
#     4  10  23  40  61  87 121 161 204 250 304 371
#     4  10  20  39  60  87 117 155 205 257 303 358
#     4  11  24  42  60  90 129 165 203 253 312 369
#     4  11  22  39  62  88 117 155 206 256 305 361
#     4  10  22  38  61  88 118 156 201 252 305 367
#
# _framework density 20.656732999999999
#
# number of rings (size 3 to 8) (size 9 to 14) (size 15 to 20)
#    0.000    1.600    0.000    6.600    0.000    9.600 
#    0.000    3.000    0.000    0.000    0.000    0.000 
#    0.000    0.000    0.000    0.000    0.000    0.000 
#
# Total GULP energy -247864.153832 kJ/mol
# GULP energy per Si atom -12393.207692 kJ/mol
# Density = 2.060972 g / cm^3
# Si number density = 20.656733 Si / 1000 Ang^3
#
#
#
# Elastic Constant Matrix: (Units=GPa)
#
#
# Indices 1 2 3 4 5 6 
#
# 1 87.2289 20.0351 22.9543 0.0000 -7.0044 0.0000
# 2 20.0351 71.9265 17.1455 0.0000 -1.7073 0.0000
# 3 22.9543 17.1455 113.7311 0.0000 -0.8163 0.0000
# 4 0.0000 0.0000 0.0000 44.8879 0.0000 -1.4874
# 5 -7.0044 -1.7073 -0.8163 0.0000 30.6349 0.0000
# 6 0.0000 0.0000 0.0000 -1.4874 0.0000 37.9326
#
#
#
# Elastic Compliance Matrix: (Units=1/GPa)
#
#
# Indices 1 2 3 4 5 6 
#
# 1 0.012942 -0.003031 -0.002135 0.000000 0.002733 0.000000
# 2 -0.003031 0.015148 -0.001671 0.000000 0.000107 0.000000
# 3 -0.002135 -0.001671 0.009473 0.000000 -0.000329 0.000000
# 4 0.000000 0.000000 0.000000 0.022307 0.000000 0.000875
# 5 0.002733 0.000107 -0.000329 0.000000 0.033265 0.000000
# 6 0.000000 0.000000 0.000000 0.000875 0.000000 0.026397
#
#
# Mechanical properties :
#
#
# Convention : Reuss Voigt Hill
#
# Bulk Modulus (GPa) = 41.86209 43.68404 42.77306
# Shear Modulus (GPa) = 35.41850 36.87452 36.14651
#
# Velocity S-wave (km/s) = 4.14529 4.22964 4.18768
# Velocity P-wave (km/s) = 6.57426 6.71168 6.64332
#
# Compressibility (1/GPa) = 0.02388796
#
# Stress axis : x y z
#
# Youngs Moduli (GPa) = 77.26972 66.01425 105.56050
#
# Poissons Ratio (x) = 0.20009 0.22542
# Poissons Ratio (y) = 0.23420 0.17641
# Poissons Ratio (z) = 0.16501 0.11032
#
# Static dielectric constant tensor:
#      x y z
#    x 3.760570 0.000000 0.098440 
#    y 0.000000 3.603540 0.000000 
#    z 0.098440 0.000000 4.451380 
# 
# 
# High freq. dielectric constant tensor:
#      x y z
#    x 1.799230 0.000000 -0.001320 
#    y 0.000000 1.801610 0.000000 
#    z -0.001320 0.000000 1.834110 
# 
# From -- ./inp_files/23075.got.cif
#   From: 2010.03.12/outbox.cif.g09.slc.cpg/sg14_12_cif.got.tgz:23075.got - 2010.03.31 13:35:05.
