data_PCOD8125052
_publ_section_title
;
Structure prediction by ZEFSAII (Michael W. Deem and Ramdas Pophale) SiO2 
 PCOD8125052
Probable space group: P 21/C
;
_chemical_formula_sum "Si O2"
_cell_formula_units_Z 32
_cell_length_a 8.911195
_cell_length_b 8.906552
_cell_length_c 22.407901
_cell_angle_alpha 90.000000
_cell_angle_beta 58.111130
_cell_angle_gamma 90.000000
_cell_volume 1510.053867
_symmetry_space_group_name_H-M "P 21/C"
_symmetry_group_IT_number 14
_symmetry_cell_setting 'monoclinic'
loop_
_space_group_symop_operation_xyz
x,y,z
-x,1/2+y,1/2-z
-x,-y,-z
x,1/2-y,1/2+z
loop_
_atom_site_type_symbol
_atom_site_label
_atom_site_fract_x
_atom_site_fract_y
_atom_site_fract_z
Si Si1 0.218001 0.859908 0.977461
Si Si2 0.891309 0.412028 0.757046
Si Si3 0.834876 0.415093 0.234553
Si Si4 0.038679 0.666919 0.911336
Si Si5 0.429286 0.595714 0.101972
Si Si6 0.260007 0.949709 0.515738
Si Si7 0.434973 0.553049 0.612345
Si Si8 0.884470 0.551310 0.398576
O O1 0.128564 0.772648 0.941403
O O2 0.381794 0.963035 0.923176
O O3 0.273351 0.729088 0.010479
O O4 0.084528 0.962283 0.045341
O O5 0.908186 0.233143 0.751676
O O6 0.685822 0.449417 0.815270
O O7 0.017262 0.458145 0.785468
O O8 0.957844 0.490141 0.681434
O O9 0.813519 0.386997 0.167997
O O10 0.650152 0.463639 0.303673
O O11 0.934751 0.519454 0.955991
O O12 0.892164 0.770739 0.909403
O O13 0.327828 0.517643 0.067808
O O14 0.463847 0.773592 0.089830
O O15 0.620849 0.518842 0.062866
O O16 0.307716 0.482117 0.588585
#
# Coordination Sequence:
#
# PCOD8125052 Si02
#       8
#     4   4   4   4   4   4   4   4
#     4  12  24  39  59  90 126 166 203 248 309 379
#     4   9  18  34  59  88 115 148 199 262 307 351
#     4   9  19  36  59  86 117 155 200 253 310 362
#     4  11  23  40  59  88 130 164 196 249 317 383
#     4  10  20  36  60  89 119 152 200 266 310 350
#     4  11  23  35  58  87 122 160 201 251 311 369
#     4  10  21  39  63  88 118 157 213 263 297 356
#     4  10  21  37  63  89 116 157 211 256 307 363
#
# _framework density 21.191298
#
# number of rings (size 3 to 8) (size 9 to 14) (size 15 to 20)
#    0.000    1.750    2.500    1.875    3.500    1.000 
#    0.000    3.750    0.000    1.500    0.000    0.000 
#    0.000    0.000    0.000    0.000    0.000    0.000 
#
# Total GULP energy -396489.523543 kJ/mol
# GULP energy per Si atom -12390.297611 kJ/mol
# Density = 2.114307 g / cm^3
# Si number density = 21.191298 Si / 1000 Ang^3
#
#
#
# Elastic Constant Matrix: (Units=GPa)
#
#
# Indices 1 2 3 4 5 6 
#
# 1 41.5189 18.7863 44.8878 0.0000 0.7453 0.0000
# 2 18.7863 76.4780 49.6653 0.0000 -16.2500 0.0000
# 3 44.8878 49.6653 148.9764 0.0000 -14.6426 0.0000
# 4 0.0000 0.0000 0.0000 30.9153 0.0000 -4.6460
# 5 0.7453 -16.2500 -14.6426 0.0000 26.7884 0.0000
# 6 0.0000 0.0000 0.0000 -4.6460 0.0000 32.6629
#
#
#
# Elastic Compliance Matrix: (Units=1/GPa)
#
#
# Indices 1 2 3 4 5 6 
#
# 1 0.038083 -0.004262 -0.011004 0.000000 -0.009659 0.000000
# 2 -0.004262 0.018718 -0.004046 0.000000 0.009261 0.000000
# 3 -0.011004 -0.004046 0.011799 0.000000 0.004302 0.000000
# 4 0.000000 0.000000 0.000000 0.033053 0.000000 0.004701
# 5 -0.009659 0.009261 0.004302 0.000000 0.045568 0.000000
# 6 0.000000 0.000000 0.000000 0.004701 0.000000 0.031285
#
#
# Mechanical properties :
#
#
# Convention : Reuss Voigt Hill
#
# Bulk Modulus (GPa) = 33.35671 54.85024 44.10347
# Shear Modulus (GPa) = 22.01479 28.31559 25.16519
#
# Velocity S-wave (km/s) = 3.22663 3.65936 3.44979
# Velocity P-wave (km/s) = 5.44577 6.61771 6.06014
#
# Compressibility (1/GPa) = 0.02997898
#
# Stress axis : x y z
#
# Youngs Moduli (GPa) = 26.25815 53.42560 84.74953
#
# Poissons Ratio (x) = 0.22767 0.93254
# Poissons Ratio (y) = 0.11190 0.34287
# Poissons Ratio (z) = 0.28893 0.21614
#
# Static dielectric constant tensor:
#      x y z
#    x 3.322860 0.000000 -0.075540 
#    y 0.000000 3.944210 0.000000 
#    z -0.075540 0.000000 4.217960 
# 
# 
# High freq. dielectric constant tensor:
#      x y z
#    x 1.782700 0.000000 -0.006400 
#    y 0.000000 1.838520 0.000000 
#    z -0.006400 0.000000 1.851560 
# 
# From -- ./inp_files/72069.got.cif
#   From: 2010.03.12/outbox.cif.g09.slc.cpg/sg14_37_cif.got.tgz:72069.got - 2010.03.31 13:35:05.
