data_PCOD8125671
_publ_section_title
;
Structure prediction by ZEFSAII (Michael W. Deem and Ramdas Pophale) SiO2 
 PCOD8125671
Probable space group: P 21/C
;
_chemical_formula_sum "Si O2"
_cell_formula_units_Z 28
_cell_length_a 11.594995
_cell_length_b 11.331868
_cell_length_c 12.996976
_cell_angle_alpha 90.000000
_cell_angle_beta 50.816347
_cell_angle_gamma 90.000000
_cell_volume 1323.689156
_symmetry_space_group_name_H-M "P 21/C"
_symmetry_group_IT_number 14
_symmetry_cell_setting 'monoclinic'
loop_
_space_group_symop_operation_xyz
x,y,z
-x,1/2+y,1/2-z
-x,-y,-z
x,1/2-y,1/2+z
loop_
_atom_site_type_symbol
_atom_site_label
_atom_site_fract_x
_atom_site_fract_y
_atom_site_fract_z
Si Si1 0.643638 0.932657 0.796179
Si Si2 0.570150 0.371501 0.762798
Si Si3 0.578030 0.176777 0.917913
Si Si4 0.792307 0.948686 0.201832
Si Si5 0.114328 0.218853 0.263590
Si Si6 0.082632 0.072855 0.084988
Si Si7 0.200138 0.818031 0.035704
O O1 0.570693 0.901029 0.728293
O O2 0.811401 0.881633 0.706141
O O3 0.643360 0.072995 0.809413
O O4 0.559169 0.870950 0.938764
O O5 0.518272 0.281017 0.879351
O O6 0.629762 0.492906 0.781623
O O7 0.703680 0.312459 0.622368
O O8 0.706035 0.228545 0.920111
O O9 0.790145 0.840601 0.283800
O O10 0.846786 0.890904 0.063673
O O11 0.906320 0.051205 0.172236
O O12 0.111713 0.179370 0.146508
O O13 0.946336 0.239408 0.398350
O O14 0.160754 0.954090 0.082621
#
# Coordination Sequence:
#
# PCOD8125671 Si02
#       7
#     4   4   4   4   4   4   4
#     4  10  23  36  61  92 111 158 202 230 293 354
#     4  10  21  38  61  83 118 156 193 242 287 350
#     4  10  20  41  63  80 118 160 195 238 287 351
#     4   9  20  34  59  86 110 155 200 230 294 350
#     4  11  20  34  62  90 120 144 197 250 289 344
#     4   9  17  35  56  83 115 152 193 238 282 347
#     4   9  19  36  60  85 110 153 197 233 295 350
#
# _framework density 21.153002999999998
#
# number of rings (size 3 to 8) (size 9 to 14) (size 15 to 20)
#    0.000    2.286    1.429    1.714    4.000    0.000 
#    0.000    1.429   18.857    0.000    0.000    0.000 
#    0.000    0.000    0.000    0.000    0.000    0.000 
#
# Total GULP energy -347220.500492 kJ/mol
# GULP energy per Si atom -12400.732160 kJ/mol
# Density = 2.110486 g / cm^3
# Si number density = 21.153003 Si / 1000 Ang^3
#
#
#
# Elastic Constant Matrix: (Units=GPa)
#
#
# Indices 1 2 3 4 5 6 
#
# 1 111.5529 24.7735 19.5967 0.0000 17.7467 0.0000
# 2 24.7735 62.4770 18.1469 0.0000 18.3395 0.0000
# 3 19.5967 18.1469 29.8905 0.0000 13.0399 0.0000
# 4 0.0000 0.0000 0.0000 32.4884 0.0000 8.9058
# 5 17.7467 18.3395 13.0399 0.0000 30.2688 0.0000
# 6 0.0000 0.0000 0.0000 8.9058 0.0000 41.3022
#
#
#
# Elastic Compliance Matrix: (Units=1/GPa)
#
#
# Indices 1 2 3 4 5 6 
#
# 1 0.010689 -0.002040 -0.004402 0.000000 -0.003135 0.000000
# 2 -0.002040 0.021648 -0.008134 0.000000 -0.008416 0.000000
# 3 -0.004402 -0.008134 0.046799 0.000000 -0.012652 0.000000
# 4 0.000000 0.000000 0.000000 0.032714 0.000000 -0.007054
# 5 -0.003135 -0.008416 -0.012652 0.000000 0.045425 0.000000
# 6 0.000000 0.000000 0.000000 -0.007054 0.000000 0.025733
#
#
# Mechanical properties :
#
#
# Convention : Reuss Voigt Hill
#
# Bulk Modulus (GPa) = 20.00591 36.55051 28.27821
# Shear Modulus (GPa) = 21.85112 30.23875 26.04494
#
# Velocity S-wave (km/s) = 3.21752 3.78501 3.51274
# Velocity P-wave (km/s) = 4.82509 6.03476 5.46351
#
# Compressibility (1/GPa) = 0.04998522
#
# Stress axis : x y z
#
# Youngs Moduli (GPa) = 93.55057 46.19448 21.36782
#
# Poissons Ratio (x) = 0.09422 0.09407
# Poissons Ratio (y) = 0.19082 0.17380
# Poissons Ratio (z) = 0.41183 0.37573
#
# Static dielectric constant tensor:
#      x y z
#    x 4.073350 0.000000 0.044470 
#    y 0.000000 3.647630 0.000000 
#    z 0.044470 0.000000 3.409020 
# 
# 
# High freq. dielectric constant tensor:
#      x y z
#    x 1.852630 0.000000 0.008410 
#    y 0.000000 1.812630 0.000000 
#    z 0.008410 0.000000 1.788880 
# 
# From -- ./inp_files/43287.got.cif
#   From: 2010.03.12/outbox.cif.g09.slc.cpg/sg14_22_cif.got.tgz:43287.got - 2010.03.31 13:35:05.
