data_PCOD8125854
_publ_section_title
;
Structure prediction by ZEFSAII (Michael W. Deem and Ramdas Pophale) SiO2 
 PCOD8125854
Probable space group: P 21/C
;
_chemical_formula_sum "Si O2"
_cell_formula_units_Z 32
_cell_length_a 8.060043
_cell_length_b 8.981244
_cell_length_c 24.229235
_cell_angle_alpha 90.000000
_cell_angle_beta 121.637892
_cell_angle_gamma 90.000000
_cell_volume 1493.265770
_symmetry_space_group_name_H-M "P 21/C"
_symmetry_group_IT_number 14
_symmetry_cell_setting 'monoclinic'
loop_
_space_group_symop_operation_xyz
x,y,z
-x,1/2+y,1/2-z
-x,-y,-z
x,1/2-y,1/2+z
loop_
_atom_site_type_symbol
_atom_site_label
_atom_site_fract_x
_atom_site_fract_y
_atom_site_fract_z
Si Si1 0.690669 0.826340 0.280681
Si Si2 0.027329 0.629359 0.327749
Si Si3 0.627412 0.154644 0.865858
Si Si4 0.571201 0.812247 0.863521
Si Si5 0.416266 0.180046 0.429910
Si Si6 0.366463 0.842212 0.421848
Si Si7 0.986260 0.678137 0.624147
Si Si8 0.815562 0.377184 0.758385
O O1 0.484262 0.827026 0.212237
O O2 0.711842 0.785837 0.349585
O O3 0.821351 0.700037 0.274521
O O4 0.786992 0.988421 0.295738
O O5 0.164276 0.759946 0.375198
O O6 0.107076 0.555406 0.285761
O O7 0.010206 0.500071 0.369898
O O8 0.512132 0.241346 0.893527
O O9 0.849507 0.215355 0.894372
O O10 0.637615 0.981629 0.885139
O O11 0.539317 0.734394 0.916716
O O12 0.385139 0.798273 0.791210
O O13 0.584082 0.171484 0.505114
O O14 0.234263 0.268543 0.426040
O O15 0.345525 0.014892 0.400674
O O16 0.041595 0.754798 0.691565
#
# Coordination Sequence:
#
# PCOD8125854 Si02
#       8
#     4   4   4   4   4   4   4   4
#     4  11  21  38  61  96 136 164 207 260 316 389
#     4  11  22  40  63  93 130 170 213 263 320 387
#     4  11  24  41  66 101 132 169 212 262 322 386
#     4  10  21  40  63  91 131 168 206 261 320 374
#     4  11  25  47  68  91 126 170 220 273 322 376
#     4  10  25  47  66  89 123 172 220 269 322 379
#     4  12  23  40  64 100 130 166 217 261 323 384
#     4  10  21  35  59  92 128 172 207 251 320 380
#
# _framework density 21.429542000000001
#
# number of rings (size 3 to 8) (size 9 to 14) (size 15 to 20)
#    0.000    1.250    2.500    4.500    1.750    5.000 
#    2.250    2.500    0.000    0.000    0.000    0.000 
#    0.000    0.000    0.000    0.000    0.000    0.000 
#
# Total GULP energy -396634.129007 kJ/mol
# GULP energy per Si atom -12394.816531 kJ/mol
# Density = 2.138077 g / cm^3
# Si number density = 21.429542 Si / 1000 Ang^3
#
#
#
# Elastic Constant Matrix: (Units=GPa)
#
#
# Indices 1 2 3 4 5 6 
#
# 1 118.3544 43.2505 20.7002 0.0000 1.1339 0.0000
# 2 43.2505 121.0318 20.1542 0.0000 -10.3022 0.0000
# 3 20.7002 20.1542 23.5778 0.0000 -9.4504 0.0000
# 4 0.0000 0.0000 0.0000 22.9564 0.0000 -5.0061
# 5 1.1339 -10.3022 -9.4504 0.0000 26.6819 0.0000
# 6 0.0000 0.0000 0.0000 -5.0061 0.0000 35.2409
#
#
#
# Elastic Compliance Matrix: (Units=1/GPa)
#
#
# Indices 1 2 3 4 5 6 
#
# 1 0.011169 -0.002854 -0.009322 0.000000 -0.004878 0.000000
# 2 -0.002854 0.010383 -0.005494 0.000000 0.002184 0.000000
# 3 -0.009322 -0.005494 0.063635 0.000000 0.020814 0.000000
# 4 0.000000 0.000000 0.000000 0.044953 0.000000 0.006386
# 5 -0.004878 0.002184 0.020814 0.000000 0.045901 0.000000
# 6 0.000000 0.000000 0.000000 0.006386 0.000000 0.029283
#
#
# Mechanical properties :
#
#
# Convention : Reuss Voigt Hill
#
# Bulk Modulus (GPa) = 20.06091 47.90821 33.98456
# Shear Modulus (GPa) = 19.43395 28.89975 24.16685
#
# Velocity S-wave (km/s) = 3.01471 3.67630 3.36182
# Velocity P-wave (km/s) = 4.63677 6.35806 5.56438
#
# Compressibility (1/GPa) = 0.04984820
#
# Stress axis : x y z
#
# Youngs Moduli (GPa) = 89.53065 96.31059 15.71452
#
# Poissons Ratio (x) = 0.27490 0.14648
# Poissons Ratio (y) = 0.25555 0.08633
# Poissons Ratio (z) = 0.83457 0.52912
#
# Static dielectric constant tensor:
#      x y z
#    x 4.069890 0.000000 0.051890 
#    y 0.000000 3.878840 0.000000 
#    z 0.051890 0.000000 3.455680 
# 
# 
# High freq. dielectric constant tensor:
#      x y z
#    x 1.854080 0.000000 0.001340 
#    y 0.000000 1.850620 0.000000 
#    z 0.001340 0.000000 1.807510 
# 
# From -- ./inp_files/79415.got.cif
#   From: 2010.03.12/outbox.cif.g09.slc.cpg/sg14_40_cif.got.tgz:79415.got - 2010.03.31 13:35:05.
