data_PCOD8125682
_publ_section_title
;
Structure prediction by ZEFSAII (Michael W. Deem and Ramdas Pophale) SiO2 
 PCOD8125682
Probable space group: P 21/C
;
_chemical_formula_sum "Si O2"
_cell_formula_units_Z 20
_cell_length_a 13.046255
_cell_length_b 12.685758
_cell_length_c 10.429629
_cell_angle_alpha 90.000000
_cell_angle_beta 145.772251
_cell_angle_gamma 90.000000
_cell_volume 970.915028
_symmetry_space_group_name_H-M "P 21/C"
_symmetry_group_IT_number 14
_symmetry_cell_setting 'monoclinic'
loop_
_space_group_symop_operation_xyz
x,y,z
-x,1/2+y,1/2-z
-x,-y,-z
x,1/2-y,1/2+z
loop_
_atom_site_type_symbol
_atom_site_label
_atom_site_fract_x
_atom_site_fract_y
_atom_site_fract_z
Si Si1 0.480444 0.448146 0.267792
Si Si2 0.179856 0.487515 0.530341
Si Si3 0.718316 0.064253 0.236861
Si Si4 0.153964 0.126449 0.269103
Si Si5 0.098001 0.134026 0.699566
O O1 0.616376 0.477346 0.293888
O O2 0.402447 0.552695 0.259252
O O3 0.596267 0.384501 0.496594
O O4 0.310409 0.384258 0.037688
O O5 0.195959 0.444176 0.689566
O O6 0.108372 0.397156 0.360042
O O7 0.040490 0.586995 0.375824
O O8 0.888677 0.137848 0.438555
O O9 0.783980 0.946740 0.262432
O O10 0.162362 0.248119 0.240707
#
# Coordination Sequence:
#
# PCOD8125682 Si02
#       5
#     4   4   4   4   4
#     4  10  20  41  64  85 126 161 200 257 308 356
#     4  10  23  41  59  92 131 158 203 262 309 360
#     4   9  20  40  64  92 124 161 207 260 299 367
#     4  11  23  40  64  90 125 168 203 254 314 368
#     4  10  21  40  67  87 123 169 207 250 311 370
#
# _framework density 20.599125000000001
#
# number of rings (size 3 to 8) (size 9 to 14) (size 15 to 20)
#    0.000    2.000    2.000    0.600    2.800    0.000 
#   10.800    8.000    0.000    0.000    0.000    0.000 
#    0.000    0.000    0.000    0.000    0.000    0.000 
#
# Total GULP energy -247914.585523 kJ/mol
# GULP energy per Si atom -12395.729276 kJ/mol
# Density = 2.055224 g / cm^3
# Si number density = 20.599125 Si / 1000 Ang^3
#
#
#
# Elastic Constant Matrix: (Units=GPa)
#
#
# Indices 1 2 3 4 5 6 
#
# 1 99.9954 10.2433 23.0822 0.0000 14.2097 0.0000
# 2 10.2433 69.4989 26.1329 0.0000 1.7256 0.0000
# 3 23.0822 26.1329 144.6081 0.0000 1.4826 0.0000
# 4 0.0000 0.0000 0.0000 19.5049 0.0000 -2.3472
# 5 14.2097 1.7256 1.4826 0.0000 28.8760 0.0000
# 6 0.0000 0.0000 0.0000 -2.3472 0.0000 11.4956
#
#
#
# Elastic Compliance Matrix: (Units=1/GPa)
#
#
# Indices 1 2 3 4 5 6 
#
# 1 0.011223 -0.000931 -0.001568 0.000000 -0.005387 0.000000
# 2 -0.000931 0.015533 -0.002655 0.000000 -0.000334 0.000000
# 3 -0.001568 -0.002655 0.007640 0.000000 0.000538 0.000000
# 4 0.000000 0.000000 0.000000 0.052561 0.000000 0.010732
# 5 -0.005387 -0.000334 0.000538 0.000000 0.037274 0.000000
# 6 0.000000 0.000000 0.000000 0.010732 0.000000 0.089181
#
#
# Mechanical properties :
#
#
# Convention : Reuss Voigt Hill
#
# Bulk Modulus (GPa) = 41.51448 48.11324 44.81386
# Shear Modulus (GPa) = 21.57518 28.95156 25.26337
#
# Velocity S-wave (km/s) = 3.23984 3.75303 3.50584
# Velocity P-wave (km/s) = 5.84745 6.49523 6.17983
#
# Compressibility (1/GPa) = 0.02408798
#
# Stress axis : x y z
#
# Youngs Moduli (GPa) = 89.10081 64.38103 130.89340
#
# Poissons Ratio (x) = 0.05993 0.20524
# Poissons Ratio (y) = 0.08294 0.34752
# Poissons Ratio (z) = 0.13971 0.17093
#
# Static dielectric constant tensor:
#      x y z
#    x 3.851120 0.000000 0.053010 
#    y 0.000000 3.204290 0.000000 
#    z 0.053010 0.000000 4.086900 
# 
# 
# High freq. dielectric constant tensor:
#      x y z
#    x 1.819230 0.000000 0.003060 
#    y 0.000000 1.753050 0.000000 
#    z 0.003060 0.000000 1.833140 
# 
# From -- ./inp_files/32266.got.cif
#   From: 2010.03.12/outbox.cif.g09.slc.cpg/sg14_17_cif.got.tgz:32266.got - 2010.03.31 13:35:05.
