data_PCOD8125051
_publ_section_title
;
Structure prediction by ZEFSAII (Michael W. Deem and Ramdas Pophale) SiO2 
 PCOD8125051
Probable space group: P 21/C
;
_chemical_formula_sum "Si O2"
_cell_formula_units_Z 32
_cell_length_a 8.786113
_cell_length_b 14.008075
_cell_length_c 24.725723
_cell_angle_alpha 90.000000
_cell_angle_beta 32.532277
_cell_angle_gamma 90.000000
_cell_volume 1636.532219
_symmetry_space_group_name_H-M "P 21/C"
_symmetry_group_IT_number 14
_symmetry_cell_setting 'monoclinic'
loop_
_space_group_symop_operation_xyz
x,y,z
-x,1/2+y,1/2-z
-x,-y,-z
x,1/2-y,1/2+z
loop_
_atom_site_type_symbol
_atom_site_label
_atom_site_fract_x
_atom_site_fract_y
_atom_site_fract_z
Si Si1 0.901546 0.442397 0.848466
Si Si2 0.666651 0.778092 0.755498
Si Si3 0.621917 0.742727 0.388960
Si Si4 0.172438 0.485530 0.540394
Si Si5 0.711506 0.625989 0.959274
Si Si6 0.992393 0.820463 0.066726
Si Si7 0.195805 0.462584 0.654022
Si Si8 0.009382 0.782404 0.942113
O O1 0.851911 0.521809 0.909871
O O2 0.150765 0.375234 0.796906
O O3 0.991855 0.492172 0.764713
O O4 0.612475 0.383618 0.923522
O O5 0.681876 0.726161 0.809166
O O6 0.343074 0.799659 0.838469
O O7 0.765993 0.707954 0.679107
O O8 0.713412 0.828691 0.399328
O O9 0.294986 0.716600 0.496623
O O10 0.812459 0.652184 0.347568
O O11 0.988410 0.563542 0.562419
O O12 0.106202 0.507419 0.623499
O O13 0.492519 0.501009 0.425969
O O14 0.118941 0.375884 0.545661
O O15 0.895268 0.687954 0.946302
O O16 0.910375 0.774022 0.034044
#
# Coordination Sequence:
#
# PCOD8125051 Si02
#       8
#     4   4   4   4   4   4   4   4
#     4  10  23  40  65  89 128 166 207 260 312 370
#     4  10  22  40  61  87 125 167 203 249 310 374
#     4   9  18  38  61  84 120 153 205 256 301 360
#     4  10  20  36  60  88 125 154 203 262 308 360
#     4  11  22  41  64  92 125 163 211 258 308 364
#     4  10  21  38  60  84 120 166 196 246 325 361
#     4   9  19  36  59  94 116 155 205 259 309 360
#     4  11  24  39  60  92 127 158 203 261 305 375
#
# _framework density 19.553540999999999
#
# number of rings (size 3 to 8) (size 9 to 14) (size 15 to 20)
#    0.000    2.000    2.500    1.125    1.750    3.000 
#    2.250    0.625    0.000    0.000    0.000    0.000 
#    0.000    0.000    0.000    0.000    0.000    0.000 
#
# Total GULP energy -396723.543621 kJ/mol
# GULP energy per Si atom -12397.610738 kJ/mol
# Density = 1.950904 g / cm^3
# Si number density = 19.553541 Si / 1000 Ang^3
#
#
#
# Elastic Constant Matrix: (Units=GPa)
#
#
# Indices 1 2 3 4 5 6 
#
# 1 82.2986 43.2708 47.7571 0.0000 0.9763 0.0000
# 2 43.2708 72.9601 35.1218 0.0000 -3.3691 0.0000
# 3 47.7571 35.1218 126.8034 0.0000 11.2833 0.0000
# 4 0.0000 0.0000 0.0000 28.8177 0.0000 2.0913
# 5 0.9763 -3.3691 11.2833 0.0000 27.0294 0.0000
# 6 0.0000 0.0000 0.0000 2.0913 0.0000 32.1350
#
#
#
# Elastic Compliance Matrix: (Units=1/GPa)
#
#
# Indices 1 2 3 4 5 6 
#
# 1 0.019985 -0.009480 -0.004914 0.000000 0.000148 0.000000
# 2 -0.009480 0.020728 -0.002525 0.000000 0.003980 0.000000
# 3 -0.004914 -0.002525 0.010852 0.000000 -0.004667 0.000000
# 4 0.000000 0.000000 0.000000 0.034866 0.000000 -0.002269
# 5 0.000148 0.003980 -0.004667 0.000000 0.039436 0.000000
# 6 0.000000 0.000000 0.000000 -0.002269 0.000000 0.031266
#
#
# Mechanical properties :
#
#
# Convention : Reuss Voigt Hill
#
# Bulk Modulus (GPa) = 56.41409 59.37350 57.89380
# Shear Modulus (GPa) = 25.39615 27.99058 26.69337
#
# Velocity S-wave (km/s) = 3.60780 3.78760 3.69879
# Velocity P-wave (km/s) = 6.80211 7.03977 6.92196
#
# Compressibility (1/GPa) = 0.01772607
#
# Stress axis : x y z
#
# Youngs Moduli (GPa) = 50.03654 48.24422 92.15167
#
# Poissons Ratio (x) = 0.45737 0.45286
# Poissons Ratio (y) = 0.47436 0.23267
# Poissons Ratio (z) = 0.24589 0.12181
#
# Static dielectric constant tensor:
#      x y z
#    x 3.465590 0.000000 0.126920 
#    y 0.000000 3.481130 0.000000 
#    z 0.126920 0.000000 3.671280 
# 
# 
# High freq. dielectric constant tensor:
#      x y z
#    x 1.750570 0.000000 0.011590 
#    y 0.000000 1.755880 0.000000 
#    z 0.011590 0.000000 1.768490 
# 
# From -- ./inp_files/72478.got.cif
#   From: 2010.03.12/outbox.cif.g09.slc.cpg/sg14_37_cif.got.tgz:72478.got - 2010.03.31 13:35:05.
