data_PCOD8125611
_publ_section_title
;
Structure prediction by ZEFSAII (Michael W. Deem and Ramdas Pophale) SiO2 
 PCOD8125611
Probable space group: P 21/C
;
_chemical_formula_sum "Si O2"
_cell_formula_units_Z 28
_cell_length_a 9.109584
_cell_length_b 9.781774
_cell_length_c 21.708049
_cell_angle_alpha 90.000000
_cell_angle_beta 136.759547
_cell_angle_gamma 90.000000
_cell_volume 1325.154747
_symmetry_space_group_name_H-M "P 21/C"
_symmetry_group_IT_number 14
_symmetry_cell_setting 'monoclinic'
loop_
_space_group_symop_operation_xyz
x,y,z
-x,1/2+y,1/2-z
-x,-y,-z
x,1/2-y,1/2+z
loop_
_atom_site_type_symbol
_atom_site_label
_atom_site_fract_x
_atom_site_fract_y
_atom_site_fract_z
Si Si1 0.613110 0.371996 0.754145
Si Si2 0.871983 0.879142 0.369637
Si Si3 0.687735 0.031208 0.500909
Si Si4 0.193209 0.391599 0.708993
Si Si5 0.258443 0.137542 0.370456
Si Si6 0.001460 0.323992 0.380835
Si Si7 0.657220 0.768088 0.421661
O O1 0.747871 0.511132 0.789409
O O2 0.430568 0.388502 0.750971
O O3 0.778997 0.254165 0.825114
O O4 0.524063 0.338616 0.657649
O O5 0.928488 0.747014 0.346204
O O6 0.719737 0.841776 0.378260
O O7 0.094083 0.932770 0.467964
O O8 0.519358 0.156899 0.448108
O O9 0.769738 0.997113 0.595309
O O10 0.575923 0.892129 0.440014
O O11 0.186438 0.397917 0.780267
O O12 0.052450 0.517665 0.642624
O O13 0.131069 0.265905 0.360755
O O14 0.150086 0.312671 0.486782
#
# Coordination Sequence:
#
# PCOD8125611 Si02
#       7
#     4   4   4   4   4   4   4
#     4  11  22  42  68  98 126 173 222 270 331 389
#     4  11  22  39  66  98 127 171 221 266 330 391
#     4  10  20  40  64  97 118 180 221 260 324 391
#     4  11  25  41  63  98 134 171 214 275 328 393
#     4  10  22  39  66  87 130 170 220 264 317 393
#     4  11  24  44  66  97 133 177 215 274 338 373
#     4  10  22  40  70  96 134 167 220 280 320 391
#
# _framework density 21.129608000000001
#
# number of rings (size 3 to 8) (size 9 to 14) (size 15 to 20)
#    0.000    1.429    2.857    3.857    4.000    2.286 
#    2.571    0.714    0.000    0.000    0.000    0.000 
#    0.000    0.000    0.000    0.000    0.000    0.000 
#
# Total GULP energy -346913.670324 kJ/mol
# GULP energy per Si atom -12389.773940 kJ/mol
# Density = 2.108152 g / cm^3
# Si number density = 21.129608 Si / 1000 Ang^3
#
#
#
# Elastic Constant Matrix: (Units=GPa)
#
#
# Indices 1 2 3 4 5 6 
#
# 1 63.8982 27.6165 31.8264 0.0000 9.0193 0.0000
# 2 27.6165 130.0944 55.9068 0.0000 6.9664 0.0000
# 3 31.8264 55.9068 124.7540 0.0000 3.7396 0.0000
# 4 0.0000 0.0000 0.0000 19.8409 0.0000 1.8745
# 5 9.0193 6.9664 3.7396 0.0000 36.9831 0.0000
# 6 0.0000 0.0000 0.0000 1.8745 0.0000 17.7262
#
#
#
# Elastic Compliance Matrix: (Units=1/GPa)
#
#
# Indices 1 2 3 4 5 6 
#
# 1 0.019016 -0.002224 -0.003739 0.000000 -0.003840 0.000000
# 2 -0.002224 0.009850 -0.003819 0.000000 -0.000927 0.000000
# 3 -0.003739 -0.003819 0.010664 0.000000 0.000553 0.000000
# 4 0.000000 0.000000 0.000000 0.050909 0.000000 -0.005384
# 5 -0.003840 -0.000927 0.000553 0.000000 0.028095 0.000000
# 6 0.000000 0.000000 0.000000 -0.005384 0.000000 0.056983
#
#
# Mechanical properties :
#
#
# Convention : Reuss Voigt Hill
#
# Bulk Modulus (GPa) = 50.08675 61.04956 55.56816
# Shear Modulus (GPa) = 24.78482 28.46985 26.62734
#
# Velocity S-wave (km/s) = 3.42861 3.67466 3.55377
# Velocity P-wave (km/s) = 6.27932 6.85273 6.57228
#
# Compressibility (1/GPa) = 0.01996536
#
# Stress axis : x y z
#
# Youngs Moduli (GPa) = 52.58818 101.52738 93.76911
#
# Poissons Ratio (x) = 0.22580 0.35064
# Poissons Ratio (y) = 0.11696 0.35808
# Poissons Ratio (z) = 0.19665 0.38771
#
# Static dielectric constant tensor:
#      x y z
#    x 3.941270 0.000000 0.014160 
#    y 0.000000 3.972870 0.000000 
#    z 0.014160 0.000000 4.215140 
# 
# 
# High freq. dielectric constant tensor:
#      x y z
#    x 1.828730 0.000000 0.003770 
#    y 0.000000 1.814790 0.000000 
#    z 0.003770 0.000000 1.833930 
# 
# From -- ./inp_files/65019.got.cif
#   From: 2010.03.12/outbox.cif.g09.slc.cpg/sg14_33_cif.got.tgz:65019.got - 2010.03.31 13:35:05.
