data_PCOD8125987
_publ_section_title
;
Structure prediction by ZEFSAII (Michael W. Deem and Ramdas Pophale) SiO2 
 PCOD8125987
Probable space group: P 21/C
;
_chemical_formula_sum "Si O2"
_cell_formula_units_Z 24
_cell_length_a 14.069532
_cell_length_b 8.947522
_cell_length_c 15.967655
_cell_angle_alpha 90.000000
_cell_angle_beta 146.824809
_cell_angle_gamma 90.000000
_cell_volume 1099.943389
_symmetry_space_group_name_H-M "P 21/C"
_symmetry_group_IT_number 14
_symmetry_cell_setting 'monoclinic'
loop_
_space_group_symop_operation_xyz
x,y,z
-x,1/2+y,1/2-z
-x,-y,-z
x,1/2-y,1/2+z
loop_
_atom_site_type_symbol
_atom_site_label
_atom_site_fract_x
_atom_site_fract_y
_atom_site_fract_z
Si Si1 0.321960 0.192367 0.398908
Si Si2 0.338154 0.194066 0.093740
Si Si3 0.687375 0.368432 0.358147
Si Si4 0.994354 0.841752 0.593136
Si Si5 0.297806 0.864488 0.328144
Si Si6 0.004181 0.832498 0.410386
O O1 0.280334 0.265001 0.457493
O O2 0.521748 0.223023 0.520076
O O3 0.190475 0.268251 0.237107
O O4 0.290460 0.014386 0.377844
O O5 0.524903 0.260453 0.253553
O O6 0.344638 0.017322 0.112489
O O7 0.192176 0.263754 0.045711
O O8 0.712993 0.406652 0.278646
O O9 0.856040 0.286042 0.522345
O O10 0.140318 0.738642 0.744974
O O11 0.060247 0.859751 0.547093
O O12 0.985427 0.006527 0.628873
#
# Coordination Sequence:
#
# PCOD8125987 Si02
#       6
#     4   4   4   4   4   4
#     4  10  21  37  58  87 115 146 194 243 287 337
#     4  11  22  37  59  86 114 148 195 246 292 339
#     4  10  21  39  61  83 116 158 193 234 293 354
#     4  10  21  37  59  84 115 156 194 232 285 352
#     4   9  20  40  61  82 115 156 192 230 289 356
#     4  10  21  38  58  84 117 153 194 232 284 356
#
# _framework density 21.819306000000001
#
# number of rings (size 3 to 8) (size 9 to 14) (size 15 to 20)
#    0.000    2.000    0.000    3.000    0.000    7.333 
#    0.000    8.333    0.000    0.000    0.000    0.000 
#    0.000    0.000    0.000    0.000    0.000    0.000 
#
# Total GULP energy -297601.981733 kJ/mol
# GULP energy per Si atom -12400.082572 kJ/mol
# Density = 2.176964 g / cm^3
# Si number density = 21.819306 Si / 1000 Ang^3
#
#
#
# Elastic Constant Matrix: (Units=GPa)
#
#
# Indices 1 2 3 4 5 6 
#
# 1 52.8602 45.9450 25.1377 0.0000 13.0794 0.0000
# 2 45.9450 158.6808 55.1903 0.0000 7.2055 0.0000
# 3 25.1377 55.1903 123.9931 0.0000 17.7130 0.0000
# 4 0.0000 0.0000 0.0000 39.0999 0.0000 10.2450
# 5 13.0794 7.2055 17.7130 0.0000 22.5654 0.0000
# 6 0.0000 0.0000 0.0000 10.2450 0.0000 32.9686
#
#
#
# Elastic Compliance Matrix: (Units=1/GPa)
#
#
# Indices 1 2 3 4 5 6 
#
# 1 0.029330 -0.007673 -0.000510 0.000000 -0.014150 0.000000
# 2 -0.007673 0.009465 -0.003222 0.000000 0.003954 0.000000
# 3 -0.000510 -0.003222 0.010602 0.000000 -0.006998 0.000000
# 4 0.000000 0.000000 0.000000 0.027843 0.000000 -0.008652
# 5 -0.014150 0.003954 -0.006998 0.000000 0.056748 0.000000
# 6 0.000000 0.000000 0.000000 -0.008652 0.000000 0.033020
#
#
# Mechanical properties :
#
#
# Convention : Reuss Voigt Hill
#
# Bulk Modulus (GPa) = 37.61052 65.34223 51.47638
# Shear Modulus (GPa) = 25.16611 32.87754 29.02183
#
# Velocity S-wave (km/s) = 3.39984 3.88598 3.65101
# Velocity P-wave (km/s) = 5.71722 7.08141 6.43556
#
# Compressibility (1/GPa) = 0.02658830
#
# Stress axis : x y z
#
# Youngs Moduli (GPa) = 34.09435 105.65627 94.31995
#
# Poissons Ratio (x) = 0.81066 0.04807
# Poissons Ratio (y) = 0.26159 0.30392
# Poissons Ratio (z) = 0.01738 0.34044
#
# Static dielectric constant tensor:
#      x y z
#    x 3.598270 0.000000 0.180690 
#    y 0.000000 4.033830 0.000000 
#    z 0.180690 0.000000 4.012620 
# 
# 
# High freq. dielectric constant tensor:
#      x y z
#    x 1.830680 0.000000 0.018240 
#    y 0.000000 1.865650 0.000000 
#    z 0.018240 0.000000 1.866290 
# 
# From -- ./inp_files/54483.got.cif
#   From: 2010.03.12/outbox.cif.g09.slc.cpg/sg14_28_cif.got.tgz:54483.got - 2010.03.31 13:35:05.
