data_PCOD8125610
_publ_section_title
;
Structure prediction by ZEFSAII (Michael W. Deem and Ramdas Pophale) SiO2 
 PCOD8125610
Probable space group: P 21/C
;
_chemical_formula_sum "Si O2"
_cell_formula_units_Z 32
_cell_length_a 12.253511
_cell_length_b 14.466227
_cell_length_c 17.290139
_cell_angle_alpha 90.000000
_cell_angle_beta 150.100210
_cell_angle_gamma 90.000000
_cell_volume 1527.798286
_symmetry_space_group_name_H-M "P 21/C"
_symmetry_group_IT_number 14
_symmetry_cell_setting 'monoclinic'
loop_
_space_group_symop_operation_xyz
x,y,z
-x,1/2+y,1/2-z
-x,-y,-z
x,1/2-y,1/2+z
loop_
_atom_site_type_symbol
_atom_site_label
_atom_site_fract_x
_atom_site_fract_y
_atom_site_fract_z
Si Si1 0.281715 0.586694 0.484605
Si Si2 0.466095 0.217744 0.965250
Si Si3 0.855476 0.579176 0.691450
Si Si4 0.994160 0.873686 0.450625
Si Si5 0.731235 0.114400 0.646183
Si Si6 0.414663 0.027616 0.325153
Si Si7 0.639969 0.508879 0.808387
Si Si8 0.097777 0.178682 0.152023
O O1 0.415426 0.675689 0.537590
O O2 0.176651 0.529099 0.348810
O O3 0.442884 0.515415 0.626682
O O4 0.096152 0.622178 0.427815
O O5 0.375896 0.133490 0.962179
O O6 0.252362 0.277251 0.812253
O O7 0.638464 0.284714 0.113749
O O8 0.934172 0.587694 0.828411
O O9 0.023656 0.625090 0.734509
O O10 0.999277 0.762173 0.459148
O O11 0.234773 0.910520 0.621805
O O12 0.815286 0.909398 0.402144
O O13 0.591379 0.071401 0.490801
O O14 0.727142 0.050400 0.718851
O O15 0.539641 0.979693 0.331804
O O16 0.244577 0.107051 0.191967
#
# Coordination Sequence:
#
# PCOD8125610 Si02
#       8
#     4   4   4   4   4   4   4   4
#     4  12  23  38  67  96 131 167 216 269 324 385
#     4  10  21  36  65  92 128 166 219 260 320 383
#     4  11  20  40  65  97 123 168 219 268 312 390
#     4  10  22  41  67  95 126 175 219 258 324 397
#     4  10  20  40  64  96 121 169 214 265 323 384
#     4  10  21  39  67  90 127 165 214 271 321 386
#     4  11  23  39  64  93 130 171 216 269 325 378
#     4  10  21  39  63  96 119 176 221 255 316 402
#
# _framework density 20.945174000000002
#
# number of rings (size 3 to 8) (size 9 to 14) (size 15 to 20)
#    0.000    1.500    5.000    1.875    1.750    0.500 
#    0.000    2.500    0.000    0.000    0.000    0.000 
#    0.000    0.000    0.000    0.000    0.000    0.000 
#
# Total GULP energy -396709.281947 kJ/mol
# GULP energy per Si atom -12397.165061 kJ/mol
# Density = 2.089750 g / cm^3
# Si number density = 20.945174 Si / 1000 Ang^3
#
#
#
# Elastic Constant Matrix: (Units=GPa)
#
#
# Indices 1 2 3 4 5 6 
#
# 1 122.1346 49.8231 28.8425 0.0000 28.6412 0.0000
# 2 49.8231 124.5037 41.8017 0.0000 5.7244 0.0000
# 3 28.8425 41.8017 67.8162 0.0000 17.8678 0.0000
# 4 0.0000 0.0000 0.0000 41.9635 0.0000 6.2529
# 5 28.6412 5.7244 17.8678 0.0000 30.6097 0.0000
# 6 0.0000 0.0000 0.0000 6.2529 0.0000 30.7697
#
#
#
# Elastic Compliance Matrix: (Units=1/GPa)
#
#
# Indices 1 2 3 4 5 6 
#
# 1 0.012618 -0.004696 0.000481 0.000000 -0.011210 0.000000
# 2 -0.004696 0.011987 -0.007042 0.000000 0.006262 0.000000
# 3 0.000481 -0.007042 0.022044 0.000000 -0.012001 0.000000
# 4 0.000000 0.000000 0.000000 0.024574 0.000000 -0.004994
# 5 -0.011210 0.006262 -0.012001 0.000000 0.048992 0.000000
# 6 0.000000 0.000000 0.000000 -0.004994 0.000000 0.033514
#
#
# Mechanical properties :
#
#
# Convention : Reuss Voigt Hill
#
# Bulk Modulus (GPa) = 41.43096 61.70990 51.57043
# Shear Modulus (GPa) = 27.13143 33.60105 30.36624
#
# Velocity S-wave (km/s) = 3.60301 4.00964 3.81175
# Velocity P-wave (km/s) = 6.09364 7.13883 6.63684
#
# Compressibility (1/GPa) = 0.02413654
#
# Stress axis : x y z
#
# Youngs Moduli (GPa) = 79.25019 83.42152 45.36474
#
# Poissons Ratio (x) = 0.39172 -0.02183
# Poissons Ratio (y) = 0.37213 0.31945
# Poissons Ratio (z) = -0.03814 0.58744
#
# Static dielectric constant tensor:
#      x y z
#    x 3.700620 0.000000 0.371560 
#    y 0.000000 4.091120 0.000000 
#    z 0.371560 0.000000 3.739230 
# 
# 
# High freq. dielectric constant tensor:
#      x y z
#    x 1.812510 0.000000 0.038590 
#    y 0.000000 1.823480 0.000000 
#    z 0.038590 0.000000 1.803200 
# 
# From -- ./inp_files/57954.got.cif
#   From: 2010.03.12/outbox.cif.g09.slc.cpg/sg14_29_cif.got.tgz:57954.got - 2010.03.31 13:35:05.
