data_PCOD8125135
_publ_section_title
;
Structure prediction by ZEFSAII (Michael W. Deem and Ramdas Pophale) SiO2 
 PCOD8125135
Probable space group: P 21/C
;
_chemical_formula_sum "Si O2"
_cell_formula_units_Z 20
_cell_length_a 12.266440
_cell_length_b 8.121111
_cell_length_c 17.830857
_cell_angle_alpha 90.000000
_cell_angle_beta 30.603059
_cell_angle_gamma 90.000000
_cell_volume 904.270837
_symmetry_space_group_name_H-M "P 21/C"
_symmetry_group_IT_number 14
_symmetry_cell_setting 'monoclinic'
loop_
_space_group_symop_operation_xyz
x,y,z
-x,1/2+y,1/2-z
-x,-y,-z
x,1/2-y,1/2+z
loop_
_atom_site_type_symbol
_atom_site_label
_atom_site_fract_x
_atom_site_fract_y
_atom_site_fract_z
Si Si1 0.803446 0.479104 0.209424
Si Si2 0.205831 0.806178 0.432784
Si Si3 0.123998 0.751126 0.202452
Si Si4 0.524544 0.797050 0.368261
Si Si5 0.055035 0.433726 0.326559
O O1 0.759688 0.329335 0.176526
O O2 0.804907 0.408163 0.291841
O O3 0.614668 0.611686 0.314565
O O4 0.035115 0.557505 0.059389
O O5 0.431269 0.837161 0.341041
O O6 0.116820 0.623522 0.508156
O O7 0.007430 0.617218 0.325031
O O8 0.960197 0.805927 0.234250
O O9 0.337256 0.676786 0.039469
O O10 0.708601 0.927691 0.278338
#
# Coordination Sequence:
#
# PCOD8125135 Si02
#       5
#     4   4   4   4   4
#     4  10  21  38  59  82 116 151 186 237 285 338
#     4   9  21  40  57  82 116 151 189 232 285 341
#     4  11  21  36  58  84 114 149 191 237 288 338
#     4  10  20  37  58  84 114 147 191 236 284 340
#     4  10  21  37  58  83 115 150 190 237 283 341
#
# _framework density 22.117266999999998
#
# number of rings (size 3 to 8) (size 9 to 14) (size 15 to 20)
#    0.000    2.000    0.000    4.800    0.000    4.000 
#    0.000   14.000    0.000    0.000    0.000    0.000 
#    0.000    0.000    0.000    0.000    0.000    0.000 
#
# Total GULP energy -247990.253936 kJ/mol
# GULP energy per Si atom -12399.512697 kJ/mol
# Density = 2.206693 g / cm^3
# Si number density = 22.117267 Si / 1000 Ang^3
#
#
#
# Elastic Constant Matrix: (Units=GPa)
#
#
# Indices 1 2 3 4 5 6 
#
# 1 98.8996 4.2787 24.9549 0.0000 -26.7283 0.0000
# 2 4.2787 67.3402 -0.9340 0.0000 -3.0726 0.0000
# 3 24.9549 -0.9340 32.6156 0.0000 -9.3617 0.0000
# 4 0.0000 0.0000 0.0000 28.6611 0.0000 9.8748
# 5 -26.7283 -3.0726 -9.3617 0.0000 38.0176 0.0000
# 6 0.0000 0.0000 0.0000 9.8748 0.0000 39.3440
#
#
#
# Elastic Compliance Matrix: (Units=1/GPa)
#
#
# Indices 1 2 3 4 5 6 
#
# 1 0.014530 -0.000682 -0.008846 0.000000 0.007982 0.000000
# 2 -0.000682 0.014958 0.001248 0.000000 0.001037 0.000000
# 3 -0.008846 0.001248 0.038424 0.000000 0.003344 0.000000
# 4 0.000000 0.000000 0.000000 0.038193 0.000000 -0.009586
# 5 0.007982 0.001037 0.003344 0.000000 0.032823 0.000000
# 6 0.000000 0.000000 0.000000 -0.009586 0.000000 0.027823
#
#
# Mechanical properties :
#
#
# Convention : Reuss Voigt Hill
#
# Bulk Modulus (GPa) = 19.47348 28.38384 23.92866
# Shear Modulus (GPa) = 24.94677 32.57493 28.76085
#
# Velocity S-wave (km/s) = 3.36211 3.84191 3.60999
# Velocity P-wave (km/s) = 4.88830 5.70452 5.31211
#
# Compressibility (1/GPa) = 0.05135190
#
# Stress axis : x y z
#
# Youngs Moduli (GPa) = 68.82360 66.85435 26.02567
#
# Poissons Ratio (x) = 0.04557 0.23021
# Poissons Ratio (y) = 0.04692 -0.03247
# Poissons Ratio (z) = 0.60878 -0.08340
#
# Static dielectric constant tensor:
#      x y z
#    x 4.268270 0.000000 0.041370 
#    y 0.000000 3.791260 0.000000 
#    z 0.041370 0.000000 3.748640 
# 
# 
# High freq. dielectric constant tensor:
#      x y z
#    x 1.893050 0.000000 -0.003450 
#    y 0.000000 1.855460 0.000000 
#    z -0.003450 0.000000 1.844860 
# 
# From -- ./inp_files/27732.got.cif
#   From: 2010.03.12/outbox.cif.g09.slc.cpg/sg14_14_cif.got.tgz:27732.got - 2010.03.31 13:35:05.
