data_PCOD8125011
_publ_section_title
;
Structure prediction by ZEFSAII (Michael W. Deem and Ramdas Pophale) SiO2 
 PCOD8125011
Probable space group: P 21/C
;
_chemical_formula_sum "Si O2"
_cell_formula_units_Z 32
_cell_length_a 5.092279
_cell_length_b 18.919284
_cell_length_c 15.729629
_cell_angle_alpha 90.000000
_cell_angle_beta 94.288647
_cell_angle_gamma 90.000000
_cell_volume 1511.184962
_symmetry_space_group_name_H-M "P 21/C"
_symmetry_group_IT_number 14
_symmetry_cell_setting 'monoclinic'
loop_
_space_group_symop_operation_xyz
x,y,z
-x,1/2+y,1/2-z
-x,-y,-z
x,1/2-y,1/2+z
loop_
_atom_site_type_symbol
_atom_site_label
_atom_site_fract_x
_atom_site_fract_y
_atom_site_fract_z
Si Si1 0.766557 0.814601 0.095394
Si Si2 0.267266 0.734626 0.042516
Si Si3 0.226525 0.503845 0.257093
Si Si4 0.608285 0.852118 0.271463
Si Si5 0.365243 0.579039 0.105439
Si Si6 0.137020 0.659090 0.877715
Si Si7 0.870355 0.004141 0.599298
Si Si8 0.764659 0.978554 0.053556
O O1 0.538553 0.776692 0.036707
O O2 0.681084 0.805613 0.191363
O O3 0.783078 0.895526 0.069246
O O4 0.050130 0.778825 0.088870
O O5 0.322161 0.661270 0.091396
O O6 0.168815 0.722157 0.944860
O O7 0.409982 0.434504 0.252826
O O8 0.366247 0.567582 0.208405
O O9 0.199942 0.520940 0.356368
O O10 0.943908 0.490369 0.203119
O O11 0.326894 0.827761 0.301603
O O12 0.831888 0.840457 0.346945
O O13 0.639543 0.551507 0.074424
O O14 0.132964 0.528166 0.058633
O O15 0.211584 0.584626 0.927135
O O16 0.500000 0.000000 0.000000
O O17 0.000000 0.000000 0.000000
#
# Coordination Sequence:
#
# PCOD8125011 Si02
#       8
#     4   4   4   4   4   4   4   4
#     4  11  25  46  63  87 130 172 214 250 324 396
#     4  12  25  40  62  93 140 169 197 260 324 392
#     4   8  20  36  62  88 123 145 208 264 307 369
#     4  10  20  40  66  85 112 169 218 258 302 376
#     4  10  20  36  58  90 127 164 200 239 320 368
#     4  11  20  37  62  96 121 160 219 259 304 361
#     4   9  18  34  59  88 124 160 207 251 298 361
#     4  11  24  41  70  94 112 154 219 283 324 343
#
# _framework density 21.175433999999999
#
# number of rings (size 3 to 8) (size 9 to 14) (size 15 to 20)
#    0.750    1.000    1.250    3.000    1.750    3.000 
#    0.000    7.500    0.000    0.000    0.000    0.000 
#    0.000    0.000    0.000    0.000    0.000    0.000 
#
# Total GULP energy -396739.064828 kJ/mol
# GULP energy per Si atom -12398.095776 kJ/mol
# Density = 2.112724 g / cm^3
# Si number density = 21.175434 Si / 1000 Ang^3
#
#
#
# Elastic Constant Matrix: (Units=GPa)
#
#
# Indices 1 2 3 4 5 6 
#
# 1 109.8393 26.2538 -2.5424 0.0000 -10.3673 0.0000
# 2 26.2538 85.5719 18.8761 0.0000 -3.5542 0.0000
# 3 -2.5424 18.8761 50.5493 0.0000 -16.9148 0.0000
# 4 0.0000 0.0000 0.0000 23.4883 0.0000 0.1986
# 5 -10.3673 -3.5542 -16.9148 0.0000 30.9169 0.0000
# 6 0.0000 0.0000 0.0000 0.1986 0.0000 38.5978
#
#
#
# Elastic Compliance Matrix: (Units=1/GPa)
#
#
# Indices 1 2 3 4 5 6 
#
# 1 0.010594 -0.003850 0.003686 0.000000 0.005126 0.000000
# 2 -0.003850 0.014184 -0.006581 0.000000 -0.003261 0.000000
# 3 0.003686 -0.006581 0.027648 0.000000 0.015606 0.000000
# 4 0.000000 0.000000 0.000000 0.042576 0.000000 -0.000219
# 5 0.005126 -0.003261 0.015606 0.000000 0.042227 0.000000
# 6 0.000000 0.000000 0.000000 -0.000219 0.000000 0.025909
#
#
# Mechanical properties :
#
#
# Convention : Reuss Voigt Hill
#
# Bulk Modulus (GPa) = 25.68485 36.79282 31.23883
# Shear Modulus (GPa) = 26.37039 32.15881 29.26460
#
# Velocity S-wave (km/s) = 3.53275 3.90126 3.72157
# Velocity P-wave (km/s) = 5.36622 6.14053 5.76638
#
# Compressibility (1/GPa) = 0.03893346
#
# Stress axis : x y z
#
# Youngs Moduli (GPa) = 94.39581 70.50345 36.16950
#
# Poissons Ratio (x) = 0.27146 -0.13332
# Poissons Ratio (y) = 0.36346 0.23805
# Poissons Ratio (z) = -0.34794 0.46401
#
# Static dielectric constant tensor:
#      x y z
#    x 3.760450 0.000000 0.030060 
#    y 0.000000 3.646590 0.000000 
#    z 0.030060 0.000000 3.971090 
# 
# 
# High freq. dielectric constant tensor:
#      x y z
#    x 1.839840 0.000000 -0.000030 
#    y 0.000000 1.806960 0.000000 
#    z -0.000030 0.000000 1.837200 
# 
# From -- ./inp_files/37706.got.cif
#   From: 2010.03.12/outbox.cif.g09.slc.cpg/sg14_19_cif.got.tgz:37706.got - 2010.03.31 13:35:05.
