data_PCOD8125265
_publ_section_title
;
Structure prediction by ZEFSAII (Michael W. Deem and Ramdas Pophale) SiO2 
 PCOD8125265
Probable space group: P 21/C
;
_chemical_formula_sum "Si O2"
_cell_formula_units_Z 32
_cell_length_a 15.044683
_cell_length_b 10.009017
_cell_length_c 10.192548
_cell_angle_alpha 90.000000
_cell_angle_beta 95.000047
_cell_angle_gamma 90.000000
_cell_volume 1528.978676
_symmetry_space_group_name_H-M "P 21/C"
_symmetry_group_IT_number 14
_symmetry_cell_setting 'monoclinic'
loop_
_space_group_symop_operation_xyz
x,y,z
-x,1/2+y,1/2-z
-x,-y,-z
x,1/2-y,1/2+z
loop_
_atom_site_type_symbol
_atom_site_label
_atom_site_fract_x
_atom_site_fract_y
_atom_site_fract_z
Si Si1 0.543389 0.056262 0.665794
Si Si2 0.255941 0.391808 0.149618
Si Si3 0.666451 0.206201 0.085099
Si Si4 0.228587 0.807155 0.641922
Si Si5 0.607586 0.665064 0.021606
Si Si6 0.972030 0.167952 0.364964
Si Si7 0.413788 0.071116 0.866930
Si Si8 0.943246 0.857355 0.343767
O O1 0.601797 0.175843 0.618269
O O2 0.447950 0.064134 0.579362
O O3 0.511252 0.064295 0.811582
O O4 0.596960 0.915236 0.658338
O O5 0.242190 0.542079 0.099867
O O6 0.329569 0.374730 0.272455
O O7 0.162505 0.330063 0.183619
O O8 0.291985 0.322243 0.021173
O O9 0.744474 0.207273 0.202913
O O10 0.609891 0.070419 0.073856
O O11 0.710503 0.218545 0.947058
O O12 0.124932 0.770300 0.615540
O O13 0.569261 0.814625 0.022622
O O14 0.012166 0.258795 0.254995
O O15 0.029091 0.180717 0.504847
O O16 0.967172 0.012843 0.317050
#
# Coordination Sequence:
#
# PCOD8125265 Si02
#       8
#     4   4   4   4   4   4   4   4
#     4  10  21  37  60  79 115 166 193 236 305 353
#     4   9  20  39  58  82 122 164 187 241 307 361
#     4  11  22  39  62  85 117 160 201 242 295 351
#     4  10  21  41  62  85 120 159 199 243 299 359
#     4  10  20  38  57  80 119 155 199 238 300 349
#     4  10  22  42  64  93 123 160 204 255 305 369
#     4  10  22  36  56  87 119 148 204 253 284 344
#     4  10  22  40  66  91 124 161 204 249 310 368
#
# _framework density 20.929002000000001
#
# number of rings (size 3 to 8) (size 9 to 14) (size 15 to 20)
#    0.000    2.000    1.250    1.500    5.250    1.000 
#    6.750    0.000    0.000    0.000    0.000    0.000 
#    0.000    0.000    0.000    0.000    0.000    0.000 
#
# Total GULP energy -396574.658443 kJ/mol
# GULP energy per Si atom -12392.958076 kJ/mol
# Density = 2.088137 g / cm^3
# Si number density = 20.929002 Si / 1000 Ang^3
#
#
#
# Elastic Constant Matrix: (Units=GPa)
#
#
# Indices 1 2 3 4 5 6 
#
# 1 96.0932 36.8469 26.4611 0.0000 -25.1226 0.0000
# 2 36.8469 111.7020 36.9588 0.0000 -23.1359 0.0000
# 3 26.4611 36.9588 75.3111 0.0000 -24.0395 0.0000
# 4 0.0000 0.0000 0.0000 33.9078 0.0000 -8.0852
# 5 -25.1226 -23.1359 -24.0395 0.0000 36.4214 0.0000
# 6 0.0000 0.0000 0.0000 -8.0852 0.0000 27.9928
#
#
#
# Elastic Compliance Matrix: (Units=1/GPa)
#
#
# Indices 1 2 3 4 5 6 
#
# 1 0.013556 -0.002630 -0.001293 0.000000 0.006826 0.000000
# 2 -0.002630 0.011734 -0.003844 0.000000 0.003103 0.000000
# 3 -0.001293 -0.003844 0.018440 0.000000 0.008837 0.000000
# 4 0.000000 0.000000 0.000000 0.031673 0.000000 0.009148
# 5 0.006826 0.003103 0.008837 0.000000 0.039969 0.000000
# 6 0.000000 0.000000 0.000000 0.009148 0.000000 0.038366
#
#
# Mechanical properties :
#
#
# Convention : Reuss Voigt Hill
#
# Bulk Modulus (GPa) = 35.46682 53.73776 44.60229
# Shear Modulus (GPa) = 27.98437 31.85371 29.91904
#
# Velocity S-wave (km/s) = 3.66062 3.90550 3.78504
# Velocity P-wave (km/s) = 5.90338 6.78743 6.36078
#
# Compressibility (1/GPa) = 0.02819537
#
# Stress axis : x y z
#
# Youngs Moduli (GPa) = 73.76932 85.21892 54.22970
#
# Poissons Ratio (x) = 0.22411 0.07014
# Poissons Ratio (y) = 0.19400 0.20847
# Poissons Ratio (z) = 0.09541 0.32761
#
# Static dielectric constant tensor:
#      x y z
#    x 4.190250 0.000000 -0.108740 
#    y 0.000000 3.719860 0.000000 
#    z -0.108740 0.000000 3.769470 
# 
# 
# High freq. dielectric constant tensor:
#      x y z
#    x 1.826440 0.000000 -0.010470 
#    y 0.000000 1.815760 0.000000 
#    z -0.010470 0.000000 1.813680 
# 
# From -- ./inp_files/31820.got.cif
#   From: 2010.03.12/outbox.cif.g09.slc.cpg/sg14_16_cif.got.tgz:31820.got - 2010.03.31 13:35:05.
