data_PCOD8125244
_publ_section_title
;
Structure prediction by ZEFSAII (Michael W. Deem and Ramdas Pophale) SiO2 
 PCOD8125244
Probable space group: P 21/C
;
_chemical_formula_sum "Si O2"
_cell_formula_units_Z 20
_cell_length_a 11.261296
_cell_length_b 4.672169
_cell_length_c 16.821074
_cell_angle_alpha 90.000000
_cell_angle_beta 67.126800
_cell_angle_gamma 90.000000
_cell_volume 815.442686
_symmetry_space_group_name_H-M "P 21/C"
_symmetry_group_IT_number 14
_symmetry_cell_setting 'monoclinic'
loop_
_space_group_symop_operation_xyz
x,y,z
-x,1/2+y,1/2-z
-x,-y,-z
x,1/2-y,1/2+z
loop_
_atom_site_type_symbol
_atom_site_label
_atom_site_fract_x
_atom_site_fract_y
_atom_site_fract_z
Si Si1 0.874474 0.383275 0.076854
Si Si2 0.280513 0.261769 0.616406
Si Si3 0.274132 0.347259 0.444890
Si Si4 0.546022 0.278560 0.921612
Si Si5 0.073155 0.628020 0.759859
O O1 0.790175 0.157843 0.047894
O O2 0.909673 0.266599 0.154634
O O3 0.782247 0.656066 0.111621
O O4 0.000000 0.500000 0.000000
O O5 0.223452 0.209139 0.542631
O O6 0.395684 0.483010 0.560528
O O7 0.188207 0.432461 0.698907
O O8 0.336401 0.975300 0.646754
O O9 0.429632 0.317618 0.393645
O O10 0.500000 0.500000 0.000000
O O11 0.945526 0.420596 0.786569
#
# Coordination Sequence:
#
# PCOD8125244 Si02
#       5
#     4   4   4   4   4
#     4  12  24  40  62  92 124 162 206 257 314 369
#     4  11  21  39  65  93 123 163 208 253 304 373
#     4  11  21  39  63  91 123 160 205 256 303 366
#     4  10  20  37  64  94 122 161 207 251 305 372
#     4  12  25  43  63  90 125 166 210 261 317 376
#
# _framework density 24.526554000000001
#
# number of rings (size 3 to 8) (size 9 to 14) (size 15 to 20)
#    0.000    0.800    0.000   11.400    0.000    0.000 
#    0.000    4.000    0.000    2.400    0.000    0.000 
#    0.000    0.000    0.000    0.000    0.000    0.000 
#
# Total GULP energy -247767.103917 kJ/mol
# GULP energy per Si atom -12388.355196 kJ/mol
# Density = 2.447073 g / cm^3
# Si number density = 24.526554 Si / 1000 Ang^3
#
#
#
# Elastic Constant Matrix: (Units=GPa)
#
#
# Indices 1 2 3 4 5 6 
#
# 1 103.1450 27.8054 13.8273 0.0000 18.7746 0.0000
# 2 27.8054 138.2957 -5.0931 0.0000 19.9258 0.0000
# 3 13.8273 -5.0931 65.7935 0.0000 20.3042 0.0000
# 4 0.0000 0.0000 0.0000 26.3774 0.0000 3.7300
# 5 18.7746 19.9258 20.3042 0.0000 17.7440 0.0000
# 6 0.0000 0.0000 0.0000 3.7300 0.0000 66.3302
#
#
#
# Elastic Compliance Matrix: (Units=1/GPa)
#
#
# Indices 1 2 3 4 5 6 
#
# 1 0.012214 -0.000213 0.002057 0.000000 -0.015038 0.000000
# 2 -0.000213 0.010246 0.006677 0.000000 -0.018920 0.000000
# 3 0.002057 0.006677 0.028242 0.000000 -0.041992 0.000000
# 4 0.000000 0.000000 0.000000 0.038215 0.000000 -0.002149
# 5 -0.015038 -0.018920 -0.041992 0.000000 0.141565 0.000000
# 6 0.000000 0.000000 0.000000 -0.002149 0.000000 0.015197
#
#
# Mechanical properties :
#
#
# Convention : Reuss Voigt Hill
#
# Bulk Modulus (GPa) = 14.76149 42.25705 28.50927
# Shear Modulus (GPa) = 19.90296 40.13663 30.01979
#
# Velocity S-wave (km/s) = 2.85175 4.04970 3.50233
# Velocity P-wave (km/s) = 4.10791 6.25566 5.29189
#
# Compressibility (1/GPa) = 0.06774383
#
# Stress axis : x y z
#
# Youngs Moduli (GPa) = 81.87290 97.60261 35.40784
#
# Poissons Ratio (x) = 0.02081 -0.07285
# Poissons Ratio (y) = 0.01746 -0.23641
# Poissons Ratio (z) = -0.16845 -0.65166
#
# Static dielectric constant tensor:
#      x y z
#    x 5.447990 0.000000 -0.168240 
#    y 0.000000 5.061100 0.000000 
#    z -0.168240 0.000000 4.067070 
# 
# 
# High freq. dielectric constant tensor:
#      x y z
#    x 2.003730 0.000000 -0.016230 
#    y 0.000000 2.008410 0.000000 
#    z -0.016230 0.000000 1.924470 
# 
# From -- ./inp_files/53981.got.cif
#   From: 2010.03.12/outbox.cif.g09.slc.cpg/sg14_27_cif.got.tgz:53981.got - 2010.03.31 13:35:05.
