data_PCOD8125221
_publ_section_title
;
Structure prediction by ZEFSAII (Michael W. Deem and Ramdas Pophale) SiO2 
 PCOD8125221
Probable space group: P 21/C
;
_chemical_formula_sum "Si O2"
_cell_formula_units_Z 32
_cell_length_a 6.126139
_cell_length_b 20.456964
_cell_length_c 12.422782
_cell_angle_alpha 90.000000
_cell_angle_beta 97.481013
_cell_angle_gamma 90.000000
_cell_volume 1543.598617
_symmetry_space_group_name_H-M "P 21/C"
_symmetry_group_IT_number 14
_symmetry_cell_setting 'monoclinic'
loop_
_space_group_symop_operation_xyz
x,y,z
-x,1/2+y,1/2-z
-x,-y,-z
x,1/2-y,1/2+z
loop_
_atom_site_type_symbol
_atom_site_label
_atom_site_fract_x
_atom_site_fract_y
_atom_site_fract_z
Si Si1 0.786397 0.276126 0.568993
Si Si2 0.435384 0.540642 0.828590
Si Si3 0.468690 0.683325 0.817768
Si Si4 0.037209 0.106208 0.015234
Si Si5 0.361288 0.194494 0.907641
Si Si6 0.858712 0.690945 0.011051
Si Si7 0.192567 0.044950 0.479488
Si Si8 0.671391 0.489424 0.414400
O O1 0.705618 0.242857 0.675862
O O2 0.573839 0.304131 0.496302
O O3 0.955164 0.337034 0.593196
O O4 0.903825 0.218222 0.509508
O O5 0.341064 0.614782 0.833996
O O6 0.296252 0.485350 0.879100
O O7 0.461350 0.520718 0.705116
O O8 0.667223 0.544480 0.902795
O O9 0.556654 0.678549 0.704303
O O10 0.681843 0.694916 0.904375
O O11 0.173629 0.052756 0.090506
O O12 0.194392 0.137589 0.934627
O O13 0.825411 0.073410 0.945057
O O14 0.234607 0.263834 0.898788
O O15 0.887263 0.617607 0.056181
O O16 0.000000 0.000000 0.500000
O O17 0.500000 0.500000 0.500000
#
# Coordination Sequence:
#
# PCOD8125221 Si02
#       8
#     4   4   4   4   4   4   4   4
#     4  10  20  38  60  87 120 156 201 256 306 364
#     4  10  22  39  62  89 121 162 206 252 306 364
#     4  10  20  37  63  85 113 162 206 250 305 366
#     4  10  22  39  62  90 129 158 205 254 307 375
#     4  10  21  40  61  86 122 159 203 254 306 366
#     4   9  21  38  57  86 120 153 203 253 305 364
#     4  10  21  40  62  87 122 160 207 257 303 367
#     4  11  23  41  64  92 128 166 205 255 312 372
#
# _framework density 20.730779999999999
#
# number of rings (size 3 to 8) (size 9 to 14) (size 15 to 20)
#    0.000    2.000    0.000    3.000    0.000    8.000 
#   11.250    0.000    0.000    0.000    0.000    0.000 
#    0.000    0.000    0.000    0.000    0.000    0.000 
#
# Total GULP energy -396588.966714 kJ/mol
# GULP energy per Si atom -12393.405210 kJ/mol
# Density = 2.068360 g / cm^3
# Si number density = 20.730780 Si / 1000 Ang^3
#
#
#
# Elastic Constant Matrix: (Units=GPa)
#
#
# Indices 1 2 3 4 5 6 
#
# 1 90.1879 58.0480 28.6980 0.0000 -18.4289 0.0000
# 2 58.0480 168.0691 44.0765 0.0000 -15.8489 0.0000
# 3 28.6980 44.0765 97.6892 0.0000 -6.4847 0.0000
# 4 0.0000 0.0000 0.0000 20.6244 0.0000 -4.6421
# 5 -18.4289 -15.8489 -6.4847 0.0000 14.7149 0.0000
# 6 0.0000 0.0000 0.0000 -4.6421 0.0000 47.5396
#
#
#
# Elastic Compliance Matrix: (Units=1/GPa)
#
#
# Indices 1 2 3 4 5 6 
#
# 1 0.017863 -0.003946 -0.002332 0.000000 0.017093 0.000000
# 2 -0.003946 0.008198 -0.002350 0.000000 0.002852 0.000000
# 3 -0.002332 -0.002350 0.011970 0.000000 -0.000177 0.000000
# 4 0.000000 0.000000 0.000000 0.049576 0.000000 0.004841
# 5 0.017093 0.002852 -0.000177 0.000000 0.092360 0.000000
# 6 0.000000 0.000000 0.000000 0.004841 0.000000 0.021508
#
#
# Mechanical properties :
#
#
# Convention : Reuss Voigt Hill
#
# Bulk Modulus (GPa) = 48.13760 68.62125 58.37943
# Shear Modulus (GPa) = 22.15754 31.58402 26.87078
#
# Velocity S-wave (km/s) = 3.27283 3.90748 3.60415
# Velocity P-wave (km/s) = 6.12802 7.31648 6.74846
#
# Compressibility (1/GPa) = 0.02077378
#
# Stress axis : x y z
#
# Youngs Moduli (GPa) = 55.98262 121.97891 83.53897
#
# Poissons Ratio (x) = 0.48131 0.19485
# Poissons Ratio (y) = 0.22090 0.19635
# Poissons Ratio (z) = 0.13058 0.28670
#
# Static dielectric constant tensor:
#      x y z
#    x 3.830000 0.000000 -0.000410 
#    y 0.000000 3.749600 0.000000 
#    z -0.000410 0.000000 3.137040 
# 
# 
# High freq. dielectric constant tensor:
#      x y z
#    x 1.816860 0.000000 -0.008090 
#    y 0.000000 1.837610 0.000000 
#    z -0.008090 0.000000 1.782180 
# 
# From -- ./inp_files/21790.got.cif
#   From: 2010.03.12/outbox.cif.g09.slc.cpg/sg14_11_cif.got.tgz:21790.got - 2010.03.31 13:35:05.
