data_PCOD8125609
_publ_section_title
;
Structure prediction by ZEFSAII (Michael W. Deem and Ramdas Pophale) SiO2 
 PCOD8125609
Probable space group: P 21/C
;
_chemical_formula_sum "Si O2"
_cell_formula_units_Z 24
_cell_length_a 22.444459
_cell_length_b 11.265145
_cell_length_c 15.711731
_cell_angle_alpha 90.000000
_cell_angle_beta 163.302061
_cell_angle_gamma 90.000000
_cell_volume 1141.418714
_symmetry_space_group_name_H-M "P 21/C"
_symmetry_group_IT_number 14
_symmetry_cell_setting 'monoclinic'
loop_
_space_group_symop_operation_xyz
x,y,z
-x,1/2+y,1/2-z
-x,-y,-z
x,1/2-y,1/2+z
loop_
_atom_site_type_symbol
_atom_site_label
_atom_site_fract_x
_atom_site_fract_y
_atom_site_fract_z
Si Si1 0.366194 0.588967 0.370795
Si Si2 0.072651 0.463820 0.303234
Si Si3 0.919524 0.931558 0.763528
Si Si4 0.175016 0.581775 0.277994
Si Si5 0.620877 0.768647 0.794628
Si Si6 0.214770 0.649871 0.814682
O O1 0.500000 0.500000 0.500000
O O2 0.366904 0.561886 0.474616
O O3 0.488268 0.713879 0.534233
O O4 0.133837 0.596263 0.018662
O O5 0.206849 0.538781 0.418069
O O6 0.219387 0.356804 0.533066
O O7 0.016647 0.550117 0.303263
O O8 0.746091 0.829479 0.521116
O O9 0.819586 0.056646 0.656309
O O10 0.105586 0.895821 0.079864
O O11 0.116247 0.721495 0.202418
O O12 0.000000 0.500000 0.000000
O O13 0.462795 0.837132 0.641396
#
# Coordination Sequence:
#
# PCOD8125609 Si02
#       6
#     4   4   4   4   4   4
#     4  10  20  40  64  95 131 167 225 272 321 394
#     4  11  24  39  71  98 132 179 227 273 339 405
#     4  11  24  45  67  98 137 173 233 277 335 409
#     4   9  20  40  65  95 131 170 222 273 332 393
#     4  11  23  41  67  97 136 176 217 280 332 403
#     4  10  25  44  65  97 137 177 222 288 334 393
#
# _framework density 21.026465000000002
#
# number of rings (size 3 to 8) (size 9 to 14) (size 15 to 20)
#    0.000    1.667    1.667    3.000    7.000    0.667 
#    0.000    3.333    0.000    0.000    0.000    0.000 
#    0.000    0.000    0.000    0.000    0.000    0.000 
#
# Total GULP energy -297406.216267 kJ/mol
# GULP energy per Si atom -12391.925678 kJ/mol
# Density = 2.097861 g / cm^3
# Si number density = 21.026465 Si / 1000 Ang^3
#
#
#
# Elastic Constant Matrix: (Units=GPa)
#
#
# Indices 1 2 3 4 5 6 
#
# 1 133.5254 49.4294 38.9647 0.0000 8.1929 0.0000
# 2 49.4294 119.1960 44.4820 0.0000 15.1224 0.0000
# 3 38.9647 44.4820 94.6386 0.0000 16.6480 0.0000
# 4 0.0000 0.0000 0.0000 42.3567 0.0000 -0.3336
# 5 8.1929 15.1224 16.6480 0.0000 27.5052 0.0000
# 6 0.0000 0.0000 0.0000 -0.3336 0.0000 31.7165
#
#
#
# Elastic Compliance Matrix: (Units=1/GPa)
#
#
# Indices 1 2 3 4 5 6 
#
# 1 0.009294 -0.002970 -0.002497 0.000000 0.000376 0.000000
# 2 -0.002970 0.011353 -0.003549 0.000000 -0.003209 0.000000
# 3 -0.002497 -0.003549 0.014312 0.000000 -0.005968 0.000000
# 4 0.000000 0.000000 0.000000 0.023611 0.000000 0.000248
# 5 0.000376 -0.003209 -0.005968 0.000000 0.041621 0.000000
# 6 0.000000 0.000000 0.000000 0.000248 0.000000 0.031532
#
#
# Mechanical properties :
#
#
# Convention : Reuss Voigt Hill
#
# Bulk Modulus (GPa) = 59.07295 68.12359 63.59827
# Shear Modulus (GPa) = 32.17565 34.61461 33.39513
#
# Velocity S-wave (km/s) = 3.91608 4.06179 3.98960
# Velocity P-wave (km/s) = 6.97159 7.38016 7.17879
#
# Compressibility (1/GPa) = 0.01692822
#
# Stress axis : x y z
#
# Youngs Moduli (GPa) = 107.59339 88.08510 69.87058
#
# Poissons Ratio (x) = 0.26163 0.17445
# Poissons Ratio (y) = 0.31957 0.24794
# Poissons Ratio (z) = 0.26863 0.31258
#
# Static dielectric constant tensor:
#      x y z
#    x 4.121580 0.000000 0.289150 
#    y 0.000000 4.071910 0.000000 
#    z 0.289150 0.000000 4.009780 
# 
# 
# High freq. dielectric constant tensor:
#      x y z
#    x 1.817260 0.000000 0.012080 
#    y 0.000000 1.831780 0.000000 
#    z 0.012080 0.000000 1.824270 
# 
# From -- ./inp_files/50464.got.cif
#   From: 2010.03.12/outbox.cif.g09.slc.cpg/sg14_26_cif.got.tgz:50464.got - 2010.03.31 13:35:05.
