data_PCOD8125257
_publ_section_title
;
Structure prediction by ZEFSAII (Michael W. Deem and Ramdas Pophale) SiO2 
 PCOD8125257
Probable space group: P 21/C
;
_chemical_formula_sum "Si O2"
_cell_formula_units_Z 28
_cell_length_a 9.674998
_cell_length_b 18.026367
_cell_length_c 16.320311
_cell_angle_alpha 90.000000
_cell_angle_beta 28.627899
_cell_angle_gamma 90.000000
_cell_volume 1363.738822
_symmetry_space_group_name_H-M "P 21/C"
_symmetry_group_IT_number 14
_symmetry_cell_setting 'monoclinic'
loop_
_space_group_symop_operation_xyz
x,y,z
-x,1/2+y,1/2-z
-x,-y,-z
x,1/2-y,1/2+z
loop_
_atom_site_type_symbol
_atom_site_label
_atom_site_fract_x
_atom_site_fract_y
_atom_site_fract_z
Si Si1 0.325972 0.611473 0.602266
Si Si2 0.141102 0.236588 0.423402
Si Si3 0.417377 0.668216 0.732120
Si Si4 0.036723 0.359616 0.361035
Si Si5 0.509682 0.584907 0.266368
Si Si6 0.564613 0.447425 0.135151
Si Si7 0.176419 0.043898 0.242782
O O1 0.328071 0.654580 0.685766
O O2 0.655750 0.606645 0.397585
O O3 0.182300 0.531144 0.687791
O O4 0.121108 0.653120 0.643515
O O5 0.276678 0.289904 0.422499
O O6 0.162447 0.279976 0.325149
O O7 0.291392 0.157027 0.344132
O O8 0.806196 0.227411 0.615570
O O9 0.418351 0.594505 0.786623
O O10 0.299515 0.418085 0.218190
O O11 0.817029 0.392452 0.543412
O O12 0.523065 0.535228 0.176603
O O13 0.641819 0.532856 0.268642
O O14 0.849822 0.432790 0.932719
#
# Coordination Sequence:
#
# PCOD8125257 Si02
#       7
#     4   4   4   4   4   4   4
#     4  10  22  42  61  91 134 161 201 259 324 375
#     4  11  22  40  64  91 123 169 214 257 302 381
#     4  11  22  42  63  93 123 165 218 255 313 371
#     4  10  24  40  61  93 132 163 203 264 322 368
#     4  11  19  38  66  93 120 163 213 261 301 367
#     4  11  21  38  71  94 117 165 218 260 302 376
#     4  10  20  37  66  94 121 164 202 260 316 372
#
# _framework density 20.531790000000001
#
# number of rings (size 3 to 8) (size 9 to 14) (size 15 to 20)
#    0.000    1.429    4.286    1.714    0.000    0.571 
#    5.143    1.429    0.000    0.000    0.000    0.000 
#    0.000    0.000    0.000    0.000    0.000    0.000 
#
# Total GULP energy -347153.535762 kJ/mol
# GULP energy per Si atom -12398.340563 kJ/mol
# Density = 2.048506 g / cm^3
# Si number density = 20.531790 Si / 1000 Ang^3
#
#
#
# Elastic Constant Matrix: (Units=GPa)
#
#
# Indices 1 2 3 4 5 6 
#
# 1 111.4156 42.2544 18.3225 0.0000 -0.1929 0.0000
# 2 42.2544 89.7856 17.5225 0.0000 -4.7582 0.0000
# 3 18.3225 17.5225 76.9028 0.0000 -11.8543 0.0000
# 4 0.0000 0.0000 0.0000 27.8220 0.0000 -4.4309
# 5 -0.1929 -4.7582 -11.8543 0.0000 29.7302 0.0000
# 6 0.0000 0.0000 0.0000 -4.4309 0.0000 23.1101
#
#
#
# Elastic Compliance Matrix: (Units=1/GPa)
#
#
# Indices 1 2 3 4 5 6 
#
# 1 0.011149 -0.004982 -0.001740 0.000000 -0.001419 0.000000
# 2 -0.004982 0.013903 -0.001750 0.000000 0.001495 0.000000
# 3 -0.001740 -0.001750 0.014674 0.000000 0.005559 0.000000
# 4 0.000000 0.000000 0.000000 0.037075 0.000000 0.007108
# 5 -0.001419 0.001495 0.005559 0.000000 0.036083 0.000000
# 6 0.000000 0.000000 0.000000 0.007108 0.000000 0.044634
#
#
# Mechanical properties :
#
#
# Convention : Reuss Voigt Hill
#
# Bulk Modulus (GPa) = 43.89675 48.25587 46.07631
# Shear Modulus (GPa) = 27.46416 29.46610 28.46513
#
# Velocity S-wave (km/s) = 3.66134 3.79244 3.72747
# Velocity P-wave (km/s) = 6.26899 6.53688 6.40434
#
# Compressibility (1/GPa) = 0.02278073
#
# Stress axis : x y z
#
# Youngs Moduli (GPa) = 89.69737 71.92563 68.14912
#
# Poissons Ratio (x) = 0.35836 0.11856
# Poissons Ratio (y) = 0.44691 0.11929
# Poissons Ratio (z) = 0.15604 0.12590
#
# Static dielectric constant tensor:
#      x y z
#    x 3.571100 0.000000 -0.118760 
#    y 0.000000 3.632650 0.000000 
#    z -0.118760 0.000000 3.803370 
# 
# 
# High freq. dielectric constant tensor:
#      x y z
#    x 1.789640 0.000000 -0.016390 
#    y 0.000000 1.799120 0.000000 
#    z -0.016390 0.000000 1.802690 
# 
# From -- ./inp_files/9874.got.cif
#   From: 2010.03.12/outbox.cif.g09.slc.cpg/sg14_5_cif.got.tgz:9874.got - 2010.03.31 13:35:05.
