data_PCOD8125421
_publ_section_title
;
Structure prediction by ZEFSAII (Michael W. Deem and Ramdas Pophale) SiO2 
 PCOD8125421
Probable space group: P 21/C
;
_chemical_formula_sum "Si O2"
_cell_formula_units_Z 20
_cell_length_a 5.218222
_cell_length_b 10.985638
_cell_length_c 17.763244
_cell_angle_alpha 90.000000
_cell_angle_beta 54.739354
_cell_angle_gamma 90.000000
_cell_volume 831.466108
_symmetry_space_group_name_H-M "P 21/C"
_symmetry_group_IT_number 14
_symmetry_cell_setting 'monoclinic'
loop_
_space_group_symop_operation_xyz
x,y,z
-x,1/2+y,1/2-z
-x,-y,-z
x,1/2-y,1/2+z
loop_
_atom_site_type_symbol
_atom_site_label
_atom_site_fract_x
_atom_site_fract_y
_atom_site_fract_z
Si Si1 0.330866 0.593312 0.676261
Si Si2 0.864703 0.608188 0.884347
Si Si3 0.415396 0.173332 0.134229
Si Si4 0.854364 0.748532 0.665917
Si Si5 0.822221 0.371577 0.016660
O O1 0.107331 0.552707 0.783498
O O2 0.419827 0.469650 0.617070
O O3 0.154710 0.677735 0.646784
O O4 0.644023 0.658966 0.651236
O O5 0.962554 0.568591 0.953462
O O6 0.850244 0.755537 0.871224
O O7 0.511831 0.556755 0.931620
O O8 0.752658 0.232455 0.056046
O O9 0.359715 0.198277 0.232007
O O10 0.990177 0.861373 0.593898
#
# Coordination Sequence:
#
# PCOD8125421 Si02
#       5
#     4   4   4   4   4
#     4  11  21  37  61  83 114 152 188 227 285 334
#     4   9  19  39  53  81 117 149 178 242 267 333
#     4   9  23  37  60  81 119 147 188 232 284 324
#     4  11  23  38  60  86 112 152 188 230 283 337
#     4  10  20  39  57  80 123 141 185 238 279 321
#
# _framework density 24.053896000000002
#
# number of rings (size 3 to 8) (size 9 to 14) (size 15 to 20)
#    1.200    0.800    2.000    1.200    2.800    1.600 
#    0.000    2.000    0.000    0.000    0.000    0.000 
#    0.000    0.000    0.000    0.000    0.000    0.000 
#
# Total GULP energy -247924.411908 kJ/mol
# GULP energy per Si atom -12396.220595 kJ/mol
# Density = 2.399915 g / cm^3
# Si number density = 24.053896 Si / 1000 Ang^3
#
#
#
# Elastic Constant Matrix: (Units=GPa)
#
#
# Indices 1 2 3 4 5 6 
#
# 1 149.7010 2.8886 21.7090 0.0000 17.4989 0.0000
# 2 2.8886 43.9718 -10.5490 0.0000 7.8368 0.0000
# 3 21.7090 -10.5490 94.7795 0.0000 5.3255 0.0000
# 4 0.0000 0.0000 0.0000 33.0289 0.0000 1.5642
# 5 17.4989 7.8368 5.3255 0.0000 35.4379 0.0000
# 6 0.0000 0.0000 0.0000 1.5642 0.0000 30.3827
#
#
#
# Elastic Compliance Matrix: (Units=1/GPa)
#
#
# Indices 1 2 3 4 5 6 
#
# 1 0.007292 -0.000250 -0.001512 0.000000 -0.003318 0.000000
# 2 -0.000250 0.024533 0.003112 0.000000 -0.005769 0.000000
# 3 -0.001512 0.003112 0.011336 0.000000 -0.001645 0.000000
# 4 0.000000 0.000000 0.000000 0.030351 0.000000 -0.001563
# 5 -0.003318 -0.005769 -0.001645 0.000000 0.031380 0.000000
# 6 0.000000 0.000000 0.000000 -0.001563 0.000000 0.032994
#
#
# Mechanical properties :
#
#
# Convention : Reuss Voigt Hill
#
# Bulk Modulus (GPa) = 21.80495 35.17218 28.48856
# Shear Modulus (GPa) = 33.22875 38.06345 35.64610
#
# Velocity S-wave (km/s) = 3.72079 3.98228 3.85376
# Velocity P-wave (km/s) = 5.24821 5.98321 5.62772
#
# Compressibility (1/GPa) = 0.04586115
#
# Stress axis : x y z
#
# Youngs Moduli (GPa) = 137.13870 40.76123 88.21568
#
# Poissons Ratio (x) = 0.01020 0.13335
# Poissons Ratio (y) = 0.03432 -0.27453
# Poissons Ratio (z) = 0.20730 -0.12685
#
# Static dielectric constant tensor:
#      x y z
#    x 4.149930 0.000000 0.066880 
#    y 0.000000 4.110970 0.000000 
#    z 0.066880 0.000000 4.322470 
# 
# 
# High freq. dielectric constant tensor:
#      x y z
#    x 1.950550 0.000000 0.003190 
#    y 0.000000 1.958810 0.000000 
#    z 0.003190 0.000000 1.958720 
# 
# From -- ./inp_files/20821.got.cif
#   From: 2010.03.12/outbox.cif.g09.slc.cpg/sg14_11_cif.got.tgz:20821.got - 2010.03.31 13:35:05.
