data_PCOD8125284
_publ_section_title
;
Structure prediction by ZEFSAII (Michael W. Deem and Ramdas Pophale) SiO2 
 PCOD8125284
Probable space group: P 21/C
;
_chemical_formula_sum "Si O2"
_cell_formula_units_Z 32
_cell_length_a 10.973843
_cell_length_b 18.972628
_cell_length_c 9.122343
_cell_angle_alpha 90.000000
_cell_angle_beta 60.346190
_cell_angle_gamma 90.000000
_cell_volume 1650.546364
_symmetry_space_group_name_H-M "P 21/C"
_symmetry_group_IT_number 14
_symmetry_cell_setting 'monoclinic'
loop_
_space_group_symop_operation_xyz
x,y,z
-x,1/2+y,1/2-z
-x,-y,-z
x,1/2-y,1/2+z
loop_
_atom_site_type_symbol
_atom_site_label
_atom_site_fract_x
_atom_site_fract_y
_atom_site_fract_z
Si Si1 0.418771 0.962169 0.339020
Si Si2 0.519380 0.798302 0.780881
Si Si3 0.069295 0.554374 0.352670
Si Si4 0.867690 0.822348 0.875785
Si Si5 0.844085 0.681854 0.055650
Si Si6 0.124933 0.025444 0.525058
Si Si7 0.377229 0.917126 0.689734
Si Si8 0.539001 0.836823 0.097334
O O1 0.398164 0.918841 0.501812
O O2 0.465684 0.910432 0.180481
O O3 0.276896 0.001986 0.371226
O O4 0.542137 0.018446 0.283113
O O5 0.678420 0.817409 0.656483
O O6 0.429462 0.843954 0.722766
O O7 0.493545 0.717357 0.751882
O O8 0.481464 0.811029 0.973643
O O9 0.107680 0.509853 0.189364
O O10 0.214859 0.581464 0.332700
O O11 0.000000 0.500000 0.500000
O O12 0.965937 0.619108 0.387784
O O13 0.906025 0.815290 0.682302
O O14 0.903262 0.747574 0.928929
O O15 0.707017 0.845394 0.994962
O O16 0.887766 0.609601 0.950380
O O17 0.000000 0.000000 0.500000
#
# Coordination Sequence:
#
# PCOD8125284 Si02
#       8
#     4   4   4   4   4   4   4   4
#     4  10  21  38  61  88 114 162 197 241 305 349
#     4  10  20  38  59  89 118 151 200 241 295 355
#     4  11  24  39  59  92 124 158 201 252 300 354
#     4  10  22  40  61  90 120 156 206 243 297 364
#     4  10  21  40  63  88 117 161 201 242 300 356
#     4  11  22  41  64  85 123 159 201 252 299 361
#     4  10  21  38  59  84 123 154 196 245 290 363
#     4  10  21  37  64  88 116 154 194 253 290 357
#
# _framework density 19.387519000000001
#
# number of rings (size 3 to 8) (size 9 to 14) (size 15 to 20)
#    0.000    1.750    2.500    1.500    1.750    2.500 
#    2.250    1.250    0.000    0.000    0.000    0.000 
#    0.000    0.000    0.000    0.000    0.000    0.000 
#
# Total GULP energy -396829.017005 kJ/mol
# GULP energy per Si atom -12400.906781 kJ/mol
# Density = 1.934339 g / cm^3
# Si number density = 19.387519 Si / 1000 Ang^3
#
#
#
# Elastic Constant Matrix: (Units=GPa)
#
#
# Indices 1 2 3 4 5 6 
#
# 1 107.3623 48.6173 24.4402 0.0000 5.1424 0.0000
# 2 48.6173 140.2318 41.6508 0.0000 -2.6001 0.0000
# 3 24.4402 41.6508 51.6771 0.0000 1.1727 0.0000
# 4 0.0000 0.0000 0.0000 39.1375 0.0000 3.2587
# 5 5.1424 -2.6001 1.1727 0.0000 17.2109 0.0000
# 6 0.0000 0.0000 0.0000 3.2587 0.0000 35.4697
#
#
#
# Elastic Compliance Matrix: (Units=1/GPa)
#
#
# Indices 1 2 3 4 5 6 
#
# 1 0.011607 -0.003272 -0.002766 0.000000 -0.003774 0.000000
# 2 -0.003272 0.010363 -0.006873 0.000000 0.003012 0.000000
# 3 -0.002766 -0.006873 0.026244 0.000000 -0.002000 0.000000
# 4 0.000000 0.000000 0.000000 0.025748 0.000000 -0.002366
# 5 -0.003774 0.003012 -0.002000 0.000000 0.059821 0.000000
# 6 0.000000 0.000000 0.000000 -0.002366 0.000000 0.028410
#
#
# Mechanical properties :
#
#
# Convention : Reuss Voigt Hill
#
# Bulk Modulus (GPa) = 44.66178 58.74310 51.70244
# Shear Modulus (GPa) = 25.57817 30.66780 28.12299
#
# Velocity S-wave (km/s) = 3.63617 3.98154 3.81277
# Velocity P-wave (km/s) = 6.38086 7.17650 6.79034
#
# Compressibility (1/GPa) = 0.02239051
#
# Stress axis : x y z
#
# Youngs Moduli (GPa) = 86.15854 96.49992 38.10401
#
# Poissons Ratio (x) = 0.31577 0.10540
# Poissons Ratio (y) = 0.28193 0.26188
# Poissons Ratio (z) = 0.23833 0.66323
#
# Static dielectric constant tensor:
#      x y z
#    x 2.808860 0.000000 0.555480 
#    y 0.000000 3.644340 0.000000 
#    z 0.555480 0.000000 3.162750 
# 
# 
# High freq. dielectric constant tensor:
#      x y z
#    x 1.756240 0.000000 0.007270 
#    y 0.000000 1.765970 0.000000 
#    z 0.007270 0.000000 1.746720 
# 
# From -- ./inp_files/13882.got.cif
#   From: 2010.03.12/outbox.cif.g09.slc.cpg/sg14_7_cif.got.tgz:13882.got - 2010.03.31 13:35:05.
