data_PCOD8125524
_publ_section_title
;
Structure prediction by ZEFSAII (Michael W. Deem and Ramdas Pophale) SiO2 
 PCOD8125524
Probable space group: P 21/C
;
_chemical_formula_sum "Si O2"
_cell_formula_units_Z 28
_cell_length_a 26.400431
_cell_length_b 11.324823
_cell_length_c 20.745613
_cell_angle_alpha 90.000000
_cell_angle_beta 12.639097
_cell_angle_gamma 90.000000
_cell_volume 1357.169677
_symmetry_space_group_name_H-M "P 21/C"
_symmetry_group_IT_number 14
_symmetry_cell_setting 'monoclinic'
loop_
_space_group_symop_operation_xyz
x,y,z
-x,1/2+y,1/2-z
-x,-y,-z
x,1/2-y,1/2+z
loop_
_atom_site_type_symbol
_atom_site_label
_atom_site_fract_x
_atom_site_fract_y
_atom_site_fract_z
Si Si1 0.972967 0.386023 0.328716
Si Si2 0.265361 0.627464 0.252532
Si Si3 0.581932 0.817563 0.928083
Si Si4 0.821232 0.850979 0.878751
Si Si5 0.816635 0.786876 0.258773
Si Si6 0.527711 0.483069 0.825534
Si Si7 0.770191 0.507114 0.098983
O O1 0.074215 0.253757 0.206749
O O2 0.907708 0.436108 0.480873
O O3 0.739967 0.392943 0.574539
O O4 0.164067 0.468889 0.057335
O O5 0.093557 0.688587 0.413847
O O6 0.397903 0.725043 0.129752
O O7 0.442687 0.538039 0.999364
O O8 0.752658 0.757299 0.767149
O O9 0.726609 0.867797 0.688287
O O10 0.456093 0.925798 0.120313
O O11 0.747204 0.806983 0.900071
O O12 0.021215 0.947191 0.621042
O O13 0.599698 0.909938 0.188846
O O14 0.680684 0.907520 0.445461
#
# Coordination Sequence:
#
# PCOD8125524 Si02
#       7
#     4   4   4   4   4   4   4
#     4  10  20  39  65  88 121 159 207 256 305 360
#     4  11  22  42  60  94 127 156 207 260 295 383
#     4  11  22  41  64  89 125 165 209 252 315 361
#     4  10  22  42  60  93 129 154 212 260 294 378
#     4  11  23  40  60  92 126 161 206 257 299 371
#     4  11  22  40  66  90 125 169 199 253 323 351
#     4  10  21  40  64  91 120 169 208 255 311 362
#
# _framework density 20.631171999999999
#
# number of rings (size 3 to 8) (size 9 to 14) (size 15 to 20)
#    0.000    1.429    4.286    1.714    0.000    2.857 
#    5.143    0.000    0.000    0.000    0.000    0.000 
#    0.000    0.000    0.000    0.000    0.000    0.000 
#
# Total GULP energy -347157.273407 kJ/mol
# GULP energy per Si atom -12398.474050 kJ/mol
# Density = 2.058421 g / cm^3
# Si number density = 20.631172 Si / 1000 Ang^3
#
#
#
# Elastic Constant Matrix: (Units=GPa)
#
#
# Indices 1 2 3 4 5 6 
#
# 1 80.0132 32.8132 42.8764 0.0000 -7.0574 0.0000
# 2 32.8132 77.1757 31.4990 0.0000 1.4098 0.0000
# 3 42.8764 31.4990 70.1269 0.0000 4.8883 0.0000
# 4 0.0000 0.0000 0.0000 28.9388 0.0000 4.3591
# 5 -7.0574 1.4098 4.8883 0.0000 43.8764 0.0000
# 6 0.0000 0.0000 0.0000 4.3591 0.0000 33.6773
#
#
#
# Elastic Compliance Matrix: (Units=1/GPa)
#
#
# Indices 1 2 3 4 5 6 
#
# 1 0.020558 -0.004363 -0.010935 0.000000 0.004665 0.000000
# 2 -0.004363 0.016796 -0.004827 0.000000 -0.000704 0.000000
# 3 -0.010935 -0.004827 0.023408 0.000000 -0.004212 0.000000
# 4 0.000000 0.000000 0.000000 0.035243 0.000000 -0.004562
# 5 0.004665 -0.000704 -0.004212 0.000000 0.024034 0.000000
# 6 0.000000 0.000000 0.000000 -0.004562 0.000000 0.030284
#
#
# Mechanical properties :
#
#
# Convention : Reuss Voigt Hill
#
# Bulk Modulus (GPa) = 48.75547 49.07700 48.91624
# Shear Modulus (GPa) = 25.32794 29.30696 27.31745
#
# Velocity S-wave (km/s) = 3.50759 3.77307 3.64275
# Velocity P-wave (km/s) = 6.33147 6.54376 6.43849
#
# Compressibility (1/GPa) = 0.02051052
#
# Stress axis : x y z
#
# Youngs Moduli (GPa) = 48.64172 59.53917 42.72104
#
# Poissons Ratio (x) = 0.25977 0.46716
# Poissons Ratio (y) = 0.21223 0.20623
# Poissons Ratio (z) = 0.53190 0.28742
#
# Static dielectric constant tensor:
#      x y z
#    x 3.605110 0.000000 0.152000 
#    y 0.000000 3.810520 0.000000 
#    z 0.152000 0.000000 3.864410 
# 
# 
# High freq. dielectric constant tensor:
#      x y z
#    x 1.796100 0.000000 0.007070 
#    y 0.000000 1.804250 0.000000 
#    z 0.007070 0.000000 1.813700 
# 
# From -- ./inp_files/75307.got.cif
#   From: 2010.03.12/outbox.cif.g09.slc.cpg/sg14_38_cif.got.tgz:75307.got - 2010.03.31 13:35:05.
