data_PCOD8125387
_publ_section_title
;
Structure prediction by ZEFSAII (Michael W. Deem and Ramdas Pophale) SiO2 
 PCOD8125387
Probable space group: P 21/C
;
_chemical_formula_sum "Si O2"
_cell_formula_units_Z 32
_cell_length_a 27.374083
_cell_length_b 8.807529
_cell_length_c 19.051961
_cell_angle_alpha 90.000000
_cell_angle_beta 159.129714
_cell_angle_gamma 90.000000
_cell_volume 1636.411203
_symmetry_space_group_name_H-M "P 21/C"
_symmetry_group_IT_number 14
_symmetry_cell_setting 'monoclinic'
loop_
_space_group_symop_operation_xyz
x,y,z
-x,1/2+y,1/2-z
-x,-y,-z
x,1/2-y,1/2+z
loop_
_atom_site_type_symbol
_atom_site_label
_atom_site_fract_x
_atom_site_fract_y
_atom_site_fract_z
Si Si1 0.238202 0.629369 0.290257
Si Si2 0.233874 0.829138 0.083725
Si Si3 0.005927 0.154662 0.048904
Si Si4 0.120356 0.326862 0.084316
Si Si5 0.457336 0.662901 0.472777
Si Si6 0.058496 0.233819 0.760842
Si Si7 0.738178 0.821578 0.848531
Si Si8 0.160606 0.586102 0.339122
O O1 0.159161 0.502117 0.139833
O O2 0.386659 0.649754 0.454393
O O3 0.252398 0.581824 0.391319
O O4 0.148981 0.780265 0.158461
O O5 0.359028 0.735379 0.282592
O O6 0.233765 0.999376 0.114294
O O7 0.252282 0.842019 0.024141
O O8 0.094253 0.737615 0.912305
O O9 0.113958 0.263997 0.154795
O O10 0.062003 0.138236 0.203982
O O11 0.000000 0.000000 0.000000
O O12 0.230273 0.234638 0.187296
O O13 0.969363 0.305335 0.848780
O O14 0.500000 0.500000 0.500000
O O15 0.582199 0.777349 0.654751
O O16 0.098508 0.074776 0.779242
O O17 0.166389 0.268819 0.967472
#
# Coordination Sequence:
#
# PCOD8125387 Si02
#       8
#     4   4   4   4   4   4   4   4
#     4  11  21  41  64  87 130 170 217 250 318 398
#     4  11  23  41  64  94 133 160 217 273 323 381
#     4  11  21  35  61  97 127 163 203 269 325 368
#     4  11  18  37  63  93 124 160 210 255 321 382
#     4  12  25  44  65  88 128 180 217 259 321 399
#     4  11  20  39  66  96 129 158 211 274 319 377
#     4  11  25  39  65  98 128 167 215 269 327 384
#     4  10  20  38  64  95 123 166 207 266 317 374
#
# _framework density 19.554987000000001
#
# number of rings (size 3 to 8) (size 9 to 14) (size 15 to 20)
#    0.000    1.000    6.250    1.875    0.000    0.000 
#    4.500    3.750    0.000    0.000    0.000    0.000 
#    0.000    0.000    0.000    0.000    0.000    0.000 
#
# Total GULP energy -396720.769894 kJ/mol
# GULP energy per Si atom -12397.524059 kJ/mol
# Density = 1.951048 g / cm^3
# Si number density = 19.554987 Si / 1000 Ang^3
#
#
#
# Elastic Constant Matrix: (Units=GPa)
#
#
# Indices 1 2 3 4 5 6 
#
# 1 146.3023 30.8066 56.3010 0.0000 6.7576 0.0000
# 2 30.8066 79.4679 32.8133 0.0000 2.8601 0.0000
# 3 56.3010 32.8133 119.1743 0.0000 1.4596 0.0000
# 4 0.0000 0.0000 0.0000 25.2571 0.0000 -2.3701
# 5 6.7576 2.8601 1.4596 0.0000 38.2608 0.0000
# 6 0.0000 0.0000 0.0000 -2.3701 0.0000 33.5538
#
#
#
# Elastic Compliance Matrix: (Units=1/GPa)
#
#
# Indices 1 2 3 4 5 6 
#
# 1 0.008652 -0.001836 -0.003567 0.000000 -0.001255 0.000000
# 2 -0.001836 0.014620 -0.003150 0.000000 -0.000648 0.000000
# 3 -0.003567 -0.003150 0.010938 0.000000 0.000448 0.000000
# 4 0.000000 0.000000 0.000000 0.039857 0.000000 0.002815
# 5 -0.001255 -0.000648 0.000448 0.000000 0.026389 0.000000
# 6 0.000000 0.000000 0.000000 0.002815 0.000000 0.030002
#
#
# Mechanical properties :
#
#
# Convention : Reuss Voigt Hill
#
# Bulk Modulus (GPa) = 58.46549 64.97626 61.72087
# Shear Modulus (GPa) = 32.62329 34.41591 33.51960
#
# Velocity S-wave (km/s) = 4.08890 4.19973 4.14469
# Velocity P-wave (km/s) = 7.22876 7.53768 7.38484
#
# Compressibility (1/GPa) = 0.01710411
#
# Stress axis : x y z
#
# Youngs Moduli (GPa) = 115.57601 68.40170 91.42594
#
# Poissons Ratio (x) = 0.12561 0.32608
# Poissons Ratio (y) = 0.21223 0.28798
# Poissons Ratio (z) = 0.41221 0.21546
#
# Static dielectric constant tensor:
#      x y z
#    x 4.004820 0.000000 -0.103660 
#    y 0.000000 3.618510 0.000000 
#    z -0.103660 0.000000 3.459620 
# 
# 
# High freq. dielectric constant tensor:
#      x y z
#    x 1.781310 0.000000 -0.007610 
#    y 0.000000 1.759750 0.000000 
#    z -0.007610 0.000000 1.735750 
# 
# From -- ./inp_files/70722.got.cif
#   From: 2010.03.12/outbox.cif.g09.slc.cpg/sg14_36_cif.got.tgz:70722.got - 2010.03.31 13:35:05.
