data_PCOD8125455
_publ_section_title
;
Structure prediction by ZEFSAII (Michael W. Deem and Ramdas Pophale) SiO2 
 PCOD8125455
Probable space group: P 21/C
;
_chemical_formula_sum "Si O2"
_cell_formula_units_Z 16
_cell_length_a 16.718264
_cell_length_b 8.802429
_cell_length_c 8.970078
_cell_angle_alpha 90.000000
_cell_angle_beta 149.194769
_cell_angle_gamma 90.000000
_cell_volume 676.024997
_symmetry_space_group_name_H-M "P 21/C"
_symmetry_group_IT_number 14
_symmetry_cell_setting 'monoclinic'
loop_
_space_group_symop_operation_xyz
x,y,z
-x,1/2+y,1/2-z
-x,-y,-z
x,1/2-y,1/2+z
loop_
_atom_site_type_symbol
_atom_site_label
_atom_site_fract_x
_atom_site_fract_y
_atom_site_fract_z
Si Si1 0.987887 0.774930 0.600705
Si Si2 0.140357 0.908889 0.567103
Si Si3 0.417802 0.068550 0.150028
Si Si4 0.666673 0.647834 0.156679
O O1 0.843705 0.656219 0.380819
O O2 0.025557 0.816034 0.492290
O O3 0.935255 0.929726 0.598461
O O4 0.140937 0.698344 0.921657
O O5 0.310932 0.932802 0.911040
O O6 0.336734 0.133986 0.169812
O O7 0.588201 0.001467 0.457467
O O8 0.430374 0.202568 0.048871
#
# Coordination Sequence:
#
# PCOD8125455 Si02
#       4
#     4   4   4   4
#     4  10  20  39  61  87 120 155 196 243 291 346
#     4  10  22  38  60  88 119 154 197 244 291 347
#     4  10  23  41  61  87 120 156 197 243 292 349
#     4  10  21  39  62  88 121 155 196 244 292 349
#
# _framework density 23.667763000000001
#
# number of rings (size 3 to 8) (size 9 to 14) (size 15 to 20)
#    0.000    2.000    0.000    4.500    0.000    8.000 
#    0.000    7.500    0.000    0.000    0.000    0.000 
#    0.000    0.000    0.000    0.000    0.000    0.000 
#
# Total GULP energy -198370.444970 kJ/mol
# GULP energy per Si atom -12398.152811 kJ/mol
# Density = 2.361389 g / cm^3
# Si number density = 23.667763 Si / 1000 Ang^3
#
#
#
# Elastic Constant Matrix: (Units=GPa)
#
#
# Indices 1 2 3 4 5 6 
#
# 1 31.7243 22.9520 26.9220 0.0000 7.5740 0.0000
# 2 22.9520 55.6551 44.5208 0.0000 -9.9817 0.0000
# 3 26.9220 44.5208 110.4258 0.0000 -15.3248 0.0000
# 4 0.0000 0.0000 0.0000 72.1177 0.0000 -4.9184
# 5 7.5740 -9.9817 -15.3248 0.0000 20.2274 0.0000
# 6 0.0000 0.0000 0.0000 -4.9184 0.0000 40.6930
#
#
#
# Elastic Compliance Matrix: (Units=1/GPa)
#
#
# Indices 1 2 3 4 5 6 
#
# 1 0.080535 -0.031585 -0.014805 0.000000 -0.056959 0.000000
# 2 -0.031585 0.039483 -0.004328 0.000000 0.028031 0.000000
# 3 -0.014805 -0.004328 0.016632 0.000000 0.016009 0.000000
# 4 0.000000 0.000000 0.000000 0.013981 0.000000 0.001690
# 5 -0.056959 0.028031 0.016009 0.000000 0.096727 0.000000
# 6 0.000000 0.000000 0.000000 0.001690 0.000000 0.024779
#
#
# Mechanical properties :
#
#
# Convention : Reuss Voigt Hill
#
# Bulk Modulus (GPa) = 28.39744 42.95497 35.67621
# Shear Modulus (GPa) = 12.97656 33.50165 23.23910
#
# Velocity S-wave (km/s) = 2.34408 3.76639 3.13691
# Velocity P-wave (km/s) = 4.39894 6.09121 5.31289
#
# Compressibility (1/GPa) = 0.03521444
#
# Stress axis : x y z
#
# Youngs Moduli (GPa) = 12.41693 25.32765 60.12528
#
# Poissons Ratio (x) = 0.79996 0.89017
# Poissons Ratio (y) = 0.39218 0.26021
# Poissons Ratio (z) = 0.18384 0.10961
#
# Static dielectric constant tensor:
#      x y z
#    x 3.822580 0.000000 -0.127450 
#    y 0.000000 4.366850 0.000000 
#    z -0.127450 0.000000 4.285450 
# 
# 
# High freq. dielectric constant tensor:
#      x y z
#    x 1.902320 0.000000 -0.012940 
#    y 0.000000 1.940710 0.000000 
#    z -0.012940 0.000000 1.950400 
# 
# From -- ./inp_files/11491.got.cif
#   From: 2010.03.12/outbox.cif.g09.slc.cpg/sg14_6_cif.got.tgz:11491.got - 2010.03.31 13:35:05.
