data_PCOD8125143
_publ_section_title
;
Structure prediction by ZEFSAII (Michael W. Deem and Ramdas Pophale) SiO2 
 PCOD8125143
Probable space group: P 21/C
;
_chemical_formula_sum "Si O2"
_cell_formula_units_Z 20
_cell_length_a 17.769328
_cell_length_b 4.983519
_cell_length_c 13.622044
_cell_angle_alpha 90.000000
_cell_angle_beta 126.851314
_cell_angle_gamma 90.000000
_cell_volume 965.261531
_symmetry_space_group_name_H-M "P 21/C"
_symmetry_group_IT_number 14
_symmetry_cell_setting 'monoclinic'
loop_
_space_group_symop_operation_xyz
x,y,z
-x,1/2+y,1/2-z
-x,-y,-z
x,1/2-y,1/2+z
loop_
_atom_site_type_symbol
_atom_site_label
_atom_site_fract_x
_atom_site_fract_y
_atom_site_fract_z
Si Si1 0.980329 0.515824 0.868511
Si Si2 0.396560 0.950213 0.880184
Si Si3 0.323347 0.430470 0.917280
Si Si4 0.887391 0.488830 0.205353
Si Si5 0.494318 0.178204 0.688662
O O1 0.904615 0.299405 0.769677
O O2 0.075260 0.487394 0.877489
O O3 0.939717 0.808894 0.818742
O O4 0.000000 0.500000 0.000000
O O5 0.344509 0.733309 0.906206
O O6 0.413200 0.821524 0.786194
O O7 0.333245 0.222268 0.832547
O O8 0.500000 0.000000 0.000000
O O9 0.221330 0.431144 0.885823
O O10 0.399398 0.313440 0.052233
O O11 0.476405 0.369402 0.768857
#
# Coordination Sequence:
#
# PCOD8125143 Si02
#       5
#     4   4   4   4   4
#     4  10  21  42  67  92 124 161 198 247 324 374
#     4  10  20  37  59  76 115 166 195 236 297 355
#     4  11  21  39  59  86 119 159 209 241 297 363
#     4  10  22  40  65  92 127 160 198 260 304 365
#     4  11  21  36  56  84 120 158 203 250 298 342
#
# _framework density 20.719774999999998
#
# number of rings (size 3 to 8) (size 9 to 14) (size 15 to 20)
#    0.000    1.600    0.000    7.800    0.000    0.000 
#   10.800    0.000    0.000    0.000    0.000    0.000 
#    0.000    0.000    0.000    0.000    0.000    0.000 
#
# Total GULP energy -247850.726801 kJ/mol
# GULP energy per Si atom -12392.536340 kJ/mol
# Density = 2.067262 g / cm^3
# Si number density = 20.719775 Si / 1000 Ang^3
#
#
#
# Elastic Constant Matrix: (Units=GPa)
#
#
# Indices 1 2 3 4 5 6 
#
# 1 129.0982 20.9686 42.0619 0.0000 12.1336 0.0000
# 2 20.9686 91.9113 6.4191 0.0000 4.4173 0.0000
# 3 42.0619 6.4191 70.7448 0.0000 -14.2480 0.0000
# 4 0.0000 0.0000 0.0000 23.7249 0.0000 -6.7466
# 5 12.1336 4.4173 -14.2480 0.0000 31.0167 0.0000
# 6 0.0000 0.0000 0.0000 -6.7466 0.0000 36.8604
#
#
#
# Elastic Compliance Matrix: (Units=1/GPa)
#
#
# Indices 1 2 3 4 5 6 
#
# 1 0.011476 -0.001651 -0.008298 0.000000 -0.008066 0.000000
# 2 -0.001651 0.011328 -0.000266 0.000000 -0.001089 0.000000
# 3 -0.008298 -0.000266 0.021768 0.000000 0.013283 0.000000
# 4 0.000000 0.000000 0.000000 0.044464 0.000000 0.008138
# 5 -0.008066 -0.001089 0.013283 0.000000 0.041653 0.000000
# 6 0.000000 0.000000 0.000000 0.008138 0.000000 0.028619
#
#
# Mechanical properties :
#
#
# Convention : Reuss Voigt Hill
#
# Bulk Modulus (GPa) = 41.41989 47.85040 44.63515
# Shear Modulus (GPa) = 26.62633 33.14070 29.88352
#
# Velocity S-wave (km/s) = 3.58867 4.00368 3.80184
# Velocity P-wave (km/s) = 6.09962 6.67209 6.39227
#
# Compressibility (1/GPa) = 0.02414299
#
# Stress axis : x y z
#
# Youngs Moduli (GPa) = 87.14007 88.27990 45.93866
#
# Poissons Ratio (x) = 0.14574 0.38118
# Poissons Ratio (y) = 0.14386 0.01221
# Poissons Ratio (z) = 0.72306 0.02345
#
# Static dielectric constant tensor:
#      x y z
#    x 5.488250 0.000000 0.196070 
#    y 0.000000 4.272500 0.000000 
#    z 0.196070 0.000000 3.576230 
# 
# 
# High freq. dielectric constant tensor:
#      x y z
#    x 1.815520 0.000000 -0.013120 
#    y 0.000000 1.842220 0.000000 
#    z -0.013120 0.000000 1.771010 
# 
# From -- ./inp_files/31136.got.cif
#   From: 2010.03.12/outbox.cif.g09.slc.cpg/sg14_16_cif.got.tgz:31136.got - 2010.03.31 13:35:05.
