data_PCOD8125946
_publ_section_title
;
Structure prediction by ZEFSAII (Michael W. Deem and Ramdas Pophale) SiO2 
 PCOD8125946
Probable space group: P 21/C
;
_chemical_formula_sum "Si O2"
_cell_formula_units_Z 32
_cell_length_a 10.452129
_cell_length_b 9.323302
_cell_length_c 13.681418
_cell_angle_alpha 90.000000
_cell_angle_beta 92.001780
_cell_angle_gamma 90.000000
_cell_volume 1332.418066
_symmetry_space_group_name_H-M "P 21/C"
_symmetry_group_IT_number 14
_symmetry_cell_setting 'monoclinic'
loop_
_space_group_symop_operation_xyz
x,y,z
-x,1/2+y,1/2-z
-x,-y,-z
x,1/2-y,1/2+z
loop_
_atom_site_type_symbol
_atom_site_label
_atom_site_fract_x
_atom_site_fract_y
_atom_site_fract_z
Si Si1 0.652256 0.426110 0.592401
Si Si2 0.728040 0.165969 0.711122
Si Si3 0.885246 0.746542 0.650340
Si Si4 0.028566 0.499555 0.725873
Si Si5 0.829104 0.595918 0.459717
Si Si6 0.490141 0.323034 0.304855
Si Si7 0.585983 0.738404 0.910818
Si Si8 0.634345 0.590111 0.102144
O O1 0.723592 0.331558 0.677486
O O2 0.760137 0.463766 0.515070
O O3 0.599472 0.575315 0.633636
O O4 0.527119 0.341385 0.548413
O O5 0.870332 0.116827 0.733632
O O6 0.641837 0.136388 0.806613
O O7 0.663462 0.075654 0.619938
O O8 0.904683 0.703957 0.536408
O O9 0.745263 0.812243 0.655950
O O10 0.899808 0.596790 0.712611
O O11 0.983703 0.868335 0.696801
O O12 0.066840 0.451504 0.617188
O O13 0.716859 0.675609 0.398341
O O14 0.451578 0.333086 0.190776
O O15 0.485172 0.157760 0.341980
O O16 0.613432 0.609262 0.986613
#
# Coordination Sequence:
#
# PCOD8125946 Si02
#       8
#     4   4   4   4   4   4   4   4
#     4  11  22  36  62  96 131 158 212 258 296 378
#     4  10  23  39  59  94 129 167 202 262 302 369
#     4  10  23  43  67  90 121 162 212 262 304 375
#     4  11  24  43  70  88 124 168 205 261 323 358
#     4  11  22  40  66  94 123 162 214 251 316 376
#     4  11  20  37  61  92 124 164 207 246 303 373
#     4  10  21  36  64  89 127 173 197 248 312 367
#     4  10  21  41  61  86 130 160 207 252 310 368
#
# _framework density 24.016487000000001
#
# number of rings (size 3 to 8) (size 9 to 14) (size 15 to 20)
#    0.000    1.500    2.500    4.500    3.500    2.000 
#    2.250    0.625    2.750    0.000    0.000    0.000 
#    0.000    0.000    0.000    0.000    0.000    0.000 
#
# Total GULP energy -396466.952391 kJ/mol
# GULP energy per Si atom -12389.592262 kJ/mol
# Density = 2.396182 g / cm^3
# Si number density = 24.016487 Si / 1000 Ang^3
#
#
#
# Elastic Constant Matrix: (Units=GPa)
#
#
# Indices 1 2 3 4 5 6 
#
# 1 24.1065 13.7106 11.0944 0.0000 -3.9574 0.0000
# 2 13.7106 89.7495 14.7501 0.0000 4.8372 0.0000
# 3 11.0944 14.7501 71.9211 0.0000 3.2714 0.0000
# 4 0.0000 0.0000 0.0000 31.6880 0.0000 4.0347
# 5 -3.9574 4.8372 3.2714 0.0000 24.6234 0.0000
# 6 0.0000 0.0000 0.0000 4.0347 0.0000 33.9843
#
#
#
# Elastic Compliance Matrix: (Units=1/GPa)
#
#
# Indices 1 2 3 4 5 6 
#
# 1 0.050371 -0.007141 -0.006778 0.000000 0.010399 0.000000
# 2 -0.007141 0.012638 -0.001333 0.000000 -0.003453 0.000000
# 3 -0.006778 -0.001333 0.015354 0.000000 -0.002867 0.000000
# 4 0.000000 0.000000 0.000000 0.032042 0.000000 -0.003804
# 5 0.010399 -0.003453 -0.002867 0.000000 0.043342 0.000000
# 6 0.000000 0.000000 0.000000 -0.003804 0.000000 0.029877
#
#
# Mechanical properties :
#
#
# Convention : Reuss Voigt Hill
#
# Bulk Modulus (GPa) = 20.89573 29.43192 25.16383
# Shear Modulus (GPa) = 21.73131 27.80728 24.76929
#
# Velocity S-wave (km/s) = 3.01133 3.40640 3.21494
# Velocity P-wave (km/s) = 4.56183 5.26810 4.92764
#
# Compressibility (1/GPa) = 0.04785666
#
# Stress axis : x y z
#
# Youngs Moduli (GPa) = 19.85270 79.12446 65.13125
#
# Poissons Ratio (x) = 0.56506 0.44149
# Poissons Ratio (y) = 0.14178 0.08684
# Poissons Ratio (z) = 0.13457 0.10549
#
# Static dielectric constant tensor:
#      x y z
#    x 4.384730 0.000000 0.305010 
#    y 0.000000 4.462800 0.000000 
#    z 0.305010 0.000000 4.184820 
# 
# 
# High freq. dielectric constant tensor:
#      x y z
#    x 1.942900 0.000000 0.025400 
#    y 0.000000 1.959690 0.000000 
#    z 0.025400 0.000000 1.942870 
# 
# From -- ./inp_files/43740.got.cif
#   From: 2010.03.12/outbox.cif.g09.slc.cpg/sg14_22_cif.got.tgz:43740.got - 2010.03.31 13:35:05.
