data_PCOD8125066
_publ_section_title
;
Structure prediction by ZEFSAII (Michael W. Deem and Ramdas Pophale) SiO2 
 PCOD8125066
Probable space group: P 21/C
;
_chemical_formula_sum "Si O2"
_cell_formula_units_Z 32
_cell_length_a 14.756640
_cell_length_b 7.351372
_cell_length_c 20.097798
_cell_angle_alpha 90.000000
_cell_angle_beta 45.778742
_cell_angle_gamma 90.000000
_cell_volume 1562.473328
_symmetry_space_group_name_H-M "P 21/C"
_symmetry_group_IT_number 14
_symmetry_cell_setting 'monoclinic'
loop_
_space_group_symop_operation_xyz
x,y,z
-x,1/2+y,1/2-z
-x,-y,-z
x,1/2-y,1/2+z
loop_
_atom_site_type_symbol
_atom_site_label
_atom_site_fract_x
_atom_site_fract_y
_atom_site_fract_z
Si Si1 0.511103 0.221382 0.323742
Si Si2 0.697731 0.001819 0.024385
Si Si3 0.908433 0.972072 0.248129
Si Si4 0.623423 0.361754 0.134130
Si Si5 0.170704 0.417199 0.675017
Si Si6 0.947173 0.446307 0.456411
Si Si7 0.125007 0.617050 0.934568
Si Si8 0.774242 0.210590 0.754432
O O1 0.412912 0.369649 0.398388
O O2 0.542100 0.253571 0.230666
O O3 0.632862 0.237026 0.307965
O O4 0.457830 0.017462 0.360070
O O5 0.662161 0.211218 0.059229
O O6 0.827065 0.932629 0.994957
O O7 0.726202 0.980855 0.931640
O O8 0.830907 0.801849 0.317496
O O9 0.944836 0.929344 0.153570
O O10 0.820438 0.150487 0.288373
O O11 0.029628 0.012228 0.231386
O O12 0.738883 0.468184 0.114385
O O13 0.216010 0.506865 0.721070
O O14 0.889851 0.248504 0.495379
O O15 0.000000 0.500000 0.500000
O O16 0.135237 0.716317 0.857410
O O17 0.000000 0.500000 0.000000
#
# Coordination Sequence:
#
# PCOD8125066 Si02
#       8
#     4   4   4   4   4   4   4   4
#     4  11  23  42  67  92 130 170 214 262 325 385
#     4  10  24  42  63  92 127 172 213 268 313 388
#     4  11  22  41  66  90 132 172 206 274 330 379
#     4  10  22  41  65  94 129 169 209 268 329 381
#     4  11  24  43  65  93 130 174 217 259 326 385
#     4  10  20  36  61  95 125 156 210 268 324 382
#     4  10  21  37  60  97 129 156 212 271 324 389
#     4  11  24  41  63  96 126 170 223 260 316 398
#
# _framework density 20.480350000000001
#
# number of rings (size 3 to 8) (size 9 to 14) (size 15 to 20)
#    0.000    1.500    3.750    0.750    1.750    2.500 
#    2.250    1.250    0.000    0.000    0.000    0.000 
#    0.000    0.000    0.000    0.000    0.000    0.000 
#
# Total GULP energy -396615.099885 kJ/mol
# GULP energy per Si atom -12394.221871 kJ/mol
# Density = 2.043374 g / cm^3
# Si number density = 20.480350 Si / 1000 Ang^3
#
#
#
# Elastic Constant Matrix: (Units=GPa)
#
#
# Indices 1 2 3 4 5 6 
#
# 1 81.8847 34.3280 32.4063 0.0000 -5.5870 0.0000
# 2 34.3280 105.7227 35.6402 0.0000 -11.4679 0.0000
# 3 32.4063 35.6402 94.7888 0.0000 -11.8964 0.0000
# 4 0.0000 0.0000 0.0000 28.9119 0.0000 -2.5698
# 5 -5.5870 -11.4679 -11.8964 0.0000 25.5844 0.0000
# 6 0.0000 0.0000 0.0000 -2.5698 0.0000 38.3005
#
#
#
# Elastic Compliance Matrix: (Units=1/GPa)
#
#
# Indices 1 2 3 4 5 6 
#
# 1 0.015269 -0.003670 -0.003853 0.000000 -0.000102 0.000000
# 2 -0.003670 0.011957 -0.002835 0.000000 0.003240 0.000000
# 3 -0.003853 -0.002835 0.013453 0.000000 0.004143 0.000000
# 4 0.000000 0.000000 0.000000 0.034795 0.000000 0.002335
# 5 -0.000102 0.003240 0.004143 0.000000 0.042443 0.000000
# 6 0.000000 0.000000 0.000000 0.002335 0.000000 0.026266
#
#
# Mechanical properties :
#
#
# Convention : Reuss Voigt Hill
#
# Bulk Modulus (GPa) = 50.09049 54.12724 52.10886
# Shear Modulus (GPa) = 29.14554 30.56082 29.85318
#
# Velocity S-wave (km/s) = 3.77649 3.86709 3.82206
# Velocity P-wave (km/s) = 6.59748 6.81362 6.70642
#
# Compressibility (1/GPa) = 0.01996387
#
# Stress axis : x y z
#
# Youngs Moduli (GPa) = 65.49352 83.63042 74.33373
#
# Poissons Ratio (x) = 0.30692 0.28641
# Poissons Ratio (y) = 0.24036 0.21070
# Poissons Ratio (z) = 0.25235 0.23706
#
# Static dielectric constant tensor:
#      x y z
#    x 2.557550 0.000000 -0.094670 
#    y 0.000000 3.587490 0.000000 
#    z -0.094670 0.000000 3.933460 
# 
# 
# High freq. dielectric constant tensor:
#      x y z
#    x 1.800980 0.000000 -0.004470 
#    y 0.000000 1.793540 0.000000 
#    z -0.004470 0.000000 1.801770 
# 
# From -- ./inp_files/68206.got.cif
#   From: 2010.03.12/outbox.cif.g09.slc.cpg/sg14_35_cif.got.tgz:68206.got - 2010.03.31 13:35:05.
