data_PCOD8125131
_publ_section_title
;
Structure prediction by ZEFSAII (Michael W. Deem and Ramdas Pophale) SiO2 
 PCOD8125131
Probable space group: P 21/C
;
_chemical_formula_sum "Si O2"
_cell_formula_units_Z 24
_cell_length_a 5.186761
_cell_length_b 17.978648
_cell_length_c 14.575436
_cell_angle_alpha 90.000000
_cell_angle_beta 69.154099
_cell_angle_gamma 90.000000
_cell_volume 1270.202989
_symmetry_space_group_name_H-M "P 21/C"
_symmetry_group_IT_number 14
_symmetry_cell_setting 'monoclinic'
loop_
_space_group_symop_operation_xyz
x,y,z
-x,1/2+y,1/2-z
-x,-y,-z
x,1/2-y,1/2+z
loop_
_atom_site_type_symbol
_atom_site_label
_atom_site_fract_x
_atom_site_fract_y
_atom_site_fract_z
Si Si1 0.236327 0.586233 0.739309
Si Si2 0.574200 0.796085 0.111195
Si Si3 0.796590 0.796085 0.888805
Si Si4 0.326597 0.160185 0.708329
Si Si5 0.285055 0.086234 0.239309
Si Si6 0.743255 0.339814 0.791672
O O1 0.370984 0.632053 0.637264
O O2 0.389707 0.613378 0.814071
O O3 0.284971 0.500000 0.715029
O O4 0.912777 0.602197 0.786882
O O5 0.742262 0.795451 0.186952
O O6 0.394368 0.720845 0.124507
O O7 0.784989 0.801724 1.000000
O O8 0.643384 0.720844 0.875493
O O9 0.645511 0.867946 0.862736
O O10 0.116167 0.795451 0.813048
O O11 0.513460 0.102197 0.286882
O O12 0.982152 0.113378 0.314071
#
# Coordination Sequence:
#
# PCOD8125131 Si02
#       6
#     4   4   4   4   4   4
#     4  10  20  37  58  82 119 149 183 234 290 336
#     4  10  21  37  62  85 114 150 192 236 281 335
#     4  10  21  37  62  85 114 150 192 236 281 335
#     4  10  20  39  53  88 111 150 195 225 281 337
#     4  10  20  37  58  82 119 149 183 234 290 336
#     4  10  20  39  53  88 111 150 195 225 281 337
#
# _framework density 18.894617
#
# number of rings (size 3 to 8) (size 9 to 14) (size 15 to 20)
#    2.000    0.000    3.333    1.000    0.000    2.000 
#    0.000    1.667    0.000    6.000    0.000    0.000 
#    0.000    0.000    0.000    0.000    0.000    0.000 
#
# Total GULP energy -297313.399683 kJ/mol
# GULP energy per Si atom -12388.058320 kJ/mol
# Density = 1.885161 g / cm^3
# Si number density = 18.894617 Si / 1000 Ang^3
#
#
#
# Elastic Constant Matrix: (Units=GPa)
#
#
# Indices 1 2 3 4 5 6 
#
# 1 112.3176 21.7190 8.3259 0.0000 2.3871 0.0000
# 2 21.7190 113.8441 34.4921 0.0000 -0.3726 0.0000
# 3 8.3259 34.4921 27.0218 0.0000 0.0997 0.0000
# 4 0.0000 0.0000 0.0000 11.0980 0.0000 0.6034
# 5 2.3871 -0.3726 0.0997 0.0000 11.1279 0.0000
# 6 0.0000 0.0000 0.0000 0.6034 0.0000 31.7926
#
#
#
# Elastic Compliance Matrix: (Units=1/GPa)
#
#
# Indices 1 2 3 4 5 6 
#
# 1 0.009306 -0.001493 -0.000954 0.000000 -0.002038 0.000000
# 2 -0.001493 0.014567 -0.018138 0.000000 0.000970 0.000000
# 3 -0.000954 -0.018138 0.060457 0.000000 -0.000944 0.000000
# 4 0.000000 0.000000 0.000000 0.090200 0.000000 -0.001712
# 5 -0.002038 0.000970 -0.000944 0.000000 0.090342 0.000000
# 6 0.000000 0.000000 0.000000 -0.001712 0.000000 0.031486
#
#
# Mechanical properties :
#
#
# Convention : Reuss Voigt Hill
#
# Bulk Modulus (GPa) = 23.16956 42.47307 32.82131
# Shear Modulus (GPa) = 14.20793 23.38014 18.79403
#
# Velocity S-wave (km/s) = 2.74516 3.52148 3.15727
# Velocity P-wave (km/s) = 4.72620 6.24997 5.54072
#
# Compressibility (1/GPa) = 0.04316008
#
# Stress axis : x y z
#
# Youngs Moduli (GPa) = 107.45690 68.64643 16.54062
#
# Poissons Ratio (x) = 0.10249 0.01578
# Poissons Ratio (y) = 0.16043 0.30002
# Poissons Ratio (z) = 0.10253 1.24512
#
# Static dielectric constant tensor:
#      x y z
#    x 3.443270 0.000000 0.017730 
#    y 0.000000 3.313140 0.000000 
#    z 0.017730 0.000000 2.835190 
# 
# 
# High freq. dielectric constant tensor:
#      x y z
#    x 1.740290 0.000000 0.001970 
#    y 0.000000 1.736380 0.000000 
#    z 0.001970 0.000000 1.672890 
# 
# From -- ./inp_files/37506.got.cif
#   From: 2010.03.12/outbox.cif.g09.slc.cpg/sg14_19_cif.got.tgz:37506.got - 2010.03.31 13:35:05.
