data_PCOD8125753
_publ_section_title
;
Structure prediction by ZEFSAII (Michael W. Deem and Ramdas Pophale) SiO2 
 PCOD8125753
Probable space group: P 21/C
;
_chemical_formula_sum "Si O2"
_cell_formula_units_Z 32
_cell_length_a 17.098823
_cell_length_b 8.215266
_cell_length_c 27.368282
_cell_angle_alpha 90.000000
_cell_angle_beta 23.812083
_cell_angle_gamma 90.000000
_cell_volume 1552.155649
_symmetry_space_group_name_H-M "P 21/C"
_symmetry_group_IT_number 14
_symmetry_cell_setting 'monoclinic'
loop_
_space_group_symop_operation_xyz
x,y,z
-x,1/2+y,1/2-z
-x,-y,-z
x,1/2-y,1/2+z
loop_
_atom_site_type_symbol
_atom_site_label
_atom_site_fract_x
_atom_site_fract_y
_atom_site_fract_z
Si Si1 0.224512 0.114323 0.987563
Si Si2 0.818023 0.839407 0.400156
Si Si3 0.563319 0.192492 0.151739
Si Si4 0.241924 0.901769 0.183988
Si Si5 0.387417 0.875620 0.280509
Si Si6 0.176475 0.784139 0.818611
Si Si7 0.400654 0.254443 0.570027
Si Si8 0.527391 0.940640 0.377221
O O1 0.193322 0.175855 0.060650
O O2 0.043751 0.156668 0.056674
O O3 0.414422 0.200024 0.855740
O O4 0.255241 0.918188 0.970325
O O5 0.752954 0.797324 0.382973
O O6 0.037846 0.902942 0.272328
O O7 0.684375 0.978163 0.500435
O O8 0.635703 0.323426 0.150092
O O9 0.476062 0.283720 0.155276
O O10 0.399557 0.072661 0.268988
O O11 0.218753 0.848404 0.252981
O O12 0.331786 0.080319 0.134743
O O13 0.386449 0.776608 0.074704
O O14 0.207997 0.802929 0.352652
O O15 0.314333 0.938160 0.734313
O O16 0.410110 0.111407 0.604147
#
# Coordination Sequence:
#
# PCOD8125753 Si02
#       8
#     4   4   4   4   4   4   4   4
#     4   9  23  40  65  89 124 163 196 252 315 356
#     4  11  23  40  64  90 126 163 207 249 307 364
#     4  10  23  40  65  90 123 162 198 256 305 361
#     4  10  24  40  62  88 125 164 203 255 303 359
#     4  10  20  42  65  87 123 159 198 248 311 357
#     4  11  21  42  64  91 126 159 204 252 305 365
#     4  11  24  40  61  90 125 164 207 251 308 349
#     4  12  23  38  63  91 125 162 209 251 299 368
#
# _framework density 20.616489000000001
#
# number of rings (size 3 to 8) (size 9 to 14) (size 15 to 20)
#    0.750    0.750    2.500    1.875    5.250    2.500 
#    0.000    0.625    0.000    0.000    0.000    0.000 
#    0.000    0.000    0.000    0.000    0.000    0.000 
#
# Total GULP energy -396847.207841 kJ/mol
# GULP energy per Si atom -12401.475245 kJ/mol
# Density = 2.056956 g / cm^3
# Si number density = 20.616489 Si / 1000 Ang^3
#
#
#
# Elastic Constant Matrix: (Units=GPa)
#
#
# Indices 1 2 3 4 5 6 
#
# 1 126.4012 25.6714 23.7696 0.0000 -9.0340 0.0000
# 2 25.6714 69.7413 3.4763 0.0000 -3.0542 0.0000
# 3 23.7696 3.4763 43.3971 0.0000 -17.1181 0.0000
# 4 0.0000 0.0000 0.0000 18.3785 0.0000 5.2944
# 5 -9.0340 -3.0542 -17.1181 0.0000 33.1636 0.0000
# 6 0.0000 0.0000 0.0000 5.2944 0.0000 35.0299
#
#
#
# Elastic Compliance Matrix: (Units=1/GPa)
#
#
# Indices 1 2 3 4 5 6 
#
# 1 0.009504 -0.003260 -0.005075 0.000000 -0.000331 0.000000
# 2 -0.003260 0.015537 0.000948 0.000000 0.001032 0.000000
# 3 -0.005075 0.000948 0.031688 0.000000 0.015061 0.000000
# 4 0.000000 0.000000 0.000000 0.056888 0.000000 -0.008598
# 5 -0.000331 0.001032 0.015061 0.000000 0.037933 0.000000
# 6 0.000000 0.000000 0.000000 -0.008598 0.000000 0.029847
#
#
# Mechanical properties :
#
#
# Convention : Reuss Voigt Hill
#
# Bulk Modulus (GPa) = 23.83509 38.37490 31.10500
# Shear Modulus (GPa) = 23.79203 29.75588 26.77396
#
# Velocity S-wave (km/s) = 3.40079 3.80321 3.60761
# Velocity P-wave (km/s) = 5.19680 6.15954 5.69854
#
# Compressibility (1/GPa) = 0.04195494
#
# Stress axis : x y z
#
# Youngs Moduli (GPa) = 105.21789 64.36411 31.55804
#
# Poissons Ratio (x) = 0.20982 0.16016
# Poissons Ratio (y) = 0.34300 -0.02992
# Poissons Ratio (z) = 0.53398 -0.06103
#
# Static dielectric constant tensor:
#      x y z
#    x 3.682370 0.000000 -0.107420 
#    y 0.000000 3.670730 0.000000 
#    z -0.107420 0.000000 3.585310 
# 
# 
# High freq. dielectric constant tensor:
#      x y z
#    x 1.814830 0.000000 -0.003920 
#    y 0.000000 1.809140 0.000000 
#    z -0.003920 0.000000 1.788660 
# 
# From -- ./inp_files/51381.got.cif
#   From: 2010.03.12/outbox.cif.g09.slc.cpg/sg14_26_cif.got.tgz:51381.got - 2010.03.31 13:35:05.
