data_PCOD8125997
_publ_section_title
;
Structure prediction by ZEFSAII (Michael W. Deem and Ramdas Pophale) SiO2 
 PCOD8125997
Probable space group: P 21/C
;
_chemical_formula_sum "Si O2"
_cell_formula_units_Z 20
_cell_length_a 6.136909
_cell_length_b 10.107950
_cell_length_c 18.526952
_cell_angle_alpha 90.000000
_cell_angle_beta 41.700410
_cell_angle_gamma 90.000000
_cell_volume 764.526055
_symmetry_space_group_name_H-M "P 21/C"
_symmetry_group_IT_number 14
_symmetry_cell_setting 'monoclinic'
loop_
_space_group_symop_operation_xyz
x,y,z
-x,1/2+y,1/2-z
-x,-y,-z
x,1/2-y,1/2+z
loop_
_atom_site_type_symbol
_atom_site_label
_atom_site_fract_x
_atom_site_fract_y
_atom_site_fract_z
Si Si1 0.294582 0.099322 0.775447
Si Si2 0.748220 0.943506 0.860365
Si Si3 0.679811 0.301573 0.054137
Si Si4 0.856611 0.150531 0.359194
Si Si5 0.647704 0.821134 0.083341
O O1 0.566229 0.097547 0.644525
O O2 0.462380 0.129794 0.809965
O O3 0.044891 0.212409 0.815528
O O4 0.064848 0.967061 0.834534
O O5 0.603068 0.797050 0.906810
O O6 0.912541 0.955388 0.738568
O O7 0.463036 0.055956 0.941433
O O8 0.781974 0.393698 0.960457
O O9 0.965065 0.206288 0.014330
O O10 0.529916 0.184024 0.393847
#
# Coordination Sequence:
#
# PCOD8125997 Si02
#       5
#     4   4   4   4   4
#     4   9  21  37  56  85 116 147 186 233 282 331
#     4  10  21  38  58  82 115 149 188 233 281 333
#     4  10  21  38  59  85 114 149 191 230 278 335
#     4   9  21  38  56  82 116 149 185 234 283 330
#     4  10  21  37  59  84 111 150 191 232 279 333
#
# _framework density 26.159997000000001
#
# number of rings (size 3 to 8) (size 9 to 14) (size 15 to 20)
#    0.000    2.400    0.000    0.600    0.000   19.200 
#    0.000    2.000    0.000    0.000    0.000    0.000 
#    0.000    0.000    0.000    0.000    0.000    0.000 
#
# Total GULP energy -247810.592901 kJ/mol
# GULP energy per Si atom -12390.529645 kJ/mol
# Density = 2.610046 g / cm^3
# Si number density = 26.159997 Si / 1000 Ang^3
#
#
#
# Elastic Constant Matrix: (Units=GPa)
#
#
# Indices 1 2 3 4 5 6 
#
# 1 70.9052 1.4740 3.4552 0.0000 -14.7017 0.0000
# 2 1.4740 37.4904 -9.9602 0.0000 -24.3500 0.0000
# 3 3.4552 -9.9602 79.0326 0.0000 -4.4306 0.0000
# 4 0.0000 0.0000 0.0000 35.6693 0.0000 -0.0569
# 5 -14.7017 -24.3500 -4.4306 0.0000 25.5612 0.0000
# 6 0.0000 0.0000 0.0000 -0.0569 0.0000 25.2838
#
#
#
# Elastic Compliance Matrix: (Units=1/GPa)
#
#
# Indices 1 2 3 4 5 6 
#
# 1 0.020245 0.021353 0.003634 0.000000 0.032615 0.000000
# 2 0.021353 0.107811 0.019287 0.000000 0.118327 0.000000
# 3 0.003634 0.019287 0.016230 0.000000 0.023277 0.000000
# 4 0.000000 0.000000 0.000000 0.028035 0.000000 0.000063
# 5 0.032615 0.118327 0.023277 0.000000 0.174635 0.000000
# 6 0.000000 0.000000 0.000000 0.000063 0.000000 0.039551
#
#
# Mechanical properties :
#
#
# Convention : Reuss Voigt Hill
#
# Bulk Modulus (GPa) = 4.29490 19.70737 12.00113
# Shear Modulus (GPa) = 13.31310 30.13347 21.72329
#
# Velocity S-wave (km/s) = 2.25835 3.39763 2.88479
# Velocity P-wave (km/s) = 2.90612 4.78974 3.96151
#
# Compressibility (1/GPa) = 0.23283450
#
# Stress axis : x y z
#
# Youngs Moduli (GPa) = 49.39528 9.27548 61.61559
#
# Poissons Ratio (x) = -0.19806 -0.22394
# Poissons Ratio (y) = -1.05474 -1.18838
# Poissons Ratio (z) = -0.17952 -0.17890
#
# Static dielectric constant tensor:
#      x y z
#    x 4.828330 0.000000 0.195770 
#    y 0.000000 4.200190 0.000000 
#    z 0.195770 0.000000 5.299810 
# 
# 
# High freq. dielectric constant tensor:
#      x y z
#    x 2.046730 0.000000 0.004010 
#    y 0.000000 2.007160 0.000000 
#    z 0.004010 0.000000 2.059640 
# 
# From -- ./inp_files/20554.got.cif
#   From: 2010.03.12/outbox.cif.g09.slc.cpg/sg14_11_cif.got.tgz:20554.got - 2010.03.31 13:35:05.
