data_PCOD8125331
_publ_section_title
;
Structure prediction by ZEFSAII (Michael W. Deem and Ramdas Pophale) SiO2 
 PCOD8125331
Probable space group: P 21/C
;
_chemical_formula_sum "Si O2"
_cell_formula_units_Z 28
_cell_length_a 8.646206
_cell_length_b 9.739986
_cell_length_c 25.845068
_cell_angle_alpha 90.000000
_cell_angle_beta 41.368587
_cell_angle_gamma 90.000000
_cell_volume 1438.459628
_symmetry_space_group_name_H-M "P 21/C"
_symmetry_group_IT_number 14
_symmetry_cell_setting 'monoclinic'
loop_
_space_group_symop_operation_xyz
x,y,z
-x,1/2+y,1/2-z
-x,-y,-z
x,1/2-y,1/2+z
loop_
_atom_site_type_symbol
_atom_site_label
_atom_site_fract_x
_atom_site_fract_y
_atom_site_fract_z
Si Si1 0.462590 0.289241 0.986056
Si Si2 0.457100 0.916476 0.784242
Si Si3 0.010831 0.340296 0.626532
Si Si4 0.617074 0.873037 0.278483
Si Si5 0.840263 0.401158 0.239724
Si Si6 0.368387 0.455450 0.109882
Si Si7 0.148047 0.600180 0.645855
O O1 0.510568 0.397127 0.927977
O O2 0.661872 0.173688 0.937907
O O3 0.468169 0.355258 0.041342
O O4 0.202907 0.229397 0.041217
O O5 0.172712 0.923626 0.864122
O O6 0.503850 0.755322 0.777807
O O7 0.487481 0.985858 0.719764
O O8 0.621405 0.001195 0.781266
O O9 0.859133 0.232784 0.698972
O O10 0.149444 0.437763 0.632331
O O11 0.564396 0.885421 0.352652
O O12 0.889069 0.846493 0.199289
O O13 0.784538 0.362804 0.312498
O O14 0.088943 0.480713 0.174615
#
# Coordination Sequence:
#
# PCOD8125331 Si02
#       7
#     4   4   4   4   4   4   4
#     4  10  20  38  61  87 123 160 197 255 304 361
#     4  11  21  38  60  88 122 159 193 255 303 354
#     4  10  22  39  55  91 124 158 196 257 303 368
#     4  10  22  38  64  90 121 153 211 248 298 355
#     4  10  21  36  64  88 117 152 213 254 294 350
#     4   9  21  38  64  88 118 160 211 246 298 359
#     4  10  22  35  66  88 116 156 209 251 303 349
#
# _framework density 19.465267000000001
#
# number of rings (size 3 to 8) (size 9 to 14) (size 15 to 20)
#    0.000    2.000    1.429    1.286   12.000    0.000 
#    0.000    1.429    3.143    0.000    0.000    0.000 
#    0.000    0.000    0.000    0.000    0.000    0.000 
#
# Total GULP energy -346898.099307 kJ/mol
# GULP energy per Si atom -12389.217832 kJ/mol
# Density = 1.942096 g / cm^3
# Si number density = 19.465267 Si / 1000 Ang^3
#
#
#
# Elastic Constant Matrix: (Units=GPa)
#
#
# Indices 1 2 3 4 5 6 
#
# 1 112.6686 49.6590 52.3407 0.0000 -5.5459 0.0000
# 2 49.6590 113.4587 62.0257 0.0000 -4.4893 0.0000
# 3 52.3407 62.0257 97.4967 0.0000 -8.2484 0.0000
# 4 0.0000 0.0000 0.0000 35.5756 0.0000 -9.5481
# 5 -5.5459 -4.4893 -8.2484 0.0000 15.7642 0.0000
# 6 0.0000 0.0000 0.0000 -9.5481 0.0000 34.2176
#
#
#
# Elastic Compliance Matrix: (Units=1/GPa)
#
#
# Indices 1 2 3 4 5 6 
#
# 1 0.012370 -0.002746 -0.004805 0.000000 0.001056 0.000000
# 2 -0.002746 0.014130 -0.007593 0.000000 -0.000915 0.000000
# 3 -0.004805 -0.007593 0.018144 0.000000 0.005641 0.000000
# 4 0.000000 0.000000 0.000000 0.030385 0.000000 0.008479
# 5 0.001056 -0.000915 0.005641 0.000000 0.066497 0.000000
# 6 0.000000 0.000000 0.000000 0.008479 0.000000 0.031591
#
#
# Mechanical properties :
#
#
# Convention : Reuss Voigt Hill
#
# Bulk Modulus (GPa) = 69.64963 72.40831 71.02897
# Shear Modulus (GPa) = 24.01678 27.75140 25.88409
#
# Velocity S-wave (km/s) = 3.51640 3.77992 3.65054
# Velocity P-wave (km/s) = 7.23505 7.50533 7.37143
#
# Compressibility (1/GPa) = 0.01435758
#
# Stress axis : x y z
#
# Youngs Moduli (GPa) = 80.84270 70.77086 55.11578
#
# Poissons Ratio (x) = 0.19431 0.26481
# Poissons Ratio (y) = 0.22197 0.41848
# Poissons Ratio (z) = 0.38841 0.53734
#
# Static dielectric constant tensor:
#      x y z
#    x 3.547020 0.000000 -0.172900 
#    y 0.000000 3.662220 0.000000 
#    z -0.172900 0.000000 3.556630 
# 
# 
# High freq. dielectric constant tensor:
#      x y z
#    x 1.750930 0.000000 -0.013900 
#    y 0.000000 1.767660 0.000000 
#    z -0.013900 0.000000 1.744260 
# 
# From -- ./inp_files/54851.got.cif
#   From: 2010.03.12/outbox.cif.g09.slc.cpg/sg14_28_cif.got.tgz:54851.got - 2010.03.31 13:35:05.
