data_PCOD8125198
_publ_section_title
;
Structure prediction by ZEFSAII (Michael W. Deem and Ramdas Pophale) SiO2 
 PCOD8125198
Probable space group: P 21/C
;
_chemical_formula_sum "Si O2"
_cell_formula_units_Z 32
_cell_length_a 12.626029
_cell_length_b 8.261404
_cell_length_c 15.679741
_cell_angle_alpha 90.000000
_cell_angle_beta 67.067466
_cell_angle_gamma 90.000000
_cell_volume 1506.268260
_symmetry_space_group_name_H-M "P 21/C"
_symmetry_group_IT_number 14
_symmetry_cell_setting 'monoclinic'
loop_
_space_group_symop_operation_xyz
x,y,z
-x,1/2+y,1/2-z
-x,-y,-z
x,1/2-y,1/2+z
loop_
_atom_site_type_symbol
_atom_site_label
_atom_site_fract_x
_atom_site_fract_y
_atom_site_fract_z
Si Si1 0.719472 0.377382 0.828373
Si Si2 0.283148 0.200430 0.500391
Si Si3 0.800140 0.177351 0.647797
Si Si4 0.965562 0.798046 0.863515
Si Si5 0.734372 0.804385 0.681229
Si Si6 0.582425 0.811842 0.378865
Si Si7 0.916338 0.605329 0.718353
Si Si8 0.317074 0.677764 0.982617
O O1 0.725345 0.270108 0.742099
O O2 0.607620 0.495405 0.861533
O O3 0.830272 0.493812 0.800745
O O4 0.712366 0.255846 0.912870
O O5 0.155456 0.266228 0.555631
O O6 0.317669 0.255311 0.393594
O O7 0.368465 0.264645 0.547740
O O8 0.287995 0.009212 0.503518
O O9 0.762322 0.249216 0.567493
O O10 0.935558 0.207854 0.613878
O O11 0.773410 0.989026 0.662815
O O12 0.973498 0.734134 0.763810
O O13 0.987236 0.991614 0.854984
O O14 0.637643 0.786102 0.783307
O O15 0.846268 0.697022 0.666641
O O16 0.447435 0.785370 0.416780
#
# Coordination Sequence:
#
# PCOD8125198 Si02
#       8
#     4   4   4   4   4   4   4   4
#     4   9  18  39  59  82 113 156 203 244 290 358
#     4  10  20  37  61  89 116 156 209 238 297 362
#     4  10  23  35  56  89 122 156 197 249 303 351
#     4  11  20  37  61  89 119 157 199 240 297 365
#     4  10  21  39  56  89 123 154 199 250 300 355
#     4  10  20  38  63  83 116 161 208 247 301 351
#     4  10  20  37  62  85 124 156 191 241 299 354
#     4  10  20  37  61  87 116 162 207 244 300 362
#
# _framework density 21.244557
#
# number of rings (size 3 to 8) (size 9 to 14) (size 15 to 20)
#    0.000    2.000    3.750    2.250    0.000    5.500 
#    4.500    4.375    0.000    0.000    0.000    0.000 
#    0.000    0.000    0.000    0.000    0.000    0.000 
#
# Total GULP energy -396664.364656 kJ/mol
# GULP energy per Si atom -12395.761395 kJ/mol
# Density = 2.119620 g / cm^3
# Si number density = 21.244557 Si / 1000 Ang^3
#
#
#
# Elastic Constant Matrix: (Units=GPa)
#
#
# Indices 1 2 3 4 5 6 
#
# 1 81.8586 6.2041 19.5322 0.0000 13.7822 0.0000
# 2 6.2041 48.0385 8.3771 0.0000 4.0374 0.0000
# 3 19.5322 8.3771 90.0206 0.0000 38.1145 0.0000
# 4 0.0000 0.0000 0.0000 27.9855 0.0000 -4.7874
# 5 13.7822 4.0374 38.1145 0.0000 28.8879 0.0000
# 6 0.0000 0.0000 0.0000 -4.7874 0.0000 9.1235
#
#
#
# Elastic Compliance Matrix: (Units=1/GPa)
#
#
# Indices 1 2 3 4 5 6 
#
# 1 0.013357 -0.001180 -0.000363 0.000000 -0.005729 0.000000
# 2 -0.001180 0.021273 -0.001593 0.000000 -0.000308 0.000000
# 3 -0.000363 -0.001593 0.025303 0.000000 -0.032989 0.000000
# 4 0.000000 0.000000 0.000000 0.039257 0.000000 0.020599
# 5 -0.005729 -0.000308 -0.032989 0.000000 0.080918 0.000000
# 6 0.000000 0.000000 0.000000 0.020599 0.000000 0.120417
#
#
# Mechanical properties :
#
#
# Convention : Reuss Voigt Hill
#
# Bulk Modulus (GPa) = 18.63558 32.01604 25.32581
# Shear Modulus (GPa) = 15.39963 25.58632 20.49297
#
# Velocity S-wave (km/s) = 2.69527 3.47417 3.10921
# Velocity P-wave (km/s) = 4.29848 5.58535 4.98362
#
# Compressibility (1/GPa) = 0.05366079
#
# Stress axis : x y z
#
# Youngs Moduli (GPa) = 74.86863 47.00842 39.52112
#
# Poissons Ratio (x) = 0.05548 0.01433
# Poissons Ratio (y) = 0.08837 0.06296
# Poissons Ratio (z) = 0.02714 0.07488
#
# Static dielectric constant tensor:
#      x y z
#    x 3.888000 0.000000 0.361600 
#    y 0.000000 3.746720 0.000000 
#    z 0.361600 0.000000 4.342130 
# 
# 
# High freq. dielectric constant tensor:
#      x y z
#    x 1.830700 0.000000 0.012840 
#    y 0.000000 1.805720 0.000000 
#    z 0.012840 0.000000 1.845390 
# 
# From -- ./inp_files/43711.got.cif
#   From: 2010.03.12/outbox.cif.g09.slc.cpg/sg14_22_cif.got.tgz:43711.got - 2010.03.31 13:35:05.
