data_PCOD8125977
_publ_section_title
;
Structure prediction by ZEFSAII (Michael W. Deem and Ramdas Pophale) SiO2 
 PCOD8125977
Probable space group: P 21/C
;
_chemical_formula_sum "Si O2"
_cell_formula_units_Z 28
_cell_length_a 21.155428
_cell_length_b 4.936539
_cell_length_c 11.487384
_cell_angle_alpha 90.000000
_cell_angle_beta 105.770166
_cell_angle_gamma 90.000000
_cell_volume 1154.523901
_symmetry_space_group_name_H-M "P 21/C"
_symmetry_group_IT_number 14
_symmetry_cell_setting 'monoclinic'
loop_
_space_group_symop_operation_xyz
x,y,z
-x,1/2+y,1/2-z
-x,-y,-z
x,1/2-y,1/2+z
loop_
_atom_site_type_symbol
_atom_site_label
_atom_site_fract_x
_atom_site_fract_y
_atom_site_fract_z
Si Si1 0.357373 0.272203 0.250639
Si Si2 0.956887 0.995172 0.732049
Si Si3 0.843712 0.588038 0.003870
Si Si4 0.360513 0.771534 0.089578
Si Si5 0.846633 0.412242 0.350816
Si Si6 0.498534 0.333988 0.822930
Si Si7 0.263727 0.996919 0.374774
O O1 0.347741 0.569324 0.192008
O O2 0.429263 0.241706 0.349153
O O3 0.350035 0.069207 0.136907
O O4 0.304316 0.222643 0.324391
O O5 0.001519 0.745857 0.798366
O O6 0.909914 0.868124 0.610112
O O7 0.915462 0.117786 0.818422
O O8 0.779557 0.649254 0.049396
O O9 0.843224 0.279173 0.960554
O O10 0.841037 0.779696 0.891045
O O11 0.434601 0.735450 0.073272
O O12 0.311237 0.724228 0.958060
O O13 0.786072 0.339855 0.235789
O O14 0.498379 0.652797 0.793731
#
# Coordination Sequence:
#
# PCOD8125977 Si02
#       7
#     4   4   4   4   4   4   4
#     4  10  21  37  58  84 116 153 197 250 302 352
#     4  11  24  42  68  99 122 153 200 239 286 351
#     4  11  25  43  63  90 126 161 195 241 292 344
#     4  10  21  37  58  84 116 153 197 250 302 352
#     4  11  25  43  63  90 126 161 195 241 292 344
#     4   8  16  33  54  79 112 148 190 245 304 355
#     4  11  24  39  62  87 118 160 206 242 288 355
#
# _framework density 24.252420999999998
#
# number of rings (size 3 to 8) (size 9 to 14) (size 15 to 20)
#    0.000    1.714    0.000    3.429    0.000   10.857 
#    0.000    0.000    0.000   10.286    0.000    0.000 
#    0.000    0.000    0.000    0.000    0.000    0.000 
#
# Total GULP energy -347220.281709 kJ/mol
# GULP energy per Si atom -12400.724347 kJ/mol
# Density = 2.419722 g / cm^3
# Si number density = 24.252421 Si / 1000 Ang^3
#
#
#
# Elastic Constant Matrix: (Units=GPa)
#
#
# Indices 1 2 3 4 5 6 
#
# 1 103.3290 4.7434 8.7354 0.0000 10.9143 0.0000
# 2 4.7434 76.6806 -0.4510 0.0000 2.0893 0.0000
# 3 8.7354 -0.4510 54.2917 0.0000 4.1376 0.0000
# 4 0.0000 0.0000 0.0000 18.6088 0.0000 1.1909
# 5 10.9143 2.0893 4.1376 0.0000 32.1254 0.0000
# 6 0.0000 0.0000 0.0000 1.1909 0.0000 14.9743
#
#
#
# Elastic Compliance Matrix: (Units=1/GPa)
#
#
# Indices 1 2 3 4 5 6 
#
# 1 0.010163 -0.000549 -0.001393 0.000000 -0.003238 0.000000
# 2 -0.000549 0.013096 0.000250 0.000000 -0.000698 0.000000
# 3 -0.001393 0.000250 0.018795 0.000000 -0.001964 0.000000
# 4 0.000000 0.000000 0.000000 0.054013 0.000000 -0.004295
# 5 -0.003238 -0.000698 -0.001964 0.000000 0.032526 0.000000
# 6 0.000000 0.000000 0.000000 -0.004295 0.000000 0.067123
#
#
# Mechanical properties :
#
#
# Convention : Reuss Voigt Hill
#
# Bulk Modulus (GPa) = 25.85961 28.92855 27.39408
# Shear Modulus (GPa) = 23.58624 27.89325 25.73974
#
# Velocity S-wave (km/s) = 3.12193 3.39502 3.26134
# Velocity P-wave (km/s) = 4.86632 5.22707 5.04992
#
# Compressibility (1/GPa) = 0.03867034
#
# Stress axis : x y z
#
# Youngs Moduli (GPa) = 98.39855 76.36193 53.20596
#
# Poissons Ratio (x) = 0.04190 0.07411
# Poissons Ratio (y) = 0.05399 -0.01331
# Poissons Ratio (z) = 0.13707 -0.01911
#
# Static dielectric constant tensor:
#      x y z
#    x 4.714980 0.000000 0.269150 
#    y 0.000000 4.034870 0.000000 
#    z 0.269150 0.000000 4.043070 
# 
# 
# High freq. dielectric constant tensor:
#      x y z
#    x 1.983380 0.000000 0.017720 
#    y 0.000000 1.959700 0.000000 
#    z 0.017720 0.000000 1.940340 
# 
# From -- ./inp_files/34738.got.cif
#   From: 2010.03.12/outbox.cif.g09.slc.cpg/sg14_18_cif.got.tgz:34738.got - 2010.03.31 13:35:05.
