data_PCOD8125983
_publ_section_title
;
Structure prediction by ZEFSAII (Michael W. Deem and Ramdas Pophale) SiO2 
 PCOD8125983
Probable space group: P 21/C
;
_chemical_formula_sum "Si O2"
_cell_formula_units_Z 28
_cell_length_a 29.589014
_cell_length_b 7.056497
_cell_length_c 9.071883
_cell_angle_alpha 90.000000
_cell_angle_beta 140.186374
_cell_angle_gamma 90.000000
_cell_volume 1212.817452
_symmetry_space_group_name_H-M "P 21/C"
_symmetry_group_IT_number 14
_symmetry_cell_setting 'monoclinic'
loop_
_space_group_symop_operation_xyz
x,y,z
-x,1/2+y,1/2-z
-x,-y,-z
x,1/2-y,1/2+z
loop_
_atom_site_type_symbol
_atom_site_label
_atom_site_fract_x
_atom_site_fract_y
_atom_site_fract_z
Si Si1 0.114572 0.093846 0.482762
Si Si2 0.526109 0.691581 0.987907
Si Si3 0.741592 0.512527 0.201438
Si Si4 0.205392 0.195726 0.444794
Si Si5 0.886325 0.179887 0.085344
Si Si6 0.029882 0.849929 0.960671
Si Si7 0.414194 0.495830 0.140622
O O1 0.148456 0.088437 0.402321
O O2 0.166849 0.159672 0.739639
O O3 0.042723 0.220252 0.301859
O O4 0.100998 0.873630 0.474250
O O5 0.577691 0.618019 0.990356
O O6 0.461054 0.813735 0.760190
O O7 0.500000 0.500000 0.000000
O O8 0.569665 0.838574 0.195531
O O9 0.749243 0.556280 0.045732
O O10 0.744107 0.696174 0.313146
O O11 0.804819 0.372956 0.409882
O O12 0.664827 0.422466 0.035259
O O13 0.929554 0.182256 0.346892
O O14 0.920493 0.048066 0.041630
O O15 0.000000 0.000000 0.000000
#
# Coordination Sequence:
#
# PCOD8125983 Si02
#       7
#     4   4   4   4   4   4   4
#     4  10  21  40  61  87 120 172 215 276 326 376
#     4  11  23  47  73 106 142 174 237 278 329 412
#     4  11  23  43  62  97 131 173 210 265 339 394
#     4  10  22  40  61  88 134 163 215 266 326 397
#     4  11  22  39  60  90 126 158 224 266 316 405
#     4  10  21  37  58  85 117 162 213 274 325 369
#     4  11  24  45  73 106 140 187 224 287 341 407
#
# _framework density 23.086739000000001
#
# number of rings (size 3 to 8) (size 9 to 14) (size 15 to 20)
#    0.000    1.429    1.429    4.286    0.000    3.429 
#   12.857    7.143    0.000    0.000    0.000    0.000 
#    0.000    0.000    0.000    0.000    0.000    0.000 
#
# Total GULP energy -346874.343908 kJ/mol
# GULP energy per Si atom -12388.369425 kJ/mol
# Density = 2.303419 g / cm^3
# Si number density = 23.086739 Si / 1000 Ang^3
#
#
#
# Elastic Constant Matrix: (Units=GPa)
#
#
# Indices 1 2 3 4 5 6 
#
# 1 138.6443 12.8723 64.8919 0.0000 16.3828 0.0000
# 2 12.8723 69.1769 14.8396 0.0000 6.2046 0.0000
# 3 64.8919 14.8396 75.3654 0.0000 14.8361 0.0000
# 4 0.0000 0.0000 0.0000 28.7585 0.0000 0.3444
# 5 16.3828 6.2046 14.8361 0.0000 46.3241 0.0000
# 6 0.0000 0.0000 0.0000 0.3444 0.0000 25.9407
#
#
#
# Elastic Compliance Matrix: (Units=1/GPa)
#
#
# Indices 1 2 3 4 5 6 
#
# 1 0.012126 0.000033 -0.010248 0.000000 -0.001011 0.000000
# 2 0.000033 0.015150 -0.002785 0.000000 -0.001149 0.000000
# 3 -0.010248 -0.002785 0.023325 0.000000 -0.003473 0.000000
# 4 0.000000 0.000000 0.000000 0.034778 0.000000 -0.000462
# 5 -0.001011 -0.001149 -0.003473 0.000000 0.023210 0.000000
# 6 0.000000 0.000000 0.000000 -0.000462 0.000000 0.038556
#
#
# Mechanical properties :
#
#
# Convention : Reuss Voigt Hill
#
# Bulk Modulus (GPa) = 40.65135 52.04383 46.34759
# Shear Modulus (GPa) = 27.57177 32.91020 30.24098
#
# Velocity S-wave (km/s) = 3.45957 3.77968 3.62316
# Velocity P-wave (km/s) = 5.79694 6.45288 6.13368
#
# Compressibility (1/GPa) = 0.02459943
#
# Stress axis : x y z
#
# Youngs Moduli (GPa) = 82.46982 66.00623 42.87320
#
# Poissons Ratio (x) = -0.00216 0.43937
# Poissons Ratio (y) = -0.00270 0.11941
# Poissons Ratio (z) = 0.84516 0.18383
#
# Static dielectric constant tensor:
#      x y z
#    x 4.701690 0.000000 -0.205230 
#    y 0.000000 3.920270 0.000000 
#    z -0.205230 0.000000 4.339690 
# 
# 
# High freq. dielectric constant tensor:
#      x y z
#    x 1.935030 0.000000 -0.017870 
#    y 0.000000 1.898500 0.000000 
#    z -0.017870 0.000000 1.909940 
# 
# From -- ./inp_files/19763.got.cif
#   From: 2010.03.12/outbox.cif.g09.slc.cpg/sg14_10_cif.got.tgz:19763.got - 2010.03.31 13:35:05.
