data_PCOD8125218
_publ_section_title
;
Structure prediction by ZEFSAII (Michael W. Deem and Ramdas Pophale) SiO2 
 PCOD8125218
Probable space group: P 21/C
;
_chemical_formula_sum "Si O2"
_cell_formula_units_Z 32
_cell_length_a 10.854197
_cell_length_b 16.005774
_cell_length_c 17.234851
_cell_angle_alpha 90.000000
_cell_angle_beta 148.804056
_cell_angle_gamma 90.000000
_cell_volume 1550.899117
_symmetry_space_group_name_H-M "P 21/C"
_symmetry_group_IT_number 14
_symmetry_cell_setting 'monoclinic'
loop_
_space_group_symop_operation_xyz
x,y,z
-x,1/2+y,1/2-z
-x,-y,-z
x,1/2-y,1/2+z
loop_
_atom_site_type_symbol
_atom_site_label
_atom_site_fract_x
_atom_site_fract_y
_atom_site_fract_z
Si Si1 0.361169 0.817846 0.812356
Si Si2 0.021276 0.157349 0.268520
Si Si3 0.493454 0.149807 0.695006
Si Si4 0.989465 0.097805 0.479893
Si Si5 0.359018 0.676142 0.555218
Si Si6 0.820454 0.143008 0.545838
Si Si7 0.735864 0.679579 0.632307
Si Si8 0.618574 0.975099 0.484233
O O1 0.163918 0.797576 0.772096
O O2 0.433874 0.737889 0.801347
O O3 0.255956 0.887705 0.698965
O O4 0.596576 0.854918 0.981616
O O5 0.238412 0.219984 0.365358
O O6 0.134089 0.073401 0.364786
O O7 0.877028 0.136667 0.111445
O O8 0.621723 0.139038 0.847288
O O9 0.559931 0.078770 0.667016
O O10 0.208660 0.138280 0.551084
O O11 0.981198 0.147528 0.555686
O O12 0.000000 0.000000 0.500000
O O13 0.348292 0.776793 0.546509
O O14 0.592648 0.653387 0.632264
O O15 0.998446 0.142546 0.716104
O O16 0.667752 0.059167 0.463125
O O17 0.500000 0.000000 0.500000
#
# Coordination Sequence:
#
# PCOD8125218 Si02
#       8
#     4   4   4   4   4   4   4   4
#     4  11  21  39  64  94 125 170 222 268 314 394
#     4  10  21  41  62  91 127 164 215 265 322 381
#     4  12  23  40  63  97 125 172 214 265 322 391
#     4  12  22  41  62  93 133 167 213 268 335 388
#     4  10  22  38  64  89 123 162 217 264 309 381
#     4  11  22  38  63  92 124 169 210 264 328 384
#     4  10  20  37  62  91 118 165 219 264 308 378
#     4  12  25  43  65  93 132 169 210 265 334 390
#
# _framework density 20.633192000000001
#
# number of rings (size 3 to 8) (size 9 to 14) (size 15 to 20)
#    0.000    1.000    6.250    0.750    3.500    0.000 
#    2.250    2.500    0.000    0.000    0.000    0.000 
#    0.000    0.000    0.000    0.000    0.000    0.000 
#
# Total GULP energy -396627.653579 kJ/mol
# GULP energy per Si atom -12394.614174 kJ/mol
# Density = 2.058623 g / cm^3
# Si number density = 20.633192 Si / 1000 Ang^3
#
#
#
# Elastic Constant Matrix: (Units=GPa)
#
#
# Indices 1 2 3 4 5 6 
#
# 1 85.7239 23.8437 23.9820 0.0000 -13.3436 0.0000
# 2 23.8437 86.1087 44.3720 0.0000 -11.3917 0.0000
# 3 23.9820 44.3720 142.2929 0.0000 -29.6147 0.0000
# 4 0.0000 0.0000 0.0000 32.8539 0.0000 -4.6102
# 5 -13.3436 -11.3917 -29.6147 0.0000 35.7602 0.0000
# 6 0.0000 0.0000 0.0000 -4.6102 0.0000 33.5524
#
#
#
# Elastic Compliance Matrix: (Units=1/GPa)
#
#
# Indices 1 2 3 4 5 6 
#
# 1 0.013178 -0.002879 -0.000593 0.000000 0.003509 0.000000
# 2 -0.002879 0.014496 -0.003984 0.000000 0.000244 0.000000
# 3 -0.000593 -0.003984 0.009738 0.000000 0.006574 0.000000
# 4 0.000000 0.000000 0.000000 0.031036 0.000000 0.004264
# 5 0.003509 0.000244 0.006574 0.000000 0.034796 0.000000
# 6 0.000000 0.000000 0.000000 0.004264 0.000000 0.030390
#
#
# Mechanical properties :
#
#
# Convention : Reuss Voigt Hill
#
# Bulk Modulus (GPa) = 44.44522 55.39120 49.91821
# Shear Modulus (GPa) = 32.04149 35.22847 33.63498
#
# Velocity S-wave (km/s) = 3.94497 4.13651 4.04188
# Velocity P-wave (km/s) = 6.50675 7.05112 6.78440
#
# Compressibility (1/GPa) = 0.02249961
#
# Stress axis : x y z
#
# Youngs Moduli (GPa) = 75.88219 68.98496 102.68600
#
# Poissons Ratio (x) = 0.19863 0.06087
# Poissons Ratio (y) = 0.21849 0.40913
# Poissons Ratio (z) = 0.04498 0.27486
#
# Static dielectric constant tensor:
#      x y z
#    x 4.027920 0.000000 -0.247950 
#    y 0.000000 4.817880 0.000000 
#    z -0.247950 0.000000 3.967370 
# 
# 
# High freq. dielectric constant tensor:
#      x y z
#    x 1.812900 0.000000 -0.019320 
#    y 0.000000 1.781520 0.000000 
#    z -0.019320 0.000000 1.815000 
# 
# From -- ./inp_files/30029.got.cif
#   From: 2010.03.12/outbox.cif.g09.slc.cpg/sg14_16_cif.got.tgz:30029.got - 2010.03.31 13:35:05.
