data_PCOD8125127
_publ_section_title
;
Structure prediction by ZEFSAII (Michael W. Deem and Ramdas Pophale) SiO2 
 PCOD8125127
Probable space group: P 21/C
;
_chemical_formula_sum "Si O2"
_cell_formula_units_Z 28
_cell_length_a 15.970212
_cell_length_b 16.642966
_cell_length_c 9.626785
_cell_angle_alpha 90.000000
_cell_angle_beta 147.426685
_cell_angle_gamma 90.000000
_cell_volume 1377.559216
_symmetry_space_group_name_H-M "P 21/C"
_symmetry_group_IT_number 14
_symmetry_cell_setting 'monoclinic'
loop_
_space_group_symop_operation_xyz
x,y,z
-x,1/2+y,1/2-z
-x,-y,-z
x,1/2-y,1/2+z
loop_
_atom_site_type_symbol
_atom_site_label
_atom_site_fract_x
_atom_site_fract_y
_atom_site_fract_z
Si Si1 0.369212 0.365199 0.624833
Si Si2 0.231276 0.999938 0.123249
Si Si3 0.933505 0.625469 0.938513
Si Si4 0.675270 0.426557 0.972688
Si Si5 0.094498 0.531603 0.936764
Si Si6 0.227772 0.669823 0.483370
Si Si7 0.348932 0.769474 0.422466
O O1 0.312487 0.423398 0.668065
O O2 0.222619 0.329596 0.332790
O O3 0.488369 0.415844 0.692678
O O4 0.465548 0.290229 0.825555
O O5 0.289435 0.994940 0.362755
O O6 0.275957 0.919516 0.098911
O O7 0.045448 0.010786 0.864168
O O8 0.046809 0.606043 0.967426
O O9 0.867929 0.543562 0.912423
O O10 0.039924 0.676420 0.194326
O O11 0.750978 0.447688 0.932151
O O12 0.743486 0.342155 0.128205
O O13 0.319592 0.688292 0.468172
O O14 0.278243 0.736252 0.668357
#
# Coordination Sequence:
#
# PCOD8125127 Si02
#       7
#     4   4   4   4   4   4   4
#     4   9  19  36  56  87 115 143 190 242 284 334
#     4   9  17  34  59  84 115 148 189 236 289 331
#     4   9  19  34  56  79 116 145 181 238 283 335
#     4   9  18  30  56  83 116 143 186 236 271 339
#     4   9  17  31  53  88 110 147 184 225 284 339
#     4  10  20  37  58  79 111 154 193 226 285 345
#     4   9  22  36  58  81 111 153 194 230 280 354
#
# _framework density 20.325806
#
# number of rings (size 3 to 8) (size 9 to 14) (size 15 to 20)
#    0.857    2.000    0.000    1.714    2.000    0.571 
#    0.000    1.429    0.000    1.714    0.000    0.000 
#    0.000    0.000    0.000    0.000    0.000    0.000 
#
# Total GULP energy -346917.455372 kJ/mol
# GULP energy per Si atom -12389.909120 kJ/mol
# Density = 2.027954 g / cm^3
# Si number density = 20.325806 Si / 1000 Ang^3
#
#
#
# Elastic Constant Matrix: (Units=GPa)
#
#
# Indices 1 2 3 4 5 6 
#
# 1 93.8818 8.3082 43.5461 0.0000 4.2541 0.0000
# 2 8.3082 20.4356 14.5245 0.0000 0.4470 0.0000
# 3 43.5461 14.5245 140.9562 0.0000 0.7967 0.0000
# 4 0.0000 0.0000 0.0000 12.7731 0.0000 1.4300
# 5 4.2541 0.4470 0.7967 0.0000 26.2459 0.0000
# 6 0.0000 0.0000 0.0000 1.4300 0.0000 21.2426
#
#
#
# Elastic Compliance Matrix: (Units=1/GPa)
#
#
# Indices 1 2 3 4 5 6 
#
# 1 0.012647 -0.002515 -0.003637 0.000000 -0.001897 0.000000
# 2 -0.002515 0.053316 -0.004715 0.000000 -0.000357 0.000000
# 3 -0.003637 -0.004715 0.008702 0.000000 0.000406 0.000000
# 4 0.000000 0.000000 0.000000 0.078884 0.000000 -0.005310
# 5 -0.001897 -0.000357 0.000406 0.000000 0.038402 0.000000
# 6 0.000000 0.000000 0.000000 -0.005310 0.000000 0.047433
#
#
# Mechanical properties :
#
#
# Convention : Reuss Voigt Hill
#
# Bulk Modulus (GPa) = 18.89283 43.11457 31.00370
# Shear Modulus (GPa) = 17.93648 24.64529 21.29088
#
# Velocity S-wave (km/s) = 2.97383 3.48589 3.23999
# Velocity P-wave (km/s) = 4.59420 6.12043 5.41140
#
# Compressibility (1/GPa) = 0.05293014
#
# Stress axis : x y z
#
# Youngs Moduli (GPa) = 79.06796 18.75624 114.92119
#
# Poissons Ratio (x) = 0.04717 0.41800
# Poissons Ratio (y) = 0.19887 0.54183
# Poissons Ratio (z) = 0.28759 0.08843
#
# Static dielectric constant tensor:
#      x y z
#    x 3.380710 0.000000 -0.039050 
#    y 0.000000 3.263660 0.000000 
#    z -0.039050 0.000000 3.825420 
# 
# 
# High freq. dielectric constant tensor:
#      x y z
#    x 1.773270 0.000000 -0.004150 
#    y 0.000000 1.753990 0.000000 
#    z -0.004150 0.000000 1.801430 
# 
# From -- ./inp_files/16783.got.cif
#   From: 2010.03.12/outbox.cif.g09.slc.cpg/sg14_9_cif.got.tgz:16783.got - 2010.03.31 13:35:05.
