data_PCOD8125446
_publ_section_title
;
Structure prediction by ZEFSAII (Michael W. Deem and Ramdas Pophale) SiO2 
 PCOD8125446
Probable space group: P 21/C
;
_chemical_formula_sum "Si O2"
_cell_formula_units_Z 28
_cell_length_a 14.019662
_cell_length_b 9.767406
_cell_length_c 19.415308
_cell_angle_alpha 90.000000
_cell_angle_beta 31.302954
_cell_angle_gamma 90.000000
_cell_volume 1381.336290
_symmetry_space_group_name_H-M "P 21/C"
_symmetry_group_IT_number 14
_symmetry_cell_setting 'monoclinic'
loop_
_space_group_symop_operation_xyz
x,y,z
-x,1/2+y,1/2-z
-x,-y,-z
x,1/2-y,1/2+z
loop_
_atom_site_type_symbol
_atom_site_label
_atom_site_fract_x
_atom_site_fract_y
_atom_site_fract_z
Si Si1 0.210788 0.251979 0.992409
Si Si2 0.750447 0.649263 0.181463
Si Si3 0.898049 0.202284 0.453170
Si Si4 0.604027 0.562733 0.794980
Si Si5 0.559557 0.099609 0.744541
Si Si6 0.227595 0.001733 0.579865
Si Si7 0.947612 0.995517 0.163954
O O1 0.176246 0.324508 0.940850
O O2 0.421286 0.200884 0.869166
O O3 0.169098 0.358770 0.078092
O O4 0.072876 0.127163 0.084572
O O5 0.622175 0.772296 0.287222
O O6 0.630523 0.511018 0.256011
O O7 0.923748 0.630638 0.123996
O O8 0.726817 0.186475 0.610106
O O9 0.925960 0.362733 0.423071
O O10 0.862500 0.128195 0.402530
O O11 0.546724 0.521135 0.752432
O O12 0.798842 0.494580 0.693927
O O13 0.447983 0.514823 0.944275
O O14 0.161718 0.012540 0.697825
#
# Coordination Sequence:
#
# PCOD8125446 Si02
#       7
#     4   4   4   4   4   4   4
#     4  11  24  36  61  92 116 156 200 238 308 347
#     4  10  20  39  60  95 118 144 202 247 303 350
#     4  10  22  38  66  85 121 157 192 250 301 341
#     4   9  21  38  63  86 117 157 195 241 300 339
#     4  10  21  36  62  87 121 147 191 255 298 347
#     4  11  22  43  59  86 122 164 197 240 287 357
#     4  11  24  40  61  87 123 158 204 236 287 361
#
# _framework density 20.270227999999999
#
# number of rings (size 3 to 8) (size 9 to 14) (size 15 to 20)
#    0.000    1.714    2.857    1.714    6.000    6.286 
#    0.000    0.000    0.000    2.571    0.000    0.000 
#    0.000    0.000    0.000    0.000    0.000    0.000 
#
# Total GULP energy -347286.473203 kJ/mol
# GULP energy per Si atom -12403.088329 kJ/mol
# Density = 2.022409 g / cm^3
# Si number density = 20.270228 Si / 1000 Ang^3
#
#
#
# Elastic Constant Matrix: (Units=GPa)
#
#
# Indices 1 2 3 4 5 6 
#
# 1 50.7065 19.1348 11.7713 0.0000 -18.7894 0.0000
# 2 19.1348 72.8268 23.2411 0.0000 -17.9183 0.0000
# 3 11.7713 23.2411 60.4523 0.0000 -15.5706 0.0000
# 4 0.0000 0.0000 0.0000 31.7759 0.0000 -4.8183
# 5 -18.7894 -17.9183 -15.5706 0.0000 30.1186 0.0000
# 6 0.0000 0.0000 0.0000 -4.8183 0.0000 15.3552
#
#
#
# Elastic Compliance Matrix: (Units=1/GPa)
#
#
# Indices 1 2 3 4 5 6 
#
# 1 0.026340 -0.003339 -0.000144 0.000000 0.014372 0.000000
# 2 -0.003339 0.017535 -0.004546 0.000000 0.005999 0.000000
# 3 -0.000144 -0.004546 0.020301 0.000000 0.007701 0.000000
# 4 0.000000 0.000000 0.000000 0.033043 0.000000 0.010368
# 5 0.014372 0.005999 0.007701 0.000000 0.049718 0.000000
# 6 0.000000 0.000000 0.000000 0.010368 0.000000 0.068378
#
#
# Mechanical properties :
#
#
# Convention : Reuss Voigt Hill
#
# Bulk Modulus (GPa) = 20.78176 32.47556 26.62866
# Shear Modulus (GPa) = 20.20916 24.10582 22.15749
#
# Velocity S-wave (km/s) = 3.16094 3.45225 3.30980
# Velocity P-wave (km/s) = 4.85764 5.65215 5.26989
#
# Compressibility (1/GPa) = 0.04811913
#
# Stress axis : x y z
#
# Youngs Moduli (GPa) = 37.96494 57.02789 49.25802
#
# Poissons Ratio (x) = 0.19041 0.00708
# Poissons Ratio (y) = 0.12676 0.22394
# Poissons Ratio (z) = 0.00545 0.25926
#
# Static dielectric constant tensor:
#      x y z
#    x 3.769720 0.000000 -0.311100 
#    y 0.000000 3.716000 0.000000 
#    z -0.311100 0.000000 3.759250 
# 
# 
# High freq. dielectric constant tensor:
#      x y z
#    x 1.786510 0.000000 -0.020440 
#    y 0.000000 1.797300 0.000000 
#    z -0.020440 0.000000 1.786880 
# 
# From -- ./inp_files/43489.got.cif
#   From: 2010.03.12/outbox.cif.g09.slc.cpg/sg14_22_cif.got.tgz:43489.got - 2010.03.31 13:35:05.
