data_PCOD8125580
_publ_section_title
;
Structure prediction by ZEFSAII (Michael W. Deem and Ramdas Pophale) SiO2 
 PCOD8125580
Probable space group: P 21/C
;
_chemical_formula_sum "Si O2"
_cell_formula_units_Z 20
_cell_length_a 14.917219
_cell_length_b 11.158726
_cell_length_c 5.395926
_cell_angle_alpha 90.000000
_cell_angle_beta 124.577101
_cell_angle_gamma 90.000000
_cell_volume 739.537060
_symmetry_space_group_name_H-M "P 21/C"
_symmetry_group_IT_number 14
_symmetry_cell_setting 'monoclinic'
loop_
_space_group_symop_operation_xyz
x,y,z
-x,1/2+y,1/2-z
-x,-y,-z
x,1/2-y,1/2+z
loop_
_atom_site_type_symbol
_atom_site_label
_atom_site_fract_x
_atom_site_fract_y
_atom_site_fract_z
Si Si1 0.266731 0.684064 0.680591
Si Si2 0.486678 0.132595 0.369793
Si Si3 0.023806 0.822287 0.143875
Si Si4 0.171824 0.471443 0.754303
Si Si5 0.600877 0.889455 0.265116
O O1 0.223603 0.758086 0.376064
O O2 0.220292 0.549222 0.600092
O O3 0.396503 0.687932 0.885406
O O4 0.406880 0.246943 0.207341
O O5 0.558649 0.947394 0.466331
O O6 0.473321 0.065621 0.083222
O O7 0.049154 0.729859 0.405674
O O8 0.092948 0.944161 0.295590
O O9 0.895810 0.858327 0.955354
O O10 0.274262 0.428284 0.081360
#
# Coordination Sequence:
#
# PCOD8125580 Si02
#       5
#     4   4   4   4   4
#     4  12  23  44  68 100 150 189 230 285 340 411
#     4  10  20  40  62  97 143 185 216 277 334 389
#     4  11  28  53  74 102 142 175 232 312 357 416
#     4  11  28  44  78 108 130 190 242 281 361 423
#     4  10  21  38  64  97 136 181 230 267 334 409
#
# _framework density 27.043948
#
# number of rings (size 3 to 8) (size 9 to 14) (size 15 to 20)
#    0.000    1.200    4.000    1.200    5.600    9.600 
#    0.000    0.000    0.000    0.000    0.000    0.000 
#    0.000    0.000    0.000    0.000    0.000    0.000 
#
# Total GULP energy -248043.607236 kJ/mol
# GULP energy per Si atom -12402.180362 kJ/mol
# Density = 2.698239 g / cm^3
# Si number density = 27.043948 Si / 1000 Ang^3
#
#
#
# Elastic Constant Matrix: (Units=GPa)
#
#
# Indices 1 2 3 4 5 6 
#
# 1 110.6214 27.2620 68.0907 0.0000 -24.4968 0.0000
# 2 27.2620 95.1894 48.6840 0.0000 -16.0041 0.0000
# 3 68.0907 48.6840 172.7405 0.0000 -26.3774 0.0000
# 4 0.0000 0.0000 0.0000 49.3070 0.0000 12.3524
# 5 -24.4968 -16.0041 -26.3774 0.0000 42.2746 0.0000
# 6 0.0000 0.0000 0.0000 12.3524 0.0000 52.8786
#
#
#
# Elastic Compliance Matrix: (Units=1/GPa)
#
#
# Indices 1 2 3 4 5 6 
#
# 1 0.012775 -0.000789 -0.004121 0.000000 0.004532 0.000000
# 2 -0.000789 0.012620 -0.002858 0.000000 0.002537 0.000000
# 3 -0.004121 -0.002858 0.008499 0.000000 0.001833 0.000000
# 4 0.000000 0.000000 0.000000 0.021542 0.000000 -0.005032
# 5 0.004532 0.002537 0.001833 0.000000 0.028385 0.000000
# 6 0.000000 0.000000 0.000000 -0.005032 0.000000 0.020087
#
#
# Mechanical properties :
#
#
# Convention : Reuss Voigt Hill
#
# Bulk Modulus (GPa) = 54.47592 74.06941 64.27267
# Shear Modulus (GPa) = 39.82088 44.52637 42.17363
#
# Velocity S-wave (km/s) = 3.84142 4.06204 3.95327
# Velocity P-wave (km/s) = 6.31368 7.03194 6.68247
#
# Compressibility (1/GPa) = 0.01835673
#
# Stress axis : x y z
#
# Youngs Moduli (GPa) = 78.28049 79.24122 117.66252
#
# Poissons Ratio (x) = 0.06251 0.48489
# Poissons Ratio (y) = 0.06175 0.33631
# Poissons Ratio (z) = 0.32260 0.22649
#
# Static dielectric constant tensor:
#      x y z
#    x 5.186830 0.000000 -0.120580 
#    y 0.000000 5.209190 0.000000 
#    z -0.120580 0.000000 5.141820 
# 
# 
# High freq. dielectric constant tensor:
#      x y z
#    x 2.096230 0.000000 0.013630 
#    y 0.000000 2.112760 0.000000 
#    z 0.013630 0.000000 2.099250 
# 
# From -- ./inp_files/4072.got.cif
#   From: 2010.03.12/outbox.cif.g09.slc.cpg/sg14_3_cif.got.tgz:4072.got - 2010.03.31 13:35:05.
