data_PCOD8125063
_publ_section_title
;
Structure prediction by ZEFSAII (Michael W. Deem and Ramdas Pophale) SiO2 
 PCOD8125063
Probable space group: P 21/C
;
_chemical_formula_sum "Si O2"
_cell_formula_units_Z 32
_cell_length_a 11.609777
_cell_length_b 16.622767
_cell_length_c 9.479836
_cell_angle_alpha 90.000000
_cell_angle_beta 121.037661
_cell_angle_gamma 90.000000
_cell_volume 1567.552020
_symmetry_space_group_name_H-M "P 21/C"
_symmetry_group_IT_number 14
_symmetry_cell_setting 'monoclinic'
loop_
_space_group_symop_operation_xyz
x,y,z
-x,1/2+y,1/2-z
-x,-y,-z
x,1/2-y,1/2+z
loop_
_atom_site_type_symbol
_atom_site_label
_atom_site_fract_x
_atom_site_fract_y
_atom_site_fract_z
Si Si1 0.585849 0.882535 0.861075
Si Si2 0.303550 0.926118 0.754905
Si Si3 0.050216 0.571598 0.929841
Si Si4 0.283825 0.146028 0.325699
Si Si5 0.129041 0.990281 0.173407
Si Si6 0.334135 0.561627 0.593373
Si Si7 0.208313 0.179297 0.779766
Si Si8 0.618073 0.599592 0.819126
O O1 0.433551 0.867880 0.819909
O O2 0.608546 0.833904 0.730161
O O3 0.595061 0.976563 0.837642
O O4 0.700898 0.862028 0.044797
O O5 0.177229 0.888020 0.590689
O O6 0.330164 0.015423 0.712531
O O7 0.264873 0.930949 0.896227
O O8 0.101249 0.537799 0.813632
O O9 0.938477 0.638973 0.826372
O O10 0.000000 0.500000 0.000000
O O11 0.182132 0.080674 0.203014
O O12 0.198313 0.225968 0.309253
O O13 0.365456 0.105161 0.503560
O O14 0.227011 0.927189 0.152642
O O15 0.000000 0.000000 0.000000
O O16 0.462427 0.621003 0.686162
O O17 0.286395 0.169047 0.682106
#
# Coordination Sequence:
#
# PCOD8125063 Si02
#       8
#     4   4   4   4   4   4   4   4
#     4  10  20  36  61  89 123 158 202 255 316 370
#     4  11  19  37  64  94 121 158 211 265 312 367
#     4  12  22  37  65  96 127 168 218 263 312 386
#     4  11  24  37  62  93 126 162 213 266 315 382
#     4  11  23  39  62  94 127 167 216 264 315 374
#     4  10  20  36  64  91 121 152 206 268 315 356
#     4  12  22  41  62  91 129 172 206 257 328 388
#     4  11  20  37  63  92 117 159 213 262 310 370
#
# _framework density 20.413996000000001
#
# number of rings (size 3 to 8) (size 9 to 14) (size 15 to 20)
#    0.000    1.000    5.000    3.750    1.750    1.500 
#    0.000    0.000    5.500    0.000    0.000    0.000 
#    0.000    0.000    0.000    0.000    0.000    0.000 
#
# Total GULP energy -396597.064342 kJ/mol
# GULP energy per Si atom -12393.658261 kJ/mol
# Density = 2.036753 g / cm^3
# Si number density = 20.413996 Si / 1000 Ang^3
#
#
#
# Elastic Constant Matrix: (Units=GPa)
#
#
# Indices 1 2 3 4 5 6 
#
# 1 141.1715 29.2222 71.9157 0.0000 -3.9840 0.0000
# 2 29.2222 58.8807 23.1893 0.0000 2.6463 0.0000
# 3 71.9157 23.1893 154.1818 0.0000 5.8902 0.0000
# 4 0.0000 0.0000 0.0000 14.9190 0.0000 2.0139
# 5 -3.9840 2.6463 5.8902 0.0000 44.7711 0.0000
# 6 0.0000 0.0000 0.0000 2.0139 0.0000 15.4537
#
#
#
# Elastic Compliance Matrix: (Units=1/GPa)
#
#
# Indices 1 2 3 4 5 6 
#
# 1 0.009969 -0.003365 -0.004207 0.000000 0.001639 0.000000
# 2 -0.003365 0.019211 -0.001272 0.000000 -0.001268 0.000000
# 3 -0.004207 -0.001272 0.008694 0.000000 -0.001443 0.000000
# 4 0.000000 0.000000 0.000000 0.068229 0.000000 -0.008891
# 5 0.001639 -0.001268 -0.001443 0.000000 0.022746 0.000000
# 6 0.000000 0.000000 0.000000 -0.008891 0.000000 0.065868
#
#
# Mechanical properties :
#
#
# Convention : Reuss Voigt Hill
#
# Bulk Modulus (GPa) = 49.53179 66.98760 58.25969
# Shear Modulus (GPa) = 22.81712 30.35588 26.58650
#
# Velocity S-wave (km/s) = 3.34686 3.86036 3.61275
# Velocity P-wave (km/s) = 6.26511 7.26331 6.78260
#
# Compressibility (1/GPa) = 0.02018906
#
# Stress axis : x y z
#
# Youngs Moduli (GPa) = 100.30846 52.05314 115.01764
#
# Poissons Ratio (x) = 0.17514 0.48383
# Poissons Ratio (y) = 0.33751 0.14625
# Poissons Ratio (z) = 0.42196 0.06619
#
# Static dielectric constant tensor:
#      x y z
#    x 4.321070 0.000000 -0.081890 
#    y 0.000000 2.944180 0.000000 
#    z -0.081890 0.000000 3.984650 
# 
# 
# High freq. dielectric constant tensor:
#      x y z
#    x 1.805820 0.000000 -0.005720 
#    y 0.000000 1.750760 0.000000 
#    z -0.005720 0.000000 1.819360 
# 
# From -- ./inp_files/13906.got.cif
#   From: 2010.03.12/outbox.cif.g09.slc.cpg/sg14_7_cif.got.tgz:13906.got - 2010.03.31 13:35:05.
