data_PCOD8125579
_publ_section_title
;
Structure prediction by ZEFSAII (Michael W. Deem and Ramdas Pophale) SiO2 
 PCOD8125579
Probable space group: P 21/C
;
_chemical_formula_sum "Si O2"
_cell_formula_units_Z 32
_cell_length_a 29.291547
_cell_length_b 11.302479
_cell_length_c 9.058225
_cell_angle_alpha 90.000000
_cell_angle_beta 147.726812
_cell_angle_gamma 90.000000
_cell_volume 1601.272326
_symmetry_space_group_name_H-M "P 21/C"
_symmetry_group_IT_number 14
_symmetry_cell_setting 'monoclinic'
loop_
_space_group_symop_operation_xyz
x,y,z
-x,1/2+y,1/2-z
-x,-y,-z
x,1/2-y,1/2+z
loop_
_atom_site_type_symbol
_atom_site_label
_atom_site_fract_x
_atom_site_fract_y
_atom_site_fract_z
Si Si1 0.330769 0.465099 0.352362
Si Si2 0.863138 0.963455 0.161174
Si Si3 0.560325 0.732699 0.800858
Si Si4 0.281318 0.139667 0.432416
Si Si5 0.805374 0.621152 0.801535
Si Si6 0.011191 0.127720 0.096602
Si Si7 0.473036 0.618332 0.839935
Si Si8 0.964679 0.155644 0.304582
O O1 0.393763 0.352235 0.520714
O O2 0.257926 0.456069 0.274314
O O3 0.379147 0.589453 0.517399
O O4 0.286765 0.462226 0.071545
O O5 0.837695 0.967411 0.263066
O O6 0.951075 0.892204 0.381386
O O7 0.879999 0.093049 0.139216
O O8 0.784834 0.900837 0.869614
O O9 0.532270 0.652318 0.862185
O O10 0.479819 0.772737 0.475666
O O11 0.625623 0.654098 0.885246
O O12 0.245480 0.264108 0.400756
O O13 0.888393 0.662104 0.121336
O O14 0.967064 0.139452 0.135635
O O15 0.961239 0.207769 0.841222
O O16 0.000000 0.000000 0.000000
O O17 0.500000 0.500000 0.000000
#
# Coordination Sequence:
#
# PCOD8125579 Si02
#       8
#     4   4   4   4   4   4   4   4
#     4  10  22  36  64  93 122 160 213 262 328 376
#     4  10  22  37  61  93 132 157 210 276 327 379
#     4  10  20  40  62  93 127 160 213 264 317 388
#     4  11  20  35  65  99 122 160 213 278 321 377
#     4  10  21  37  63  94 125 161 215 276 324 382
#     4  11  25  40  67  90 129 177 221 269 321 392
#     4  10  22  40  62  92 128 167 206 267 324 400
#     4  10  24  41  61  95 128 174 219 264 333 386
#
# _framework density 19.984107999999999
#
# number of rings (size 3 to 8) (size 9 to 14) (size 15 to 20)
#    0.000    1.750    2.500    1.500   12.250    0.500 
#    0.000    0.000    5.500    0.000    0.000    0.000 
#    0.000    0.000    0.000    0.000    0.000    0.000 
#
# Total GULP energy -396621.499387 kJ/mol
# GULP energy per Si atom -12394.421856 kJ/mol
# Density = 1.993862 g / cm^3
# Si number density = 19.984108 Si / 1000 Ang^3
#
#
#
# Elastic Constant Matrix: (Units=GPa)
#
#
# Indices 1 2 3 4 5 6 
#
# 1 132.9761 64.7311 43.9745 0.0000 -0.6761 0.0000
# 2 64.7311 89.6539 23.3892 0.0000 -7.9239 0.0000
# 3 43.9745 23.3892 55.5225 0.0000 -14.4227 0.0000
# 4 0.0000 0.0000 0.0000 40.0108 0.0000 -4.2823
# 5 -0.6761 -7.9239 -14.4227 0.0000 28.5101 0.0000
# 6 0.0000 0.0000 0.0000 -4.2823 0.0000 31.1789
#
#
#
# Elastic Compliance Matrix: (Units=1/GPa)
#
#
# Indices 1 2 3 4 5 6 
#
# 1 0.015210 -0.008976 -0.010155 0.000000 -0.007271 0.000000
# 2 -0.008976 0.017849 0.000948 0.000000 0.005227 0.000000
# 3 -0.010155 0.000948 0.029542 0.000000 0.014967 0.000000
# 4 0.000000 0.000000 0.000000 0.025366 0.000000 0.003484
# 5 -0.007271 0.005227 0.014967 0.000000 0.043927 0.000000
# 6 0.000000 0.000000 0.000000 0.003484 0.000000 0.032552
#
#
# Mechanical properties :
#
#
# Convention : Reuss Voigt Hill
#
# Bulk Modulus (GPa) = 38.11469 60.26022 49.18745
# Shear Modulus (GPa) = 23.85980 29.67712 26.76846
#
# Velocity S-wave (km/s) = 3.45909 3.85780 3.66387
# Velocity P-wave (km/s) = 5.92179 7.07552 6.52421
#
# Compressibility (1/GPa) = 0.02623661
#
# Stress axis : x y z
#
# Youngs Moduli (GPa) = 65.74440 56.02462 33.85006
#
# Poissons Ratio (x) = 0.50285 0.34373
# Poissons Ratio (y) = 0.59009 -0.03207
# Poissons Ratio (z) = 0.66760 -0.05308
#
# Static dielectric constant tensor:
#      x y z
#    x 3.602300 0.000000 -0.056950 
#    y 0.000000 3.571550 0.000000 
#    z -0.056950 0.000000 3.934030 
# 
# 
# High freq. dielectric constant tensor:
#      x y z
#    x 1.783750 0.000000 -0.013400 
#    y 0.000000 1.751210 0.000000 
#    z -0.013400 0.000000 1.778210 
# 
# From -- ./inp_files/18943.got.cif
#   From: 2010.03.12/outbox.cif.g09.slc.cpg/sg14_10_cif.got.tgz:18943.got - 2010.03.31 13:35:05.
