data_PCOD8125438
_publ_section_title
;
Structure prediction by ZEFSAII (Michael W. Deem and Ramdas Pophale) SiO2 
 PCOD8125438
Probable space group: P 21/C
;
_chemical_formula_sum "Si O2"
_cell_formula_units_Z 20
_cell_length_a 10.289392
_cell_length_b 13.023542
_cell_length_c 8.520142
_cell_angle_alpha 90.000000
_cell_angle_beta 53.614665
_cell_angle_gamma 90.000000
_cell_volume 919.149537
_symmetry_space_group_name_H-M "P 21/C"
_symmetry_group_IT_number 14
_symmetry_cell_setting 'monoclinic'
loop_
_space_group_symop_operation_xyz
x,y,z
-x,1/2+y,1/2-z
-x,-y,-z
x,1/2-y,1/2+z
loop_
_atom_site_type_symbol
_atom_site_label
_atom_site_fract_x
_atom_site_fract_y
_atom_site_fract_z
Si Si1 0.779622 0.375280 0.638835
Si Si2 0.675491 0.183876 0.562846
Si Si3 0.617647 0.570744 0.813688
Si Si4 0.905775 0.693008 0.733736
Si Si5 0.018430 0.621135 0.988852
O O1 0.675295 0.306394 0.591518
O O2 0.733214 0.493477 0.635080
O O3 0.970455 0.361133 0.476148
O O4 0.740607 0.344963 0.845225
O O5 0.494350 0.140405 0.718864
O O6 0.792505 0.138504 0.613084
O O7 0.726791 0.647193 0.840476
O O8 0.500000 0.500000 0.000000
O O9 0.967579 0.671139 0.862408
O O10 0.912149 0.816659 0.696155
O O11 0.000000 0.500000 0.000000
#
# Coordination Sequence:
#
# PCOD8125438 Si02
#       5
#     4   4   4   4   4
#     4  10  20  39  60  86 121 163 206 255 318 382
#     4  10  21  38  59  86 122 159 205 265 314 371
#     4  10  22  38  60  88 122 163 208 264 318 370
#     4  11  23  40  64  91 123 168 212 255 317 387
#     4  11  23  41  63  93 127 163 210 263 311 378
#
# _framework density 21.759243999999999
#
# number of rings (size 3 to 8) (size 9 to 14) (size 15 to 20)
#    0.000    1.600    0.000    7.800    0.000    6.400 
#    0.000    4.000    0.000    4.800    0.000    0.000 
#    0.000    0.000    0.000    0.000    0.000    0.000 
#
# Total GULP energy -247815.039056 kJ/mol
# GULP energy per Si atom -12390.751953 kJ/mol
# Density = 2.170972 g / cm^3
# Si number density = 21.759244 Si / 1000 Ang^3
#
#
#
# Elastic Constant Matrix: (Units=GPa)
#
#
# Indices 1 2 3 4 5 6 
#
# 1 185.0650 70.2685 37.4498 0.0000 1.7372 0.0000
# 2 70.2685 132.4525 42.3098 0.0000 4.0766 0.0000
# 3 37.4498 42.3098 53.6466 0.0000 10.9882 0.0000
# 4 0.0000 0.0000 0.0000 28.7194 0.0000 -8.8534
# 5 1.7372 4.0766 10.9882 0.0000 33.9514 0.0000
# 6 0.0000 0.0000 0.0000 -8.8534 0.0000 44.1030
#
#
#
# Elastic Compliance Matrix: (Units=1/GPa)
#
#
# Indices 1 2 3 4 5 6 
#
# 1 0.007059 -0.002860 -0.002858 0.000000 0.000907 0.000000
# 2 -0.002860 0.011319 -0.007157 0.000000 0.001103 0.000000
# 3 -0.002858 -0.007157 0.027925 0.000000 -0.008032 0.000000
# 4 0.000000 0.000000 0.000000 0.037117 0.000000 0.007451
# 5 0.000907 0.001103 -0.008032 0.000000 0.031875 0.000000
# 6 0.000000 0.000000 0.000000 0.007451 0.000000 0.024170
#
#
# Mechanical properties :
#
#
# Convention : Reuss Voigt Hill
#
# Bulk Modulus (GPa) = 48.65220 74.58002 61.61611
# Shear Modulus (GPa) = 29.05858 36.09716 32.57787
#
# Velocity S-wave (km/s) = 3.65836 4.07742 3.87356
# Velocity P-wave (km/s) = 6.34450 7.51776 6.95591
#
# Compressibility (1/GPa) = 0.02055405
#
# Stress axis : x y z
#
# Youngs Moduli (GPa) = 141.65685 88.34451 35.80977
#
# Poissons Ratio (x) = 0.25267 0.10235
# Poissons Ratio (y) = 0.40514 0.25628
# Poissons Ratio (z) = 0.40488 0.63226
#
# Static dielectric constant tensor:
#      x y z
#    x 4.424460 0.000000 -0.337550 
#    y 0.000000 4.701920 0.000000 
#    z -0.337550 0.000000 3.942840 
# 
# 
# High freq. dielectric constant tensor:
#      x y z
#    x 1.862620 0.000000 -0.003310 
#    y 0.000000 1.870090 0.000000 
#    z -0.003310 0.000000 1.826250 
# 
# From -- ./inp_files/12721.got.cif
#   From: 2010.03.12/outbox.cif.g09.slc.cpg/sg14_7_cif.got.tgz:12721.got - 2010.03.31 13:35:05.
