data_PCOD8125353
_publ_section_title
;
Structure prediction by ZEFSAII (Michael W. Deem and Ramdas Pophale) SiO2 
 PCOD8125353
Probable space group: P 21/C
;
_chemical_formula_sum "Si O2"
_cell_formula_units_Z 32
_cell_length_a 8.878489
_cell_length_b 23.385526
_cell_length_c 13.868402
_cell_angle_alpha 90.000000
_cell_angle_beta 146.340441
_cell_angle_gamma 90.000000
_cell_volume 1595.966860
_symmetry_space_group_name_H-M "P 21/C"
_symmetry_group_IT_number 14
_symmetry_cell_setting 'monoclinic'
loop_
_space_group_symop_operation_xyz
x,y,z
-x,1/2+y,1/2-z
-x,-y,-z
x,1/2-y,1/2+z
loop_
_atom_site_type_symbol
_atom_site_label
_atom_site_fract_x
_atom_site_fract_y
_atom_site_fract_z
Si Si1 0.558818 0.870589 0.826972
Si Si2 0.483510 0.373448 0.107810
Si Si3 0.964659 0.297840 0.342672
Si Si4 0.977591 0.679115 0.026364
Si Si5 0.497305 0.410055 0.904438
Si Si6 0.327594 0.450728 0.457894
Si Si7 0.168705 0.518386 0.684050
Si Si8 0.061970 0.355116 0.206033
O O1 0.631850 0.875978 0.753648
O O2 0.295651 0.832393 0.704597
O O3 0.831670 0.846512 0.016156
O O4 0.516558 0.930949 0.860761
O O5 0.203544 0.368052 0.016327
O O6 0.670632 0.423234 0.251867
O O7 0.657581 0.314514 0.209610
O O8 0.395201 0.384748 0.950740
O O9 0.065639 0.239310 0.443473
O O10 0.985701 0.302335 0.237100
O O11 0.875663 0.677047 0.861299
O O12 0.403969 0.475236 0.843185
O O13 0.820516 0.401636 0.066377
O O14 0.500000 0.500000 0.500000
O O15 0.308063 0.395488 0.375151
O O16 0.030997 0.474044 0.330927
O O17 0.000000 0.500000 0.500000
#
# Coordination Sequence:
#
# PCOD8125353 Si02
#       8
#     4   4   4   4   4   4   4   4
#     4  10  21  42  58  88 127 155 201 258 307 363
#     4  11  23  39  62  92 120 157 212 253 293 381
#     4  10  20  45  61  82 122 164 201 255 311 354
#     4  11  24  37  65  91 116 159 209 257 308 362
#     4  10  20  38  62  85 122 161 193 250 310 359
#     4  11  23  39  61  88 127 167 197 250 310 371
#     4  12  22  39  62  90 124 170 205 248 309 373
#     4   9  22  42  60  87 127 156 200 260 306 364
#
# _framework density 20.050540000000002
#
# number of rings (size 3 to 8) (size 9 to 14) (size 15 to 20)
#    0.000    1.500    5.000    1.125    3.500    1.000 
#    0.000   10.000    0.000    0.000    0.000    0.000 
#    0.000    0.000    0.000    0.000    0.000    0.000 
#
# Total GULP energy -396559.094278 kJ/mol
# GULP energy per Si atom -12392.471696 kJ/mol
# Density = 2.000490 g / cm^3
# Si number density = 20.050540 Si / 1000 Ang^3
#
#
#
# Elastic Constant Matrix: (Units=GPa)
#
#
# Indices 1 2 3 4 5 6 
#
# 1 109.0744 49.2461 39.2652 0.0000 -23.6153 0.0000
# 2 49.2461 96.7752 30.0875 0.0000 -9.6204 0.0000
# 3 39.2652 30.0875 72.1424 0.0000 -22.8759 0.0000
# 4 0.0000 0.0000 0.0000 36.7698 0.0000 0.3193
# 5 -23.6153 -9.6204 -22.8759 0.0000 34.1543 0.0000
# 6 0.0000 0.0000 0.0000 0.3193 0.0000 29.9286
#
#
#
# Elastic Compliance Matrix: (Units=1/GPa)
#
#
# Indices 1 2 3 4 5 6 
#
# 1 0.014231 -0.005548 -0.003564 0.000000 0.005890 0.000000
# 2 -0.005548 0.014036 -0.003551 0.000000 -0.002261 0.000000
# 3 -0.003564 -0.003551 0.020548 0.000000 0.010298 0.000000
# 4 0.000000 0.000000 0.000000 0.027199 0.000000 -0.000290
# 5 0.005890 -0.002261 0.010298 0.000000 0.039612 0.000000
# 6 0.000000 0.000000 0.000000 -0.000290 0.000000 0.033416
#
#
# Mechanical properties :
#
#
# Convention : Reuss Voigt Hill
#
# Bulk Modulus (GPa) = 42.57459 57.24327 49.90893
# Shear Modulus (GPa) = 27.44278 30.79676 29.11977
#
# Velocity S-wave (km/s) = 3.70358 3.92338 3.81506
# Velocity P-wave (km/s) = 6.29034 7.00966 6.65972
#
# Compressibility (1/GPa) = 0.02348819
#
# Stress axis : x y z
#
# Youngs Moduli (GPa) = 70.26767 71.24638 48.66730
#
# Poissons Ratio (x) = 0.39530 0.17345
# Poissons Ratio (y) = 0.38987 0.17281
# Poissons Ratio (z) = 0.25044 0.25299
#
# Static dielectric constant tensor:
#      x y z
#    x 3.803590 0.000000 -0.285060 
#    y 0.000000 3.508550 0.000000 
#    z -0.285060 0.000000 3.864200 
# 
# 
# High freq. dielectric constant tensor:
#      x y z
#    x 1.781570 0.000000 -0.013590 
#    y 0.000000 1.769400 0.000000 
#    z -0.013590 0.000000 1.790970 
# 
# From -- ./inp_files/42199.got.cif
#   From: 2010.03.12/outbox.cif.g09.slc.cpg/sg14_22_cif.got.tgz:42199.got - 2010.03.31 13:35:05.
