data_PCOD8125658
_publ_section_title
;
Structure prediction by ZEFSAII (Michael W. Deem and Ramdas Pophale) SiO2 
 PCOD8125658
Probable space group: P 21/C
;
_chemical_formula_sum "Si O2"
_cell_formula_units_Z 20
_cell_length_a 9.672060
_cell_length_b 7.595722
_cell_length_c 22.295423
_cell_angle_alpha 90.000000
_cell_angle_beta 37.223455
_cell_angle_gamma 90.000000
_cell_volume 990.844245
_symmetry_space_group_name_H-M "P 21/C"
_symmetry_group_IT_number 14
_symmetry_cell_setting 'monoclinic'
loop_
_space_group_symop_operation_xyz
x,y,z
-x,1/2+y,1/2-z
-x,-y,-z
x,1/2-y,1/2+z
loop_
_atom_site_type_symbol
_atom_site_label
_atom_site_fract_x
_atom_site_fract_y
_atom_site_fract_z
Si Si1 0.205617 0.305791 0.040378
Si Si2 0.998811 0.106980 0.323378
Si Si3 0.956884 0.506542 0.324786
Si Si4 0.463307 0.628341 0.177592
Si Si5 0.735016 0.420978 0.176255
O O1 0.204197 0.471464 0.087357
O O2 0.207048 0.123682 0.076823
O O3 0.972283 0.316112 0.080692
O O4 0.427776 0.308592 0.922416
O O5 0.900543 0.303578 0.357614
O O6 0.098532 0.051344 0.224666
O O7 0.207621 0.084664 0.298780
O O8 0.220879 0.544758 0.246647
O O9 0.626704 0.483514 0.151507
O O10 0.443249 0.793242 0.228909
#
# Coordination Sequence:
#
# PCOD8125658 Si02
#       5
#     4   4   4   4   4
#     4   9  22  38  61  86 119 149 199 234 285 349
#     4  10  20  41  58  83 123 151 186 246 291 327
#     4  11  20  40  61  84 120 155 188 243 290 337
#     4  11  20  40  61  86 117 155 197 233 291 346
#     4   9  21  38  57  85 118 153 186 248 280 335
#
# _framework density 20.184806999999999
#
# number of rings (size 3 to 8) (size 9 to 14) (size 15 to 20)
#    1.200    0.800    2.000    1.800    0.000    0.800 
#    7.200    5.000    0.000    0.000    0.000    0.000 
#    0.000    0.000    0.000    0.000    0.000    0.000 
#
# Total GULP energy -247916.347406 kJ/mol
# GULP energy per Si atom -12395.817370 kJ/mol
# Density = 2.013887 g / cm^3
# Si number density = 20.184807 Si / 1000 Ang^3
#
#
#
# Elastic Constant Matrix: (Units=GPa)
#
#
# Indices 1 2 3 4 5 6 
#
# 1 47.3893 -13.7456 -10.3869 0.0000 4.6463 0.0000
# 2 -13.7456 123.1775 24.1190 0.0000 0.9553 0.0000
# 3 -10.3869 24.1190 50.7406 0.0000 10.6072 0.0000
# 4 0.0000 0.0000 0.0000 22.1593 0.0000 8.2457
# 5 4.6463 0.9553 10.6072 0.0000 12.3369 0.0000
# 6 0.0000 0.0000 0.0000 8.2457 0.0000 28.0252
#
#
#
# Elastic Compliance Matrix: (Units=1/GPa)
#
#
# Indices 1 2 3 4 5 6 
#
# 1 0.024791 0.001364 0.007803 0.000000 -0.016152 0.000000
# 2 0.001364 0.009161 -0.004657 0.000000 0.002781 0.000000
# 3 0.007803 -0.004657 0.029329 0.000000 -0.027796 0.000000
# 4 0.000000 0.000000 0.000000 0.050676 0.000000 -0.014910
# 5 -0.016152 0.002781 -0.027796 0.000000 0.110824 0.000000
# 6 0.000000 0.000000 0.000000 -0.014910 0.000000 0.040069
#
#
# Mechanical properties :
#
#
# Convention : Reuss Voigt Hill
#
# Bulk Modulus (GPa) = 13.83082 24.58673 19.20877
# Shear Modulus (GPa) = 17.86154 27.25899 22.56027
#
# Velocity S-wave (km/s) = 2.97795 3.67886 3.34681
# Velocity P-wave (km/s) = 4.32334 5.50024 4.94691
#
# Compressibility (1/GPa) = 0.07230231
#
# Stress axis : x y z
#
# Youngs Moduli (GPa) = 40.33671 109.16087 34.09538
#
# Poissons Ratio (x) = -0.14888 -0.26605
# Poissons Ratio (y) = -0.05501 0.15877
# Poissons Ratio (z) = -0.31475 0.50832
#
# Static dielectric constant tensor:
#      x y z
#    x 3.515540 0.000000 0.099620 
#    y 0.000000 3.670820 0.000000 
#    z 0.099620 0.000000 3.319070 
# 
# 
# High freq. dielectric constant tensor:
#      x y z
#    x 1.784290 0.000000 0.008480 
#    y 0.000000 1.787870 0.000000 
#    z 0.008480 0.000000 1.768680 
# 
# From -- ./inp_files/31258.got.cif
#   From: 2010.03.12/outbox.cif.g09.slc.cpg/sg14_16_cif.got.tgz:31258.got - 2010.03.31 13:35:05.
