data_PCOD8125146
_publ_section_title
;
Structure prediction by ZEFSAII (Michael W. Deem and Ramdas Pophale) SiO2 
 PCOD8125146
Probable space group: P 21/C
;
_chemical_formula_sum "Si O2"
_cell_formula_units_Z 24
_cell_length_a 11.547768
_cell_length_b 9.084066
_cell_length_c 14.704554
_cell_angle_alpha 90.000000
_cell_angle_beta 49.171401
_cell_angle_gamma 90.000000
_cell_volume 1167.175115
_symmetry_space_group_name_H-M "P 21/C"
_symmetry_group_IT_number 14
_symmetry_cell_setting 'monoclinic'
loop_
_space_group_symop_operation_xyz
x,y,z
-x,1/2+y,1/2-z
-x,-y,-z
x,1/2-y,1/2+z
loop_
_atom_site_type_symbol
_atom_site_label
_atom_site_fract_x
_atom_site_fract_y
_atom_site_fract_z
Si Si1 0.172194 0.265964 0.015479
Si Si2 0.660062 0.170942 0.448487
Si Si3 0.181814 0.741283 0.803936
Si Si4 0.704757 0.550989 0.685810
Si Si5 0.323239 0.333144 0.114930
Si Si6 0.342420 0.552683 0.863626
O O1 0.219184 0.112458 0.944858
O O2 0.269306 0.394596 0.919565
O O3 0.208992 0.251334 0.104354
O O4 0.994488 0.299185 0.093959
O O5 0.777815 0.260544 0.324603
O O6 0.491193 0.240682 0.521435
O O7 0.704065 0.170182 0.532961
O O8 0.659388 0.003186 0.418070
O O9 0.281976 0.614491 0.799578
O O10 0.216781 0.896483 0.832635
O O11 0.737829 0.669861 0.749813
O O12 0.523796 0.527864 0.766762
#
# Coordination Sequence:
#
# PCOD8125146 Si02
#       6
#     4   4   4   4   4   4
#     4  11  21  34  54  83 112 140 178 229 278 317
#     4   8  16  33  55  74  98 140 184 214 255 322
#     4  11  21  34  54  83 112 140 178 229 278 317
#     4  10  20  37  59  79 107 148 187 220 263 327
#     4   8  16  33  55  74  98 140 184 214 255 322
#     4  10  20  37  59  79 107 148 187 220 263 327
#
# _framework density 20.562467999999999
#
# number of rings (size 3 to 8) (size 9 to 14) (size 15 to 20)
#    0.000    2.333    0.000    6.000    0.000    1.333 
#    0.000    5.000    0.000    6.000    0.000    0.000 
#    0.000    0.000    0.000    0.000    0.000    0.000 
#
# Total GULP energy -297521.903701 kJ/mol
# GULP energy per Si atom -12396.745988 kJ/mol
# Density = 2.051567 g / cm^3
# Si number density = 20.562468 Si / 1000 Ang^3
#
#
#
# Elastic Constant Matrix: (Units=GPa)
#
#
# Indices 1 2 3 4 5 6 
#
# 1 90.7158 9.6880 22.0135 0.0000 -9.5152 0.0000
# 2 9.6880 20.2862 -5.0356 0.0000 -4.7001 0.0000
# 3 22.0135 -5.0356 43.6762 0.0000 -7.2188 0.0000
# 4 0.0000 0.0000 0.0000 22.5637 0.0000 0.7408
# 5 -9.5152 -4.7001 -7.2188 0.0000 16.6687 0.0000
# 6 0.0000 0.0000 0.0000 0.7408 0.0000 29.7894
#
#
#
# Elastic Compliance Matrix: (Units=1/GPa)
#
#
# Indices 1 2 3 4 5 6 
#
# 1 0.013965 -0.007976 -0.007553 0.000000 0.002452 0.000000
# 2 -0.007976 0.060964 0.014150 0.000000 0.018765 0.000000
# 3 -0.007553 0.014150 0.030461 0.000000 0.012870 0.000000
# 4 0.000000 0.000000 0.000000 0.044355 0.000000 -0.001103
# 5 0.002452 0.018765 0.012870 0.000000 0.072257 0.000000
# 6 0.000000 0.000000 0.000000 -0.001103 0.000000 0.033596
#
#
# Mechanical properties :
#
#
# Convention : Reuss Voigt Hill
#
# Bulk Modulus (GPa) = 9.74344 23.11222 16.42783
# Shear Modulus (GPa) = 17.09002 22.33852 19.71427
#
# Velocity S-wave (km/s) = 2.88605 3.29959 3.09973
# Velocity P-wave (km/s) = 3.98177 5.07748 4.56264
#
# Compressibility (1/GPa) = 0.10263312
#
# Stress axis : x y z
#
# Youngs Moduli (GPa) = 71.60613 16.40309 32.82848
#
# Poissons Ratio (x) = 0.13083 0.24796
# Poissons Ratio (y) = 0.57114 -0.46454
# Poissons Ratio (z) = 0.54085 -0.23211
#
# Static dielectric constant tensor:
#      x y z
#    x 3.925690 0.000000 0.351010 
#    y 0.000000 3.267060 0.000000 
#    z 0.351010 0.000000 3.983270 
# 
# 
# High freq. dielectric constant tensor:
#      x y z
#    x 1.807960 0.000000 0.008010 
#    y 0.000000 1.766650 0.000000 
#    z 0.008010 0.000000 1.807160 
# 
# From -- ./inp_files/43963.got.cif
#   From: 2010.03.12/outbox.cif.g09.slc.cpg/sg14_22_cif.got.tgz:43963.got - 2010.03.31 13:35:05.
