data_PCOD8125748
_publ_section_title
;
Structure prediction by ZEFSAII (Michael W. Deem and Ramdas Pophale) SiO2 
 PCOD8125748
Probable space group: P 21/C
;
_chemical_formula_sum "Si O2"
_cell_formula_units_Z 24
_cell_length_a 14.761810
_cell_length_b 10.824044
_cell_length_c 15.425559
_cell_angle_alpha 90.000000
_cell_angle_beta 26.353300
_cell_angle_gamma 90.000000
_cell_volume 1094.107698
_symmetry_space_group_name_H-M "P 21/C"
_symmetry_group_IT_number 14
_symmetry_cell_setting 'monoclinic'
loop_
_space_group_symop_operation_xyz
x,y,z
-x,1/2+y,1/2-z
-x,-y,-z
x,1/2-y,1/2+z
loop_
_atom_site_type_symbol
_atom_site_label
_atom_site_fract_x
_atom_site_fract_y
_atom_site_fract_z
Si Si1 0.506652 0.157849 0.388386
Si Si2 0.061913 0.958506 0.282536
Si Si3 0.074579 0.788228 0.876565
Si Si4 0.280191 0.693534 0.469547
Si Si5 0.115416 0.224043 0.290436
Si Si6 0.242545 0.937377 0.590675
O O1 0.698598 0.199914 0.279524
O O2 0.555224 0.165796 0.244699
O O3 0.332530 0.253888 0.561901
O O4 0.421568 0.019783 0.480359
O O5 0.025644 0.841920 0.374653
O O6 0.102243 0.075678 0.309797
O O7 0.253949 0.925989 0.054584
O O8 0.861320 0.984885 0.396878
O O9 0.065949 0.899508 0.813351
O O10 0.910145 0.795330 0.095409
O O11 0.352309 0.812516 0.463112
O O12 0.055370 0.724656 0.627197
#
# Coordination Sequence:
#
# PCOD8125748 Si02
#       6
#     4   4   4   4   4   4
#     4  11  22  39  61  92 124 161 204 250 311 357
#     4  10  20  42  64  87 124 167 205 252 303 360
#     4  10  23  42  60  92 126 154 208 259 297 372
#     4   9  21  39  59  92 124 156 212 254 288 372
#     4  10  21  39  63  88 123 166 200 250 315 355
#     4  10  21  41  64  87 125 164 203 253 309 355
#
# _framework density 21.935684999999999
#
# number of rings (size 3 to 8) (size 9 to 14) (size 15 to 20)
#    0.000    2.000    1.667    1.000    2.333    1.333 
#    9.000    0.000    0.000    0.000    0.000    0.000 
#    0.000    0.000    0.000    0.000    0.000    0.000 
#
# Total GULP energy -297437.432658 kJ/mol
# GULP energy per Si atom -12393.226361 kJ/mol
# Density = 2.188576 g / cm^3
# Si number density = 21.935685 Si / 1000 Ang^3
#
#
#
# Elastic Constant Matrix: (Units=GPa)
#
#
# Indices 1 2 3 4 5 6 
#
# 1 63.0346 23.0603 21.4386 0.0000 11.3016 0.0000
# 2 23.0603 97.7055 21.3020 0.0000 4.0561 0.0000
# 3 21.4386 21.3020 106.9156 0.0000 11.4496 0.0000
# 4 0.0000 0.0000 0.0000 24.5109 0.0000 2.7535
# 5 11.3016 4.0561 11.4496 0.0000 29.9167 0.0000
# 6 0.0000 0.0000 0.0000 2.7535 0.0000 25.6853
#
#
#
# Elastic Compliance Matrix: (Units=1/GPa)
#
#
# Indices 1 2 3 4 5 6 
#
# 1 0.019103 -0.003731 -0.002470 0.000000 -0.005765 0.000000
# 2 -0.003731 0.011441 -0.001581 0.000000 0.000463 0.000000
# 3 -0.002470 -0.001581 0.010470 0.000000 -0.002860 0.000000
# 4 0.000000 0.000000 0.000000 0.041295 0.000000 -0.004427
# 5 -0.005765 0.000463 -0.002860 0.000000 0.036636 0.000000
# 6 0.000000 0.000000 0.000000 -0.004427 0.000000 0.039407
#
#
# Mechanical properties :
#
#
# Convention : Reuss Voigt Hill
#
# Bulk Modulus (GPa) = 39.29241 44.36194 41.82718
# Shear Modulus (GPa) = 27.41253 29.47957 28.44605
#
# Velocity S-wave (km/s) = 3.53891 3.66991 3.60501
# Velocity P-wave (km/s) = 5.88642 6.18266 6.03636
#
# Compressibility (1/GPa) = 0.02545021
#
# Stress axis : x y z
#
# Youngs Moduli (GPa) = 52.34822 87.40618 95.51431
#
# Poissons Ratio (x) = 0.32610 0.23590
# Poissons Ratio (y) = 0.19530 0.15101
# Poissons Ratio (z) = 0.12929 0.13819
#
# Static dielectric constant tensor:
#      x y z
#    x 4.002360 0.000000 0.399180 
#    y 0.000000 4.118210 0.000000 
#    z 0.399180 0.000000 3.862750 
# 
# 
# High freq. dielectric constant tensor:
#      x y z
#    x 1.857120 0.000000 0.025660 
#    y 0.000000 1.870230 0.000000 
#    z 0.025660 0.000000 1.850710 
# 
# From -- ./inp_files/47050.got.cif
#   From: 2010.03.12/outbox.cif.g09.slc.cpg/sg14_24_cif.got.tgz:47050.got - 2010.03.31 13:35:05.
