data_PCOD8125893
_publ_section_title
;
Structure prediction by ZEFSAII (Michael W. Deem and Ramdas Pophale) SiO2 
 PCOD8125893
Probable space group: P 21/C
;
_chemical_formula_sum "Si O2"
_cell_formula_units_Z 28
_cell_length_a 12.185584
_cell_length_b 17.199941
_cell_length_c 14.039822
_cell_angle_alpha 90.000000
_cell_angle_beta 152.096735
_cell_angle_gamma 90.000000
_cell_volume 1377.090119
_symmetry_space_group_name_H-M "P 21/C"
_symmetry_group_IT_number 14
_symmetry_cell_setting 'monoclinic'
loop_
_space_group_symop_operation_xyz
x,y,z
-x,1/2+y,1/2-z
-x,-y,-z
x,1/2-y,1/2+z
loop_
_atom_site_type_symbol
_atom_site_label
_atom_site_fract_x
_atom_site_fract_y
_atom_site_fract_z
Si Si1 0.743124 0.828813 0.764331
Si Si2 0.312046 0.090016 0.475526
Si Si3 0.938164 0.090645 0.345139
Si Si4 0.061837 0.090645 0.654863
Si Si5 0.256874 0.828813 0.235666
Si Si6 0.687956 0.090015 0.524476
Si Si7 0.499998 0.690093 0.499999
O O1 0.769598 0.858257 0.676189
O O2 0.587235 0.889885 0.706249
O O3 0.607842 0.745818 0.664943
O O4 0.999999 0.818550 0.999999
O O5 0.587236 0.110115 0.706252
O O6 0.162344 0.111934 0.453131
O O7 0.284755 0.000000 0.428131
O O8 0.714032 0.135641 0.129595
O O9 1.000000 0.116114 0.500000
O O10 0.876823 1.000000 0.293537
O O11 0.837659 0.111934 0.546873
O O12 0.285971 0.135642 0.870408
O O13 0.230400 0.858259 0.323808
O O14 0.392154 0.745817 0.335054
#
# Coordination Sequence:
#
# PCOD8125893 Si02
#       7
#     4   4   4   4   4   4   4
#     4  10  21  36  57  83 111 145 179 221 276 323
#     4   9  20  37  57  84 111 138 182 229 269 322
#     4  10  21  38  59  81 108 144 183 225 272 320
#     4  10  21  38  59  81 108 144 183 225 272 320
#     4  10  21  36  57  83 111 145 179 221 276 323
#     4   9  20  37  57  84 111 138 182 229 269 322
#     4  10  21  38  55  80 114 144 182 224 265 324
#
# _framework density 20.332727999999999
#
# number of rings (size 3 to 8) (size 9 to 14) (size 15 to 20)
#    0.000    2.571    0.000    3.000    0.000    9.143 
#    0.000   14.286    0.000    0.000    0.000    0.000 
#    0.000    0.000    0.000    0.000    0.000    0.000 
#
# Total GULP energy -346984.830090 kJ/mol
# GULP energy per Si atom -12392.315360 kJ/mol
# Density = 2.028645 g / cm^3
# Si number density = 20.332728 Si / 1000 Ang^3
#
#
#
# Elastic Constant Matrix: (Units=GPa)
#
#
# Indices 1 2 3 4 5 6 
#
# 1 147.2998 51.1503 61.2499 0.0000 22.8629 0.0000
# 2 51.1503 94.3391 63.2403 0.0000 7.5286 0.0000
# 3 61.2499 63.2403 178.6631 0.0000 23.4782 0.0000
# 4 0.0000 0.0000 0.0000 34.2592 0.0000 10.6949
# 5 22.8629 7.5286 23.4782 0.0000 21.6695 0.0000
# 6 0.0000 0.0000 0.0000 10.6949 0.0000 8.5781
#
#
#
# Elastic Compliance Matrix: (Units=1/GPa)
#
#
# Indices 1 2 3 4 5 6 
#
# 1 0.009813 -0.004106 -0.000860 0.000000 -0.007995 0.000000
# 2 -0.004106 0.015622 -0.004638 0.000000 0.003930 0.000000
# 3 -0.000860 -0.004638 0.008399 0.000000 -0.006581 0.000000
# 4 0.000000 0.000000 0.000000 0.047789 0.000000 -0.059583
# 5 -0.007995 0.003930 -0.006581 0.000000 0.060348 0.000000
# 6 0.000000 0.000000 0.000000 -0.059583 0.000000 0.190862
#
#
# Mechanical properties :
#
#
# Convention : Reuss Voigt Hill
#
# Bulk Modulus (GPa) = 68.37791 85.73143 77.05467
# Shear Modulus (GPa) = 14.00881 29.21212 21.61047
#
# Velocity S-wave (km/s) = 2.62769 3.79450 3.26366
# Velocity P-wave (km/s) = 6.55048 7.83922 7.22365
#
# Compressibility (1/GPa) = 0.01462461
#
# Stress axis : x y z
#
# Youngs Moduli (GPa) = 101.90154 64.01181 119.06716
#
# Poissons Ratio (x) = 0.26284 0.10242
# Poissons Ratio (y) = 0.41842 0.55229
# Poissons Ratio (z) = 0.08765 0.29692
#
# Static dielectric constant tensor:
#      x y z
#    x 3.543410 0.000000 0.276090 
#    y 0.000000 3.949740 0.000000 
#    z 0.276090 0.000000 3.762380 
# 
# 
# High freq. dielectric constant tensor:
#      x y z
#    x 1.774350 0.000000 0.024030 
#    y 0.000000 1.812280 0.000000 
#    z 0.024030 0.000000 1.791010 
# 
# From -- ./inp_files/45313.got.cif
#   From: 2010.03.12/outbox.cif.g09.slc.cpg/sg14_23_cif.got.tgz:45313.got - 2010.03.31 13:35:05.
