data_PCOD8125896
_publ_section_title
;
Structure prediction by ZEFSAII (Michael W. Deem and Ramdas Pophale) SiO2 
 PCOD8125896
Probable space group: P 21/C
;
_chemical_formula_sum "Si O2"
_cell_formula_units_Z 32
_cell_length_a 23.201242
_cell_length_b 11.001281
_cell_length_c 22.090774
_cell_angle_alpha 90.000000
_cell_angle_beta 162.193415
_cell_angle_gamma 90.000000
_cell_volume 1724.287280
_symmetry_space_group_name_H-M "P 21/C"
_symmetry_group_IT_number 14
_symmetry_cell_setting 'monoclinic'
loop_
_space_group_symop_operation_xyz
x,y,z
-x,1/2+y,1/2-z
-x,-y,-z
x,1/2-y,1/2+z
loop_
_atom_site_type_symbol
_atom_site_label
_atom_site_fract_x
_atom_site_fract_y
_atom_site_fract_z
Si Si1 0.500052 0.104364 0.856578
Si Si2 0.499908 0.738241 0.028007
Si Si3 0.500082 0.658408 0.223485
Si Si4 0.499914 0.000569 0.391936
Si Si5 0.216262 0.902402 0.540392
Si Si6 0.216109 0.700903 0.642337
Si Si7 0.216144 0.097618 0.892072
Si Si8 0.216298 0.299067 0.790104
O O1 0.500022 0.213022 0.809049
O O2 0.312614 0.026263 0.658820
O O3 0.500153 0.151466 0.925181
O O4 0.687429 0.026236 0.033564
O O5 0.313218 0.748983 0.800549
O O6 0.500176 0.608932 0.060619
O O7 0.686472 0.749171 0.173730
O O8 0.499984 0.547766 0.176272
O O9 0.312955 0.648428 0.076655
O O10 0.687361 0.648411 0.450969
O O11 0.312975 0.921608 0.215379
O O12 0.686838 0.921616 0.589269
O O13 0.239708 0.803336 0.615710
O O14 0.000081 0.930697 0.309347
O O15 0.999883 0.671595 0.440339
O O16 0.239767 0.196723 0.863845
#
# Coordination Sequence:
#
# PCOD8125896 Si02
#       8
#     4   4   4   4   4   4   4   4
#     4  10  22  39  59  83 114 148 189 237 279 335
#     4  10  21  37  58  85 113 149 190 232 280 333
#     4  10  22  38  58  81 113 150 188 235 283 334
#     4  10  21  36  57  85 112 148 191 231 282 333
#     4  10  23  38  57  85 112 149 191 231 285 339
#     4  10  21  37  58  84 115 149 187 231 283 337
#     4  10  23  38  57  85 112 149 191 231 285 339
#     4  10  21  37  58  84 115 149 187 231 283 337
#
# _framework density 18.558392999999999
#
# number of rings (size 3 to 8) (size 9 to 14) (size 15 to 20)
#    0.000    2.000    0.000    4.500    7.000    7.000 
#    0.000    7.500    0.000    0.000    0.000    0.000 
#    0.000    0.000    0.000    0.000    0.000    0.000 
#
# Total GULP energy -396921.146296 kJ/mol
# GULP energy per Si atom -12403.785822 kJ/mol
# Density = 1.851615 g / cm^3
# Si number density = 18.558393 Si / 1000 Ang^3
#
#
#
# Elastic Constant Matrix: (Units=GPa)
#
#
# Indices 1 2 3 4 5 6 
#
# 1 166.8419 210.0059 145.0361 0.0000 -1.5252 0.0000
# 2 210.0059 811.3749 327.9709 0.0000 31.0951 0.0000
# 3 145.0361 327.9709 278.9109 0.0000 31.4061 0.0000
# 4 0.0000 0.0000 0.0000 23.2058 0.0000 -1.8209
# 5 -1.5252 31.0951 31.4061 0.0000 18.8583 0.0000
# 6 0.0000 0.0000 0.0000 -1.8209 0.0000 29.9086
#
#
#
# Elastic Compliance Matrix: (Units=1/GPa)
#
#
# Indices 1 2 3 4 5 6 
#
# 1 0.014686 -0.001132 -0.008184 0.000000 0.016684 0.000000
# 2 -0.001132 0.002449 -0.002247 0.000000 -0.000387 0.000000
# 3 -0.008184 -0.002247 0.012481 0.000000 -0.017742 0.000000
# 4 0.000000 0.000000 0.000000 0.043300 0.000000 0.002636
# 5 0.016684 -0.000387 -0.017742 0.000000 0.084563 0.000000
# 6 0.000000 0.000000 0.000000 0.002636 0.000000 0.033596
#
#
# Mechanical properties :
#
#
# Convention : Reuss Voigt Hill
#
# Bulk Modulus (GPa) = 154.10136 291.46147 222.78141
# Shear Modulus (GPa) = 23.10934 52.66886 37.88910
#
# Velocity S-wave (km/s) = 3.53260 5.33307 4.52333
# Velocity P-wave (km/s) = 9.99276 13.97549 12.14845
#
# Compressibility (1/GPa) = 0.00648924
#
# Stress axis : x y z
#
# Youngs Moduli (GPa) = 68.09276 408.38807 80.12249
#
# Poissons Ratio (x) = 0.46250 0.65570
# Poissons Ratio (y) = 0.07711 0.18002
# Poissons Ratio (z) = 0.55725 0.91758
#
# Static dielectric constant tensor:
#      x y z
#    x 3.588780 0.000000 -0.012570 
#    y 0.000000 3.447700 0.000000 
#    z -0.012570 0.000000 3.545880 
# 
# 
# High freq. dielectric constant tensor:
#      x y z
#    x 1.734800 0.000000 -0.002870 
#    y 0.000000 1.730010 0.000000 
#    z -0.002870 0.000000 1.724750 
# 
# From -- ./inp_files/69930.got.cif
#   From: 2010.03.12/outbox.cif.g09.slc.cpg/sg14_35_cif.got.tgz:69930.got - 2010.03.31 13:35:05.
