data_PCOD8125501
_publ_section_title
;
Structure prediction by ZEFSAII (Michael W. Deem and Ramdas Pophale) SiO2 
 PCOD8125501
Probable space group: P 21/C
;
_chemical_formula_sum "Si O2"
_cell_formula_units_Z 28
_cell_length_a 12.165654
_cell_length_b 14.691989
_cell_length_c 9.101185
_cell_angle_alpha 90.000000
_cell_angle_beta 121.625124
_cell_angle_gamma 90.000000
_cell_volume 1385.151140
_symmetry_space_group_name_H-M "P 21/C"
_symmetry_group_IT_number 14
_symmetry_cell_setting 'monoclinic'
loop_
_space_group_symop_operation_xyz
x,y,z
-x,1/2+y,1/2-z
-x,-y,-z
x,1/2-y,1/2+z
loop_
_atom_site_type_symbol
_atom_site_label
_atom_site_fract_x
_atom_site_fract_y
_atom_site_fract_z
Si Si1 0.086652 0.926667 0.139949
Si Si2 0.373501 0.889707 0.390355
Si Si3 0.920152 0.254887 0.021726
Si Si4 0.526803 0.503895 0.773473
Si Si5 0.257243 0.700156 0.341156
Si Si6 0.041669 0.068715 0.655436
Si Si7 0.319834 0.496409 0.402165
O O1 0.241544 0.933071 0.228987
O O2 0.035079 0.830518 0.043614
O O3 0.068922 0.937877 0.300390
O O4 0.000000 0.000000 0.000000
O O5 0.412453 0.930078 0.574985
O O6 0.361085 0.781880 0.409260
O O7 0.481256 0.910594 0.341745
O O8 0.803101 0.309916 0.862879
O O9 0.864568 0.221907 0.138656
O O10 0.041882 0.324412 0.110993
O O11 0.410019 0.458197 0.596464
O O12 0.632068 0.534964 0.725858
O O13 0.326104 0.605957 0.428482
O O14 0.177187 0.042161 0.822733
O O15 0.000000 0.000000 0.500000
#
# Coordination Sequence:
#
# PCOD8125501 Si02
#       7
#     4   4   4   4   4   4   4
#     4  11  23  38  65  96 126 169 207 265 327 379
#     4  10  20  39  64  89 121 159 212 265 304 365
#     4  11  21  37  59  98 127 158 209 262 319 380
#     4  10  22  39  59  88 122 164 215 258 305 373
#     4  11  20  38  66  94 119 163 220 264 300 388
#     4  12  22  38  64  97 130 163 201 268 328 378
#     4  11  22  38  66  90 123 169 210 257 314 374
#
# _framework density 20.214402
#
# number of rings (size 3 to 8) (size 9 to 14) (size 15 to 20)
#    0.000    1.143    4.286    5.143    0.000    0.000 
#    0.000    0.000   31.429    0.000    0.000    0.000 
#    0.000    0.000    0.000    0.000    0.000    0.000 
#
# Total GULP energy -347044.230925 kJ/mol
# GULP energy per Si atom -12394.436819 kJ/mol
# Density = 2.016839 g / cm^3
# Si number density = 20.214402 Si / 1000 Ang^3
#
#
#
# Elastic Constant Matrix: (Units=GPa)
#
#
# Indices 1 2 3 4 5 6 
#
# 1 76.1788 45.3475 11.1063 0.0000 -8.8337 0.0000
# 2 45.3475 121.7313 48.9002 0.0000 5.1241 0.0000
# 3 11.1063 48.9002 99.1798 0.0000 3.8072 0.0000
# 4 0.0000 0.0000 0.0000 29.3403 0.0000 4.2086
# 5 -8.8337 5.1241 3.8072 0.0000 40.8246 0.0000
# 6 0.0000 0.0000 0.0000 4.2086 0.0000 34.4938
#
#
#
# Elastic Compliance Matrix: (Units=1/GPa)
#
#
# Indices 1 2 3 4 5 6 
#
# 1 0.017893 -0.007463 0.001497 0.000000 0.004669 0.000000
# 2 -0.007463 0.013384 -0.005657 0.000000 -0.002767 0.000000
# 3 0.001497 -0.005657 0.012710 0.000000 -0.000151 0.000000
# 4 0.000000 0.000000 0.000000 0.034690 0.000000 -0.004233
# 5 0.004669 -0.002767 -0.000151 0.000000 0.025867 0.000000
# 6 0.000000 0.000000 0.000000 -0.004233 0.000000 0.029507
#
#
# Mechanical properties :
#
#
# Convention : Reuss Voigt Hill
#
# Bulk Modulus (GPa) = 48.21571 56.42197 52.31884
# Shear Modulus (GPa) = 30.44867 33.71415 32.08141
#
# Velocity S-wave (km/s) = 3.88530 4.08834 3.98811
# Velocity P-wave (km/s) = 6.63561 7.08931 6.86621
#
# Compressibility (1/GPa) = 0.02074013
#
# Stress axis : x y z
#
# Youngs Moduli (GPa) = 55.88808 74.71633 78.67816
#
# Poissons Ratio (x) = 0.55763 -0.11777
# Poissons Ratio (y) = 0.41711 0.44508
# Poissons Ratio (z) = -0.08366 0.42266
#
# Static dielectric constant tensor:
#      x y z
#    x 3.701260 0.000000 -0.160670 
#    y 0.000000 3.429000 0.000000 
#    z -0.160670 0.000000 3.919170 
# 
# 
# High freq. dielectric constant tensor:
#      x y z
#    x 1.779530 0.000000 -0.020150 
#    y 0.000000 1.774560 0.000000 
#    z -0.020150 0.000000 1.809720 
# 
# From -- ./inp_files/13182.got.cif
#   From: 2010.03.12/outbox.cif.g09.slc.cpg/sg14_7_cif.got.tgz:13182.got - 2010.03.31 13:35:05.
