data_PCOD8125619
_publ_section_title
;
Structure prediction by ZEFSAII (Michael W. Deem and Ramdas Pophale) SiO2 
 PCOD8125619
Probable space group: P 21/C
;
_chemical_formula_sum "Si O2"
_cell_formula_units_Z 24
_cell_length_a 8.228718
_cell_length_b 9.264806
_cell_length_c 13.733683
_cell_angle_alpha 90.000000
_cell_angle_beta 99.261291
_cell_angle_gamma 90.000000
_cell_volume 1033.373059
_symmetry_space_group_name_H-M "P 21/C"
_symmetry_group_IT_number 14
_symmetry_cell_setting 'monoclinic'
loop_
_space_group_symop_operation_xyz
x,y,z
-x,1/2+y,1/2-z
-x,-y,-z
x,1/2-y,1/2+z
loop_
_atom_site_type_symbol
_atom_site_label
_atom_site_fract_x
_atom_site_fract_y
_atom_site_fract_z
Si Si1 0.597042 0.367382 0.386014
Si Si2 0.752804 0.102357 0.488326
Si Si3 0.215990 0.596818 0.788505
Si Si4 0.747811 0.955115 0.070920
Si Si5 0.877407 0.698460 0.970954
Si Si6 0.990297 0.847896 0.797354
O O1 0.622481 0.197136 0.413771
O O2 0.643055 0.399847 0.278996
O O3 0.411928 0.422102 0.379917
O O4 0.713363 0.457645 0.468887
O O5 0.705657 0.123010 0.597746
O O6 0.937582 0.153628 0.486817
O O7 0.748176 0.935173 0.455128
O O8 0.082964 0.720906 0.748365
O O9 0.123649 0.442020 0.785247
O O10 0.873687 0.047652 0.144463
O O11 0.825508 0.802410 0.052798
O O12 0.870409 0.779027 0.866820
#
# Coordination Sequence:
#
# PCOD8125619 Si02
#       6
#     4   4   4   4   4   4
#     4  11  23  43  65  89 136 173 211 263 328 398
#     4  10  23  41  65  99 125 168 221 277 323 374
#     4  11  24  40  64  99 129 166 222 275 318 390
#     4  11  22  42  65  91 127 178 213 258 334 394
#     4  10  20  40  65  89 124 162 220 272 314 381
#     4  11  23  39  65  98 124 172 219 274 326 381
#
# _framework density 23.224913999999998
#
# number of rings (size 3 to 8) (size 9 to 14) (size 15 to 20)
#    0.000    1.333    5.000    1.500    9.333    0.667 
#    3.000    3.333    0.000    0.000    0.000    0.000 
#    0.000    0.000    0.000    0.000    0.000    0.000 
#
# Total GULP energy -297656.902042 kJ/mol
# GULP energy per Si atom -12402.370918 kJ/mol
# Density = 2.317205 g / cm^3
# Si number density = 23.224914 Si / 1000 Ang^3
#
#
#
# Elastic Constant Matrix: (Units=GPa)
#
#
# Indices 1 2 3 4 5 6 
#
# 1 47.1636 27.4333 38.9141 0.0000 -23.0029 0.0000
# 2 27.4333 137.1528 15.5266 0.0000 -11.0241 0.0000
# 3 38.9141 15.5266 57.2279 0.0000 -21.4954 0.0000
# 4 0.0000 0.0000 0.0000 29.3113 0.0000 -13.1459
# 5 -23.0029 -11.0241 -21.4954 0.0000 29.7638 0.0000
# 6 0.0000 0.0000 0.0000 -13.1459 0.0000 25.1994
#
#
#
# Elastic Compliance Matrix: (Units=1/GPa)
#
#
# Indices 1 2 3 4 5 6 
#
# 1 0.063365 -0.007154 -0.032587 0.000000 0.022788 0.000000
# 2 -0.007154 0.008401 0.002302 0.000000 -0.000755 0.000000
# 3 -0.032587 0.002302 0.040987 0.000000 0.005268 0.000000
# 4 0.000000 0.000000 0.000000 0.044537 0.000000 0.023234
# 5 0.022788 -0.000755 0.005268 0.000000 0.054734 0.000000
# 6 0.000000 0.000000 0.000000 0.023234 0.000000 0.051804
#
#
# Mechanical properties :
#
#
# Convention : Reuss Voigt Hill
#
# Bulk Modulus (GPa) = 26.40292 45.03247 35.71769
# Shear Modulus (GPa) = 14.23158 27.49959 20.86558
#
# Velocity S-wave (km/s) = 2.47811 3.44474 3.00061
# Velocity P-wave (km/s) = 4.42505 5.93747 5.23615
#
# Compressibility (1/GPa) = 0.03787460
#
# Stress axis : x y z
#
# Youngs Moduli (GPa) = 15.78156 119.03672 24.39787
#
# Poissons Ratio (x) = 0.85154 0.79506
# Poissons Ratio (y) = 0.11289 -0.05615
# Poissons Ratio (z) = 0.51428 -0.27397
#
# Static dielectric constant tensor:
#      x y z
#    x 3.890930 0.000000 -0.251850 
#    y 0.000000 4.758890 0.000000 
#    z -0.251850 0.000000 3.925200 
# 
# 
# High freq. dielectric constant tensor:
#      x y z
#    x 1.894360 0.000000 -0.024300 
#    y 0.000000 1.943490 0.000000 
#    z -0.024300 0.000000 1.906780 
# 
# From -- ./inp_files/39002.got.cif
#   From: 2010.03.12/outbox.cif.g09.slc.cpg/sg14_20_cif.got.tgz:39002.got - 2010.03.31 13:35:05.
