data_PCOD8125802
_publ_section_title
;
Structure prediction by ZEFSAII (Michael W. Deem and Ramdas Pophale) SiO2 
 PCOD8125802
Probable space group: P 21/C
;
_chemical_formula_sum "Si O2"
_cell_formula_units_Z 32
_cell_length_a 16.437837
_cell_length_b 11.366350
_cell_length_c 14.415514
_cell_angle_alpha 90.000000
_cell_angle_beta 145.147682
_cell_angle_gamma 90.000000
_cell_volume 1539.160994
_symmetry_space_group_name_H-M "P 21/C"
_symmetry_group_IT_number 14
_symmetry_cell_setting 'monoclinic'
loop_
_space_group_symop_operation_xyz
x,y,z
-x,1/2+y,1/2-z
-x,-y,-z
x,1/2-y,1/2+z
loop_
_atom_site_type_symbol
_atom_site_label
_atom_site_fract_x
_atom_site_fract_y
_atom_site_fract_z
Si Si1 0.431572 0.936656 0.846737
Si Si2 0.396035 0.542903 0.983623
Si Si3 0.135221 0.390527 0.798226
Si Si4 0.403341 0.120660 0.171322
Si Si5 0.082067 0.276146 0.571816
Si Si6 0.852389 0.000853 0.981259
Si Si7 0.724997 0.650656 0.884226
Si Si8 0.763897 0.279874 0.279171
O O1 0.556393 0.882079 0.899657
O O2 0.321885 0.833688 0.767777
O O3 0.349391 0.028024 0.704782
O O4 0.500000 0.000000 0.000000
O O5 0.277318 0.446188 0.889512
O O6 0.323552 0.666589 0.888608
O O7 0.500000 0.500000 0.000000
O O8 0.479351 0.555999 0.157174
O O9 0.100088 0.277062 0.700582
O O10 0.000704 0.477577 0.672116
O O11 0.157939 0.353269 0.925136
O O12 0.394238 0.254689 0.198602
O O13 0.251988 0.056366 0.041077
O O14 0.116659 0.410150 0.573180
O O15 0.192535 0.185495 0.632103
O O16 0.921163 0.239722 0.393832
O O17 0.781394 0.119895 0.874770
#
# Coordination Sequence:
#
# PCOD8125802 Si02
#       8
#     4   4   4   4   4   4   4   4
#     4  12  29  45  62  99 144 182 221 275 341 417
#     4  12  20  38  73  99 124 170 221 280 326 385
#     4  11  21  41  71  98 133 167 232 277 318 405
#     4  11  25  43  69  95 140 173 224 280 331 401
#     4  10  21  44  70 100 136 169 224 291 331 397
#     4  10  20  44  71 103 127 173 232 288 328 385
#     4  11  26  45  64 102 134 179 225 268 346 403
#     4  11  22  42  71  97 135 176 225 273 344 394
#
# _framework density 20.790547
#
# number of rings (size 3 to 8) (size 9 to 14) (size 15 to 20)
#    0.000    1.000    5.000    2.250    5.250    1.500 
#   13.500    0.000    0.000    0.000    0.000    0.000 
#    0.000    0.000    0.000    0.000    0.000    0.000 
#
# Total GULP energy -396834.185743 kJ/mol
# GULP energy per Si atom -12401.068304 kJ/mol
# Density = 2.074323 g / cm^3
# Si number density = 20.790547 Si / 1000 Ang^3
#
#
#
# Elastic Constant Matrix: (Units=GPa)
#
#
# Indices 1 2 3 4 5 6 
#
# 1 92.1956 25.8522 30.5811 0.0000 5.3852 0.0000
# 2 25.8522 73.4209 10.7437 0.0000 8.2644 0.0000
# 3 30.5811 10.7437 106.3155 0.0000 -0.1256 0.0000
# 4 0.0000 0.0000 0.0000 29.1728 0.0000 2.5779
# 5 5.3852 8.2644 -0.1256 0.0000 36.9359 0.0000
# 6 0.0000 0.0000 0.0000 2.5779 0.0000 25.1935
#
#
#
# Elastic Compliance Matrix: (Units=1/GPa)
#
#
# Indices 1 2 3 4 5 6 
#
# 1 0.013155 -0.004022 -0.003379 0.000000 -0.001030 0.000000
# 2 -0.004022 0.015418 -0.000405 0.000000 -0.002865 0.000000
# 3 -0.003379 -0.000405 0.010419 0.000000 0.000619 0.000000
# 4 0.000000 0.000000 0.000000 0.034591 0.000000 -0.003540
# 5 -0.001030 -0.002865 0.000619 0.000000 0.027867 0.000000
# 6 0.000000 0.000000 0.000000 -0.003540 0.000000 0.040055
#
#
# Mechanical properties :
#
#
# Convention : Reuss Voigt Hill
#
# Bulk Modulus (GPa) = 42.76762 45.14290 43.95526
# Shear Modulus (GPa) = 30.31955 31.91078 31.11516
#
# Velocity S-wave (km/s) = 3.82296 3.92199 3.87279
# Velocity P-wave (km/s) = 6.33262 6.50151 6.41762
#
# Compressibility (1/GPa) = 0.02338217
#
# Stress axis : x y z
#
# Youngs Moduli (GPa) = 76.01604 64.85985 95.97403
#
# Poissons Ratio (x) = 0.26085 0.32428
# Poissons Ratio (y) = 0.30572 0.03883
# Poissons Ratio (z) = 0.25684 0.02624
#
# Static dielectric constant tensor:
#      x y z
#    x 3.819150 0.000000 0.104340 
#    y 0.000000 3.710230 0.000000 
#    z 0.104340 0.000000 3.955150 
# 
# 
# High freq. dielectric constant tensor:
#      x y z
#    x 1.814880 0.000000 0.010380 
#    y 0.000000 1.801710 0.000000 
#    z 0.010380 0.000000 1.825180 
# 
# From -- ./inp_files/48939.got.cif
#   From: 2010.03.12/outbox.cif.g09.slc.cpg/sg14_25_cif.got.tgz:48939.got - 2010.03.31 13:35:05.
