data_PCOD8125128
_publ_section_title
;
Structure prediction by ZEFSAII (Michael W. Deem and Ramdas Pophale) SiO2 
 PCOD8125128
Probable space group: P 21/C
;
_chemical_formula_sum "Si O2"
_cell_formula_units_Z 32
_cell_length_a 20.434008
_cell_length_b 8.684878
_cell_length_c 17.379537
_cell_angle_alpha 90.000000
_cell_angle_beta 149.785313
_cell_angle_gamma 90.000000
_cell_volume 1552.143643
_symmetry_space_group_name_H-M "P 21/C"
_symmetry_group_IT_number 14
_symmetry_cell_setting 'monoclinic'
loop_
_space_group_symop_operation_xyz
x,y,z
-x,1/2+y,1/2-z
-x,-y,-z
x,1/2-y,1/2+z
loop_
_atom_site_type_symbol
_atom_site_label
_atom_site_fract_x
_atom_site_fract_y
_atom_site_fract_z
Si Si1 0.703586 0.455120 0.000655
Si Si2 0.529259 0.602377 0.139944
Si Si3 0.792723 0.783965 0.871322
Si Si4 0.014445 0.922682 0.190638
Si Si5 0.979355 0.711270 0.814825
Si Si6 0.733830 0.764690 0.643703
Si Si7 0.464448 0.761295 0.414069
Si Si8 0.757727 0.443404 0.878992
O O1 0.708805 0.616582 0.049605
O O2 0.835459 0.362900 0.159051
O O3 0.571047 0.367688 0.891282
O O4 0.701958 0.478082 0.907259
O O5 0.674873 0.660584 0.307381
O O6 0.544236 0.421714 0.139699
O O7 0.469551 0.701358 0.009469
O O8 0.768553 0.848556 0.760388
O O9 0.793641 0.599595 0.871798
O O10 0.932028 0.849210 0.038187
O O11 0.949437 0.867619 0.203430
O O12 0.012117 0.105892 0.185053
O O13 0.857167 0.660820 0.744636
O O14 0.112135 0.656198 0.987423
O O15 0.597974 0.675025 0.521684
O O16 0.345543 0.649868 0.276194
#
# Coordination Sequence:
#
# PCOD8125128 Si02
#       8
#     4   4   4   4   4   4   4   4
#     4   9  20  37  57  83 112 147 191 239 286 338
#     4   9  19  36  59  82 108 146 188 233 283 337
#     4  11  22  36  57  86 116 151 190 233 284 341
#     4  10  20  37  58  81 113 148 189 236 287 339
#     4  10  21  38  58  81 113 149 187 239 286 336
#     4   9  20  37  58  83 114 149 188 235 285 338
#     4   9  19  38  58  81 113 146 187 234 283 339
#     4  11  23  37  55  85 119 149 190 237 284 339
#
# _framework density 20.616648999999999
#
# number of rings (size 3 to 8) (size 9 to 14) (size 15 to 20)
#    0.000    2.250    0.000    3.750    0.000    8.500 
#    0.000    6.250    0.000    0.000    0.000    0.000 
#    0.000    0.000    0.000    0.000    0.000    0.000 
#
# Total GULP energy -396572.022522 kJ/mol
# GULP energy per Si atom -12392.875704 kJ/mol
# Density = 2.056972 g / cm^3
# Si number density = 20.616649 Si / 1000 Ang^3
#
#
#
# Elastic Constant Matrix: (Units=GPa)
#
#
# Indices 1 2 3 4 5 6 
#
# 1 68.5097 8.3765 -10.1208 0.0000 18.3590 0.0000
# 2 8.3765 73.3885 11.4618 0.0000 2.7108 0.0000
# 3 -10.1208 11.4618 51.6294 0.0000 3.7471 0.0000
# 4 0.0000 0.0000 0.0000 29.2267 0.0000 -2.4479
# 5 18.3590 2.7108 3.7471 0.0000 32.9027 0.0000
# 6 0.0000 0.0000 0.0000 -2.4479 0.0000 19.8548
#
#
#
# Elastic Compliance Matrix: (Units=1/GPa)
#
#
# Indices 1 2 3 4 5 6 
#
# 1 0.018494 -0.002490 0.004953 0.000000 -0.010678 0.000000
# 2 -0.002490 0.014472 -0.003746 0.000000 0.000624 0.000000
# 3 0.004953 -0.003746 0.021528 0.000000 -0.004907 0.000000
# 4 0.000000 0.000000 0.000000 0.034572 0.000000 0.004262
# 5 -0.010678 0.000624 -0.004907 0.000000 0.036858 0.000000
# 6 0.000000 0.000000 0.000000 0.004262 0.000000 0.050891
#
#
# Mechanical properties :
#
#
# Convention : Reuss Voigt Hill
#
# Bulk Modulus (GPa) = 19.25751 23.66250 21.46001
# Shear Modulus (GPa) = 25.42050 28.65083 27.03566
#
# Velocity S-wave (km/s) = 3.51523 3.73190 3.62519
# Velocity P-wave (km/s) = 5.08299 5.48377 5.28718
#
# Compressibility (1/GPa) = 0.05192780
#
# Stress axis : x y z
#
# Youngs Moduli (GPa) = 54.07103 69.09711 46.45207
#
# Poissons Ratio (x) = 0.17206 -0.23009
# Poissons Ratio (y) = 0.13464 0.17402
# Poissons Ratio (z) = -0.26782 0.25886
#
# Static dielectric constant tensor:
#      x y z
#    x 4.079450 0.000000 0.393800 
#    y 0.000000 3.415140 0.000000 
#    z 0.393800 0.000000 4.037480 
# 
# 
# High freq. dielectric constant tensor:
#      x y z
#    x 1.811130 0.000000 0.014520 
#    y 0.000000 1.773570 0.000000 
#    z 0.014520 0.000000 1.819980 
# 
# From -- ./inp_files/61160.got.cif
#   From: 2010.03.12/outbox.cif.g09.slc.cpg/sg14_31_cif.got.tgz:61160.got - 2010.03.31 13:35:05.
