data_PCOD8125277
_publ_section_title
;
Structure prediction by ZEFSAII (Michael W. Deem and Ramdas Pophale) SiO2 
 PCOD8125277
Probable space group: P 21/C
;
_chemical_formula_sum "Si O2"
_cell_formula_units_Z 24
_cell_length_a 14.074596
_cell_length_b 14.208683
_cell_length_c 11.838100
_cell_angle_alpha 90.000000
_cell_angle_beta 27.581093
_cell_angle_gamma 90.000000
_cell_volume 1096.114969
_symmetry_space_group_name_H-M "P 21/C"
_symmetry_group_IT_number 14
_symmetry_cell_setting 'monoclinic'
loop_
_space_group_symop_operation_xyz
x,y,z
-x,1/2+y,1/2-z
-x,-y,-z
x,1/2-y,1/2+z
loop_
_atom_site_type_symbol
_atom_site_label
_atom_site_fract_x
_atom_site_fract_y
_atom_site_fract_z
Si Si1 0.702465 0.072936 0.015963
Si Si2 0.263584 0.131652 0.059719
Si Si3 0.479216 0.636617 0.924863
Si Si4 0.436241 0.165553 0.121593
Si Si5 0.675062 0.552890 0.922981
Si Si6 0.085316 0.315726 0.172125
O O1 0.857154 0.159545 0.872112
O O2 0.577286 0.087245 0.031481
O O3 0.545447 0.070860 0.285485
O O4 0.823451 0.973395 0.873773
O O5 0.447605 0.153172 0.779910
O O6 0.364587 0.132284 0.075793
O O7 0.089998 0.212587 0.227290
O O8 0.425618 0.738802 0.032735
O O9 0.290430 0.561064 0.120822
O O10 0.662216 0.593447 0.809899
O O11 0.233377 0.185355 0.408761
O O12 0.855356 0.603617 0.800180
#
# Coordination Sequence:
#
# PCOD8125277 Si02
#       6
#     4   4   4   4   4   4
#     4  10  22  37  59  88 111 148 195 226 282 341
#     4  10  20  38  60  81 118 151 185 237 283 327
#     4   9  18  35  62  84 109 152 185 227 287 331
#     4  10  20  38  59  82 116 151 184 233 281 338
#     4   9  18  38  60  84 115 144 187 235 280 334
#     4  10  21  38  58  83 116 150 186 237 281 328
#
# _framework density 21.895513999999999
#
# number of rings (size 3 to 8) (size 9 to 14) (size 15 to 20)
#    0.000    2.333    1.667    0.500    0.000    2.000 
#    3.000    9.167    0.000    0.000    0.000    0.000 
#    0.000    0.000    0.000    0.000    0.000    0.000 
#
# Total GULP energy -297427.312229 kJ/mol
# GULP energy per Si atom -12392.804676 kJ/mol
# Density = 2.184568 g / cm^3
# Si number density = 21.895514 Si / 1000 Ang^3
#
#
#
# Elastic Constant Matrix: (Units=GPa)
#
#
# Indices 1 2 3 4 5 6 
#
# 1 121.9168 18.1499 32.1864 0.0000 13.4842 0.0000
# 2 18.1499 116.9841 16.8909 0.0000 -9.6304 0.0000
# 3 32.1864 16.8909 32.7623 0.0000 -5.0541 0.0000
# 4 0.0000 0.0000 0.0000 17.4262 0.0000 1.7357
# 5 13.4842 -9.6304 -5.0541 0.0000 28.8191 0.0000
# 6 0.0000 0.0000 0.0000 1.7357 0.0000 34.4620
#
#
#
# Elastic Compliance Matrix: (Units=1/GPa)
#
#
# Indices 1 2 3 4 5 6 
#
# 1 0.012854 -0.000746 -0.013577 0.000000 -0.008644 0.000000
# 2 -0.000746 0.009432 -0.003690 0.000000 0.002853 0.000000
# 3 -0.013577 -0.003690 0.047848 0.000000 0.013511 0.000000
# 4 0.000000 0.000000 0.000000 0.057674 0.000000 -0.002905
# 5 -0.008644 0.002853 0.013511 0.000000 0.042067 0.000000
# 6 0.000000 0.000000 0.000000 -0.002905 0.000000 0.029164
#
#
# Mechanical properties :
#
#
# Convention : Reuss Voigt Hill
#
# Bulk Modulus (GPa) = 29.31841 45.12418 37.22130
# Shear Modulus (GPa) = 20.28962 29.77054 25.03008
#
# Velocity S-wave (km/s) = 3.04741 3.69136 3.38473
# Velocity P-wave (km/s) = 5.07951 6.23072 5.68433
#
# Compressibility (1/GPa) = 0.03410826
#
# Stress axis : x y z
#
# Youngs Moduli (GPa) = 77.79864 106.02763 20.89965
#
# Poissons Ratio (x) = 0.07905 0.28375
# Poissons Ratio (y) = 0.05800 0.07712
# Poissons Ratio (z) = 1.05626 0.39123
#
# Static dielectric constant tensor:
#      x y z
#    x 3.868370 0.000000 0.310840 
#    y 0.000000 4.478770 0.000000 
#    z 0.310840 0.000000 3.354080 
# 
# 
# High freq. dielectric constant tensor:
#      x y z
#    x 1.867960 0.000000 0.030620 
#    y 0.000000 1.884200 0.000000 
#    z 0.030620 0.000000 1.802880 
# 
# From -- ./inp_files/29896.got.cif
#   From: 2010.03.12/outbox.cif.g09.slc.cpg/sg14_15_cif.got.tgz:29896.got - 2010.03.31 13:35:05.
