data_PCOD8125779
_publ_section_title
;
Structure prediction by ZEFSAII (Michael W. Deem and Ramdas Pophale) SiO2 
 PCOD8125779
Probable space group: P 21/C
;
_chemical_formula_sum "Si O2"
_cell_formula_units_Z 32
_cell_length_a 15.634394
_cell_length_b 12.391815
_cell_length_c 21.488905
_cell_angle_alpha 90.000000
_cell_angle_beta 159.495000
_cell_angle_gamma 90.000000
_cell_volume 1458.333686
_symmetry_space_group_name_H-M "P 21/C"
_symmetry_group_IT_number 14
_symmetry_cell_setting 'monoclinic'
loop_
_space_group_symop_operation_xyz
x,y,z
-x,1/2+y,1/2-z
-x,-y,-z
x,1/2-y,1/2+z
loop_
_atom_site_type_symbol
_atom_site_label
_atom_site_fract_x
_atom_site_fract_y
_atom_site_fract_z
Si Si1 0.632266 0.076401 0.758939
Si Si2 0.124875 0.140941 0.034210
Si Si3 0.379370 0.534246 0.514667
Si Si4 0.915591 0.275462 0.276343
Si Si5 0.499635 0.178463 0.795865
Si Si6 0.881016 0.942043 0.624288
Si Si7 0.078183 0.679510 0.862612
Si Si8 0.454370 0.168970 0.990450
O O1 0.518991 0.143514 0.738196
O O2 0.408866 0.067294 0.555986
O O3 0.703908 0.957611 0.830822
O O4 0.865845 0.138061 0.892311
O O5 0.256176 0.252401 0.142566
O O6 0.074348 0.139552 0.925048
O O7 0.505236 0.571700 0.664207
O O8 0.485152 0.605776 0.531140
O O9 0.443408 0.409755 0.543656
O O10 0.082501 0.553936 0.317646
O O11 0.049875 0.159736 0.371253
O O12 0.869085 0.318705 0.175495
O O13 0.656958 0.261527 0.136477
O O14 0.733093 0.250424 0.971027
O O15 0.914431 0.054780 0.609268
O O16 0.808911 0.727188 0.693252
#
# Coordination Sequence:
#
# PCOD8125779 Si02
#       8
#     4   4   4   4   4   4   4   4
#     4  11  26  45  65  92 142 174 215 275 325 399
#     4  11  27  45  63  96 135 179 218 263 337 398
#     4   9  20  39  66  91 127 163 215 274 320 370
#     4  11  23  42  67  96 130 171 220 263 327 399
#     4  12  23  42  67  96 131 173 221 266 330 399
#     4  10  20  43  63  95 128 168 211 271 317 383
#     4  11  23  38  71  94 129 170 218 273 328 377
#     4   9  20  38  62  94 129 155 212 278 308 378
#
# _framework density 21.942851999999998
#
# number of rings (size 3 to 8) (size 9 to 14) (size 15 to 20)
#    0.000    1.500    5.000    0.750    7.000    0.000 
#    0.000    1.250    0.000    0.000    0.000    0.000 
#    0.000    0.000    0.000    0.000    0.000    0.000 
#
# Total GULP energy -396565.884130 kJ/mol
# GULP energy per Si atom -12392.683879 kJ/mol
# Density = 2.189291 g / cm^3
# Si number density = 21.942852 Si / 1000 Ang^3
#
#
#
# Elastic Constant Matrix: (Units=GPa)
#
#
# Indices 1 2 3 4 5 6 
#
# 1 54.2758 28.2130 35.3139 0.0000 4.5208 0.0000
# 2 28.2130 50.4227 23.2283 0.0000 9.9168 0.0000
# 3 35.3139 23.2283 134.2741 0.0000 25.7666 0.0000
# 4 0.0000 0.0000 0.0000 35.3182 0.0000 2.8958
# 5 4.5208 9.9168 25.7666 0.0000 34.9389 0.0000
# 6 0.0000 0.0000 0.0000 2.8958 0.0000 24.4541
#
#
#
# Elastic Compliance Matrix: (Units=1/GPa)
#
#
# Indices 1 2 3 4 5 6 
#
# 1 0.029712 -0.014731 -0.006209 0.000000 0.004916 0.000000
# 2 -0.014731 0.029325 0.000038 0.000000 -0.006445 0.000000
# 3 -0.006209 0.000038 0.010393 0.000000 -0.006872 0.000000
# 4 0.000000 0.000000 0.000000 0.028592 0.000000 -0.003386
# 5 0.004916 -0.006445 -0.006872 0.000000 0.034882 0.000000
# 6 0.000000 0.000000 0.000000 -0.003386 0.000000 0.041294
#
#
# Mechanical properties :
#
#
# Convention : Reuss Voigt Hill
#
# Bulk Modulus (GPa) = 36.19898 45.83145 41.01522
# Shear Modulus (GPa) = 22.20140 29.09007 25.64574
#
# Velocity S-wave (km/s) = 3.18430 3.64499 3.42241
# Velocity P-wave (km/s) = 5.48201 6.21665 5.86085
#
# Compressibility (1/GPa) = 0.02762509
#
# Stress axis : x y z
#
# Youngs Moduli (GPa) = 33.65601 34.10058 96.22317
#
# Poissons Ratio (x) = 0.50235 0.59747
# Poissons Ratio (y) = 0.49580 -0.00367
# Poissons Ratio (z) = 0.20898 -0.00130
#
# Static dielectric constant tensor:
#      x y z
#    x 3.629020 0.000000 0.162480 
#    y 0.000000 4.116790 0.000000 
#    z 0.162480 0.000000 4.328490 
# 
# 
# High freq. dielectric constant tensor:
#      x y z
#    x 1.826580 0.000000 0.011990 
#    y 0.000000 1.864460 0.000000 
#    z 0.011990 0.000000 1.880810 
# 
# From -- ./inp_files/68669.got.cif
#   From: 2010.03.12/outbox.cif.g09.slc.cpg/sg14_35_cif.got.tgz:68669.got - 2010.03.31 13:35:05.
