data_PCOD8125887
_publ_section_title
;
Structure prediction by ZEFSAII (Michael W. Deem and Ramdas Pophale) SiO2 
 PCOD8125887
Probable space group: P 21/C
;
_chemical_formula_sum "Si O2"
_cell_formula_units_Z 32
_cell_length_a 12.525607
_cell_length_b 26.537640
_cell_length_c 14.230272
_cell_angle_alpha 90.000000
_cell_angle_beta 160.381608
_cell_angle_gamma 90.000000
_cell_volume 1588.164253
_symmetry_space_group_name_H-M "P 21/C"
_symmetry_group_IT_number 14
_symmetry_cell_setting 'monoclinic'
loop_
_space_group_symop_operation_xyz
x,y,z
-x,1/2+y,1/2-z
-x,-y,-z
x,1/2-y,1/2+z
loop_
_atom_site_type_symbol
_atom_site_label
_atom_site_fract_x
_atom_site_fract_y
_atom_site_fract_z
Si Si1 0.279368 0.712082 0.105129
Si Si2 0.926704 0.463142 0.307567
Si Si3 0.267327 0.368868 0.975015
Si Si4 0.793171 0.857704 0.941857
Si Si5 0.582223 0.717764 0.552731
Si Si6 0.373618 0.684060 0.575080
Si Si7 0.481398 0.828117 0.501375
Si Si8 0.452191 0.527569 0.818874
O O1 0.507505 0.667047 0.263035
O O2 0.342867 0.723476 0.267173
O O3 0.313030 0.760381 0.065730
O O4 0.915264 0.693630 0.795298
O O5 0.715227 0.453478 0.224656
O O6 0.118754 0.412430 0.443083
O O7 0.171020 0.509943 0.517270
O O8 0.680333 0.478994 0.022304
O O9 0.507368 0.351036 0.093117
O O10 0.915709 0.354798 0.647907
O O11 0.327780 0.338870 0.121721
O O12 0.331633 0.428008 0.045487
O O13 0.106549 0.823108 0.214335
O O14 0.672627 0.863152 0.734036
O O15 0.438008 0.684692 0.517232
O O16 0.646533 0.773741 0.645469
#
# Coordination Sequence:
#
# PCOD8125887 Si02
#       8
#     4   4   4   4   4   4   4   4
#     4  12  24  40  59  86 118 160 201 243 288 351
#     4  10  21  36  56  87 119 157 188 246 295 363
#     4  12  23  38  59  90 119 165 194 236 297 359
#     4  12  24  37  60  89 121 165 199 233 301 358
#     4  12  25  41  57  85 124 159 202 248 280 338
#     4  12  24  39  60  87 118 160 204 238 291 353
#     4  12  22  35  59  87 124 158 198 239 282 355
#     4  10  21  36  57  86 123 151 194 240 302 356
#
# _framework density 20.149049999999999
#
# number of rings (size 3 to 8) (size 9 to 14) (size 15 to 20)
#    0.000    0.500    5.000    4.500    5.250    0.000 
#    0.000    0.000    0.000    0.000    0.000   17.500 
#    0.000    0.000    0.000    0.000    0.000    0.000 
#
# Total GULP energy -396841.946185 kJ/mol
# GULP energy per Si atom -12401.310818 kJ/mol
# Density = 2.010319 g / cm^3
# Si number density = 20.149050 Si / 1000 Ang^3
#
#
#
# Elastic Constant Matrix: (Units=GPa)
#
#
# Indices 1 2 3 4 5 6 
#
# 1 64.3994 15.9514 17.0391 0.0000 2.5097 0.0000
# 2 15.9514 87.1384 18.9653 0.0000 17.8079 0.0000
# 3 17.0391 18.9653 95.8620 0.0000 2.5133 0.0000
# 4 0.0000 0.0000 0.0000 41.7591 0.0000 6.2249
# 5 2.5097 17.8079 2.5133 0.0000 28.5390 0.0000
# 6 0.0000 0.0000 0.0000 6.2249 0.0000 15.1087
#
#
#
# Elastic Compliance Matrix: (Units=1/GPa)
#
#
# Indices 1 2 3 4 5 6 
#
# 1 0.016818 -0.002614 -0.002482 0.000000 0.000371 0.000000
# 2 -0.002614 0.014131 -0.002111 0.000000 -0.008402 0.000000
# 3 -0.002482 -0.002111 0.011276 0.000000 0.000542 0.000000
# 4 0.000000 0.000000 0.000000 0.025514 0.000000 -0.010512
# 5 0.000371 -0.008402 0.000542 0.000000 0.040202 0.000000
# 6 0.000000 0.000000 0.000000 -0.010512 0.000000 0.070518
#
#
# Mechanical properties :
#
#
# Convention : Reuss Voigt Hill
#
# Bulk Modulus (GPa) = 35.95657 39.03461 37.49559
# Shear Modulus (GPa) = 24.73499 30.11097 27.42298
#
# Velocity S-wave (km/s) = 3.50751 3.86996 3.69318
# Velocity P-wave (km/s) = 5.85556 6.27565 6.06924
#
# Compressibility (1/GPa) = 0.02781133
#
# Stress axis : x y z
#
# Youngs Moduli (GPa) = 59.46069 70.76662 88.68267
#
# Poissons Ratio (x) = 0.18500 0.22010
# Poissons Ratio (y) = 0.15545 0.18718
# Poissons Ratio (z) = 0.14757 0.14937
#
# Static dielectric constant tensor:
#      x y z
#    x 3.401160 0.000000 -0.118420 
#    y 0.000000 3.427760 0.000000 
#    z -0.118420 0.000000 3.863650 
# 
# 
# High freq. dielectric constant tensor:
#      x y z
#    x 1.750570 0.000000 -0.015530 
#    y 0.000000 1.770380 0.000000 
#    z -0.015530 0.000000 1.810010 
# 
# From -- ./inp_files/45584.got.cif
#   From: 2010.03.12/outbox.cif.g09.slc.cpg/sg14_23_cif.got.tgz:45584.got - 2010.03.31 13:35:05.
