data_PCOD8125035
_publ_section_title
;
Structure prediction by ZEFSAII (Michael W. Deem and Ramdas Pophale) SiO2 
 PCOD8125035
Probable space group: P 21/C
;
_chemical_formula_sum "Si O2"
_cell_formula_units_Z 20
_cell_length_a 11.919141
_cell_length_b 7.996292
_cell_length_c 17.731412
_cell_angle_alpha 90.000000
_cell_angle_beta 147.446580
_cell_angle_gamma 90.000000
_cell_volume 909.344377
_symmetry_space_group_name_H-M "P 21/C"
_symmetry_group_IT_number 14
_symmetry_cell_setting 'monoclinic'
loop_
_space_group_symop_operation_xyz
x,y,z
-x,1/2+y,1/2-z
-x,-y,-z
x,1/2-y,1/2+z
loop_
_atom_site_type_symbol
_atom_site_label
_atom_site_fract_x
_atom_site_fract_y
_atom_site_fract_z
Si Si1 0.887370 0.252541 0.455191
Si Si2 0.847411 0.460879 0.071735
Si Si3 0.832425 0.234765 0.197170
Si Si4 0.881475 0.587624 0.537757
Si Si5 0.500240 0.263845 0.128473
O O1 0.900621 0.087216 0.514698
O O2 0.924007 0.407943 0.529976
O O3 0.666056 0.276538 0.289383
O O4 0.069921 0.261146 0.495349
O O5 0.809215 0.287064 0.096242
O O6 0.039739 0.563812 0.216581
O O7 0.634289 0.566654 0.953774
O O8 0.605945 0.221968 0.108042
O O9 0.954408 0.391890 0.301943
O O10 0.647960 0.607553 0.435959
#
# Coordination Sequence:
#
# PCOD8125035 Si02
#       5
#     4   4   4   4   4
#     4  10  20  36  59  86 116 154 192 238 290 343
#     4  11  22  39  62  85 118 154 193 241 290 346
#     4  10  22  39  58  84 117 155 195 240 292 346
#     4   9  20  37  56  84 118 150 193 238 287 346
#     4  10  21  37  59  86 116 151 194 241 289 346
#
# _framework density 21.993867000000002
#
# number of rings (size 3 to 8) (size 9 to 14) (size 15 to 20)
#    0.000    2.000    0.000    3.000    0.000    8.800 
#    0.000   15.000    0.000    0.000    0.000    0.000 
#    0.000    0.000    0.000    0.000    0.000    0.000 
#
# Total GULP energy -247917.012414 kJ/mol
# GULP energy per Si atom -12395.850621 kJ/mol
# Density = 2.194381 g / cm^3
# Si number density = 21.993867 Si / 1000 Ang^3
#
#
#
# Elastic Constant Matrix: (Units=GPa)
#
#
# Indices 1 2 3 4 5 6 
#
# 1 87.7579 -6.1667 26.4407 0.0000 11.1344 0.0000
# 2 -6.1667 43.2063 5.2170 0.0000 0.9639 0.0000
# 3 26.4407 5.2170 53.6602 0.0000 14.2451 0.0000
# 4 0.0000 0.0000 0.0000 27.9331 0.0000 -11.8625
# 5 11.1344 0.9639 14.2451 0.0000 41.2669 0.0000
# 6 0.0000 0.0000 0.0000 -11.8625 0.0000 34.2669
#
#
#
# Elastic Compliance Matrix: (Units=1/GPa)
#
#
# Indices 1 2 3 4 5 6 
#
# 1 0.013791 0.002807 -0.006675 0.000000 -0.001483 0.000000
# 2 0.002807 0.023994 -0.003706 0.000000 -0.000039 0.000000
# 3 -0.006675 -0.003706 0.023982 0.000000 -0.006391 0.000000
# 4 0.000000 0.000000 0.000000 0.041970 0.000000 0.014529
# 5 -0.001483 -0.000039 -0.006391 0.000000 0.026840 0.000000
# 6 0.000000 0.000000 0.000000 0.014529 0.000000 0.034212
#
#
# Mechanical properties :
#
#
# Convention : Reuss Voigt Hill
#
# Bulk Modulus (GPa) = 21.44991 26.17848 23.81420
# Shear Modulus (GPa) = 25.57863 31.30227 28.44045
#
# Velocity S-wave (km/s) = 3.41396 3.77666 3.59988
# Velocity P-wave (km/s) = 5.03131 5.56291 5.30377
#
# Compressibility (1/GPa) = 0.04662023
#
# Stress axis : x y z
#
# Youngs Moduli (GPa) = 72.50851 41.67745 41.69850
#
# Poissons Ratio (x) = -0.11701 0.27834
# Poissons Ratio (y) = -0.20356 0.15453
# Poissons Ratio (z) = 0.48400 0.15445
#
# Static dielectric constant tensor:
#      x y z
#    x 4.380880 0.000000 -0.034830 
#    y 0.000000 3.689450 0.000000 
#    z -0.034830 0.000000 3.814650 
# 
# 
# High freq. dielectric constant tensor:
#      x y z
#    x 1.885110 0.000000 -0.005280 
#    y 0.000000 1.859080 0.000000 
#    z -0.005280 0.000000 1.851410 
# 
# From -- ./inp_files/27744.got.cif
#   From: 2010.03.12/outbox.cif.g09.slc.cpg/sg14_14_cif.got.tgz:27744.got - 2010.03.31 13:35:05.
