data_PCOD8125615
_publ_section_title
;
Structure prediction by ZEFSAII (Michael W. Deem and Ramdas Pophale) SiO2 
 PCOD8125615
Probable space group: P 21/C
;
_chemical_formula_sum "Si O2"
_cell_formula_units_Z 24
_cell_length_a 16.339020
_cell_length_b 8.840652
_cell_length_c 14.001670
_cell_angle_alpha 90.000000
_cell_angle_beta 146.590533
_cell_angle_gamma 90.000000
_cell_volume 1113.630391
_symmetry_space_group_name_H-M "P 21/C"
_symmetry_group_IT_number 14
_symmetry_cell_setting 'monoclinic'
loop_
_space_group_symop_operation_xyz
x,y,z
-x,1/2+y,1/2-z
-x,-y,-z
x,1/2-y,1/2+z
loop_
_atom_site_type_symbol
_atom_site_label
_atom_site_fract_x
_atom_site_fract_y
_atom_site_fract_z
Si Si1 0.841548 0.280050 0.731901
Si Si2 0.632522 0.243787 0.870184
Si Si3 0.736180 0.585997 0.700779
Si Si4 0.458079 0.015211 0.815554
Si Si5 0.355240 0.579081 0.815468
Si Si6 0.107627 0.364883 0.572580
O O1 0.796168 0.275839 0.575821
O O2 0.842923 0.450945 0.771673
O O3 0.728407 0.176944 0.684656
O O4 0.012438 0.226290 0.901668
O O5 0.597558 0.421391 0.830284
O O6 0.612441 0.183837 0.743330
O O7 0.520857 0.171823 0.837675
O O8 0.682474 0.555462 0.756329
O O9 0.585869 0.586528 0.491220
O O10 0.831095 0.743266 0.788101
O O11 0.253244 0.445014 0.672959
O O12 0.500000 0.500000 0.000000
O O13 0.000000 0.500000 0.500000
#
# Coordination Sequence:
#
# PCOD8125615 Si02
#       6
#     4   4   4   4   4   4
#     4  10  22  42  61  90 128 163 212 258 325 387
#     4  11  22  38  60  96 128 160 212 261 318 382
#     4  10  20  40  65  87 125 169 213 257 324 380
#     4  10  22  36  63  98 121 161 213 270 315 372
#     4  11  22  40  67  91 126 167 212 270 317 379
#     4  10  23  40  63  92 123 171 211 259 327 385
#
# _framework density 21.551138000000002
#
# number of rings (size 3 to 8) (size 9 to 14) (size 15 to 20)
#    0.000    1.667    1.667    2.500    7.000    1.333 
#    3.000    3.333    0.000    0.000    0.000    0.000 
#    0.000    0.000    0.000    0.000    0.000    0.000 
#
# Total GULP energy -297354.681286 kJ/mol
# GULP energy per Si atom -12389.778387 kJ/mol
# Density = 2.150209 g / cm^3
# Si number density = 21.551138 Si / 1000 Ang^3
#
#
#
# Elastic Constant Matrix: (Units=GPa)
#
#
# Indices 1 2 3 4 5 6 
#
# 1 39.3918 15.7726 41.3883 0.0000 -10.6540 0.0000
# 2 15.7726 116.5429 43.8344 0.0000 9.0306 0.0000
# 3 41.3883 43.8344 103.2619 0.0000 10.7119 0.0000
# 4 0.0000 0.0000 0.0000 53.3916 0.0000 3.0731
# 5 -10.6540 9.0306 10.7119 0.0000 29.5483 0.0000
# 6 0.0000 0.0000 0.0000 3.0731 0.0000 28.6036
#
#
#
# Elastic Compliance Matrix: (Units=1/GPa)
#
#
# Indices 1 2 3 4 5 6 
#
# 1 0.066921 -0.000385 -0.030314 0.000000 0.035237 0.000000
# 2 -0.000385 0.010287 -0.004023 0.000000 -0.001824 0.000000
# 3 -0.030314 -0.004023 0.025508 0.000000 -0.018948 0.000000
# 4 0.000000 0.000000 0.000000 0.018846 0.000000 -0.002025
# 5 0.035237 -0.001824 -0.018948 0.000000 0.053975 0.000000
# 6 0.000000 0.000000 0.000000 -0.002025 0.000000 0.035178
#
#
# Mechanical properties :
#
#
# Convention : Reuss Voigt Hill
#
# Bulk Modulus (GPa) = 30.05671 51.24302 40.64987
# Shear Modulus (GPa) = 17.16728 32.85542 25.01135
#
# Velocity S-wave (km/s) = 2.82544 3.90876 3.41039
# Velocity P-wave (km/s) = 4.96197 6.64833 5.86606
#
# Compressibility (1/GPa) = 0.03327044
#
# Stress axis : x y z
#
# Youngs Moduli (GPa) = 14.94289 97.20750 39.20367
#
# Poissons Ratio (x) = 0.03747 1.18844
# Poissons Ratio (y) = 0.00576 0.15772
# Poissons Ratio (z) = 0.45299 0.39108
#
# Static dielectric constant tensor:
#      x y z
#    x 3.477640 0.000000 0.035660 
#    y 0.000000 4.412760 0.000000 
#    z 0.035660 0.000000 4.309270 
# 
# 
# High freq. dielectric constant tensor:
#      x y z
#    x 1.801710 0.000000 0.003120 
#    y 0.000000 1.868480 0.000000 
#    z 0.003120 0.000000 1.858310 
# 
# From -- ./inp_files/38972.got.cif
#   From: 2010.03.12/outbox.cif.g09.slc.cpg/sg14_20_cif.got.tgz:38972.got - 2010.03.31 13:35:05.
