data_PCOD8125370
_publ_section_title
;
Structure prediction by ZEFSAII (Michael W. Deem and Ramdas Pophale) SiO2 
 PCOD8125370
Probable space group: P 21/C
;
_chemical_formula_sum "Si O2"
_cell_formula_units_Z 28
_cell_length_a 9.605643
_cell_length_b 11.041369
_cell_length_c 12.812304
_cell_angle_alpha 90.000000
_cell_angle_beta 80.780707
_cell_angle_gamma 90.000000
_cell_volume 1341.312578
_symmetry_space_group_name_H-M "P 21/C"
_symmetry_group_IT_number 14
_symmetry_cell_setting 'monoclinic'
loop_
_space_group_symop_operation_xyz
x,y,z
-x,1/2+y,1/2-z
-x,-y,-z
x,1/2-y,1/2+z
loop_
_atom_site_type_symbol
_atom_site_label
_atom_site_fract_x
_atom_site_fract_y
_atom_site_fract_z
Si Si1 0.106978 0.897942 0.363896
Si Si2 0.689589 0.280306 0.564344
Si Si3 0.808334 0.596162 0.995027
Si Si4 0.417017 0.145456 0.627693
Si Si5 0.553768 0.523475 0.657226
Si Si6 0.723424 0.841926 0.969916
Si Si7 0.756806 0.069051 0.862893
O O1 0.165520 0.771796 0.403939
O O2 0.130473 0.893086 0.237044
O O3 0.942492 0.919392 0.403338
O O4 0.187220 0.013491 0.403759
O O5 0.580854 0.167333 0.579938
O O6 0.628409 0.392136 0.639855
O O7 0.724817 0.317377 0.441444
O O8 0.664512 0.561782 0.948553
O O9 0.807038 0.739961 0.026902
O O10 0.395222 0.086753 0.742958
O O11 0.341656 0.277702 0.626273
O O12 0.595075 0.606044 0.553704
O O13 0.384968 0.518544 0.675116
O O14 0.820025 0.955496 0.922194
#
# Coordination Sequence:
#
# PCOD8125370 Si02
#       7
#     4   4   4   4   4   4   4
#     4  11  24  43  63  87 127 167 200 261 306 354
#     4  11  22  40  62  98 123 154 212 259 298 369
#     4   9  23  45  57  88 123 160 212 245 303 379
#     4  10  20  38  63  88 120 159 200 248 303 365
#     4  11  19  37  64  92 125 155 203 259 310 357
#     4   9  20  39  60  86 118 161 202 247 301 375
#     4  11  20  39  64  90 128 160 197 258 319 353
#
# _framework density 20.875076
#
# number of rings (size 3 to 8) (size 9 to 14) (size 15 to 20)
#    0.857    0.857    4.286    0.857    2.000    1.714 
#   12.857    1.429    0.000    0.000    0.000    0.000 
#    0.000    0.000    0.000    0.000    0.000    0.000 
#
# Total GULP energy -346882.137608 kJ/mol
# GULP energy per Si atom -12388.647772 kJ/mol
# Density = 2.082756 g / cm^3
# Si number density = 20.875076 Si / 1000 Ang^3
#
#
#
# Elastic Constant Matrix: (Units=GPa)
#
#
# Indices 1 2 3 4 5 6 
#
# 1 27.1457 22.7399 13.5567 0.0000 -4.3940 0.0000
# 2 22.7399 92.8329 35.7180 0.0000 -0.0062 0.0000
# 3 13.5567 35.7180 96.0749 0.0000 -13.2359 0.0000
# 4 0.0000 0.0000 0.0000 32.1720 0.0000 4.8720
# 5 -4.3940 -0.0062 -13.2359 0.0000 26.3659 0.0000
# 6 0.0000 0.0000 0.0000 4.8720 0.0000 24.7082
#
#
#
# Elastic Compliance Matrix: (Units=1/GPa)
#
#
# Indices 1 2 3 4 5 6 
#
# 1 0.048183 -0.011165 -0.001657 0.000000 0.007196 0.000000
# 2 -0.011165 0.015315 -0.004699 0.000000 -0.004216 0.000000
# 3 -0.001657 -0.004699 0.013269 0.000000 0.006384 0.000000
# 4 0.000000 0.000000 0.000000 0.032040 0.000000 -0.006318
# 5 0.007196 -0.004216 0.006384 0.000000 0.042331 0.000000
# 6 0.000000 0.000000 0.000000 -0.006318 0.000000 0.041718
#
#
# Mechanical properties :
#
#
# Convention : Reuss Voigt Hill
#
# Bulk Modulus (GPa) = 23.96622 40.00918 31.98770
# Shear Modulus (GPa) = 20.67786 26.25182 23.46484
#
# Velocity S-wave (km/s) = 3.15072 3.55007 3.35634
# Velocity P-wave (km/s) = 4.97411 6.00096 5.51150
#
# Compressibility (1/GPa) = 0.04172540
#
# Stress axis : x y z
#
# Youngs Moduli (GPa) = 20.75414 65.29722 75.36510
#
# Poissons Ratio (x) = 0.72903 0.12487
# Poissons Ratio (y) = 0.23172 0.35414
# Poissons Ratio (z) = 0.03439 0.30683
#
# Static dielectric constant tensor:
#      x y z
#    x 3.567290 0.000000 0.021240 
#    y 0.000000 3.874850 0.000000 
#    z 0.021240 0.000000 3.547250 
# 
# 
# High freq. dielectric constant tensor:
#      x y z
#    x 1.795180 0.000000 -0.006170 
#    y 0.000000 1.824260 0.000000 
#    z -0.006170 0.000000 1.801780 
# 
# From -- ./inp_files/28609.got.cif
#   From: 2010.03.12/outbox.cif.g09.slc.cpg/sg14_15_cif.got.tgz:28609.got - 2010.03.31 13:35:05.
