data_PCOD8125725
_publ_section_title
;
Structure prediction by ZEFSAII (Michael W. Deem and Ramdas Pophale) SiO2 
 PCOD8125725
Probable space group: P 21/C
;
_chemical_formula_sum "Si O2"
_cell_formula_units_Z 28
_cell_length_a 9.383214
_cell_length_b 8.095633
_cell_length_c 26.157565
_cell_angle_alpha 90.000000
_cell_angle_beta 140.288909
_cell_angle_gamma 90.000000
_cell_volume 1269.533059
_symmetry_space_group_name_H-M "P 21/C"
_symmetry_group_IT_number 14
_symmetry_cell_setting 'monoclinic'
loop_
_space_group_symop_operation_xyz
x,y,z
-x,1/2+y,1/2-z
-x,-y,-z
x,1/2-y,1/2+z
loop_
_atom_site_type_symbol
_atom_site_label
_atom_site_fract_x
_atom_site_fract_y
_atom_site_fract_z
Si Si1 0.663715 0.773801 0.921061
Si Si2 0.345106 0.600227 0.754188
Si Si3 0.725213 0.964567 0.532380
Si Si4 0.517635 0.249670 0.809540
Si Si5 0.701406 0.966757 0.179091
Si Si6 0.954455 0.785648 0.686215
Si Si7 0.104062 0.832688 0.507334
O O1 0.535782 0.669812 0.843170
O O2 0.530729 0.940748 0.899733
O O3 0.678911 0.672712 0.977309
O O4 0.909633 0.805807 0.963189
O O5 0.375783 0.407585 0.754101
O O6 0.338537 0.692537 0.698453
O O7 0.106603 0.630939 0.713235
O O8 0.895329 0.894274 0.620908
O O9 0.500000 0.000000 0.500000
O O10 0.827457 0.130028 0.533172
O O11 0.341161 0.106883 0.776004
O O12 0.675461 0.283119 0.901476
O O13 0.744617 0.805829 0.154985
O O14 0.909921 0.093240 0.237799
O O15 0.000000 0.000000 0.500000
#
# Coordination Sequence:
#
# PCOD8125725 Si02
#       7
#     4   4   4   4   4   4   4
#     4  10  23  42  66  96 133 176 221 288 327 414
#     4  11  22  40  66  97 134 168 231 272 339 402
#     4  11  23  41  72  98 133 181 227 274 352 408
#     4  12  23  41  68 100 129 181 221 283 332 414
#     4  11  26  43  67  98 139 172 234 282 338 407
#     4  11  25  43  68  97 133 184 221 283 345 404
#     4  10  20  41  70  93 138 174 222 277 349 401
#
# _framework density 22.055351999999999
#
# number of rings (size 3 to 8) (size 9 to 14) (size 15 to 20)
#    0.000    1.143    2.857    5.143    6.000    1.143 
#    0.000    1.429    0.000    0.000    0.000    0.000 
#    0.000    0.000    0.000    0.000    0.000    0.000 
#
# Total GULP energy -347037.500617 kJ/mol
# GULP energy per Si atom -12394.196451 kJ/mol
# Density = 2.200515 g / cm^3
# Si number density = 22.055352 Si / 1000 Ang^3
#
#
#
# Elastic Constant Matrix: (Units=GPa)
#
#
# Indices 1 2 3 4 5 6 
#
# 1 118.1516 20.2047 39.0253 0.0000 10.9194 0.0000
# 2 20.2047 71.9025 29.6329 0.0000 11.5740 0.0000
# 3 39.0253 29.6329 87.7221 0.0000 2.9209 0.0000
# 4 0.0000 0.0000 0.0000 -82.1576 0.0000 -109.6945
# 5 10.9194 11.5740 2.9209 0.0000 34.1583 0.0000
# 6 0.0000 0.0000 0.0000 -109.6945 0.0000 -66.8435
#
#
#
# Elastic Compliance Matrix: (Units=1/GPa)
#
#
# Indices 1 2 3 4 5 6 
#
# 1 0.010225 -0.000703 -0.004222 0.000000 -0.002669 0.000000
# 2 -0.000703 0.017113 -0.005297 0.000000 -0.005121 0.000000
# 3 -0.004222 -0.005297 0.015006 0.000000 0.001862 0.000000
# 4 0.000000 0.000000 0.000000 0.010219 0.000000 -0.016770
# 5 -0.002669 -0.005121 0.001862 0.000000 0.031705 0.000000
# 6 0.000000 0.000000 0.000000 -0.016770 0.000000 0.012560
#
#
# Mechanical properties :
#
#
# Convention : Reuss Voigt Hill
#
# Bulk Modulus (GPa) = 45.66796 50.61132 48.13964
# Shear Modulus (GPa) = 40.13716 -10.37433 14.88141
#
# Velocity S-wave (km/s) = 4.27058 -2.17117 2.60038
# Velocity P-wave (km/s) = 6.71328 4.08802 5.55788
#
# Compressibility (1/GPa) = 0.02189719
#
# Stress axis : x y z
#
# Youngs Moduli (GPa) = 97.79587 58.43582 66.64184
#
# Poissons Ratio (x) = 0.04111 0.28139
# Poissons Ratio (y) = 0.06880 0.35302
# Poissons Ratio (z) = 0.41294 0.30955
#
# Static dielectric constant tensor:
#      x y z
#    x 4.379030 0.000000 0.209510 
#    y 0.000000 4.135180 0.000000 
#    z 0.209510 0.000000 4.026850 
# 
# 
# High freq. dielectric constant tensor:
#      x y z
#    x 1.883660 0.000000 0.010560 
#    y 0.000000 1.864260 0.000000 
#    z 0.010560 0.000000 1.856970 
# 
# From -- ./inp_files/76509.got.cif
#   From: 2010.03.12/outbox.cif.g09.slc.cpg/sg14_39_cif.got.tgz:76509.got - 2010.03.31 13:35:05.
