data_PCOD8125371
_publ_section_title
;
Structure prediction by ZEFSAII (Michael W. Deem and Ramdas Pophale) SiO2 
 PCOD8125371
Probable space group: P 21/C
;
_chemical_formula_sum "Si O2"
_cell_formula_units_Z 28
_cell_length_a 13.574284
_cell_length_b 9.097154
_cell_length_c 18.204110
_cell_angle_alpha 90.000000
_cell_angle_beta 35.776151
_cell_angle_gamma 90.000000
_cell_volume 1314.212566
_symmetry_space_group_name_H-M "P 21/C"
_symmetry_group_IT_number 14
_symmetry_cell_setting 'monoclinic'
loop_
_space_group_symop_operation_xyz
x,y,z
-x,1/2+y,1/2-z
-x,-y,-z
x,1/2-y,1/2+z
loop_
_atom_site_type_symbol
_atom_site_label
_atom_site_fract_x
_atom_site_fract_y
_atom_site_fract_z
Si Si1 0.975354 0.362046 0.965751
Si Si2 0.512914 0.473935 0.152067
Si Si3 0.126577 0.482338 0.118166
Si Si4 0.480606 0.011052 0.925056
Si Si5 0.297698 0.247497 0.713545
Si Si6 0.378261 0.784313 0.276192
Si Si7 0.147777 0.160687 0.147107
O O1 0.954935 0.433769 0.899449
O O2 0.143566 0.264779 0.863705
O O3 0.819448 0.263023 0.086884
O O4 0.000000 0.500000 0.000000
O O5 0.366424 0.416601 0.185999
O O6 0.467172 0.629272 0.214228
O O7 0.536146 0.370044 0.208382
O O8 0.675108 0.485083 0.000822
O O9 0.097926 0.306068 0.131177
O O10 0.019941 0.558830 0.248495
O O11 0.602765 0.129671 0.812660
O O12 0.544019 0.852144 0.858450
O O13 0.287563 0.056507 0.022535
O O14 0.500000 0.000000 0.000000
O O15 0.232290 0.274920 0.670682
#
# Coordination Sequence:
#
# PCOD8125371 Si02
#       7
#     4   4   4   4   4   4   4
#     4  10  21  40  64  89 123 163 213 255 313 368
#     4  11  24  41  64  93 126 164 217 259 310 368
#     4  10  23  41  61  91 126 165 206 258 311 373
#     4  10  20  38  63  88 121 163 205 247 312 375
#     4  10  22  40  61  92 126 160 209 262 304 376
#     4  11  22  41  64  90 127 168 205 262 312 367
#     4  10  22  42  60  91 128 164 207 255 317 370
#
# _framework density 21.305534999999999
#
# number of rings (size 3 to 8) (size 9 to 14) (size 15 to 20)
#    0.000    1.714    2.857    0.857    4.000    1.143 
#    5.143    0.000    0.000    0.000    0.000    0.000 
#    0.000    0.000    0.000    0.000    0.000    0.000 
#
# Total GULP energy -346946.079138 kJ/mol
# GULP energy per Si atom -12390.931398 kJ/mol
# Density = 2.125704 g / cm^3
# Si number density = 21.305535 Si / 1000 Ang^3
#
#
#
# Elastic Constant Matrix: (Units=GPa)
#
#
# Indices 1 2 3 4 5 6 
#
# 1 19.8817 15.4509 31.1642 0.0000 -8.2196 0.0000
# 2 15.4509 100.5266 54.9841 0.0000 -11.4734 0.0000
# 3 31.1642 54.9841 160.5405 0.0000 -9.1349 0.0000
# 4 0.0000 0.0000 0.0000 39.0574 0.0000 -4.4239
# 5 -8.2196 -11.4734 -9.1349 0.0000 20.7364 0.0000
# 6 0.0000 0.0000 0.0000 -4.4239 0.0000 26.7117
#
#
#
# Elastic Compliance Matrix: (Units=1/GPa)
#
#
# Indices 1 2 3 4 5 6 
#
# 1 0.085329 -0.002308 -0.014280 0.000000 0.026255 0.000000
# 2 -0.002308 0.012842 -0.003690 0.000000 0.004565 0.000000
# 3 -0.014280 -0.003690 0.010079 0.000000 -0.003262 0.000000
# 4 0.000000 0.000000 0.000000 0.026093 0.000000 0.004321
# 5 0.026255 0.004565 -0.003262 0.000000 0.059720 0.000000
# 6 0.000000 0.000000 0.000000 0.004321 0.000000 0.038153
#
#
# Mechanical properties :
#
#
# Convention : Reuss Voigt Hill
#
# Bulk Modulus (GPa) = 14.77244 53.79414 34.28329
# Shear Modulus (GPa) = 16.92985 29.25773 23.09379
#
# Velocity S-wave (km/s) = 2.82196 3.70975 3.29589
# Velocity P-wave (km/s) = 4.19126 6.60707 5.53263
#
# Compressibility (1/GPa) = 0.06769364
#
# Stress axis : x y z
#
# Youngs Moduli (GPa) = 11.71938 77.87008 99.21354
#
# Poissons Ratio (x) = 0.17973 1.41673
# Poissons Ratio (y) = 0.02705 0.36615
# Poissons Ratio (z) = 0.16735 0.28738
#
# Static dielectric constant tensor:
#      x y z
#    x 3.493790 0.000000 -0.027090 
#    y 0.000000 3.886120 0.000000 
#    z -0.027090 0.000000 4.278230 
# 
# 
# High freq. dielectric constant tensor:
#      x y z
#    x 1.805310 0.000000 0.001390 
#    y 0.000000 1.831420 0.000000 
#    z 0.001390 0.000000 1.861990 
# 
# From -- ./inp_files/68173.got.cif
#   From: 2010.03.12/outbox.cif.g09.slc.cpg/sg14_35_cif.got.tgz:68173.got - 2010.03.31 13:35:05.
