data_PCOD8125215
_publ_section_title
;
Structure prediction by ZEFSAII (Michael W. Deem and Ramdas Pophale) SiO2 
 PCOD8125215
Probable space group: P 21/C
;
_chemical_formula_sum "Si O2"
_cell_formula_units_Z 28
_cell_length_a 19.079347
_cell_length_b 15.419746
_cell_length_c 9.048927
_cell_angle_alpha 90.000000
_cell_angle_beta 31.437287
_cell_angle_gamma 90.000000
_cell_volume 1388.501164
_symmetry_space_group_name_H-M "P 21/C"
_symmetry_group_IT_number 14
_symmetry_cell_setting 'monoclinic'
loop_
_space_group_symop_operation_xyz
x,y,z
-x,1/2+y,1/2-z
-x,-y,-z
x,1/2-y,1/2+z
loop_
_atom_site_type_symbol
_atom_site_label
_atom_site_fract_x
_atom_site_fract_y
_atom_site_fract_z
Si Si1 0.302143 0.824592 0.893064
Si Si2 0.388960 0.155145 0.636538
Si Si3 0.916816 0.833944 0.338696
Si Si4 0.068247 0.523421 0.097303
Si Si5 0.754965 0.738478 0.866784
Si Si6 0.209558 0.495679 0.545262
Si Si7 0.840032 0.206112 0.550834
O O1 0.452953 0.840554 0.675318
O O2 0.287161 0.741768 0.812893
O O3 0.203434 0.807326 0.204912
O O4 0.247601 0.910762 0.909104
O O5 0.315782 0.168455 0.611146
O O6 0.354698 0.226146 0.821664
O O7 0.339974 0.063300 0.786347
O O8 0.810691 0.815289 0.661695
O O9 0.871291 0.805194 0.256946
O O10 0.940923 0.937784 0.283758
O O11 0.045832 0.779356 0.156452
O O12 0.921634 0.544891 0.295066
O O13 0.179784 0.504317 0.772504
O O14 0.110408 0.612838 0.105287
#
# Coordination Sequence:
#
# PCOD8125215 Si02
#       7
#     4   4   4   4   4   4   4
#     4  11  23  40  60  84 126 160 204 243 293 370
#     4  11  21  40  59  88 119 166 206 237 294 367
#     4  11  20  40  60  94 122 151 199 261 307 361
#     4  10  20  37  63  90 127 151 197 260 316 352
#     4  10  22  35  64  87 119 156 201 251 303 351
#     4  10  20  37  62  90 116 162 200 248 304 362
#     4  11  23  39  62  91 120 162 195 254 315 350
#
# _framework density 20.165628999999999
#
# number of rings (size 3 to 8) (size 9 to 14) (size 15 to 20)
#    0.000    1.429    2.857    3.857    2.000    0.000 
#    2.571    2.143    0.000    3.429    0.000    0.000 
#    0.000    0.000    0.000    0.000    0.000    0.000 
#
# Total GULP energy -347103.795821 kJ/mol
# GULP energy per Si atom -12396.564136 kJ/mol
# Density = 2.011973 g / cm^3
# Si number density = 20.165629 Si / 1000 Ang^3
#
#
#
# Elastic Constant Matrix: (Units=GPa)
#
#
# Indices 1 2 3 4 5 6 
#
# 1 85.7485 45.5654 16.1631 0.0000 -1.6436 0.0000
# 2 45.5654 155.2392 27.6798 0.0000 -10.0099 0.0000
# 3 16.1631 27.6798 57.0272 0.0000 -7.7097 0.0000
# 4 0.0000 0.0000 0.0000 26.0254 0.0000 -5.9130
# 5 -1.6436 -10.0099 -7.7097 0.0000 26.0479 0.0000
# 6 0.0000 0.0000 0.0000 -5.9130 0.0000 30.1829
#
#
#
# Elastic Compliance Matrix: (Units=1/GPa)
#
#
# Indices 1 2 3 4 5 6 
#
# 1 0.014097 -0.003806 -0.002319 0.000000 -0.001259 0.000000
# 2 -0.003806 0.008158 -0.002594 0.000000 0.002127 0.000000
# 3 -0.002319 -0.002594 0.020101 0.000000 0.004807 0.000000
# 4 0.000000 0.000000 0.000000 0.040214 0.000000 0.007878
# 5 -0.001259 0.002127 0.004807 0.000000 0.040552 0.000000
# 6 0.000000 0.000000 0.000000 0.007878 0.000000 0.034675
#
#
# Mechanical properties :
#
#
# Convention : Reuss Voigt Hill
#
# Bulk Modulus (GPa) = 40.12654 52.98127 46.55390
# Shear Modulus (GPa) = 27.24206 30.35833 28.80020
#
# Velocity S-wave (km/s) = 3.67947 3.88422 3.78323
# Velocity P-wave (km/s) = 6.16385 6.81515 6.49767
#
# Compressibility (1/GPa) = 0.02492116
#
# Stress axis : x y z
#
# Youngs Moduli (GPa) = 70.93654 122.57468 49.74780
#
# Poissons Ratio (x) = 0.46646 0.11535
# Poissons Ratio (y) = 0.26995 0.12903
# Poissons Ratio (z) = 0.16447 0.31792
#
# Static dielectric constant tensor:
#      x y z
#    x 3.424900 0.000000 0.008740 
#    y 0.000000 3.886660 0.000000 
#    z 0.008740 0.000000 3.517830 
# 
# 
# High freq. dielectric constant tensor:
#      x y z
#    x 1.768360 0.000000 -0.002360 
#    y 0.000000 1.797050 0.000000 
#    z -0.002360 0.000000 1.783460 
# 
# From -- ./inp_files/13013.got.cif
#   From: 2010.03.12/outbox.cif.g09.slc.cpg/sg14_7_cif.got.tgz:13013.got - 2010.03.31 13:35:05.
