data_PCOD8125169
_publ_section_title
;
Structure prediction by ZEFSAII (Michael W. Deem and Ramdas Pophale) SiO2 
 PCOD8125169
Probable space group: P 21/C
;
_chemical_formula_sum "Si O2"
_cell_formula_units_Z 24
_cell_length_a 11.391757
_cell_length_b 19.753831
_cell_length_c 5.080454
_cell_angle_alpha 90.000000
_cell_angle_beta 78.724859
_cell_angle_gamma 90.000000
_cell_volume 1121.193470
_symmetry_space_group_name_H-M "P 21/C"
_symmetry_group_IT_number 14
_symmetry_cell_setting 'monoclinic'
loop_
_space_group_symop_operation_xyz
x,y,z
-x,1/2+y,1/2-z
-x,-y,-z
x,1/2-y,1/2+z
loop_
_atom_site_type_symbol
_atom_site_label
_atom_site_fract_x
_atom_site_fract_y
_atom_site_fract_z
Si Si1 0.456290 0.794170 0.890898
Si Si2 0.582258 0.601083 0.002081
Si Si3 0.663749 0.455237 0.061145
Si Si4 0.976668 0.294368 0.428646
Si Si5 0.762323 0.386595 0.522893
Si Si6 0.252815 0.206188 0.826104
O O1 0.479813 0.731461 0.678694
O O2 0.545081 0.855121 0.774260
O O3 0.320097 0.819459 0.923776
O O4 0.649521 0.535745 0.085835
O O5 0.465774 0.580597 0.884366
O O6 0.669220 0.640326 0.765816
O O7 0.736523 0.430216 0.278089
O O8 0.741001 0.436427 0.774025
O O9 0.942576 0.250236 0.694173
O O10 0.899702 0.362972 0.461204
O O11 0.115034 0.315949 0.364798
O O12 0.283112 0.265712 0.603286
#
# Coordination Sequence:
#
# PCOD8125169 Si02
#       6
#     4   4   4   4   4   4
#     4  11  21  32  54  82 106 138 177 227 279 321
#     4  10  22  40  56  81 118 149 189 230 273 338
#     4  10  24  37  58  81 112 157 187 226 279 323
#     4  10  20  37  60  84 113 145 181 233 288 332
#     4  11  21  38  56  83 113 144 190 230 275 336
#     4  10  22  38  60  86 112 147 184 229 285 334
#
# _framework density 21.405760999999998
#
# number of rings (size 3 to 8) (size 9 to 14) (size 15 to 20)
#    0.000    1.667    0.000    5.000    0.000   11.333 
#    0.000    1.667    0.000    0.000    0.000    0.000 
#    0.000    0.000    0.000    0.000    0.000    0.000 
#
# Total GULP energy -297753.151005 kJ/mol
# GULP energy per Si atom -12406.381292 kJ/mol
# Density = 2.135704 g / cm^3
# Si number density = 21.405761 Si / 1000 Ang^3
#
#
#
# Elastic Constant Matrix: (Units=GPa)
#
#
# Indices 1 2 3 4 5 6 
#
# 1 52.6038 38.7410 31.1348 0.0000 -14.7015 0.0000
# 2 38.7410 120.4568 45.3895 0.0000 -15.3757 0.0000
# 3 31.1348 45.3895 142.9090 0.0000 -0.2434 0.0000
# 4 0.0000 0.0000 0.0000 27.2016 0.0000 -2.1152
# 5 -14.7015 -15.3757 -0.2434 0.0000 47.7409 0.0000
# 6 0.0000 0.0000 0.0000 -2.1152 0.0000 32.5402
#
#
#
# Elastic Compliance Matrix: (Units=1/GPa)
#
#
# Indices 1 2 3 4 5 6 
#
# 1 0.028125 -0.006718 -0.003983 0.000000 0.006477 0.000000
# 2 -0.006718 0.011492 -0.002184 0.000000 0.001621 0.000000
# 3 -0.003983 -0.002184 0.008555 0.000000 -0.001886 0.000000
# 4 0.000000 0.000000 0.000000 0.036949 0.000000 0.002402
# 5 0.006477 0.001621 -0.001886 0.000000 0.023454 0.000000
# 6 0.000000 0.000000 0.000000 0.002402 0.000000 0.030887
#
#
# Mechanical properties :
#
#
# Convention : Reuss Voigt Hill
#
# Bulk Modulus (GPa) = 44.63502 60.72226 52.67864
# Shear Modulus (GPa) = 28.95201 34.87682 31.91442
#
# Velocity S-wave (km/s) = 3.68167 4.04086 3.86544
# Velocity P-wave (km/s) = 6.24260 7.08521 6.67721
#
# Compressibility (1/GPa) = 0.02240393
#
# Stress axis : x y z
#
# Youngs Moduli (GPa) = 35.55551 87.01599 116.88406
#
# Poissons Ratio (x) = 0.58457 0.46551
# Poissons Ratio (y) = 0.23886 0.25523
# Poissons Ratio (z) = 0.14161 0.19001
#
# Static dielectric constant tensor:
#      x y z
#    x 3.839510 0.000000 -0.150530 
#    y 0.000000 3.783980 0.000000 
#    z -0.150530 0.000000 3.945860 
# 
# 
# High freq. dielectric constant tensor:
#      x y z
#    x 1.836240 0.000000 -0.001720 
#    y 0.000000 1.829980 0.000000 
#    z -0.001720 0.000000 1.856670 
# 
# From -- ./inp_files/2664.got.cif
#   From: 2010.03.12/outbox.cif.g09.slc.cpg/sg14_2_cif.got.tgz:2664.got - 2010.03.31 13:35:05.
