data_PCOD8125192
_publ_section_title
;
Structure prediction by ZEFSAII (Michael W. Deem and Ramdas Pophale) SiO2 
 PCOD8125192
Probable space group: P 21/C
;
_chemical_formula_sum "Si O2"
_cell_formula_units_Z 28
_cell_length_a 24.290709
_cell_length_b 9.020621
_cell_length_c 19.984561
_cell_angle_alpha 90.000000
_cell_angle_beta 160.914229
_cell_angle_gamma 90.000000
_cell_volume 1431.847294
_symmetry_space_group_name_H-M "P 21/C"
_symmetry_group_IT_number 14
_symmetry_cell_setting 'monoclinic'
loop_
_space_group_symop_operation_xyz
x,y,z
-x,1/2+y,1/2-z
-x,-y,-z
x,1/2-y,1/2+z
loop_
_atom_site_type_symbol
_atom_site_label
_atom_site_fract_x
_atom_site_fract_y
_atom_site_fract_z
Si Si1 0.699265 0.944157 0.005964
Si Si2 0.378377 0.501139 0.796592
Si Si3 0.643892 0.810709 0.538397
Si Si4 0.763643 0.757668 0.960181
Si Si5 0.896954 0.910501 0.933834
Si Si6 0.330879 0.003590 0.557578
Si Si7 0.901902 0.238514 0.233956
O O1 0.523853 0.965367 0.766584
O O2 0.809593 0.854763 0.078485
O O3 0.796114 0.094643 0.132665
O O4 0.655018 0.857069 0.024001
O O5 0.360312 0.345645 0.733961
O O6 0.188607 0.521247 0.608636
O O7 0.500000 0.500000 0.000000
O O8 0.450083 0.633505 0.831381
O O9 0.750110 0.818368 0.728406
O O10 0.728792 0.914814 0.579039
O O11 0.674383 0.607426 0.882633
O O12 0.941367 0.706483 0.134037
O O13 0.027026 0.796478 0.114639
O O14 0.000000 0.000000 0.000000
O O15 0.219826 0.857642 0.441311
#
# Coordination Sequence:
#
# PCOD8125192 Si02
#       7
#     4   4   4   4   4   4   4
#     4  11  23  36  59  89 122 158 198 252 306 372
#     4   9  19  35  61  83 118 156 199 246 293 368
#     4  10  20  38  56  87 119 153 202 243 302 356
#     4  10  21  37  57  90 119 155 205 252 306 353
#     4  10  20  37  61  86 113 158 205 248 299 363
#     4  11  21  36  60  85 120 156 199 253 299 373
#     4  11  22  38  59  86 120 160 199 253 310 364
#
# _framework density 19.555157999999999
#
# number of rings (size 3 to 8) (size 9 to 14) (size 15 to 20)
#    0.000    1.714    2.857    2.571    0.000    0.571 
#    0.000    1.429    0.000    8.571    0.000    0.000 
#    0.000    0.000    0.000    0.000    0.000    0.000 
#
# Total GULP energy -346904.524973 kJ/mol
# GULP energy per Si atom -12389.447320 kJ/mol
# Density = 1.951065 g / cm^3
# Si number density = 19.555158 Si / 1000 Ang^3
#
#
#
# Elastic Constant Matrix: (Units=GPa)
#
#
# Indices 1 2 3 4 5 6 
#
# 1 108.7086 52.6691 31.4351 0.0000 10.1168 0.0000
# 2 52.6691 118.3389 45.4858 0.0000 6.6249 0.0000
# 3 31.4351 45.4858 84.6089 0.0000 1.5903 0.0000
# 4 0.0000 0.0000 0.0000 29.8991 0.0000 8.8548
# 5 10.1168 6.6249 1.5903 0.0000 27.9302 0.0000
# 6 0.0000 0.0000 0.0000 8.8548 0.0000 36.8981
#
#
#
# Elastic Compliance Matrix: (Units=1/GPa)
#
#
# Indices 1 2 3 4 5 6 
#
# 1 0.012277 -0.004477 -0.002093 0.000000 -0.003266 0.000000
# 2 -0.004477 0.012421 -0.004995 0.000000 -0.001040 0.000000
# 3 -0.002093 -0.004995 0.015262 0.000000 0.001074 0.000000
# 4 0.000000 0.000000 0.000000 0.036005 0.000000 -0.008640
# 5 -0.003266 -0.001040 0.001074 0.000000 0.037172 0.000000
# 6 0.000000 0.000000 0.000000 -0.008640 0.000000 0.029175
#
#
# Mechanical properties :
#
#
# Convention : Reuss Voigt Hill
#
# Bulk Modulus (GPa) = 59.41640 63.42625 61.42133
# Shear Modulus (GPa) = 29.23103 31.08324 30.15714
#
# Velocity S-wave (km/s) = 3.87046 3.99120 3.93129
# Velocity P-wave (km/s) = 7.10098 7.33106 7.21694
#
# Compressibility (1/GPa) = 0.01683037
#
# Stress axis : x y z
#
# Youngs Moduli (GPa) = 81.45227 80.51026 65.52341
#
# Poissons Ratio (x) = 0.36042 0.13716
# Poissons Ratio (y) = 0.36464 0.32726
# Poissons Ratio (z) = 0.17050 0.40212
#
# Static dielectric constant tensor:
#      x y z
#    x 4.467910 0.000000 -0.391380 
#    y 0.000000 3.405050 0.000000 
#    z -0.391380 0.000000 4.061910 
# 
# 
# High freq. dielectric constant tensor:
#      x y z
#    x 1.777960 0.000000 0.009650 
#    y 0.000000 1.738200 0.000000 
#    z 0.009650 0.000000 1.759080 
# 
# From -- ./inp_files/64616.got.cif
#   From: 2010.03.12/outbox.cif.g09.slc.cpg/sg14_33_cif.got.tgz:64616.got - 2010.03.31 13:35:05.
