data_PCOD8125336
_publ_section_title
;
Structure prediction by ZEFSAII (Michael W. Deem and Ramdas Pophale) SiO2 
 PCOD8125336
Probable space group: P 21/C
;
_chemical_formula_sum "Si O2"
_cell_formula_units_Z 28
_cell_length_a 8.364661
_cell_length_b 23.751649
_cell_length_c 9.767676
_cell_angle_alpha 90.000000
_cell_angle_beta 136.039490
_cell_angle_gamma 90.000000
_cell_volume 1347.083299
_symmetry_space_group_name_H-M "P 21/C"
_symmetry_group_IT_number 14
_symmetry_cell_setting 'monoclinic'
loop_
_space_group_symop_operation_xyz
x,y,z
-x,1/2+y,1/2-z
-x,-y,-z
x,1/2-y,1/2+z
loop_
_atom_site_type_symbol
_atom_site_label
_atom_site_fract_x
_atom_site_fract_y
_atom_site_fract_z
Si Si1 0.491194 0.188040 0.308765
Si Si2 0.736248 0.040610 0.886009
Si Si3 0.712144 0.601731 0.910643
Si Si4 0.871977 0.506616 0.200180
Si Si5 0.997782 0.645159 0.559832
Si Si6 0.087339 0.892057 0.411801
Si Si7 0.556400 0.290203 0.154200
O O1 0.680492 0.139853 0.401135
O O2 0.493553 0.232506 0.187934
O O3 0.532227 0.219784 0.477153
O O4 0.242388 0.159834 0.156489
O O5 0.492292 0.065043 0.784858
O O6 0.702263 0.003822 0.725919
O O7 0.916236 0.089139 0.959292
O O8 0.859803 0.005807 0.083077
O O9 0.615890 0.660026 0.908971
O O10 0.906249 0.614812 0.920969
O O11 0.815432 0.566732 0.100345
O O12 0.847621 0.457372 0.072498
O O13 0.975201 0.635422 0.708382
O O14 0.181240 0.694824 0.645527
#
# Coordination Sequence:
#
# PCOD8125336 Si02
#       7
#     4   4   4   4   4   4   4
#     4  11  24  44  66  89 124 170 203 268 312 367
#     4   9  20  37  62  91 120 168 206 252 312 374
#     4  11  22  39  61  94 128 160 212 260 308 378
#     4  10  20  38  61  89 130 166 205 253 313 378
#     4   9  21  42  61  88 125 159 210 257 312 377
#     4  10  24  39  60  96 129 163 210 255 316 382
#     4  10  25  41  65  91 120 162 219 253 316 372
#
# _framework density 20.78565
#
# number of rings (size 3 to 8) (size 9 to 14) (size 15 to 20)
#    0.000    2.000    0.000    2.571    4.000    6.286 
#    2.571    0.000    0.000    0.000    0.000    0.000 
#    0.000    0.000    0.000    0.000    0.000    0.000 
#
# Total GULP energy -347258.260464 kJ/mol
# GULP energy per Si atom -12402.080731 kJ/mol
# Density = 2.073834 g / cm^3
# Si number density = 20.785650 Si / 1000 Ang^3
#
#
#
# Elastic Constant Matrix: (Units=GPa)
#
#
# Indices 1 2 3 4 5 6 
#
# 1 118.0928 33.9381 50.3542 0.0000 9.6344 0.0000
# 2 33.9381 70.1255 40.5788 0.0000 -3.9172 0.0000
# 3 50.3542 40.5788 91.0984 0.0000 11.8636 0.0000
# 4 0.0000 0.0000 0.0000 29.1096 0.0000 -1.3800
# 5 9.6344 -3.9172 11.8636 0.0000 24.5460 0.0000
# 6 0.0000 0.0000 0.0000 -1.3800 0.0000 20.3985
#
#
#
# Elastic Compliance Matrix: (Units=1/GPa)
#
#
# Indices 1 2 3 4 5 6 
#
# 1 0.011562 -0.003045 -0.004674 0.000000 -0.002765 0.000000
# 2 -0.003045 0.021476 -0.009055 0.000000 0.008999 0.000000
# 3 -0.004674 -0.009055 0.018722 0.000000 -0.008659 0.000000
# 4 0.000000 0.000000 0.000000 0.034464 0.000000 0.002332
# 5 -0.002765 0.008999 -0.008659 0.000000 0.047446 0.000000
# 6 0.000000 0.000000 0.000000 0.002332 0.000000 0.049181
#
#
# Mechanical properties :
#
#
# Convention : Reuss Voigt Hill
#
# Bulk Modulus (GPa) = 54.91163 58.78432 56.84798
# Shear Modulus (GPa) = 22.47491 25.10719 23.79105
#
# Velocity S-wave (km/s) = 3.29184 3.47927 3.38685
# Velocity P-wave (km/s) = 6.39716 6.66956 6.53478
#
# Compressibility (1/GPa) = 0.01821108
#
# Stress axis : x y z
#
# Youngs Moduli (GPa) = 86.49298 46.56266 53.41303
#
# Poissons Ratio (x) = 0.14179 0.24966
# Poissons Ratio (y) = 0.26338 0.48367
# Poissons Ratio (z) = 0.40428 0.42164
#
# Static dielectric constant tensor:
#      x y z
#    x 3.632270 0.000000 0.046190 
#    y 0.000000 3.721320 0.000000 
#    z 0.046190 0.000000 3.789420 
# 
# 
# High freq. dielectric constant tensor:
#      x y z
#    x 1.804840 0.000000 0.006690 
#    y 0.000000 1.814990 0.000000 
#    z 0.006690 0.000000 1.819430 
# 
# From -- ./inp_files/11185.got.cif
#   From: 2010.03.12/outbox.cif.g09.slc.cpg/sg14_6_cif.got.tgz:11185.got - 2010.03.31 13:35:05.
