data_PCOD8125479
_publ_section_title
;
Structure prediction by ZEFSAII (Michael W. Deem and Ramdas Pophale) SiO2 
 PCOD8125479
Probable space group: P 21/C
;
_chemical_formula_sum "Si O2"
_cell_formula_units_Z 32
_cell_length_a 12.291982
_cell_length_b 11.574723
_cell_length_c 11.916369
_cell_angle_alpha 90.000000
_cell_angle_beta 107.871507
_cell_angle_gamma 90.000000
_cell_volume 1613.608016
_symmetry_space_group_name_H-M "P 21/C"
_symmetry_group_IT_number 14
_symmetry_cell_setting 'monoclinic'
loop_
_space_group_symop_operation_xyz
x,y,z
-x,1/2+y,1/2-z
-x,-y,-z
x,1/2-y,1/2+z
loop_
_atom_site_type_symbol
_atom_site_label
_atom_site_fract_x
_atom_site_fract_y
_atom_site_fract_z
Si Si1 0.177421 0.493808 0.786507
Si Si2 0.142268 0.881162 0.845757
Si Si3 0.194379 0.049521 0.051269
Si Si4 0.912383 0.721053 0.339657
Si Si5 0.574209 0.428239 0.108260
Si Si6 0.552983 0.493346 0.355663
Si Si7 0.965464 0.971434 0.363292
Si Si8 0.598110 0.167090 0.068011
O O1 0.171121 0.533880 0.653131
O O2 0.157408 0.352619 0.777956
O O3 0.296859 0.531836 0.876689
O O4 0.078508 0.553419 0.826233
O O5 0.107370 0.922591 0.709994
O O6 0.264871 0.821195 0.880988
O O7 0.048772 0.794522 0.867013
O O8 0.142434 0.995022 0.923559
O O9 0.130536 0.171898 0.052551
O O10 0.331211 0.066135 0.085159
O O11 0.886379 0.856920 0.330568
O O12 0.536758 0.455260 0.222986
O O13 0.550462 0.293951 0.076330
O O14 0.500000 0.500000 0.000000
O O15 0.447048 0.575661 0.354217
O O16 0.557244 0.377024 0.432782
O O17 0.000000 0.000000 0.500000
#
# Coordination Sequence:
#
# PCOD8125479 Si02
#       8
#     4   4   4   4   4   4   4   4
#     4   8  20  41  55  87 120 152 209 244 294 371
#     4  10  20  39  63  85 111 165 201 239 302 366
#     4   8  17  38  61  82 111 154 212 235 292 361
#     4   9  19  37  59  84 118 156 190 252 300 345
#     4  11  23  41  67  93 120 166 212 257 313 366
#     4   9  21  43  59  93 124 160 208 256 313 372
#     4  11  23  37  53  93 128 150 199 250 311 361
#     4  10  22  42  64  90 125 161 207 261 306 373
#
# _framework density 19.831333000000001
#
# number of rings (size 3 to 8) (size 9 to 14) (size 15 to 20)
#    0.750    1.750    0.000    1.125    1.750    3.000 
#   18.000    0.000    0.000    0.000    0.000    0.000 
#    0.000    0.000    0.000    0.000    0.000    0.000 
#
# Total GULP energy -396563.770837 kJ/mol
# GULP energy per Si atom -12392.617839 kJ/mol
# Density = 1.978620 g / cm^3
# Si number density = 19.831333 Si / 1000 Ang^3
#
#
#
# Elastic Constant Matrix: (Units=GPa)
#
#
# Indices 1 2 3 4 5 6 
#
# 1 76.7745 23.4830 24.3252 0.0000 -6.6435 0.0000
# 2 23.4830 102.1464 35.9051 0.0000 0.4140 0.0000
# 3 24.3252 35.9051 110.0300 0.0000 -3.9749 0.0000
# 4 0.0000 0.0000 0.0000 19.8013 0.0000 1.2025
# 5 -6.6435 0.4140 -3.9749 0.0000 27.0831 0.0000
# 6 0.0000 0.0000 0.0000 1.2025 0.0000 19.6774
#
#
#
# Elastic Compliance Matrix: (Units=1/GPa)
#
#
# Indices 1 2 3 4 5 6 
#
# 1 0.014846 -0.002615 -0.002308 0.000000 0.003343 0.000000
# 2 -0.002615 0.011532 -0.003232 0.000000 -0.001292 0.000000
# 3 -0.002308 -0.003232 0.010691 0.000000 0.001052 0.000000
# 4 0.000000 0.000000 0.000000 0.050690 0.000000 -0.003098
# 5 0.003343 -0.001292 0.001052 0.000000 0.037918 0.000000
# 6 0.000000 0.000000 0.000000 -0.003098 0.000000 0.051009
#
#
# Mechanical properties :
#
#
# Convention : Reuss Voigt Hill
#
# Bulk Modulus (GPa) = 48.17083 50.70861 49.43972
# Shear Modulus (GPa) = 25.01058 26.99484 26.00271
#
# Velocity S-wave (km/s) = 3.55514 3.69348 3.62497
# Velocity P-wave (km/s) = 6.41834 6.61925 6.51957
#
# Compressibility (1/GPa) = 0.02075945
#
# Stress axis : x y z
#
# Youngs Moduli (GPa) = 67.36011 86.71276 93.53436
#
# Poissons Ratio (x) = 0.22678 0.21586
# Poissons Ratio (y) = 0.17616 0.30228
# Poissons Ratio (z) = 0.15546 0.28023
#
# Static dielectric constant tensor:
#      x y z
#    x 3.719080 0.000000 -0.116800 
#    y 0.000000 3.329690 0.000000 
#    z -0.116800 0.000000 3.475200 
# 
# 
# High freq. dielectric constant tensor:
#      x y z
#    x 1.780280 0.000000 -0.007460 
#    y 0.000000 1.753790 0.000000 
#    z -0.007460 0.000000 1.761630 
# 
# From -- ./inp_files/29402.got.cif
#   From: 2010.03.12/outbox.cif.g09.slc.cpg/sg14_15_cif.got.tgz:29402.got - 2010.03.31 13:35:05.
