data_PCOD8125392
_publ_section_title
;
Structure prediction by ZEFSAII (Michael W. Deem and Ramdas Pophale) SiO2 
 PCOD8125392
Probable space group: P 21/C
;
_chemical_formula_sum "Si O2"
_cell_formula_units_Z 32
_cell_length_a 26.086435
_cell_length_b 12.430026
_cell_length_c 14.696638
_cell_angle_alpha 90.000000
_cell_angle_beta 19.182845
_cell_angle_gamma 90.000000
_cell_volume 1565.853088
_symmetry_space_group_name_H-M "P 21/C"
_symmetry_group_IT_number 14
_symmetry_cell_setting 'monoclinic'
loop_
_space_group_symop_operation_xyz
x,y,z
-x,1/2+y,1/2-z
-x,-y,-z
x,1/2-y,1/2+z
loop_
_atom_site_type_symbol
_atom_site_label
_atom_site_fract_x
_atom_site_fract_y
_atom_site_fract_z
Si Si1 0.147844 0.321504 0.476519
Si Si2 0.024009 0.677520 0.876329
Si Si3 0.301324 0.799892 0.364563
Si Si4 0.687090 0.295208 0.367422
Si Si5 0.558325 0.783288 0.080404
Si Si6 0.011850 0.217353 0.874241
Si Si7 0.210281 0.029047 0.293097
Si Si8 0.917015 0.010578 0.302512
O O1 0.049757 0.232493 0.588318
O O2 0.121779 0.290792 0.625831
O O3 0.080291 0.439764 0.566597
O O4 0.329011 0.312735 0.144178
O O5 0.211748 0.689753 0.547657
O O6 0.964557 0.735106 0.066079
O O7 0.950375 0.557066 0.993561
O O8 0.352411 0.797196 0.173572
O O9 0.450957 0.817829 0.175877
O O10 0.181156 0.898006 0.585827
O O11 0.535907 0.256624 0.674218
O O12 0.737041 0.410666 0.324963
O O13 0.833205 0.217668 0.139552
O O14 0.653540 0.886006 0.956708
O O15 0.057226 0.091558 0.805411
O O16 0.184073 0.032473 0.444530
#
# Coordination Sequence:
#
# PCOD8125392 Si02
#       8
#     4   4   4   4   4   4   4   4
#     4  10  22  41  60  94 126 157 213 257 301 368
#     4  10  20  38  65  90 120 166 206 257 299 367
#     4  10  21  40  63  94 128 159 207 258 316 364
#     4  11  23  40  64  92 125 169 206 254 319 369
#     4  11  23  41  60  95 132 158 200 271 312 368
#     4  12  20  39  68  93 119 165 217 249 303 370
#     4  10  21  43  62  88 128 164 210 251 313 372
#     4  10  20  40  68  92 120 168 210 259 303 366
#
# _framework density 20.436143999999999
#
# number of rings (size 3 to 8) (size 9 to 14) (size 15 to 20)
#    0.000    1.500    7.500    0.000    0.000    7.500 
#    4.500    0.000    0.000    3.000    0.000    0.000 
#    0.000    0.000    0.000    0.000    0.000    0.000 
#
# Total GULP energy -396695.070533 kJ/mol
# GULP energy per Si atom -12396.720954 kJ/mol
# Density = 2.038963 g / cm^3
# Si number density = 20.436144 Si / 1000 Ang^3
#
#
#
# Elastic Constant Matrix: (Units=GPa)
#
#
# Indices 1 2 3 4 5 6 
#
# 1 54.7353 19.0337 15.5044 0.0000 9.4265 0.0000
# 2 19.0337 79.0199 32.1270 0.0000 1.9126 0.0000
# 3 15.5044 32.1270 118.4005 0.0000 12.8063 0.0000
# 4 0.0000 0.0000 0.0000 35.1119 0.0000 -1.4383
# 5 9.4265 1.9126 12.8063 0.0000 35.5571 0.0000
# 6 0.0000 0.0000 0.0000 -1.4383 0.0000 24.0548
#
#
#
# Elastic Compliance Matrix: (Units=1/GPa)
#
#
# Indices 1 2 3 4 5 6 
#
# 1 0.020979 -0.004535 -0.000980 0.000000 -0.004965 0.000000
# 2 -0.004535 0.015219 -0.003722 0.000000 0.001724 0.000000
# 3 -0.000980 -0.003722 0.009921 0.000000 -0.003113 0.000000
# 4 0.000000 0.000000 0.000000 0.028550 0.000000 0.001707
# 5 -0.004965 0.001724 -0.003113 0.000000 0.030469 0.000000
# 6 0.000000 0.000000 0.000000 0.001707 0.000000 0.041674
#
#
# Mechanical properties :
#
#
# Convention : Reuss Voigt Hill
#
# Bulk Modulus (GPa) = 36.17203 42.83177 39.50190
# Shear Modulus (GPa) = 28.65320 31.31079 29.98199
#
# Velocity S-wave (km/s) = 3.74850 3.91849 3.83444
# Velocity P-wave (km/s) = 6.03933 6.44027 6.24302
#
# Compressibility (1/GPa) = 0.02764567
#
# Stress axis : x y z
#
# Youngs Moduli (GPa) = 47.66603 65.70746 100.79716
#
# Poissons Ratio (x) = 0.29797 0.09875
# Poissons Ratio (y) = 0.21616 0.37519
# Poissons Ratio (z) = 0.04670 0.24458
#
# Static dielectric constant tensor:
#      x y z
#    x 3.615440 0.000000 0.007180 
#    y 0.000000 3.980110 0.000000 
#    z 0.007180 0.000000 3.910430 
# 
# 
# High freq. dielectric constant tensor:
#      x y z
#    x 1.795130 0.000000 0.011160 
#    y 0.000000 1.790170 0.000000 
#    z 0.011160 0.000000 1.795390 
# 
# From -- ./inp_files/52040.got.cif
#   From: 2010.03.12/outbox.cif.g09.slc.cpg/sg14_27_cif.got.tgz:52040.got - 2010.03.31 13:35:05.
