data_PCOD8125232
_publ_section_title
;
Structure prediction by ZEFSAII (Michael W. Deem and Ramdas Pophale) SiO2 
 PCOD8125232
Probable space group: P 21/C
;
_chemical_formula_sum "Si O2"
_cell_formula_units_Z 20
_cell_length_a 12.679360
_cell_length_b 5.003885
_cell_length_c 24.850639
_cell_angle_alpha 90.000000
_cell_angle_beta 30.141449
_cell_angle_gamma 90.000000
_cell_volume 791.706085
_symmetry_space_group_name_H-M "P 21/C"
_symmetry_group_IT_number 14
_symmetry_cell_setting 'monoclinic'
loop_
_space_group_symop_operation_xyz
x,y,z
-x,1/2+y,1/2-z
-x,-y,-z
x,1/2-y,1/2+z
loop_
_atom_site_type_symbol
_atom_site_label
_atom_site_fract_x
_atom_site_fract_y
_atom_site_fract_z
Si Si1 0.195798 0.457862 0.019813
Si Si2 0.964106 0.938657 0.731654
Si Si3 0.580173 0.978203 0.186337
Si Si4 0.623281 0.804634 0.312238
Si Si5 0.974495 0.952545 0.074908
O O1 0.112962 0.487606 0.116509
O O2 0.146651 0.171440 0.015936
O O3 0.447222 0.489328 0.910472
O O4 0.084218 0.665183 0.028714
O O5 0.739087 0.827217 0.811919
O O6 0.077157 0.707354 0.716362
O O7 0.475717 0.169894 0.277781
O O8 0.493324 0.062369 0.167144
O O9 0.837948 0.007298 0.078475
O O10 0.787003 0.959590 0.201790
#
# Coordination Sequence:
#
# PCOD8125232 Si02
#       5
#     4   4   4   4   4
#     4  11  24  41  66  94 122 163 207 250 309 369
#     4  11  24  43  63  87 124 161 206 265 311 358
#     4  10  20  37  63  91 128 169 198 241 304 363
#     4  10  24  42  66  92 125 164 207 254 304 365
#     4  10  22  41  62  95 133 159 198 250 300 367
#
# _framework density 25.261901000000002
#
# number of rings (size 3 to 8) (size 9 to 14) (size 15 to 20)
#    0.000    1.600    0.000    6.000    0.000   12.800 
#    0.000    0.000    0.000    0.000    0.000    0.000 
#    0.000    0.000    0.000    0.000    0.000    0.000 
#
# Total GULP energy -248129.397882 kJ/mol
# GULP energy per Si atom -12406.469894 kJ/mol
# Density = 2.520440 g / cm^3
# Si number density = 25.261901 Si / 1000 Ang^3
#
#
#
# Elastic Constant Matrix: (Units=GPa)
#
#
# Indices 1 2 3 4 5 6 
#
# 1 125.9897 26.4449 31.7593 0.0000 18.4744 0.0000
# 2 26.4449 107.0549 15.2870 0.0000 13.1348 0.0000
# 3 31.7593 15.2870 137.7070 0.0000 -18.7107 0.0000
# 4 0.0000 0.0000 0.0000 40.2218 0.0000 -5.3484
# 5 18.4744 13.1348 -18.7107 0.0000 32.6596 0.0000
# 6 0.0000 0.0000 0.0000 -5.3484 0.0000 48.7382
#
#
#
# Elastic Compliance Matrix: (Units=1/GPa)
#
#
# Indices 1 2 3 4 5 6 
#
# 1 0.009991 -0.001167 -0.003122 0.000000 -0.006971 0.000000
# 2 -0.001167 0.010374 -0.001475 0.000000 -0.004357 0.000000
# 3 -0.003122 -0.001475 0.009181 0.000000 0.007619 0.000000
# 4 0.000000 0.000000 0.000000 0.025230 0.000000 0.002769
# 5 -0.006971 -0.004357 0.007619 0.000000 0.040679 0.000000
# 6 0.000000 0.000000 0.000000 0.002769 0.000000 0.020822
#
#
# Mechanical properties :
#
#
# Convention : Reuss Voigt Hill
#
# Bulk Modulus (GPa) = 55.49549 57.52600 56.51074
# Shear Modulus (GPa) = 37.36629 44.14127 40.75378
#
# Velocity S-wave (km/s) = 3.85015 4.18466 4.02089
# Velocity P-wave (km/s) = 6.46379 6.79484 6.63138
#
# Compressibility (1/GPa) = 0.01801948
#
# Stress axis : x y z
#
# Youngs Moduli (GPa) = 100.08775 96.39115 108.92490
#
# Poissons Ratio (x) = 0.11249 0.34005
# Poissons Ratio (y) = 0.11680 0.16061
# Poissons Ratio (z) = 0.31246 0.14213
#
# Static dielectric constant tensor:
#      x y z
#    x 4.818540 0.000000 -0.098880 
#    y 0.000000 4.467900 0.000000 
#    z -0.098880 0.000000 5.189330 
# 
# 
# High freq. dielectric constant tensor:
#      x y z
#    x 2.013000 0.000000 -0.001270 
#    y 0.000000 2.012400 0.000000 
#    z -0.001270 0.000000 2.046300 
# 
# From -- ./inp_files/42478.got.cif
#   From: 2010.03.12/outbox.cif.g09.slc.cpg/sg14_22_cif.got.tgz:42478.got - 2010.03.31 13:35:05.
