data_PCOD8125812
_publ_section_title
;
Structure prediction by ZEFSAII (Michael W. Deem and Ramdas Pophale) SiO2 
 PCOD8125812
Probable space group: P 21/C
;
_chemical_formula_sum "Si O2"
_cell_formula_units_Z 28
_cell_length_a 20.129282
_cell_length_b 5.082574
_cell_length_c 22.890400
_cell_angle_alpha 90.000000
_cell_angle_beta 148.109775
_cell_angle_gamma 90.000000
_cell_volume 1237.202057
_symmetry_space_group_name_H-M "P 21/C"
_symmetry_group_IT_number 14
_symmetry_cell_setting 'monoclinic'
loop_
_space_group_symop_operation_xyz
x,y,z
-x,1/2+y,1/2-z
-x,-y,-z
x,1/2-y,1/2+z
loop_
_atom_site_type_symbol
_atom_site_label
_atom_site_fract_x
_atom_site_fract_y
_atom_site_fract_z
Si Si1 0.836931 0.720704 0.136679
Si Si2 0.053958 0.718517 0.222211
Si Si3 0.248944 0.700791 0.282957
Si Si4 0.332906 0.190729 0.280219
Si Si5 0.640487 0.352358 0.393427
Si Si6 0.627015 0.364758 0.003438
Si Si7 0.656880 0.848206 0.340182
O O1 0.906280 0.512870 0.230866
O O2 0.904936 0.682027 0.123299
O O3 0.861710 0.013526 0.177523
O O4 0.688383 0.646006 0.028920
O O5 0.100342 0.675468 0.189666
O O6 0.303793 0.423197 0.303420
O O7 0.329800 0.777745 0.400510
O O8 0.258204 0.925925 0.240807
O O9 0.477924 0.104230 0.390997
O O10 0.289215 0.290285 0.183987
O O11 0.671905 0.335901 0.485708
O O12 0.703451 0.621899 0.419207
O O13 0.492775 0.343432 0.273564
O O14 0.704512 0.123202 0.402020
#
# Coordination Sequence:
#
# PCOD8125812 Si02
#       7
#     4   4   4   4   4   4   4
#     4   9  18  32  50  70  97 129 165 209 243 286
#     4   9  18  33  49  68  97 134 170 197 236 293
#     4  11  21  33  49  75 107 138 161 194 246 312
#     4  11  22  33  50  73 107 140 164 195 242 308
#     4   9  18  31  50  68  94 126 166 213 242 278
#     4  10  21  33  51  79 106 129 161 207 261 297
#     4   9  18  33  47  67  93 132 173 199 235 284
#
# _framework density 22.631710999999999
#
# number of rings (size 3 to 8) (size 9 to 14) (size 15 to 20)
#    0.000    2.286    0.000    3.429    0.000    9.143 
#    0.000    0.000    0.000    0.000    0.000    6.000 
#    0.000    0.000    0.000    0.000    0.000    0.000 
#
# Total GULP energy -346907.204827 kJ/mol
# GULP energy per Si atom -12389.543030 kJ/mol
# Density = 2.258020 g / cm^3
# Si number density = 22.631711 Si / 1000 Ang^3
#
#
#
# Elastic Constant Matrix: (Units=GPa)
#
#
# Indices 1 2 3 4 5 6 
#
# 1 143.4407 19.0839 17.5963 0.0000 13.4127 0.0000
# 2 19.0839 88.0258 15.9644 0.0000 1.4982 0.0000
# 3 17.5963 15.9644 13.3435 0.0000 -2.6138 0.0000
# 4 0.0000 0.0000 0.0000 17.2950 0.0000 -5.3055
# 5 13.4127 1.4982 -2.6138 0.0000 27.4912 0.0000
# 6 0.0000 0.0000 0.0000 -5.3055 0.0000 36.8999
#
#
#
# Elastic Compliance Matrix: (Units=1/GPa)
#
#
# Indices 1 2 3 4 5 6 
#
# 1 0.009145 0.000652 -0.013981 0.000000 -0.005826 0.000000
# 2 0.000652 0.014724 -0.019050 0.000000 -0.002932 0.000000
# 3 -0.013981 -0.019050 0.119946 0.000000 0.019264 0.000000
# 4 0.000000 0.000000 0.000000 0.060488 0.000000 0.008697
# 5 -0.005826 -0.002932 0.019264 0.000000 0.041209 0.000000
# 6 0.000000 0.000000 0.000000 0.008697 0.000000 0.028351
#
#
# Mechanical properties :
#
#
# Convention : Reuss Voigt Hill
#
# Bulk Modulus (GPa) = 12.64923 38.89990 25.77457
# Shear Modulus (GPa) = 13.69967 29.14823 21.42395
#
# Velocity S-wave (km/s) = 2.46302 3.59268 3.08008
# Velocity P-wave (km/s) = 3.69999 5.86816 4.90537
#
# Compressibility (1/GPa) = 0.07905621
#
# Stress axis : x y z
#
# Youngs Moduli (GPa) = 109.35383 67.91733 8.33712
#
# Poissons Ratio (x) = -0.04430 0.11656
# Poissons Ratio (y) = -0.07132 0.15882
# Poissons Ratio (z) = 1.52886 1.29384
#
# Static dielectric constant tensor:
#      x y z
#    x 4.638480 0.000000 0.109880 
#    y 0.000000 4.296600 0.000000 
#    z 0.109880 0.000000 3.581710 
# 
# 
# High freq. dielectric constant tensor:
#      x y z
#    x 1.903230 0.000000 -0.001860 
#    y 0.000000 1.910760 0.000000 
#    z -0.001860 0.000000 1.837760 
# 
# From -- ./inp_files/68975.got.cif
#   From: 2010.03.12/outbox.cif.g09.slc.cpg/sg14_35_cif.got.tgz:68975.got - 2010.03.31 13:35:05.
