data_PCOD8125062
_publ_section_title
;
Structure prediction by ZEFSAII (Michael W. Deem and Ramdas Pophale) SiO2 
 PCOD8125062
Probable space group: P 21/C
;
_chemical_formula_sum "Si O2"
_cell_formula_units_Z 28
_cell_length_a 24.139314
_cell_length_b 7.438973
_cell_length_c 17.740813
_cell_angle_alpha 90.000000
_cell_angle_beta 154.431371
_cell_angle_gamma 90.000000
_cell_volume 1374.943069
_symmetry_space_group_name_H-M "P 21/C"
_symmetry_group_IT_number 14
_symmetry_cell_setting 'monoclinic'
loop_
_space_group_symop_operation_xyz
x,y,z
-x,1/2+y,1/2-z
-x,-y,-z
x,1/2-y,1/2+z
loop_
_atom_site_type_symbol
_atom_site_label
_atom_site_fract_x
_atom_site_fract_y
_atom_site_fract_z
Si Si1 0.860155 0.708425 0.365652
Si Si2 0.643953 0.629515 0.198251
Si Si3 0.848546 0.342417 0.266134
Si Si4 0.350358 0.859138 0.598944
Si Si5 0.586626 0.263346 0.659729
Si Si6 0.694575 0.050801 0.159607
Si Si7 0.463393 0.305491 0.290016
O O1 0.794075 0.656170 0.364357
O O2 0.844687 0.552796 0.283960
O O3 0.009390 0.739531 0.564746
O O4 0.790385 0.891129 0.252932
O O5 0.616701 0.420067 0.150952
O O6 0.606878 0.675147 0.237943
O O7 0.569529 0.763468 0.045675
O O8 0.767156 0.234624 0.227265
O O9 0.785938 0.315472 0.106398
O O10 0.367214 0.750407 0.697670
O O11 0.466216 0.814825 0.684758
O O12 0.354994 0.072639 0.618462
O O13 0.659895 0.427419 0.706685
O O14 0.558715 0.049075 0.947551
#
# Coordination Sequence:
#
# PCOD8125062 Si02
#       7
#     4   4   4   4   4   4   4
#     4  11  21  39  66  80 116 160 206 241 288 359
#     4  10  20  37  62  88 116 158 202 237 296 360
#     4  10  24  40  57  90 118 157 203 246 292 355
#     4  11  22  37  55  87 129 146 191 253 304 351
#     4  10  20  36  61  88 121 152 192 255 298 349
#     4  10  20  39  64  89 112 157 206 240 291 359
#     4  10  22  34  58  93 118 156 193 244 313 355
#
# _framework density 20.364478999999999
#
# number of rings (size 3 to 8) (size 9 to 14) (size 15 to 20)
#    0.000    1.714    1.429    3.000    6.000    2.286 
#    0.000    2.857    0.000    0.000    0.000    0.000 
#    0.000    0.000    0.000    0.000    0.000    0.000 
#
# Total GULP energy -347093.715479 kJ/mol
# GULP energy per Si atom -12396.204124 kJ/mol
# Density = 2.031813 g / cm^3
# Si number density = 20.364479 Si / 1000 Ang^3
#
#
#
# Elastic Constant Matrix: (Units=GPa)
#
#
# Indices 1 2 3 4 5 6 
#
# 1 98.1225 5.4081 51.0488 0.0000 -11.9158 0.0000
# 2 5.4081 61.1733 12.8886 0.0000 -5.2583 0.0000
# 3 51.0488 12.8886 95.0800 0.0000 2.0995 0.0000
# 4 0.0000 0.0000 0.0000 26.1282 0.0000 0.2527
# 5 -11.9158 -5.2583 2.0995 0.0000 30.5923 0.0000
# 6 0.0000 0.0000 0.0000 0.2527 0.0000 25.5728
#
#
#
# Elastic Compliance Matrix: (Units=1/GPa)
#
#
# Indices 1 2 3 4 5 6 
#
# 1 0.015411 0.001023 -0.008563 0.000000 0.006766 0.000000
# 2 0.001023 0.017185 -0.002957 0.000000 0.003555 0.000000
# 3 -0.008563 -0.002957 0.015624 0.000000 -0.004916 0.000000
# 4 0.000000 0.000000 0.000000 0.038276 0.000000 -0.000378
# 5 0.006766 0.003555 -0.004916 0.000000 0.036272 0.000000
# 6 0.000000 0.000000 0.000000 -0.000378 0.000000 0.039108
#
#
# Mechanical properties :
#
#
# Convention : Reuss Voigt Hill
#
# Bulk Modulus (GPa) = 36.72791 43.67410 40.20101
# Shear Modulus (GPa) = 26.04898 28.79402 27.42150
#
# Velocity S-wave (km/s) = 3.58038 3.76431 3.67350
# Velocity P-wave (km/s) = 5.93015 6.35501 6.14625
#
# Compressibility (1/GPa) = 0.02722725
#
# Stress axis : x y z
#
# Youngs Moduli (GPa) = 64.88738 58.18938 64.00353
#
# Poissons Ratio (x) = -0.05954 0.54803
# Poissons Ratio (y) = -0.06639 0.18929
# Poissons Ratio (z) = 0.55560 0.17209
#
# Static dielectric constant tensor:
#      x y z
#    x 3.601450 0.000000 0.100130 
#    y 0.000000 3.776170 0.000000 
#    z 0.100130 0.000000 3.572600 
# 
# 
# High freq. dielectric constant tensor:
#      x y z
#    x 1.794890 0.000000 0.005780 
#    y 0.000000 1.819010 0.000000 
#    z 0.005780 0.000000 1.766950 
# 
# From -- ./inp_files/50111.got.cif
#   From: 2010.03.12/outbox.cif.g09.slc.cpg/sg14_26_cif.got.tgz:50111.got - 2010.03.31 13:35:05.
