data_PCOD8125075
_publ_section_title
;
Structure prediction by ZEFSAII (Michael W. Deem and Ramdas Pophale) SiO2 
 PCOD8125075
Probable space group: P 21/C
;
_chemical_formula_sum "Si O2"
_cell_formula_units_Z 32
_cell_length_a 11.622940
_cell_length_b 9.593044
_cell_length_c 14.986243
_cell_angle_alpha 90.000000
_cell_angle_beta 108.111882
_cell_angle_gamma 90.000000
_cell_volume 1588.162964
_symmetry_space_group_name_H-M "P 21/C"
_symmetry_group_IT_number 14
_symmetry_cell_setting 'monoclinic'
loop_
_space_group_symop_operation_xyz
x,y,z
-x,1/2+y,1/2-z
-x,-y,-z
x,1/2-y,1/2+z
loop_
_atom_site_type_symbol
_atom_site_label
_atom_site_fract_x
_atom_site_fract_y
_atom_site_fract_z
Si Si1 0.727023 0.310590 0.413027
Si Si2 0.502325 0.126013 0.374632
Si Si3 0.885463 0.388413 0.287041
Si Si4 0.225387 0.790547 0.877333
Si Si5 0.513241 0.318632 0.082962
Si Si6 0.758811 0.827510 0.757069
Si Si7 0.700334 0.628605 0.432561
Si Si8 0.163269 0.398843 0.359249
O O1 0.618523 0.205162 0.361392
O O2 0.823754 0.313038 0.357028
O O3 0.790468 0.261489 0.520723
O O4 0.674034 0.464306 0.417386
O O5 0.482885 0.167096 0.472016
O O6 0.384715 0.173133 0.292835
O O7 0.518467 0.959490 0.370914
O O8 0.883310 0.284008 0.202063
O O9 0.818577 0.528612 0.238848
O O10 0.022511 0.422199 0.346507
O O11 0.348187 0.723237 0.868676
O O12 0.225544 0.953678 0.854449
O O13 0.431067 0.196648 0.101545
O O14 0.779986 0.815153 0.868598
O O15 0.820849 0.699102 0.722304
O O16 0.774480 0.669612 0.538983
#
# Coordination Sequence:
#
# PCOD8125075 Si02
#       8
#     4   4   4   4   4   4   4   4
#     4   9  23  38  61  92 119 157 197 247 304 360
#     4  10  20  36  62  91 123 153 191 252 305 366
#     4  11  23  43  61  87 123 163 204 245 303 365
#     4  10  22  39  61  91 118 165 198 250 303 357
#     4  10  20  38  61  89 127 152 194 250 312 356
#     4  11  23  39  62  90 117 161 206 243 306 361
#     4  10  23  38  61  91 120 159 198 253 301 358
#     4  11  24  41  62  87 124 160 207 252 293 362
#
# _framework density 20.149066000000001
#
# number of rings (size 3 to 8) (size 9 to 14) (size 15 to 20)
#    0.000    1.750    2.500    0.750    3.500    8.000 
#    0.000    0.000    0.000    3.750    0.000    0.000 
#    0.000    0.000    0.000    0.000    0.000    0.000 
#
# Total GULP energy -396900.507608 kJ/mol
# GULP energy per Si atom -12403.140863 kJ/mol
# Density = 2.010321 g / cm^3
# Si number density = 20.149066 Si / 1000 Ang^3
#
#
#
# Elastic Constant Matrix: (Units=GPa)
#
#
# Indices 1 2 3 4 5 6 
#
# 1 83.5915 46.5162 30.5978 0.0000 8.9396 0.0000
# 2 46.5162 94.8401 41.6252 0.0000 -6.9728 0.0000
# 3 30.5978 41.6252 67.0229 0.0000 -0.9906 0.0000
# 4 0.0000 0.0000 0.0000 31.9282 0.0000 -2.4502
# 5 8.9396 -6.9728 -0.9906 0.0000 24.2045 0.0000
# 6 0.0000 0.0000 0.0000 -2.4502 0.0000 24.6157
#
#
#
# Elastic Compliance Matrix: (Units=1/GPa)
#
#
# Indices 1 2 3 4 5 6 
#
# 1 0.019003 -0.008463 -0.003561 0.000000 -0.009602 0.000000
# 2 -0.008463 0.018624 -0.007582 0.000000 0.008181 0.000000
# 3 -0.003561 -0.007582 0.021255 0.000000 0.000001 0.000000
# 4 0.000000 0.000000 0.000000 0.031561 0.000000 0.003142
# 5 -0.009602 0.008181 0.000001 0.000000 0.047218 0.000000
# 6 0.000000 0.000000 0.000000 0.003142 0.000000 0.040937
#
#
# Mechanical properties :
#
#
# Convention : Reuss Voigt Hill
#
# Bulk Modulus (GPa) = 50.84109 53.65919 52.25014
# Shear Modulus (GPa) = 22.28481 24.59739 23.44110
#
# Velocity S-wave (km/s) = 3.32926 3.49774 3.41454
# Velocity P-wave (km/s) = 6.32976 6.55753 6.44465
#
# Compressibility (1/GPa) = 0.01966913
#
# Stress axis : x y z
#
# Youngs Moduli (GPa) = 52.62332 53.69299 47.04793
#
# Poissons Ratio (x) = 0.45443 0.16754
# Poissons Ratio (y) = 0.44538 0.35672
# Poissons Ratio (z) = 0.18739 0.40711
#
# Static dielectric constant tensor:
#      x y z
#    x 3.429940 0.000000 0.017170 
#    y 0.000000 3.677350 0.000000 
#    z 0.017170 0.000000 3.782010 
# 
# 
# High freq. dielectric constant tensor:
#      x y z
#    x 1.772500 0.000000 0.003200 
#    y 0.000000 1.786780 0.000000 
#    z 0.003200 0.000000 1.796480 
# 
# From -- ./inp_files/43767.got.cif
#   From: 2010.03.12/outbox.cif.g09.slc.cpg/sg14_22_cif.got.tgz:43767.got - 2010.03.31 13:35:05.
