data_PCOD8125599
_publ_section_title
;
Structure prediction by ZEFSAII (Michael W. Deem and Ramdas Pophale) SiO2 
 PCOD8125599
Probable space group: P 21/C
;
_chemical_formula_sum "Si O2"
_cell_formula_units_Z 24
_cell_length_a 15.790472
_cell_length_b 7.953222
_cell_length_c 15.647932
_cell_angle_alpha 90.000000
_cell_angle_beta 144.443229
_cell_angle_gamma 90.000000
_cell_volume 1142.751642
_symmetry_space_group_name_H-M "P 21/C"
_symmetry_group_IT_number 14
_symmetry_cell_setting 'monoclinic'
loop_
_space_group_symop_operation_xyz
x,y,z
-x,1/2+y,1/2-z
-x,-y,-z
x,1/2-y,1/2+z
loop_
_atom_site_type_symbol
_atom_site_label
_atom_site_fract_x
_atom_site_fract_y
_atom_site_fract_z
Si Si1 0.735514 0.076246 0.167462
Si Si2 0.305988 0.584226 0.061459
Si Si3 0.275295 0.252177 0.726800
Si Si4 0.051588 0.428950 0.952063
Si Si5 0.462384 0.617210 0.643354
Si Si6 0.337878 0.952149 0.390177
O O1 0.688923 0.261090 0.163894
O O2 0.904690 0.100366 0.276418
O O3 0.720809 0.933102 0.226306
O O4 0.628606 0.015832 0.003347
O O5 0.442644 0.499275 0.219802
O O6 0.339452 0.782680 0.095615
O O7 0.153255 0.556444 0.982841
O O8 0.296897 0.524404 0.955805
O O9 0.146843 0.240268 0.549522
O O10 0.435430 0.263984 0.815420
O O11 0.239962 0.410307 0.758347
O O12 0.000000 0.500000 0.000000
O O13 0.500000 0.000000 0.500000
#
# Coordination Sequence:
#
# PCOD8125599 Si02
#       6
#     4   4   4   4   4   4
#     4  10  21  39  64  89 124 163 199 245 309 365
#     4  10  22  38  60  90 125 151 206 254 294 364
#     4  10  20  40  64  91 119 163 199 250 309 356
#     4   9  21  42  61  85 125 162 199 246 304 367
#     4  10  21  38  61  92 117 157 208 247 304 354
#     4  11  22  38  64  95 124 152 207 259 295 362
#
# _framework density 21.001937000000002
#
# number of rings (size 3 to 8) (size 9 to 14) (size 15 to 20)
#    0.000    2.000    3.333    0.500    2.333    3.333 
#   12.000    0.000    0.000    0.000    0.000    0.000 
#    0.000    0.000    0.000    0.000    0.000    0.000 
#
# Total GULP energy -297313.628301 kJ/mol
# GULP energy per Si atom -12388.067846 kJ/mol
# Density = 2.095414 g / cm^3
# Si number density = 21.001937 Si / 1000 Ang^3
#
#
#
# Elastic Constant Matrix: (Units=GPa)
#
#
# Indices 1 2 3 4 5 6 
#
# 1 97.8283 12.5115 3.3810 0.0000 13.9263 0.0000
# 2 12.5115 88.7761 1.8178 0.0000 -0.7093 0.0000
# 3 3.3810 1.8178 58.9827 0.0000 18.4736 0.0000
# 4 0.0000 0.0000 0.0000 16.3581 0.0000 -0.3652
# 5 13.9263 -0.7093 18.4736 0.0000 36.4647 0.0000
# 6 0.0000 0.0000 0.0000 -0.3652 0.0000 29.5057
#
#
#
# Elastic Compliance Matrix: (Units=1/GPa)
#
#
# Indices 1 2 3 4 5 6 
#
# 1 0.011068 -0.001616 0.000890 0.000000 -0.004710 0.000000
# 2 -0.001616 0.011514 -0.000625 0.000000 0.001158 0.000000
# 3 0.000890 -0.000625 0.020245 0.000000 -0.010609 0.000000
# 4 0.000000 0.000000 0.000000 0.061149 0.000000 0.000757
# 5 -0.004710 0.001158 -0.010609 0.000000 0.034619 0.000000
# 6 0.000000 0.000000 0.000000 0.000757 0.000000 0.033901
#
#
# Mechanical properties :
#
#
# Convention : Reuss Voigt Hill
#
# Bulk Modulus (GPa) = 24.92085 31.22308 28.07196
# Shear Modulus (GPa) = 26.51498 31.65748 29.08623
#
# Velocity S-wave (km/s) = 3.55702 3.88669 3.72550
# Velocity P-wave (km/s) = 5.36299 5.91953 5.64812
#
# Compressibility (1/GPa) = 0.04012705
#
# Stress axis : x y z
#
# Youngs Moduli (GPa) = 90.34814 86.85048 49.39490
#
# Poissons Ratio (x) = 0.14033 -0.04398
# Poissons Ratio (y) = 0.14598 0.03086
# Poissons Ratio (z) = -0.08045 0.05426
#
# Static dielectric constant tensor:
#      x y z
#    x 3.878100 0.000000 0.263530 
#    y 0.000000 3.826680 0.000000 
#    z 0.263530 0.000000 4.520880 
# 
# 
# High freq. dielectric constant tensor:
#      x y z
#    x 1.813450 0.000000 0.010080 
#    y 0.000000 1.804210 0.000000 
#    z 0.010080 0.000000 1.837350 
# 
# From -- ./inp_files/38934.got.cif
#   From: 2010.03.12/outbox.cif.g09.slc.cpg/sg14_20_cif.got.tgz:38934.got - 2010.03.31 13:35:05.
