data_PCOD8125140
_publ_section_title
;
Structure prediction by ZEFSAII (Michael W. Deem and Ramdas Pophale) SiO2 
 PCOD8125140
Probable space group: P 21/C
;
_chemical_formula_sum "Si O2"
_cell_formula_units_Z 32
_cell_length_a 9.247191
_cell_length_b 7.660483
_cell_length_c 21.670422
_cell_angle_alpha 90.000000
_cell_angle_beta 115.328562
_cell_angle_gamma 90.000000
_cell_volume 1387.519301
_symmetry_space_group_name_H-M "P 21/C"
_symmetry_group_IT_number 14
_symmetry_cell_setting 'monoclinic'
loop_
_space_group_symop_operation_xyz
x,y,z
-x,1/2+y,1/2-z
-x,-y,-z
x,1/2-y,1/2+z
loop_
_atom_site_type_symbol
_atom_site_label
_atom_site_fract_x
_atom_site_fract_y
_atom_site_fract_z
Si Si1 0.035880 0.700738 0.517454
Si Si2 0.822619 0.869951 0.378683
Si Si3 0.405867 0.426859 0.668353
Si Si4 0.587743 0.326572 0.814759
Si Si5 0.907476 0.913417 0.599453
Si Si6 0.572585 0.421176 0.575364
Si Si7 0.322336 0.664599 0.997786
Si Si8 0.356268 0.216411 0.373158
O O1 0.915839 0.825989 0.458292
O O2 0.003333 0.755471 0.582758
O O3 0.000000 0.500000 0.500000
O O4 0.220558 0.725430 0.529898
O O5 0.737435 0.699589 0.335568
O O6 0.702202 0.032586 0.369070
O O7 0.962398 0.938746 0.358125
O O8 0.561302 0.384017 0.738976
O O9 0.347952 0.627306 0.666102
O O10 0.441374 0.370089 0.603734
O O11 0.412745 0.334213 0.815022
O O12 0.819326 0.858777 0.646116
O O13 0.764962 0.980745 0.528330
O O14 0.500000 0.500000 0.500000
O O15 0.677770 0.258399 0.570634
O O16 0.671437 0.575398 0.626198
O O17 0.504261 0.646167 0.054792
#
# Coordination Sequence:
#
# PCOD8125140 Si02
#       8
#     4   4   4   4   4   4   4   4
#     4  11  24  38  62  97 142 179 222 281 359 421
#     4  11  25  41  67  94 136 177 226 284 348 407
#     4  11  24  42  74 101 133 176 236 288 340 416
#     4  11  23  45  70  99 129 177 237 284 337 412
#     4  11  23  38  59  97 135 174 219 278 345 409
#     4   9  21  37  63  99 129 168 222 282 343 399
#     4  10  20  37  58  95 130 175 217 269 338 410
#     4  10  21  36  65  91 132 170 220 275 329 402
#
# _framework density 23.062740999999999
#
# number of rings (size 3 to 8) (size 9 to 14) (size 15 to 20)
#    0.000    1.500    1.250    4.125   12.250    0.000 
#    0.000    0.000    8.250    0.000    0.000    0.000 
#    0.000    0.000    0.000    0.000    0.000    0.000 
#
# Total GULP energy -396470.138652 kJ/mol
# GULP energy per Si atom -12389.691833 kJ/mol
# Density = 2.301025 g / cm^3
# Si number density = 23.062741 Si / 1000 Ang^3
#
#
#
# Elastic Constant Matrix: (Units=GPa)
#
#
# Indices 1 2 3 4 5 6 
#
# 1 144.7896 55.3719 26.0796 0.0000 -9.8422 0.0000
# 2 55.3719 124.5917 21.1859 0.0000 0.5478 0.0000
# 3 26.0796 21.1859 64.3368 0.0000 -9.9615 0.0000
# 4 0.0000 0.0000 0.0000 28.2311 0.0000 4.2167
# 5 -9.8422 0.5478 -9.9615 0.0000 24.4640 0.0000
# 6 0.0000 0.0000 0.0000 4.2167 0.0000 45.8903
#
#
#
# Elastic Compliance Matrix: (Units=1/GPa)
#
#
# Indices 1 2 3 4 5 6 
#
# 1 0.008830 -0.003605 -0.001953 0.000000 0.002838 0.000000
# 2 -0.003605 0.010020 -0.002239 0.000000 -0.002586 0.000000
# 3 -0.001953 -0.002239 0.018099 0.000000 0.006634 0.000000
# 4 0.000000 0.000000 0.000000 0.035915 0.000000 -0.003300
# 5 0.002838 -0.002586 0.006634 0.000000 0.044777 0.000000
# 6 0.000000 0.000000 0.000000 -0.003300 0.000000 0.022094
#
#
# Mechanical properties :
#
#
# Convention : Reuss Voigt Hill
#
# Bulk Modulus (GPa) = 46.82397 59.88811 53.35604
# Shear Modulus (GPa) = 30.77917 35.12244 32.95081
#
# Velocity S-wave (km/s) = 3.65716 3.90668 3.78398
# Velocity P-wave (km/s) = 6.17900 6.80980 6.50205
#
# Compressibility (1/GPa) = 0.02135658
#
# Stress axis : x y z
#
# Youngs Moduli (GPa) = 113.25381 99.79769 55.25076
#
# Poissons Ratio (x) = 0.35973 0.10790
# Poissons Ratio (y) = 0.40823 0.12370
# Poissons Ratio (z) = 0.22117 0.22344
#
# Static dielectric constant tensor:
#      x y z
#    x 4.539220 0.000000 -0.209660 
#    y 0.000000 4.556310 0.000000 
#    z -0.209660 0.000000 3.825050 
# 
# 
# High freq. dielectric constant tensor:
#      x y z
#    x 1.908330 0.000000 -0.007550 
#    y 0.000000 1.924050 0.000000 
#    z -0.007550 0.000000 1.868400 
# 
# From -- ./inp_files/71989.got.cif
#   From: 2010.03.12/outbox.cif.g09.slc.cpg/sg14_36_cif.got.tgz:71989.got - 2010.03.31 13:35:05.
