data_PCOD8125639
_publ_section_title
;
Structure prediction by ZEFSAII (Michael W. Deem and Ramdas Pophale) SiO2 
 PCOD8125639
Probable space group: P 21/C
;
_chemical_formula_sum "Si O2"
_cell_formula_units_Z 32
_cell_length_a 12.020753
_cell_length_b 11.787479
_cell_length_c 23.532434
_cell_angle_alpha 90.000000
_cell_angle_beta 152.151644
_cell_angle_gamma 90.000000
_cell_volume 1557.614696
_symmetry_space_group_name_H-M "P 21/C"
_symmetry_group_IT_number 14
_symmetry_cell_setting 'monoclinic'
loop_
_space_group_symop_operation_xyz
x,y,z
-x,1/2+y,1/2-z
-x,-y,-z
x,1/2-y,1/2+z
loop_
_atom_site_type_symbol
_atom_site_label
_atom_site_fract_x
_atom_site_fract_y
_atom_site_fract_z
Si Si1 0.804253 0.707656 0.674079
Si Si2 0.587372 0.552230 0.098218
Si Si3 0.945871 0.661548 0.508156
Si Si4 0.374898 0.542404 0.649313
Si Si5 0.009564 0.909272 0.165649
Si Si6 0.645605 0.400523 0.483188
Si Si7 0.881032 0.332525 0.079614
Si Si8 0.855101 0.894363 0.413811
O O1 0.757952 0.840126 0.664003
O O2 0.933258 0.695212 0.671503
O O3 0.555745 0.638587 0.563397
O O4 0.980030 0.650012 0.798795
O O5 0.732944 0.459640 0.200546
O O6 0.500000 0.500000 0.000000
O O7 0.354956 0.589040 0.029166
O O8 0.720627 0.586018 0.386722
O O9 0.020923 0.635742 0.606739
O O10 0.877935 0.792651 0.469517
O O11 0.165239 0.631963 0.566464
O O12 0.470437 0.557267 0.628289
O O13 0.582444 0.566026 0.787715
O O14 0.805861 0.002712 0.083537
O O15 0.817257 0.298004 0.544865
O O16 0.057594 0.359170 0.108511
O O17 0.000000 0.000000 0.500000
#
# Coordination Sequence:
#
# PCOD8125639 Si02
#       8
#     4   4   4   4   4   4   4   4
#     4  11  22  40  66  97 131 170 222 275 323 409
#     4  11  24  41  68  97 133 174 223 275 333 394
#     4  10  25  45  67  98 137 179 221 279 348 397
#     4  10  22  43  70  92 131 175 226 277 338 399
#     4  11  23  43  65  97 135 177 216 272 347 400
#     4  10  20  40  66  94 123 176 220 274 322 396
#     4  11  22  40  66  97 127 173 228 274 330 396
#     4  12  27  43  68 102 133 175 232 284 339 404
#
# _framework density 20.544232999999998
#
# number of rings (size 3 to 8) (size 9 to 14) (size 15 to 20)
#    0.000    1.250    5.000    0.375    3.500    1.000 
#    0.000    0.000    0.000    0.000    0.000    0.000 
#    0.000    0.000    0.000    0.000    0.000    0.000 
#
# Total GULP energy -396870.109845 kJ/mol
# GULP energy per Si atom -12402.190933 kJ/mol
# Density = 2.049747 g / cm^3
# Si number density = 20.544233 Si / 1000 Ang^3
#
#
#
# Elastic Constant Matrix: (Units=GPa)
#
#
# Indices 1 2 3 4 5 6 
#
# 1 85.1235 29.8684 31.3508 0.0000 -2.7362 0.0000
# 2 29.8684 100.2857 54.5831 0.0000 -2.0484 0.0000
# 3 31.3508 54.5831 121.1927 0.0000 -9.6987 0.0000
# 4 0.0000 0.0000 0.0000 28.3897 0.0000 -4.0625
# 5 -2.7362 -2.0484 -9.6987 0.0000 26.6694 0.0000
# 6 0.0000 0.0000 0.0000 -4.0625 0.0000 24.8761
#
#
#
# Elastic Compliance Matrix: (Units=1/GPa)
#
#
# Indices 1 2 3 4 5 6 
#
# 1 0.013565 -0.002833 -0.002203 0.000000 0.000373 0.000000
# 2 -0.002833 0.013838 -0.005601 0.000000 -0.001265 0.000000
# 3 -0.002203 -0.005601 0.011630 0.000000 0.003573 0.000000
# 4 0.000000 0.000000 0.000000 0.036067 0.000000 0.005890
# 5 0.000373 -0.001265 0.003573 0.000000 0.038737 0.000000
# 6 0.000000 0.000000 0.000000 0.005890 0.000000 0.041161
#
#
# Mechanical properties :
#
#
# Convention : Reuss Voigt Hill
#
# Bulk Modulus (GPa) = 56.31150 59.80072 58.05611
# Shear Modulus (GPa) = 27.44370 28.70700 28.07535
#
# Velocity S-wave (km/s) = 3.65887 3.74214 3.70074
# Velocity P-wave (km/s) = 6.73195 6.91686 6.82503
#
# Compressibility (1/GPa) = 0.01775836
#
# Stress axis : x y z
#
# Youngs Moduli (GPa) = 73.71774 72.26574 85.98762
#
# Poissons Ratio (x) = 0.20476 0.18944
# Poissons Ratio (y) = 0.20887 0.48158
# Poissons Ratio (z) = 0.16241 0.40473
#
# Static dielectric constant tensor:
#      x y z
#    x 3.021070 0.000000 -0.922620 
#    y 0.000000 3.468510 0.000000 
#    z -0.922620 0.000000 2.607620 
# 
# 
# High freq. dielectric constant tensor:
#      x y z
#    x 1.801250 0.000000 0.001320 
#    y 0.000000 1.798180 0.000000 
#    z 0.001320 0.000000 1.812400 
# 
# From -- ./inp_files/35920.got.cif
#   From: 2010.03.12/outbox.cif.g09.slc.cpg/sg14_18_cif.got.tgz:35920.got - 2010.03.31 13:35:05.
