data_PCOD8125628
_publ_section_title
;
Structure prediction by ZEFSAII (Michael W. Deem and Ramdas Pophale) SiO2 
 PCOD8125628
Probable space group: P 21/C
;
_chemical_formula_sum "Si O2"
_cell_formula_units_Z 20
_cell_length_a 8.410698
_cell_length_b 8.203905
_cell_length_c 12.142565
_cell_angle_alpha 90.000000
_cell_angle_beta 78.531993
_cell_angle_gamma 90.000000
_cell_volume 821.117055
_symmetry_space_group_name_H-M "P 21/C"
_symmetry_group_IT_number 14
_symmetry_cell_setting 'monoclinic'
loop_
_space_group_symop_operation_xyz
x,y,z
-x,1/2+y,1/2-z
-x,-y,-z
x,1/2-y,1/2+z
loop_
_atom_site_type_symbol
_atom_site_label
_atom_site_fract_x
_atom_site_fract_y
_atom_site_fract_z
Si Si1 0.862361 0.127963 0.488985
Si Si2 0.672425 0.498316 0.192725
Si Si3 0.148962 0.175909 0.893806
Si Si4 0.321009 0.062021 0.666892
Si Si5 0.659438 0.915879 0.931855
O O1 0.956388 0.289697 0.435927
O O2 0.754009 0.153758 0.614976
O O3 0.739838 0.069842 0.411614
O O4 0.000000 0.000000 0.500000
O O5 0.741029 0.661777 0.126896
O O6 0.478831 0.504810 0.207393
O O7 0.718129 0.485363 0.315236
O O8 0.176523 0.080007 0.776106
O O9 0.203484 0.073120 0.993199
O O10 0.369374 0.229132 0.599608
O O11 0.500000 0.000000 0.000000
#
# Coordination Sequence:
#
# PCOD8125628 Si02
#       5
#     4   4   4   4   4
#     4  10  20  40  65  94 134 180 220 267 344 400
#     4  10  21  38  70  96 129 180 224 273 335 399
#     4  10  22  41  68  98 134 174 220 282 337 403
#     4  11  21  40  69  98 132 175 231 271 330 410
#     4  11  21  39  67  98 136 163 227 284 325 397
#
# _framework density 24.357061000000002
#
# number of rings (size 3 to 8) (size 9 to 14) (size 15 to 20)
#    0.000    1.600    6.000    0.600    0.000    0.000 
#    0.000   14.000    4.400   12.000    0.000    0.000 
#    0.000    0.000    0.000    0.000    0.000    0.000 
#
# Total GULP energy -247932.665350 kJ/mol
# GULP energy per Si atom -12396.633268 kJ/mol
# Density = 2.430162 g / cm^3
# Si number density = 24.357061 Si / 1000 Ang^3
#
#
#
# Elastic Constant Matrix: (Units=GPa)
#
#
# Indices 1 2 3 4 5 6 
#
# 1 97.0437 34.9651 66.3810 0.0000 -13.9968 0.0000
# 2 34.9651 44.8675 47.4559 0.0000 -1.7368 0.0000
# 3 66.3810 47.4559 223.4254 0.0000 -17.0616 0.0000
# 4 0.0000 0.0000 0.0000 15.6190 0.0000 -5.5291
# 5 -13.9968 -1.7368 -17.0616 0.0000 39.9390 0.0000
# 6 0.0000 0.0000 0.0000 -5.5291 0.0000 39.2862
#
#
#
# Elastic Compliance Matrix: (Units=1/GPa)
#
#
# Indices 1 2 3 4 5 6 
#
# 1 0.016082 -0.009874 -0.002360 0.000000 0.004198 0.000000
# 2 -0.009874 0.034884 -0.004780 0.000000 -0.003985 0.000000
# 3 -0.002360 -0.004780 0.006319 0.000000 0.001665 0.000000
# 4 0.000000 0.000000 0.000000 0.067382 0.000000 0.009483
# 5 0.004198 -0.003985 0.001665 0.000000 0.027047 0.000000
# 6 0.000000 0.000000 0.000000 0.009483 0.000000 0.026789
#
#
# Mechanical properties :
#
#
# Convention : Reuss Voigt Hill
#
# Bulk Modulus (GPa) = 42.99746 73.66005 58.32876
# Shear Modulus (GPa) = 22.69785 33.40447 28.05116
#
# Velocity S-wave (km/s) = 3.05598 3.70733 3.39730
# Velocity P-wave (km/s) = 5.49029 6.97374 6.27600
#
# Compressibility (1/GPa) = 0.02325719
#
# Stress axis : x y z
#
# Youngs Moduli (GPa) = 62.18019 28.66621 158.24126
#
# Poissons Ratio (x) = 0.28305 0.37350
# Poissons Ratio (y) = 0.61396 0.75643
# Poissons Ratio (z) = 0.14676 0.13703
#
# Static dielectric constant tensor:
#      x y z
#    x 5.127680 0.000000 -1.048950 
#    y 0.000000 4.298450 0.000000 
#    z -1.048950 0.000000 5.726880 
# 
# 
# High freq. dielectric constant tensor:
#      x y z
#    x 1.964570 0.000000 -0.005720 
#    y 0.000000 1.935720 0.000000 
#    z -0.005720 0.000000 1.993020 
# 
# From -- ./inp_files/22976.got.cif
#   From: 2010.03.12/outbox.cif.g09.slc.cpg/sg14_12_cif.got.tgz:22976.got - 2010.03.31 13:35:05.
