data_PCOD8125930
_publ_section_title
;
Structure prediction by ZEFSAII (Michael W. Deem and Ramdas Pophale) SiO2 
 PCOD8125930
Probable space group: P 21/C
;
_chemical_formula_sum "Si O2"
_cell_formula_units_Z 16
_cell_length_a 14.377668
_cell_length_b 5.216775
_cell_length_c 15.020923
_cell_angle_alpha 90.000000
_cell_angle_beta 40.640483
_cell_angle_gamma 90.000000
_cell_volume 733.795889
_symmetry_space_group_name_H-M "P 21/C"
_symmetry_group_IT_number 14
_symmetry_cell_setting 'monoclinic'
loop_
_space_group_symop_operation_xyz
x,y,z
-x,1/2+y,1/2-z
-x,-y,-z
x,1/2-y,1/2+z
loop_
_atom_site_type_symbol
_atom_site_label
_atom_site_fract_x
_atom_site_fract_y
_atom_site_fract_z
Si Si1 0.329858 0.320472 0.570611
Si Si2 0.306312 0.934975 0.437201
Si Si3 0.910028 0.375394 0.320156
Si Si4 0.569178 0.845841 0.817821
O O1 0.210377 0.546251 0.665972
O O2 0.357732 0.208507 0.649538
O O3 0.479428 0.414074 0.420233
O O4 0.262254 0.114298 0.552422
O O5 0.184814 0.712712 0.524487
O O6 0.468038 0.844937 0.337250
O O7 0.306311 0.067136 0.340607
O O8 0.000580 0.629638 0.279801
#
# Coordination Sequence:
#
# PCOD8125930 Si02
#       4
#     4   4   4   4
#     4  10  21  39  63  93 130 166 204 270 310 384
#     4  11  20  38  66  93 131 168 204 270 315 384
#     4  11  23  43  66  87 126 180 217 254 312 369
#     4  10  21  36  62 102 125 161 210 259 334 371
#
# _framework density 21.804431000000001
#
# number of rings (size 3 to 8) (size 9 to 14) (size 15 to 20)
#    0.000    1.500    5.000    0.750    0.000    0.000 
#    0.000    2.500    0.000    0.000    0.000    0.000 
#    0.000    0.000    0.000    0.000    0.000    0.000 
#
# Total GULP energy -198223.140777 kJ/mol
# GULP energy per Si atom -12388.946299 kJ/mol
# Density = 2.175480 g / cm^3
# Si number density = 21.804431 Si / 1000 Ang^3
#
#
#
# Elastic Constant Matrix: (Units=GPa)
#
#
# Indices 1 2 3 4 5 6 
#
# 1 61.1878 19.1159 59.2933 0.0000 13.2509 0.0000
# 2 19.1159 88.8818 41.4105 0.0000 -1.8667 0.0000
# 3 59.2933 41.4105 111.0109 0.0000 2.7711 0.0000
# 4 0.0000 0.0000 0.0000 41.2049 0.0000 -9.9788
# 5 13.2509 -1.8667 2.7711 0.0000 39.7413 0.0000
# 6 0.0000 0.0000 0.0000 -9.9788 0.0000 26.6933
#
#
#
# Elastic Compliance Matrix: (Units=1/GPa)
#
#
# Indices 1 2 3 4 5 6 
#
# 1 0.038517 0.001127 -0.020710 0.000000 -0.011346 0.000000
# 2 0.001127 0.013690 -0.005725 0.000000 0.000667 0.000000
# 3 -0.020710 -0.005725 0.022078 0.000000 0.005097 0.000000
# 4 0.000000 0.000000 0.000000 0.026685 0.000000 0.009976
# 5 -0.011346 0.000667 0.005097 0.000000 0.028622 0.000000
# 6 0.000000 0.000000 0.000000 0.009976 0.000000 0.041192
#
#
# Mechanical properties :
#
#
# Convention : Reuss Voigt Hill
#
# Bulk Modulus (GPa) = 42.25067 55.63554 48.94310
# Shear Modulus (GPa) = 21.80659 30.94529 26.37594
#
# Velocity S-wave (km/s) = 3.16587 3.77134 3.48179
# Velocity P-wave (km/s) = 5.72562 6.67346 6.21763
#
# Compressibility (1/GPa) = 0.02366826
#
# Stress axis : x y z
#
# Youngs Moduli (GPa) = 25.96289 73.04608 45.29394
#
# Poissons Ratio (x) = -0.08230 0.93802
# Poissons Ratio (y) = -0.02925 0.25932
# Poissons Ratio (z) = 0.53768 0.41820
#
# Static dielectric constant tensor:
#      x y z
#    x 3.833780 0.000000 -0.180010 
#    y 0.000000 4.031290 0.000000 
#    z -0.180010 0.000000 3.891650 
# 
# 
# High freq. dielectric constant tensor:
#      x y z
#    x 1.826280 0.000000 -0.015960 
#    y 0.000000 1.857680 0.000000 
#    z -0.015960 0.000000 1.849770 
# 
# From -- ./inp_files/27347.got.cif
#   From: 2010.03.12/outbox.cif.g09.slc.cpg/sg14_14_cif.got.tgz:27347.got - 2010.03.31 13:35:05.
