data_PCOD8125933
_publ_section_title
;
Structure prediction by ZEFSAII (Michael W. Deem and Ramdas Pophale) SiO2 
 PCOD8125933
Probable space group: P 21/C
;
_chemical_formula_sum "Si O2"
_cell_formula_units_Z 32
_cell_length_a 5.119974
_cell_length_b 22.400443
_cell_length_c 13.551881
_cell_angle_alpha 90.000000
_cell_angle_beta 73.726154
_cell_angle_gamma 90.000000
_cell_volume 1491.986879
_symmetry_space_group_name_H-M "P 21/C"
_symmetry_group_IT_number 14
_symmetry_cell_setting 'monoclinic'
loop_
_space_group_symop_operation_xyz
x,y,z
-x,1/2+y,1/2-z
-x,-y,-z
x,1/2-y,1/2+z
loop_
_atom_site_type_symbol
_atom_site_label
_atom_site_fract_x
_atom_site_fract_y
_atom_site_fract_z
Si Si1 0.778320 0.464719 0.463714
Si Si2 0.751407 0.685943 0.320866
Si Si3 0.902939 0.502411 0.750406
Si Si4 0.972664 0.198751 0.401871
Si Si5 0.640185 0.574537 0.935639
Si Si6 0.629689 0.788846 0.477098
Si Si7 0.233297 0.610990 0.359427
Si Si8 0.033430 0.938042 0.564685
O O1 0.500000 0.500000 0.500000
O O2 0.752593 0.401131 0.523035
O O3 0.000000 0.500000 0.500000
O O4 0.879971 0.460315 0.339320
O O5 0.619025 0.739916 0.394014
O O6 0.501569 0.647850 0.302598
O O7 0.915567 0.718132 0.215952
O O8 0.954375 0.645237 0.364083
O O9 0.683621 0.548873 0.820352
O O10 0.752995 0.451265 0.702394
O O11 0.058601 0.472089 0.826125
O O12 0.655591 0.213073 0.436030
O O13 0.044086 0.129719 0.406946
O O14 0.131856 0.231460 0.473520
O O15 0.679990 0.645735 0.925344
O O16 0.354374 0.555998 0.011666
O O17 0.864639 0.542503 0.984408
#
# Coordination Sequence:
#
# PCOD8125933 Si02
#       8
#     4   4   4   4   4   4   4   4
#     4  10  23  40  59  89 130 162 207 258 308 369
#     4  12  23  43  70  93 126 166 221 264 319 387
#     4  11  22  40  65  92 132 170 204 262 320 377
#     4  10  21  40  66  91 122 164 205 266 314 372
#     4  10  23  39  59  94 128 165 203 265 313 388
#     4  10  23  43  62  92 130 161 211 269 319 371
#     4  11  24  39  67  98 123 169 220 267 312 381
#     4  10  21  36  62  91 125 156 213 246 315 373
#
# _framework density 21.447911000000001
#
# number of rings (size 3 to 8) (size 9 to 14) (size 15 to 20)
#    0.000    1.500    1.250    3.750    3.500    4.000 
#    4.500    0.000    0.000    0.000    0.000    0.000 
#    0.000    0.000    0.000    0.000    0.000    0.000 
#
# Total GULP energy -396781.389425 kJ/mol
# GULP energy per Si atom -12399.418420 kJ/mol
# Density = 2.139909 g / cm^3
# Si number density = 21.447911 Si / 1000 Ang^3
#
#
#
# Elastic Constant Matrix: (Units=GPa)
#
#
# Indices 1 2 3 4 5 6 
#
# 1 107.9639 27.7635 20.1382 0.0000 -1.1292 0.0000
# 2 27.7635 68.5756 41.8763 0.0000 -1.4111 0.0000
# 3 20.1382 41.8763 144.2324 0.0000 -12.8584 0.0000
# 4 0.0000 0.0000 0.0000 32.1013 0.0000 3.6497
# 5 -1.1292 -1.4111 -12.8584 0.0000 28.2662 0.0000
# 6 0.0000 0.0000 0.0000 3.6497 0.0000 27.6086
#
#
#
# Elastic Compliance Matrix: (Units=1/GPa)
#
#
# Indices 1 2 3 4 5 6 
#
# 1 0.010348 -0.004024 -0.000269 0.000000 0.000090 0.000000
# 2 -0.004024 0.019352 -0.005196 0.000000 -0.001558 0.000000
# 3 -0.000269 -0.005196 0.008813 0.000000 0.003739 0.000000
# 4 0.000000 0.000000 0.000000 0.031627 0.000000 -0.004181
# 5 0.000090 -0.001558 0.003739 0.000000 0.037005 0.000000
# 6 0.000000 0.000000 0.000000 -0.004181 0.000000 0.036773
#
#
# Mechanical properties :
#
#
# Convention : Reuss Voigt Hill
#
# Bulk Modulus (GPa) = 51.18525 55.59197 53.38861
# Shear Modulus (GPa) = 29.51491 32.99483 31.25487
#
# Velocity S-wave (km/s) = 3.71363 3.92646 3.82153
# Velocity P-wave (km/s) = 6.50422 6.82143 6.66471
#
# Compressibility (1/GPa) = 0.01953688
#
# Stress axis : x y z
#
# Youngs Moduli (GPa) = 96.63607 51.67350 113.47365
#
# Poissons Ratio (x) = 0.20792 0.03047
# Poissons Ratio (y) = 0.38883 0.58959
# Poissons Ratio (z) = 0.02595 0.26849
#
# Static dielectric constant tensor:
#      x y z
#    x 3.851160 0.000000 -0.019870 
#    y 0.000000 3.939260 0.000000 
#    z -0.019870 0.000000 4.418780 
# 
# 
# High freq. dielectric constant tensor:
#      x y z
#    x 1.850370 0.000000 -0.002780 
#    y 0.000000 1.830760 0.000000 
#    z -0.002780 0.000000 1.846410 
# 
# From -- ./inp_files/22184.got.cif
#   From: 2010.03.12/outbox.cif.g09.slc.cpg/sg14_12_cif.got.tgz:22184.got - 2010.03.31 13:35:05.
