data_PCOD8125224
_publ_section_title
;
Structure prediction by ZEFSAII (Michael W. Deem and Ramdas Pophale) SiO2 
 PCOD8125224
Probable space group: P 21/C
;
_chemical_formula_sum "Si O2"
_cell_formula_units_Z 20
_cell_length_a 6.742745
_cell_length_b 10.262956
_cell_length_c 21.954430
_cell_angle_alpha 90.000000
_cell_angle_beta 143.798521
_cell_angle_gamma 90.000000
_cell_volume 897.313695
_symmetry_space_group_name_H-M "P 21/C"
_symmetry_group_IT_number 14
_symmetry_cell_setting 'monoclinic'
loop_
_space_group_symop_operation_xyz
x,y,z
-x,1/2+y,1/2-z
-x,-y,-z
x,1/2-y,1/2+z
loop_
_atom_site_type_symbol
_atom_site_label
_atom_site_fract_x
_atom_site_fract_y
_atom_site_fract_z
Si Si1 0.997190 0.240734 0.883053
Si Si2 0.738932 0.115639 0.936025
Si Si3 0.840104 0.493084 0.121481
Si Si4 0.022481 0.476287 0.295338
Si Si5 0.219604 0.716481 0.423452
O O1 0.922019 0.390364 0.844372
O O2 0.894564 0.148995 0.800839
O O3 0.768358 0.206371 0.883947
O O4 0.387529 0.219323 0.997465
O O5 0.373152 0.052499 0.848746
O O6 0.812284 0.205643 0.012167
O O7 0.000000 0.000000 0.000000
O O8 0.982278 0.347210 0.145810
O O9 0.772742 0.510990 0.177506
O O10 0.500000 0.500000 0.000000
O O11 0.044716 0.595626 0.347324
#
# Coordination Sequence:
#
# PCOD8125224 Si02
#       5
#     4   4   4   4   4
#     4  10  20  39  62  87 118 152 192 246 296 346
#     4  11  19  37  63  88 114 148 197 244 285 348
#     4  10  23  40  58  86 124 159 191 245 302 343
#     4  11  20  38  63  89 113 155 205 234 288 357
#     4  10  20  37  63  87 116 151 196 243 292 353
#
# _framework density 22.28875
#
# number of rings (size 3 to 8) (size 9 to 14) (size 15 to 20)
#    0.000    1.600    4.000    2.400    0.000    0.800 
#    3.600    4.000    0.000    0.000    0.000    0.000 
#    0.000    0.000    0.000    0.000    0.000    0.000 
#
# Total GULP energy -247972.207399 kJ/mol
# GULP energy per Si atom -12398.610370 kJ/mol
# Density = 2.223802 g / cm^3
# Si number density = 22.288750 Si / 1000 Ang^3
#
#
#
# Elastic Constant Matrix: (Units=GPa)
#
#
# Indices 1 2 3 4 5 6 
#
# 1 111.2912 42.2642 32.2886 0.0000 -33.0854 0.0000
# 2 42.2642 166.0180 34.4824 0.0000 -23.9450 0.0000
# 3 32.2886 34.4824 112.0163 0.0000 -39.4566 0.0000
# 4 0.0000 0.0000 0.0000 24.9131 0.0000 -12.0919
# 5 -33.0854 -23.9450 -39.4566 0.0000 31.6187 0.0000
# 6 0.0000 0.0000 0.0000 -12.0919 0.0000 16.9997
#
#
#
# Elastic Compliance Matrix: (Units=1/GPa)
#
#
# Indices 1 2 3 4 5 6 
#
# 1 0.013658 -0.001654 0.002079 0.000000 0.015633 0.000000
# 2 -0.001654 0.006978 -0.000749 0.000000 0.002619 0.000000
# 3 0.002079 -0.000749 0.016282 0.000000 0.021926 0.000000
# 4 0.000000 0.000000 0.000000 0.061304 0.000000 0.043606
# 5 0.015633 0.002619 0.021926 0.000000 0.077330 0.000000
# 6 0.000000 0.000000 0.000000 0.043606 0.000000 0.089841
#
#
# Mechanical properties :
#
#
# Convention : Reuss Voigt Hill
#
# Bulk Modulus (GPa) = 27.57089 67.48843 47.52966
# Shear Modulus (GPa) = 17.97717 33.39232 25.68475
#
# Velocity S-wave (km/s) = 2.84308 3.87482 3.39833
# Velocity P-wave (km/s) = 4.81396 7.09675 6.06375
#
# Compressibility (1/GPa) = 0.03627014
#
# Stress axis : x y z
#
# Youngs Moduli (GPa) = 73.21751 143.31172 61.41841
#
# Poissons Ratio (x) = 0.23704 -0.12768
# Poissons Ratio (y) = 0.12110 0.04598
# Poissons Ratio (z) = -0.15221 0.10728
#
# Static dielectric constant tensor:
#      x y z
#    x 4.118480 0.000000 -0.137170 
#    y 0.000000 4.853820 0.000000 
#    z -0.137170 0.000000 4.276450 
# 
# 
# High freq. dielectric constant tensor:
#      x y z
#    x 1.850180 0.000000 -0.030240 
#    y 0.000000 1.897210 0.000000 
#    z -0.030240 0.000000 1.876340 
# 
# From -- ./inp_files/52929.got.cif
#   From: 2010.03.12/outbox.cif.g09.slc.cpg/sg14_27_cif.got.tgz:52929.got - 2010.03.31 13:35:05.
