data_PCOD8125152
_publ_section_title
;
Structure prediction by ZEFSAII (Michael W. Deem and Ramdas Pophale) SiO2 
 PCOD8125152
Probable space group: P 21/C
;
_chemical_formula_sum "Si O2"
_cell_formula_units_Z 28
_cell_length_a 14.633710
_cell_length_b 8.825426
_cell_length_c 20.191164
_cell_angle_alpha 90.000000
_cell_angle_beta 32.555750
_cell_angle_gamma 90.000000
_cell_volume 1403.235635
_symmetry_space_group_name_H-M "P 21/C"
_symmetry_group_IT_number 14
_symmetry_cell_setting 'monoclinic'
loop_
_space_group_symop_operation_xyz
x,y,z
-x,1/2+y,1/2-z
-x,-y,-z
x,1/2-y,1/2+z
loop_
_atom_site_type_symbol
_atom_site_label
_atom_site_fract_x
_atom_site_fract_y
_atom_site_fract_z
Si Si1 0.554702 0.432080 0.065886
Si Si2 0.351269 0.296703 0.906509
Si Si3 0.933935 0.556712 0.431712
Si Si4 0.268181 0.874614 0.671348
Si Si5 0.688950 0.143494 0.744563
Si Si6 0.328308 0.313561 0.768606
Si Si7 0.958031 0.290573 0.501050
O O1 0.671127 0.554157 0.034046
O O2 0.397089 0.510061 0.126507
O O3 0.475307 0.306615 0.162899
O O4 0.675858 0.348736 0.938727
O O5 0.536403 0.233840 0.805296
O O6 0.331579 0.350491 0.843910
O O7 0.215768 0.163475 0.004219
O O8 0.870367 0.389321 0.494645
O O9 0.079709 0.551134 0.286455
O O10 0.027963 0.614712 0.440066
O O11 0.263852 0.714556 0.712855
O O12 0.838589 0.151016 0.597157
O O13 0.638778 0.970327 0.789877
O O14 0.141523 0.257914 0.861799
#
# Coordination Sequence:
#
# PCOD8125152 Si02
#       7
#     4   4   4   4   4   4   4
#     4  10  20  37  59  83 114 155 194 241 294 354
#     4  10  22  34  55  82 119 150 189 248 298 346
#     4   9  17  34  59  82 109 155 194 240 288 353
#     4   9  19  38  60  80 112 157 201 231 289 359
#     4  10  21  33  55  85 117 148 199 245 285 348
#     4  11  20  34  56  87 116 148 193 246 296 342
#     4   9  18  32  57  84 112 145 193 239 292 343
#
# _framework density 19.953882
#
# number of rings (size 3 to 8) (size 9 to 14) (size 15 to 20)
#    0.000    2.286    1.429    1.286    8.000    0.571 
#    0.000    1.429    0.000    3.429    0.000    0.000 
#    0.000    0.000    0.000    0.000    0.000    0.000 
#
# Total GULP energy -347024.910127 kJ/mol
# GULP energy per Si atom -12393.746790 kJ/mol
# Density = 1.990847 g / cm^3
# Si number density = 19.953882 Si / 1000 Ang^3
#
#
#
# Elastic Constant Matrix: (Units=GPa)
#
#
# Indices 1 2 3 4 5 6 
#
# 1 59.0608 30.6191 32.9972 0.0000 2.3127 0.0000
# 2 30.6191 103.6114 30.0017 0.0000 11.1931 0.0000
# 3 32.9972 30.0017 98.9066 0.0000 8.8309 0.0000
# 4 0.0000 0.0000 0.0000 23.0457 0.0000 -4.2938
# 5 2.3127 11.1931 8.8309 0.0000 17.7623 0.0000
# 6 0.0000 0.0000 0.0000 -4.2938 0.0000 29.2755
#
#
#
# Elastic Compliance Matrix: (Units=1/GPa)
#
#
# Indices 1 2 3 4 5 6 
#
# 1 0.023161 -0.005371 -0.006416 0.000000 0.003559 0.000000
# 2 -0.005371 0.012327 -0.001377 0.000000 -0.006384 0.000000
# 3 -0.006416 -0.001377 0.013098 0.000000 -0.004809 0.000000
# 4 0.000000 0.000000 0.000000 0.044611 0.000000 0.006543
# 5 0.003559 -0.006384 -0.004809 0.000000 0.062249 0.000000
# 6 0.000000 0.000000 0.000000 0.006543 0.000000 0.035118
#
#
# Mechanical properties :
#
#
# Convention : Reuss Voigt Hill
#
# Bulk Modulus (GPa) = 44.92708 49.86831 47.39769
# Shear Modulus (GPa) = 22.29028 25.21409 23.75218
#
# Velocity S-wave (km/s) = 3.34592 3.55860 3.45389
# Velocity P-wave (km/s) = 6.12301 6.47540 6.30167
#
# Compressibility (1/GPa) = 0.02225829
#
# Stress axis : x y z
#
# Youngs Moduli (GPa) = 43.17520 81.12097 76.34743
#
# Poissons Ratio (x) = 0.43573 0.48981
# Poissons Ratio (y) = 0.23191 0.10515
# Poissons Ratio (z) = 0.27699 0.11172
#
# Static dielectric constant tensor:
#      x y z
#    x 3.373300 0.000000 0.022520 
#    y 0.000000 3.684230 0.000000 
#    z 0.022520 0.000000 3.780570 
# 
# 
# High freq. dielectric constant tensor:
#      x y z
#    x 1.745570 0.000000 -0.007860 
#    y 0.000000 1.774230 0.000000 
#    z -0.007860 0.000000 1.780200 
# 
# From -- ./inp_files/68168.got.cif
#   From: 2010.03.12/outbox.cif.g09.slc.cpg/sg14_35_cif.got.tgz:68168.got - 2010.03.31 13:35:05.
