data_PCOD8125305
_publ_section_title
;
Structure prediction by ZEFSAII (Michael W. Deem and Ramdas Pophale) SiO2 
 PCOD8125305
Probable space group: P 21/C
;
_chemical_formula_sum "Si O2"
_cell_formula_units_Z 28
_cell_length_a 9.052340
_cell_length_b 8.327595
_cell_length_c 21.078058
_cell_angle_alpha 90.000000
_cell_angle_beta 56.296203
_cell_angle_gamma 90.000000
_cell_volume 1321.877561
_symmetry_space_group_name_H-M "P 21/C"
_symmetry_group_IT_number 14
_symmetry_cell_setting 'monoclinic'
loop_
_space_group_symop_operation_xyz
x,y,z
-x,1/2+y,1/2-z
-x,-y,-z
x,1/2-y,1/2+z
loop_
_atom_site_type_symbol
_atom_site_label
_atom_site_fract_x
_atom_site_fract_y
_atom_site_fract_z
Si Si1 0.560375 0.553706 0.579956
Si Si2 0.496134 0.072282 0.429591
Si Si3 0.167169 0.885395 0.462662
Si Si4 0.819933 0.386618 0.765399
Si Si5 0.155678 0.616833 0.559285
Si Si6 0.824892 0.448220 0.306332
Si Si7 0.182171 0.573147 0.378565
O O1 0.539827 0.737303 0.562495
O O2 0.649113 0.455721 0.501301
O O3 0.369541 0.470739 0.641427
O O4 0.678596 0.533950 0.615206
O O5 0.681926 0.040677 0.349082
O O6 0.500000 0.000000 0.500000
O O7 0.346108 0.988491 0.422929
O O8 0.140414 0.792721 0.534635
O O9 0.181744 0.759294 0.400906
O O10 0.000000 0.000000 0.500000
O O11 0.814319 0.194047 0.757690
O O12 0.773474 0.450266 0.706288
O O13 0.018506 0.426262 0.743831
O O14 0.128219 0.642772 0.639574
O O15 0.014365 0.495435 0.561799
#
# Coordination Sequence:
#
# PCOD8125305 Si02
#       7
#     4   4   4   4   4   4   4
#     4  10  20  39  61  87 118 157 197 236 290 358
#     4  11  24  40  60  88 119 150 197 256 298 345
#     4  11  21  36  61  91 117 151 196 248 294 339
#     4  10  24  42  57  85 120 155 197 242 300 355
#     4  10  20  38  60  86 117 155 196 234 288 357
#     4  10  22  38  60  83 115 153 193 241 288 347
#     4  10  22  39  60  86 122 161 194 237 297 365
#
# _framework density 21.181992000000001
#
# number of rings (size 3 to 8) (size 9 to 14) (size 15 to 20)
#    0.000    1.714    0.000    5.571    0.000   10.286 
#    0.000    2.857    0.000    0.000    0.000    0.000 
#    0.000    0.000    0.000    0.000    0.000    0.000 
#
# Total GULP energy -347074.117176 kJ/mol
# GULP energy per Si atom -12395.504185 kJ/mol
# Density = 2.113378 g / cm^3
# Si number density = 21.181992 Si / 1000 Ang^3
#
#
#
# Elastic Constant Matrix: (Units=GPa)
#
#
# Indices 1 2 3 4 5 6 
#
# 1 103.8811 36.0638 37.4306 0.0000 -31.2752 0.0000
# 2 36.0638 92.5902 30.2402 0.0000 -20.4546 0.0000
# 3 37.4306 30.2402 97.2334 0.0000 -22.3578 0.0000
# 4 0.0000 0.0000 0.0000 25.0792 0.0000 -2.1758
# 5 -31.2752 -20.4546 -22.3578 0.0000 44.5933 0.0000
# 6 0.0000 0.0000 0.0000 -2.1758 0.0000 44.0124
#
#
#
# Elastic Compliance Matrix: (Units=1/GPa)
#
#
# Indices 1 2 3 4 5 6 
#
# 1 0.013715 -0.002909 -0.002792 0.000000 0.006885 0.000000
# 2 -0.002909 0.013345 -0.002365 0.000000 0.002895 0.000000
# 3 -0.002792 -0.002365 0.012880 0.000000 0.003415 0.000000
# 4 0.000000 0.000000 0.000000 0.040045 0.000000 0.001980
# 5 0.006885 0.002895 0.003415 0.000000 0.030294 0.000000
# 6 0.000000 0.000000 0.000000 0.001980 0.000000 0.022819
#
#
# Mechanical properties :
#
#
# Convention : Reuss Voigt Hill
#
# Bulk Modulus (GPa) = 42.00144 55.68601 48.84373
# Shear Modulus (GPa) = 31.81339 35.40163 33.60751
#
# Velocity S-wave (km/s) = 3.87965 4.09260 3.98755
# Velocity P-wave (km/s) = 6.31987 6.97702 6.65656
#
# Compressibility (1/GPa) = 0.02380871
#
# Stress axis : x y z
#
# Youngs Moduli (GPa) = 72.91217 74.93201 77.64004
#
# Poissons Ratio (x) = 0.21800 0.21676
# Poissons Ratio (y) = 0.21212 0.18360
# Poissons Ratio (z) = 0.20356 0.17720
#
# Static dielectric constant tensor:
#      x y z
#    x 4.125670 0.000000 -0.168180 
#    y 0.000000 3.715850 0.000000 
#    z -0.168180 0.000000 3.855130 
# 
# 
# High freq. dielectric constant tensor:
#      x y z
#    x 1.847910 0.000000 -0.006150 
#    y 0.000000 1.821530 0.000000 
#    z -0.006150 0.000000 1.831620 
# 
# From -- ./inp_files/64949.got.cif
#   From: 2010.03.12/outbox.cif.g09.slc.cpg/sg14_33_cif.got.tgz:64949.got - 2010.03.31 13:35:05.
