data_PCOD8125167
_publ_section_title
;
Structure prediction by ZEFSAII (Michael W. Deem and Ramdas Pophale) SiO2 
 PCOD8125167
Probable space group: P 21/C
;
_chemical_formula_sum "Si O2"
_cell_formula_units_Z 32
_cell_length_a 13.272437
_cell_length_b 14.979167
_cell_length_c 21.852909
_cell_angle_alpha 90.000000
_cell_angle_beta 23.164202
_cell_angle_gamma 90.000000
_cell_volume 1709.016038
_symmetry_space_group_name_H-M "P 21/C"
_symmetry_group_IT_number 14
_symmetry_cell_setting 'monoclinic'
loop_
_space_group_symop_operation_xyz
x,y,z
-x,1/2+y,1/2-z
-x,-y,-z
x,1/2-y,1/2+z
loop_
_atom_site_type_symbol
_atom_site_label
_atom_site_fract_x
_atom_site_fract_y
_atom_site_fract_z
Si Si1 0.675473 0.234624 0.074863
Si Si2 0.701599 0.277267 0.367535
Si Si3 0.747556 0.128772 0.433960
Si Si4 0.833326 0.403632 0.392556
Si Si5 0.962174 0.153957 0.132146
Si Si6 0.254409 0.091517 0.083149
Si Si7 0.267368 0.468385 0.234892
Si Si8 0.865134 0.684906 0.598910
O O1 0.379534 0.249948 0.257977
O O2 0.787632 0.316615 0.973684
O O3 0.675929 0.145281 0.033925
O O4 0.870095 0.226444 0.023272
O O5 0.619430 0.190626 0.452721
O O6 0.895937 0.336048 0.301225
O O7 0.824971 0.243616 0.234981
O O8 0.463889 0.341259 0.490489
O O9 0.560642 0.046095 0.551774
O O10 0.018299 0.092179 0.261657
O O11 0.657128 0.487932 0.469677
O O12 0.099641 0.441005 0.269740
O O13 0.180901 0.124390 0.056793
O O14 0.761932 0.072928 0.233614
O O15 0.101840 0.173635 0.991305
O O16 0.191650 0.409163 0.336158
#
# Coordination Sequence:
#
# PCOD8125167 Si02
#       8
#     4   4   4   4   4   4   4   4
#     4   9  20  35  59  83 106 148 189 233 270 334
#     4  10  21  33  53  80 115 142 175 221 283 335
#     4   9  20  34  56  83 106 141 183 230 276 323
#     4   9  19  35  56  79 107 145 178 224 279 330
#     4  10  22  35  55  84 108 148 181 233 272 322
#     4  10  21  35  54  81 113 145 177 227 276 340
#     4   9  19  38  57  83 106 140 193 230 266 327
#     4  10  20  37  60  81 113 148 190 231 276 323
#
# _framework density 18.724225000000001
#
# number of rings (size 3 to 8) (size 9 to 14) (size 15 to 20)
#    0.000    2.500    0.000    0.750   12.250    4.500 
#    0.000    0.000    0.000    0.750    0.000    0.000 
#    0.000    0.000    0.000    0.000    0.000    0.000 
#
# Total GULP energy -396652.522786 kJ/mol
# GULP energy per Si atom -12395.391337 kJ/mol
# Density = 1.868161 g / cm^3
# Si number density = 18.724225 Si / 1000 Ang^3
#
#
#
# Elastic Constant Matrix: (Units=GPa)
#
#
# Indices 1 2 3 4 5 6 
#
# 1 56.7203 19.3838 45.2490 0.0000 15.6424 0.0000
# 2 19.3838 93.8345 54.7058 0.0000 4.2882 0.0000
# 3 45.2490 54.7058 98.3757 0.0000 9.1108 0.0000
# 4 0.0000 0.0000 0.0000 18.4531 0.0000 -3.3363
# 5 15.6424 4.2882 9.1108 0.0000 28.2066 0.0000
# 6 0.0000 0.0000 0.0000 -3.3363 0.0000 21.2087
#
#
#
# Elastic Compliance Matrix: (Units=1/GPa)
#
#
# Indices 1 2 3 4 5 6 
#
# 1 0.032631 0.002807 -0.015313 0.000000 -0.013577 0.000000
# 2 0.002807 0.016017 -0.010131 0.000000 -0.000719 0.000000
# 3 -0.015313 -0.010131 0.022589 0.000000 0.002736 0.000000
# 4 0.000000 0.000000 0.000000 0.055778 0.000000 0.008774
# 5 -0.013577 -0.000719 0.002736 0.000000 0.042208 0.000000
# 6 0.000000 0.000000 0.000000 0.008774 0.000000 0.048531
#
#
# Mechanical properties :
#
#
# Convention : Reuss Voigt Hill
#
# Bulk Modulus (GPa) = 38.51648 54.17864 46.34756
# Shear Modulus (GPa) = 18.40398 22.21315 20.30857
#
# Velocity S-wave (km/s) = 3.13852 3.44805 3.29692
# Velocity P-wave (km/s) = 5.80937 6.69701 6.26892
#
# Compressibility (1/GPa) = 0.02596292
#
# Stress axis : x y z
#
# Youngs Moduli (GPa) = 30.64559 62.43543 44.26982
#
# Poissons Ratio (x) = -0.17525 0.67789
# Poissons Ratio (y) = -0.08602 0.44850
# Poissons Ratio (z) = 0.46926 0.63254
#
# Static dielectric constant tensor:
#      x y z
#    x 3.479010 0.000000 0.025450 
#    y 0.000000 3.693760 0.000000 
#    z 0.025450 0.000000 3.202340 
# 
# 
# High freq. dielectric constant tensor:
#      x y z
#    x 1.726490 0.000000 0.002810 
#    y 0.000000 1.731960 0.000000 
#    z 0.002810 0.000000 1.706940 
# 
# From -- ./inp_files/35955.got.cif
#   From: 2010.03.12/outbox.cif.g09.slc.cpg/sg14_18_cif.got.tgz:35955.got - 2010.03.31 13:35:05.
