data_PCOD8125435
_publ_section_title
;
Structure prediction by ZEFSAII (Michael W. Deem and Ramdas Pophale) SiO2 
 PCOD8125435
Probable space group: P 21/C
;
_chemical_formula_sum "Si O2"
_cell_formula_units_Z 28
_cell_length_a 14.089752
_cell_length_b 14.542218
_cell_length_c 9.275078
_cell_angle_alpha 90.000000
_cell_angle_beta 46.494649
_cell_angle_gamma 90.000000
_cell_volume 1378.400062
_symmetry_space_group_name_H-M "P 21/C"
_symmetry_group_IT_number 14
_symmetry_cell_setting 'monoclinic'
loop_
_space_group_symop_operation_xyz
x,y,z
-x,1/2+y,1/2-z
-x,-y,-z
x,1/2-y,1/2+z
loop_
_atom_site_type_symbol
_atom_site_label
_atom_site_fract_x
_atom_site_fract_y
_atom_site_fract_z
Si Si1 0.265474 0.538182 0.534777
Si Si2 0.356417 0.836226 0.701963
Si Si3 0.424454 0.368838 0.479513
Si Si4 0.381258 0.289395 0.223183
Si Si5 0.717524 0.369390 0.201943
Si Si6 0.137088 0.420159 0.441202
Si Si7 0.849875 0.424314 0.785594
O O1 0.363201 0.593661 0.328170
O O2 0.334512 0.454689 0.542793
O O3 0.218377 0.608711 0.708176
O O4 0.150698 0.496563 0.555015
O O5 0.502408 0.836342 0.488189
O O6 0.298695 0.738610 0.813403
O O7 0.260833 0.867068 0.676758
O O8 0.416664 0.295109 0.355302
O O9 0.373085 0.316282 0.677474
O O10 0.569872 0.409082 0.349893
O O11 0.244809 0.340758 0.335518
O O12 0.813632 0.420749 0.991350
O O13 0.147929 0.470865 0.275156
O O14 0.992370 0.377578 0.610847
#
# Coordination Sequence:
#
# PCOD8125435 Si02
#       7
#     4   4   4   4   4   4   4
#     4  10  22  37  59  89 122 148 199 243 300 347
#     4  10  21  37  62  86 116 157 195 245 292 359
#     4  10  22  36  58  90 120 156 192 251 291 352
#     4  10  21  38  59  84 123 151 201 240 297 345
#     4  11  21  35  60  90 117 149 198 253 290 345
#     4   9  22  40  59  83 118 162 193 243 292 375
#     4  10  20  39  60  84 117 156 204 234 303 351
#
# _framework density 20.313406000000001
#
# number of rings (size 3 to 8) (size 9 to 14) (size 15 to 20)
#    0.000    2.000    1.429    1.286    8.000    3.429 
#    5.143    0.000    3.143    0.000    0.000    0.000 
#    0.000    0.000    0.000    0.000    0.000    0.000 
#
# Total GULP energy -347078.472188 kJ/mol
# GULP energy per Si atom -12395.659721 kJ/mol
# Density = 2.026717 g / cm^3
# Si number density = 20.313406 Si / 1000 Ang^3
#
#
#
# Elastic Constant Matrix: (Units=GPa)
#
#
# Indices 1 2 3 4 5 6 
#
# 1 50.2365 18.2416 33.5130 0.0000 -0.4470 0.0000
# 2 18.2416 55.8534 18.5610 0.0000 -1.4194 0.0000
# 3 33.5130 18.5610 84.2386 0.0000 2.5605 0.0000
# 4 0.0000 0.0000 0.0000 28.3062 0.0000 8.4631
# 5 -0.4470 -1.4194 2.5605 0.0000 36.8635 0.0000
# 6 0.0000 0.0000 0.0000 8.4631 0.0000 27.9855
#
#
#
# Elastic Compliance Matrix: (Units=1/GPa)
#
#
# Indices 1 2 3 4 5 6 
#
# 1 0.028905 -0.006031 -0.010195 0.000000 0.000826 0.000000
# 2 -0.006031 0.020617 -0.002170 0.000000 0.000871 0.000000
# 3 -0.010195 -0.002170 0.016446 0.000000 -0.001350 0.000000
# 4 0.000000 0.000000 0.000000 0.038840 0.000000 -0.011746
# 5 0.000826 0.000871 -0.001350 0.000000 0.027264 0.000000
# 6 0.000000 0.000000 0.000000 -0.011746 0.000000 0.039285
#
#
# Mechanical properties :
#
#
# Convention : Reuss Voigt Hill
#
# Bulk Modulus (GPa) = 34.27582 36.77331 35.52456
# Shear Modulus (GPa) = 22.94900 26.63190 24.79045
#
# Velocity S-wave (km/s) = 3.36482 3.62477 3.49721
# Velocity P-wave (km/s) = 5.65739 5.97167 5.81666
#
# Compressibility (1/GPa) = 0.02917509
#
# Stress axis : x y z
#
# Youngs Moduli (GPa) = 34.59662 48.50373 60.80410
#
# Poissons Ratio (x) = 0.29253 0.61993
# Poissons Ratio (y) = 0.20865 0.13194
# Poissons Ratio (z) = 0.35273 0.10525
#
# Static dielectric constant tensor:
#      x y z
#    x 3.884960 0.000000 0.205700 
#    y 0.000000 3.583440 0.000000 
#    z 0.205700 0.000000 3.653750 
# 
# 
# High freq. dielectric constant tensor:
#      x y z
#    x 1.801210 0.000000 0.016190 
#    y 0.000000 1.782650 0.000000 
#    z 0.016190 0.000000 1.782540 
# 
# From -- ./inp_files/16211.got.cif
#   From: 2010.03.12/outbox.cif.g09.slc.cpg/sg14_9_cif.got.tgz:16211.got - 2010.03.31 13:35:05.
