data_PCOD8125862
_publ_section_title
;
Structure prediction by ZEFSAII (Michael W. Deem and Ramdas Pophale) SiO2 
 PCOD8125862
Probable space group: P 21/C
;
_chemical_formula_sum "Si O2"
_cell_formula_units_Z 32
_cell_length_a 27.455854
_cell_length_b 5.008980
_cell_length_c 31.747954
_cell_angle_alpha 90.000000
_cell_angle_beta 20.019814
_cell_angle_gamma 90.000000
_cell_volume 1494.734630
_symmetry_space_group_name_H-M "P 21/C"
_symmetry_group_IT_number 14
_symmetry_cell_setting 'monoclinic'
loop_
_space_group_symop_operation_xyz
x,y,z
-x,1/2+y,1/2-z
-x,-y,-z
x,1/2-y,1/2+z
loop_
_atom_site_type_symbol
_atom_site_label
_atom_site_fract_x
_atom_site_fract_y
_atom_site_fract_z
Si Si1 0.924721 0.327450 0.328935
Si Si2 0.977601 0.797475 0.158578
Si Si3 0.632972 0.143602 0.021401
Si Si4 0.875174 0.774618 0.614462
Si Si5 0.860521 0.119759 0.056538
Si Si6 0.215958 0.703660 0.687765
Si Si7 0.284014 0.779365 0.723498
Si Si8 0.548590 0.147848 0.335394
O O1 0.762145 0.293427 0.447473
O O2 0.975852 0.627145 0.278121
O O3 0.933172 0.261944 0.371320
O O4 0.904841 0.517714 0.205774
O O5 0.856172 0.015818 0.264564
O O6 0.087651 0.889351 0.033359
O O7 0.509956 0.358363 0.128827
O O8 0.567932 0.857614 0.085379
O O9 0.682675 0.127843 0.932756
O O10 0.868565 0.675918 0.571198
O O11 0.827691 0.522415 0.682328
O O12 0.039734 0.825309 0.496170
O O13 0.772874 0.017436 0.706764
O O14 0.696801 0.210900 0.191108
O O15 0.313323 0.725879 0.650578
O O16 0.427309 0.848131 0.633202
#
# Coordination Sequence:
#
# PCOD8125862 Si02
#       8
#     4   4   4   4   4   4   4   4
#     4  12  23  45  73  96 118 159 217 278 332 370
#     4  12  23  41  67 105 119 156 214 291 322 356
#     4  12  25  44  63  92 129 172 215 260 321 397
#     4  10  21  35  64  91 131 173 219 263 303 363
#     4  10  22  40  63  96 131 170 216 260 314 370
#     4  12  23  39  67  96 132 158 219 272 320 364
#     4  11  21  40  60  98 130 175 215 258 315 371
#     4  11  26  40  62  90 138 182 203 241 322 403
#
# _framework density 21.408484000000001
#
# number of rings (size 3 to 8) (size 9 to 14) (size 15 to 20)
#    0.000    0.750    5.000    3.000    0.000    9.500 
#    0.000    1.250    0.000    0.000    0.000    0.000 
#    0.000    0.000    0.000    0.000    0.000    0.000 
#
# Total GULP energy -396878.362745 kJ/mol
# GULP energy per Si atom -12402.448836 kJ/mol
# Density = 2.135976 g / cm^3
# Si number density = 21.408484 Si / 1000 Ang^3
#
#
#
# Elastic Constant Matrix: (Units=GPa)
#
#
# Indices 1 2 3 4 5 6 
#
# 1 91.8370 9.0424 21.3734 0.0000 -5.6924 0.0000
# 2 9.0424 68.8692 4.8645 0.0000 -9.1893 0.0000
# 3 21.3734 4.8645 77.6440 0.0000 -6.0782 0.0000
# 4 0.0000 0.0000 0.0000 31.9530 0.0000 -8.9066
# 5 -5.6924 -9.1893 -6.0782 0.0000 37.8263 0.0000
# 6 0.0000 0.0000 0.0000 -8.9066 0.0000 25.8952
#
#
#
# Elastic Compliance Matrix: (Units=1/GPa)
#
#
# Indices 1 2 3 4 5 6 
#
# 1 0.011788 -0.001198 -0.003093 0.000000 0.000986 0.000000
# 2 -0.001198 0.015162 -0.000350 0.000000 0.003447 0.000000
# 3 -0.003093 -0.000350 0.013884 0.000000 0.001680 0.000000
# 4 0.000000 0.000000 0.000000 0.034615 0.000000 0.011906
# 5 0.000986 0.003447 0.001680 0.000000 0.027692 0.000000
# 6 0.000000 0.000000 0.000000 0.011906 0.000000 0.042712
#
#
# Mechanical properties :
#
#
# Convention : Reuss Voigt Hill
#
# Bulk Modulus (GPa) = 31.69315 34.32344 33.00829
# Shear Modulus (GPa) = 30.18376 32.67288 31.42832
#
# Velocity S-wave (km/s) = 3.75893 3.91085 3.83565
# Velocity P-wave (km/s) = 5.80307 6.03825 5.92183
#
# Compressibility (1/GPa) = 0.03155256
#
# Stress axis : x y z
#
# Youngs Moduli (GPa) = 84.83456 65.95341 72.02470
#
# Poissons Ratio (x) = 0.07899 0.22274
# Poissons Ratio (y) = 0.10161 0.02524
# Poissons Ratio (z) = 0.26236 0.02311
#
# Static dielectric constant tensor:
#      x y z
#    x 3.896690 0.000000 -0.003410 
#    y 0.000000 4.185520 0.000000 
#    z -0.003410 0.000000 3.691560 
# 
# 
# High freq. dielectric constant tensor:
#      x y z
#    x 1.827740 0.000000 -0.003930 
#    y 0.000000 1.861660 0.000000 
#    z -0.003930 0.000000 1.828660 
# 
# From -- ./inp_files/80748.got.cif
#   From: 2010.03.12/outbox.cif.g09.slc.cpg/sg14_41_cif.got.tgz:80748.got - 2010.03.31 13:35:05.
