data_PCOD8125211
_publ_section_title
;
Structure prediction by ZEFSAII (Michael W. Deem and Ramdas Pophale) SiO2 
 PCOD8125211
Probable space group: P 21/C
;
_chemical_formula_sum "Si O2"
_cell_formula_units_Z 24
_cell_length_a 14.380352
_cell_length_b 9.023327
_cell_length_c 14.876360
_cell_angle_alpha 90.000000
_cell_angle_beta 40.161811
_cell_angle_gamma 90.000000
_cell_volume 1244.967172
_symmetry_space_group_name_H-M "P 21/C"
_symmetry_group_IT_number 14
_symmetry_cell_setting 'monoclinic'
loop_
_space_group_symop_operation_xyz
x,y,z
-x,1/2+y,1/2-z
-x,-y,-z
x,1/2-y,1/2+z
loop_
_atom_site_type_symbol
_atom_site_label
_atom_site_fract_x
_atom_site_fract_y
_atom_site_fract_z
Si Si1 0.815199 0.645897 0.151303
Si Si2 0.367192 0.191293 0.856136
Si Si3 0.138078 0.830348 0.163378
Si Si4 0.850990 0.828918 0.826393
Si Si5 0.137321 0.694606 0.866927
Si Si6 0.336740 0.845741 0.856197
O O1 0.686546 0.715537 0.189301
O O2 0.784458 0.691183 0.276649
O O3 0.812372 0.468894 0.140599
O O4 0.966385 0.712892 0.006102
O O5 0.524738 0.246762 0.766757
O O6 0.374486 0.018733 0.826717
O O7 0.264815 0.226268 0.016071
O O8 0.173694 0.769658 0.236287
O O9 0.997055 0.761343 0.224441
O O10 0.103992 0.003041 0.191466
O O11 0.274583 0.797165 0.999129
O O12 0.218677 0.816000 0.866407
#
# Coordination Sequence:
#
# PCOD8125211 Si02
#       6
#     4   4   4   4   4   4
#     4  10  20  37  62  88 116 152 193 238 290 346
#     4  11  24  40  59  86 121 156 193 240 291 343
#     4  10  21  37  60  88 116 151 193 239 288 343
#     4  10  21  37  60  88 116 151 193 239 288 343
#     4  10  20  37  62  88 116 152 193 238 290 346
#     4  11  24  40  59  86 121 156 193 240 291 343
#
# _framework density 19.277616999999999
#
# number of rings (size 3 to 8) (size 9 to 14) (size 15 to 20)
#    0.000    1.667    3.333    1.000    0.000    4.667 
#    0.000    6.667    0.000    0.000    0.000    0.000 
#    0.000    0.000    0.000    0.000    0.000    0.000 
#
# Total GULP energy -297727.189750 kJ/mol
# GULP energy per Si atom -12405.299573 kJ/mol
# Density = 1.923374 g / cm^3
# Si number density = 19.277617 Si / 1000 Ang^3
#
#
#
# Elastic Constant Matrix: (Units=GPa)
#
#
# Indices 1 2 3 4 5 6 
#
# 1 67.5507 35.4524 -3.6262 0.0000 0.3522 0.0000
# 2 35.4524 161.3303 -81.3269 0.0000 -34.1950 0.0000
# 3 -3.6262 -81.3269 161.0614 0.0000 39.8840 0.0000
# 4 0.0000 0.0000 0.0000 27.8918 0.0000 -3.3194
# 5 0.3522 -34.1950 39.8840 0.0000 43.5269 0.0000
# 6 0.0000 0.0000 0.0000 -3.3194 0.0000 37.1958
#
#
#
# Elastic Compliance Matrix: (Units=1/GPa)
#
#
# Indices 1 2 3 4 5 6 
#
# 1 0.017473 -0.005215 -0.001540 0.000000 -0.002828 0.000000
# 2 -0.005215 0.010298 0.003969 0.000000 0.004495 0.000000
# 3 -0.001540 0.003969 0.009576 0.000000 -0.005644 0.000000
# 4 0.000000 0.000000 0.000000 0.036238 0.000000 0.003234
# 5 -0.002828 0.004495 -0.005644 0.000000 0.031700 0.000000
# 6 0.000000 0.000000 0.000000 0.003234 0.000000 0.027173
#
#
# Mechanical properties :
#
#
# Convention : Reuss Voigt Hill
#
# Bulk Modulus (GPa) = 31.47010 32.32678 31.89844
# Shear Modulus (GPa) = 33.64248 51.01911 42.33079
#
# Velocity S-wave (km/s) = 4.18204 5.15004 4.69108
# Velocity P-wave (km/s) = 6.29916 7.22284 6.77675
#
# Compressibility (1/GPa) = 0.03177619
#
# Stress axis : x y z
#
# Youngs Moduli (GPa) = 57.23169 97.10297 104.42700
#
# Poissons Ratio (x) = 0.50641 0.16080
# Poissons Ratio (y) = 0.29847 -0.41452
# Poissons Ratio (z) = 0.08813 -0.38545
#
# Static dielectric constant tensor:
#      x y z
#    x 3.459580 0.000000 0.228380 
#    y 0.000000 3.446490 0.000000 
#    z 0.228380 0.000000 3.733370 
# 
# 
# High freq. dielectric constant tensor:
#      x y z
#    x 1.751700 0.000000 0.010830 
#    y 0.000000 1.746560 0.000000 
#    z 0.010830 0.000000 1.757470 
# 
# From -- ./inp_files/46342.got.cif
#   From: 2010.03.12/outbox.cif.g09.slc.cpg/sg14_24_cif.got.tgz:46342.got - 2010.03.31 13:35:05.
