data_PCOD8125958
_publ_section_title
;
Structure prediction by ZEFSAII (Michael W. Deem and Ramdas Pophale) SiO2 
 PCOD8125958
Probable space group: P 21/C
;
_chemical_formula_sum "Si O2"
_cell_formula_units_Z 32
_cell_length_a 13.487846
_cell_length_b 18.267120
_cell_length_c 8.672959
_cell_angle_alpha 90.000000
_cell_angle_beta 50.687773
_cell_angle_gamma 90.000000
_cell_volume 1653.314188
_symmetry_space_group_name_H-M "P 21/C"
_symmetry_group_IT_number 14
_symmetry_cell_setting 'monoclinic'
loop_
_space_group_symop_operation_xyz
x,y,z
-x,1/2+y,1/2-z
-x,-y,-z
x,1/2-y,1/2+z
loop_
_atom_site_type_symbol
_atom_site_label
_atom_site_fract_x
_atom_site_fract_y
_atom_site_fract_z
Si Si1 0.738269 0.182634 0.967271
Si Si2 0.988333 0.189010 0.882931
Si Si3 0.737295 0.846827 0.027159
Si Si4 0.730154 0.694818 0.882940
Si Si5 0.494700 0.598419 0.155925
Si Si6 0.271115 0.657821 0.883289
Si Si7 0.982650 0.156015 0.243946
Si Si8 0.507402 0.067185 0.697792
O O1 0.737839 0.177472 0.785489
O O2 0.875168 0.151524 0.895094
O O3 0.629090 0.132126 0.144567
O O4 0.713680 0.266846 0.036625
O O5 0.131997 0.161961 0.695966
O O6 0.985441 0.274678 0.853668
O O7 0.959194 0.177505 0.090770
O O8 0.722507 0.809988 0.207552
O O9 0.634533 0.910779 0.104329
O O10 0.714015 0.780934 0.931314
O O11 0.879558 0.883741 0.870655
O O12 0.617958 0.648238 0.072865
O O13 0.522175 0.519353 0.201534
O O14 0.468486 0.592860 0.000133
O O15 0.391685 0.605937 0.790604
O O16 0.143720 0.613374 0.069911
#
# Coordination Sequence:
#
# PCOD8125958 Si02
#       8
#     4   4   4   4   4   4   4   4
#     4  11  21  34  54  79 105 134 171 211 255 306
#     4   9  16  29  50  76 103 128 162 208 256 303
#     4   9  18  32  53  79 102 130 168 210 256 305
#     4   9  18  32  53  79 102 130 168 210 256 305
#     4  10  21  37  54  74 104 140 176 214 257 305
#     4  11  21  34  54  79 105 134 171 211 255 306
#     4   9  16  29  50  76 103 128 162 208 256 303
#     4  10  21  37  54  74 104 140 176 214 257 305
#
# _framework density 19.355063000000001
#
# number of rings (size 3 to 8) (size 9 to 14) (size 15 to 20)
#    0.000    2.250    0.000    5.250    0.000    4.500 
#    0.000    1.250    0.000    7.500    0.000    0.000 
#    0.000    0.000    0.000    0.000    0.000    0.000 
#
# Total GULP energy -396605.556352 kJ/mol
# GULP energy per Si atom -12393.923636 kJ/mol
# Density = 1.931101 g / cm^3
# Si number density = 19.355063 Si / 1000 Ang^3
#
#
#
# Elastic Constant Matrix: (Units=GPa)
#
#
# Indices 1 2 3 4 5 6 
#
# 1 86.8133 13.5028 34.0154 0.0000 -29.8931 0.0000
# 2 13.5028 37.8561 12.1031 0.0000 -4.5857 0.0000
# 3 34.0154 12.1031 90.9253 0.0000 -22.4451 0.0000
# 4 0.0000 0.0000 0.0000 15.0756 0.0000 5.4257
# 5 -29.8931 -4.5857 -22.4451 0.0000 16.5817 0.0000
# 6 0.0000 0.0000 0.0000 5.4257 0.0000 7.1544
#
#
#
# Elastic Compliance Matrix: (Units=1/GPa)
#
#
# Indices 1 2 3 4 5 6 
#
# 1 0.031968 -0.005205 0.003912 0.000000 0.061487 0.000000
# 2 -0.005205 0.028615 -0.003341 0.000000 -0.005992 0.000000
# 3 0.003912 -0.003341 0.017259 0.000000 0.029490 0.000000
# 4 0.000000 0.000000 0.000000 0.091233 0.000000 -0.069188
# 5 0.061487 -0.005992 0.029490 0.000000 0.209415 0.000000
# 6 0.000000 0.000000 0.000000 -0.069188 0.000000 0.192245
#
#
# Mechanical properties :
#
#
# Convention : Reuss Voigt Hill
#
# Bulk Modulus (GPa) = 14.58295 37.20414 25.89355
# Shear Modulus (GPa) = 8.29379 18.16057 13.22718
#
# Velocity S-wave (km/s) = 2.07229 3.06647 2.61702
# Velocity P-wave (km/s) = 3.64371 5.63926 4.74752
#
# Compressibility (1/GPa) = 0.06857323
#
# Stress axis : x y z
#
# Youngs Moduli (GPa) = 31.28131 34.94712 57.94058
#
# Poissons Ratio (x) = 0.18190 -0.22664
# Poissons Ratio (y) = 0.16282 0.19358
# Poissons Ratio (z) = -0.12236 0.11676
#
# Static dielectric constant tensor:
#      x y z
#    x 4.002770 0.000000 -0.434560 
#    y 0.000000 3.162940 0.000000 
#    z -0.434560 0.000000 3.857680 
# 
# 
# High freq. dielectric constant tensor:
#      x y z
#    x 1.768940 0.000000 -0.015170 
#    y 0.000000 1.700960 0.000000 
#    z -0.015170 0.000000 1.770200 
# 
# From -- ./inp_files/16565.got.cif
#   From: 2010.03.12/outbox.cif.g09.slc.cpg/sg14_9_cif.got.tgz:16565.got - 2010.03.31 13:35:05.
