data_PCOD8125002
_publ_section_title
;
Structure prediction by ZEFSAII (Michael W. Deem and Ramdas Pophale) SiO2 
 PCOD8125002
Probable space group: P 21/C
;
_chemical_formula_sum "Si O2"
_cell_formula_units_Z 28
_cell_length_a 6.236314
_cell_length_b 17.109011
_cell_length_c 14.784338
_cell_angle_alpha 90.000000
_cell_angle_beta 114.932712
_cell_angle_gamma 90.000000
_cell_volume 1430.434388
_symmetry_space_group_name_H-M "P 21/C"
_symmetry_group_IT_number 14
_symmetry_cell_setting 'monoclinic'
loop_
_space_group_symop_operation_xyz
x,y,z
-x,1/2+y,1/2-z
-x,-y,-z
x,1/2-y,1/2+z
loop_
_atom_site_type_symbol
_atom_site_label
_atom_site_fract_x
_atom_site_fract_y
_atom_site_fract_z
Si Si1 0.712045 0.999888 0.211744
Si Si2 0.960748 0.900488 0.111044
Si Si3 0.737617 0.599448 0.388448
Si Si4 0.521910 0.139896 0.754491
Si Si5 0.424970 0.759366 0.886038
Si Si6 0.347064 0.240761 0.886504
Si Si7 0.013653 0.360341 0.745997
O O1 0.457118 0.032352 0.139823
O O2 0.874331 0.071822 0.277824
O O3 0.823478 0.967607 0.139821
O O4 0.681323 0.927856 0.277564
O O5 0.858897 0.816159 0.117922
O O6 0.235235 0.903960 0.181956
O O7 0.930673 0.917143 0.999699
O O8 0.622275 0.683824 0.381573
O O9 0.869248 0.595857 0.317113
O O10 0.534760 0.176772 0.657068
O O11 0.478010 0.207830 0.820870
O O12 0.162931 0.792510 0.820694
O O13 0.458959 0.746977 0.999805
O O14 0.220312 0.323355 0.843625
#
# Coordination Sequence:
#
# PCOD8125002 Si02
#       7
#     4   4   4   4   4   4   4
#     4  10  23  34  55  84 122 152 189 232 291 346
#     4  10  20  36  58  85 117 151 186 236 295 341
#     4  10  20  36  58  85 117 151 186 236 295 341
#     4  11  20  38  57  85 116 152 190 241 287 339
#     4  10  21  36  59  87 113 148 197 238 283 344
#     4  10  21  36  59  87 113 148 197 238 283 344
#     4  11  20  38  57  85 116 152 190 241 287 339
#
# _framework density 19.574472
#
# number of rings (size 3 to 8) (size 9 to 14) (size 15 to 20)
#    0.000    1.714    2.857    2.143    0.000    4.571 
#    0.000    0.714    0.000    3.429    0.000    0.000 
#    0.000    0.000    0.000    0.000    0.000    0.000 
#
# Total GULP energy -347159.352090 kJ/mol
# GULP energy per Si atom -12398.548289 kJ/mol
# Density = 1.952992 g / cm^3
# Si number density = 19.574472 Si / 1000 Ang^3
#
#
#
# Elastic Constant Matrix: (Units=GPa)
#
#
# Indices 1 2 3 4 5 6 
#
# 1 79.4354 38.8782 30.2691 0.0000 1.5214 0.0000
# 2 38.8782 109.3521 41.8657 0.0000 0.3147 0.0000
# 3 30.2691 41.8657 69.4056 0.0000 -0.0854 0.0000
# 4 0.0000 0.0000 0.0000 15.5107 0.0000 1.2561
# 5 1.5214 0.3147 -0.0854 0.0000 15.9521 0.0000
# 6 0.0000 0.0000 0.0000 1.2561 0.0000 36.8218
#
#
#
# Elastic Compliance Matrix: (Units=1/GPa)
#
#
# Indices 1 2 3 4 5 6 
#
# 1 0.016382 -0.004010 -0.004727 0.000000 -0.001509 0.000000
# 2 -0.004010 0.012874 -0.006016 0.000000 0.000096 0.000000
# 3 -0.004727 -0.006016 0.020100 0.000000 0.000677 0.000000
# 4 0.000000 0.000000 0.000000 0.064650 0.000000 -0.002205
# 5 -0.001509 0.000096 0.000677 0.000000 0.062833 0.000000
# 6 0.000000 0.000000 0.000000 -0.002205 0.000000 0.027233
#
#
# Mechanical properties :
#
#
# Convention : Reuss Voigt Hill
#
# Bulk Modulus (GPa) = 50.38447 53.35769 51.87108
# Shear Modulus (GPa) = 20.81640 23.46893 22.14266
#
# Velocity S-wave (km/s) = 3.26459 3.46635 3.36698
# Velocity P-wave (km/s) = 6.32502 6.58322 6.45541
#
# Compressibility (1/GPa) = 0.01984739
#
# Stress axis : x y z
#
# Youngs Moduli (GPa) = 61.04351 77.67840 49.75187
#
# Poissons Ratio (x) = 0.31149 0.23520
# Poissons Ratio (y) = 0.24478 0.29933
# Poissons Ratio (z) = 0.28858 0.46735
#
# Static dielectric constant tensor:
#      x y z
#    x 3.648940 0.000000 0.020420 
#    y 0.000000 3.726660 0.000000 
#    z 0.020420 0.000000 3.326610 
# 
# 
# High freq. dielectric constant tensor:
#      x y z
#    x 1.775430 0.000000 0.003050 
#    y 0.000000 1.770080 0.000000 
#    z 0.003050 0.000000 1.724400 
# 
# From -- ./inp_files/37615.got.cif
#   From: 2010.03.12/outbox.cif.g09.slc.cpg/sg14_19_cif.got.tgz:37615.got - 2010.03.31 13:35:05.
