data_PCOD8125318
_publ_section_title
;
Structure prediction by ZEFSAII (Michael W. Deem and Ramdas Pophale) SiO2 
 PCOD8125318
Probable space group: P 21/C
;
_chemical_formula_sum "Si O2"
_cell_formula_units_Z 20
_cell_length_a 12.880438
_cell_length_b 11.963493
_cell_length_c 13.792880
_cell_angle_alpha 90.000000
_cell_angle_beta 151.200722
_cell_angle_gamma 90.000000
_cell_volume 1023.902656
_symmetry_space_group_name_H-M "P 21/C"
_symmetry_group_IT_number 14
_symmetry_cell_setting 'monoclinic'
loop_
_space_group_symop_operation_xyz
x,y,z
-x,1/2+y,1/2-z
-x,-y,-z
x,1/2-y,1/2+z
loop_
_atom_site_type_symbol
_atom_site_label
_atom_site_fract_x
_atom_site_fract_y
_atom_site_fract_z
Si Si1 0.346312 0.363076 0.127483
Si Si2 0.774988 0.224125 0.918605
Si Si3 0.730996 0.085386 0.059068
Si Si4 0.930021 0.266775 0.337157
Si Si5 0.908519 0.071385 0.644746
O O1 0.514902 0.293108 0.198934
O O2 0.477081 0.420469 0.325138
O O3 0.237122 0.460016 0.975037
O O4 0.175205 0.275167 0.029071
O O5 0.887495 0.190085 0.910578
O O6 0.861830 0.143149 0.075508
O O7 0.836742 0.350884 0.996817
O O8 0.766620 0.164162 0.181857
O O9 0.840450 0.964491 0.165418
O O10 0.880072 0.368933 0.224474
#
# Coordination Sequence:
#
# PCOD8125318 Si02
#       5
#     4   4   4   4   4
#     4   9  21  39  56  87 115 146 197 225 283 345
#     4   9  21  39  57  87 113 149 194 230 281 341
#     4   8  20  38  53  87 112 146 192 227 278 337
#     4  10  20  39  59  83 118 147 189 238 280 332
#     4  10  20  38  61  78 122 150 181 247 276 327
#
# _framework density 19.533106
#
# number of rings (size 3 to 8) (size 9 to 14) (size 15 to 20)
#    1.200    1.600    0.000    0.000    2.800    4.800 
#   10.800    2.000    0.000    0.000    0.000    0.000 
#    0.000    0.000    0.000    0.000    0.000    0.000 
#
# Total GULP energy -247818.581572 kJ/mol
# GULP energy per Si atom -12390.929079 kJ/mol
# Density = 1.948865 g / cm^3
# Si number density = 19.533106 Si / 1000 Ang^3
#
#
#
# Elastic Constant Matrix: (Units=GPa)
#
#
# Indices 1 2 3 4 5 6 
#
# 1 56.8435 15.4463 22.2930 0.0000 3.0684 0.0000
# 2 15.4463 57.3846 37.1523 0.0000 2.8032 0.0000
# 3 22.2930 37.1523 119.6748 0.0000 10.6890 0.0000
# 4 0.0000 0.0000 0.0000 41.4045 0.0000 -0.7762
# 5 3.0684 2.8032 10.6890 0.0000 24.6102 0.0000
# 6 0.0000 0.0000 0.0000 -0.7762 0.0000 12.5121
#
#
#
# Elastic Compliance Matrix: (Units=1/GPa)
#
#
# Indices 1 2 3 4 5 6 
#
# 1 0.019590 -0.003653 -0.002428 0.000000 -0.000972 0.000000
# 2 -0.003653 0.022496 -0.006362 0.000000 0.000656 0.000000
# 3 -0.002428 -0.006362 0.011123 0.000000 -0.003804 0.000000
# 4 0.000000 0.000000 0.000000 0.024180 0.000000 0.001500
# 5 -0.000972 0.000656 -0.003804 0.000000 0.042332 0.000000
# 6 0.000000 0.000000 0.000000 0.001500 0.000000 0.080016
#
#
# Mechanical properties :
#
#
# Convention : Reuss Voigt Hill
#
# Bulk Modulus (GPa) = 35.30814 42.63179 38.96997
# Shear Modulus (GPa) = 21.36158 26.30611 23.83385
#
# Velocity S-wave (km/s) = 3.31056 3.67378 3.49689
# Velocity P-wave (km/s) = 5.72087 6.31414 6.02481
#
# Compressibility (1/GPa) = 0.02832208
#
# Stress axis : x y z
#
# Youngs Moduli (GPa) = 51.04737 44.45136 89.90332
#
# Poissons Ratio (x) = 0.16240 0.21830
# Poissons Ratio (y) = 0.18650 0.57196
# Poissons Ratio (z) = 0.12395 0.28280
#
# Static dielectric constant tensor:
#      x y z
#    x 3.089380 0.000000 -0.114760 
#    y 0.000000 3.450070 0.000000 
#    z -0.114760 0.000000 3.640580 
# 
# 
# High freq. dielectric constant tensor:
#      x y z
#    x 1.724650 0.000000 -0.012900 
#    y 0.000000 1.756680 0.000000 
#    z -0.012900 0.000000 1.770040 
# 
# From -- ./inp_files/44520.got.cif
#   From: 2010.03.12/outbox.cif.g09.slc.cpg/sg14_23_cif.got.tgz:44520.got - 2010.03.31 13:35:05.
