data_PCOD8125716
_publ_section_title
;
Structure prediction by ZEFSAII (Michael W. Deem and Ramdas Pophale) SiO2 
 PCOD8125716
Probable space group: P 21/C
;
_chemical_formula_sum "Si O2"
_cell_formula_units_Z 32
_cell_length_a 8.805542
_cell_length_b 15.248425
_cell_length_c 10.754409
_cell_angle_alpha 90.000000
_cell_angle_beta 91.695863
_cell_angle_gamma 90.000000
_cell_volume 1443.368979
_symmetry_space_group_name_H-M "P 21/C"
_symmetry_group_IT_number 14
_symmetry_cell_setting 'monoclinic'
loop_
_space_group_symop_operation_xyz
x,y,z
-x,1/2+y,1/2-z
-x,-y,-z
x,1/2-y,1/2+z
loop_
_atom_site_type_symbol
_atom_site_label
_atom_site_fract_x
_atom_site_fract_y
_atom_site_fract_z
Si Si1 0.340482 0.315273 0.592089
Si Si2 0.253450 0.504817 0.614444
Si Si3 0.682534 0.358861 0.593437
Si Si4 0.717541 0.695796 0.678888
Si Si5 0.242200 0.834170 0.429698
Si Si6 0.494438 0.930919 0.301738
Si Si7 0.771064 0.452758 0.841451
Si Si8 0.003310 0.086042 0.751547
O O1 0.250226 0.405634 0.566578
O O2 0.513472 0.334510 0.629515
O O3 0.271301 0.265679 0.709101
O O4 0.318515 0.262917 0.459324
O O5 0.320353 0.569868 0.514072
O O6 0.365355 0.509719 0.735632
O O7 0.081407 0.529186 0.645459
O O8 0.764574 0.270199 0.549408
O O9 0.766345 0.401345 0.712063
O O10 0.583416 0.626453 0.701697
O O11 0.880054 0.649239 0.675912
O O12 0.413230 0.864911 0.396698
O O13 0.192215 0.881249 0.554189
O O14 0.121898 0.856172 0.320730
O O15 0.614887 0.995650 0.370991
O O16 0.908830 0.522142 0.841629
#
# Coordination Sequence:
#
# PCOD8125716 Si02
#       8
#     4   4   4   4   4   4   4   4
#     4  12  25  45  75 107 142 184 240 298 353 411
#     4  11  23  45  73  98 140 186 236 281 347 428
#     4  12  25  40  74 107 132 184 239 297 344 415
#     4  11  25  45  71 103 146 182 234 298 349 421
#     4  11  25  42  70 101 145 180 234 296 352 419
#     4  10  20  41  68 101 133 183 234 287 343 411
#     4  11  24  43  68 100 140 185 235 285 359 422
#     4  10  26  48  69 101 140 189 232 285 360 430
#
# _framework density 22.170354
#
# number of rings (size 3 to 8) (size 9 to 14) (size 15 to 20)
#    0.000    1.000    3.750    2.625    5.250    4.000 
#   11.250    0.000    0.000    0.000    0.000    0.000 
#    0.000    0.000    0.000    0.000    0.000    0.000 
#
# Total GULP energy -396904.126295 kJ/mol
# GULP energy per Si atom -12403.253947 kJ/mol
# Density = 2.211989 g / cm^3
# Si number density = 22.170354 Si / 1000 Ang^3
#
#
#
# Elastic Constant Matrix: (Units=GPa)
#
#
# Indices 1 2 3 4 5 6 
#
# 1 88.9455 18.5439 5.7321 0.0000 -5.6788 0.0000
# 2 18.5439 106.7182 29.8753 0.0000 -2.1506 0.0000
# 3 5.7321 29.8753 73.1922 0.0000 5.1257 0.0000
# 4 0.0000 0.0000 0.0000 41.3490 0.0000 -7.2032
# 5 -5.6788 -2.1506 5.1257 0.0000 19.7007 0.0000
# 6 0.0000 0.0000 0.0000 -7.2032 0.0000 22.1017
#
#
#
# Elastic Compliance Matrix: (Units=1/GPa)
#
#
# Indices 1 2 3 4 5 6 
#
# 1 0.011873 -0.001886 -0.000392 0.000000 0.003319 0.000000
# 2 -0.001886 0.010984 -0.004463 0.000000 0.001816 0.000000
# 3 -0.000392 -0.004463 0.015846 0.000000 -0.004723 0.000000
# 4 0.000000 0.000000 0.000000 0.025640 0.000000 0.008356
# 5 0.003319 0.001816 -0.004723 0.000000 0.053143 0.000000
# 6 0.000000 0.000000 0.000000 0.008356 0.000000 0.047969
#
#
# Mechanical properties :
#
#
# Convention : Reuss Voigt Hill
#
# Bulk Modulus (GPa) = 39.65114 41.90650 40.77882
# Shear Modulus (GPa) = 26.68858 30.94390 28.81624
#
# Velocity S-wave (km/s) = 3.47334 3.74000 3.60914
# Velocity P-wave (km/s) = 5.83173 6.13133 5.98341
#
# Compressibility (1/GPa) = 0.02521995
#
# Stress axis : x y z
#
# Youngs Moduli (GPa) = 84.22256 91.03927 63.10818
#
# Poissons Ratio (x) = 0.17174 0.02475
# Poissons Ratio (y) = 0.15888 0.28165
# Poissons Ratio (z) = 0.03304 0.40631
#
# Static dielectric constant tensor:
#      x y z
#    x 4.026320 0.000000 -0.061390 
#    y 0.000000 4.079050 0.000000 
#    z -0.061390 0.000000 3.876250 
# 
# 
# High freq. dielectric constant tensor:
#      x y z
#    x 1.876520 0.000000 0.000700 
#    y 0.000000 1.872300 0.000000 
#    z 0.000700 0.000000 1.868520 
# 
# From -- ./inp_files/25509.got.cif
#   From: 2010.03.12/outbox.cif.g09.slc.cpg/sg14_13_cif.got.tgz:25509.got - 2010.03.31 13:35:05.
