data_PCOD8125231
_publ_section_title
;
Structure prediction by ZEFSAII (Michael W. Deem and Ramdas Pophale) SiO2 
 PCOD8125231
Probable space group: P 21/C
;
_chemical_formula_sum "Si O2"
_cell_formula_units_Z 20
_cell_length_a 23.311922
_cell_length_b 5.128287
_cell_length_c 13.431620
_cell_angle_alpha 90.000000
_cell_angle_beta 147.275269
_cell_angle_gamma 90.000000
_cell_volume 868.075804
_symmetry_space_group_name_H-M "P 21/C"
_symmetry_group_IT_number 14
_symmetry_cell_setting 'monoclinic'
loop_
_space_group_symop_operation_xyz
x,y,z
-x,1/2+y,1/2-z
-x,-y,-z
x,1/2-y,1/2+z
loop_
_atom_site_type_symbol
_atom_site_label
_atom_site_fract_x
_atom_site_fract_y
_atom_site_fract_z
Si Si1 0.204983 0.416061 0.349324
Si Si2 0.484090 0.249443 0.043058
Si Si3 0.306502 0.584332 0.081336
Si Si4 0.748768 0.663375 0.799128
Si Si5 0.065127 0.144016 0.817109
O O1 0.230073 0.707553 0.420439
O O2 0.188912 0.438050 0.207187
O O3 0.093511 0.346678 0.240885
O O4 0.293356 0.197630 0.509004
O O5 0.574331 0.206473 0.259502
O O6 0.500000 0.500000 0.000000
O O7 0.363633 0.272278 0.907338
O O8 0.500000 0.000000 0.000000
O O9 0.275383 0.558887 0.153255
O O10 0.823084 0.883838 0.959102
O O11 0.015271 0.419200 0.773271
#
# Coordination Sequence:
#
# PCOD8125231 Si02
#       5
#     4   4   4   4   4
#     4  11  24  41  66  94 124 165 210 255 314 378
#     4  10  20  37  63  91 127 167 197 241 304 364
#     4  10  22  41  62  96 134 161 201 254 305 374
#     4  10  24  42  66  93 126 167 210 257 312 373
#     4  11  24  43  63  87 124 162 209 270 317 365
#
# _framework density 23.039463999999999
#
# number of rings (size 3 to 8) (size 9 to 14) (size 15 to 20)
#    0.000    1.600    0.000    6.000    0.000   12.800 
#    0.000    0.000    0.000    0.000    0.000    0.000 
#    0.000    0.000    0.000    0.000    0.000    0.000 
#
# Total GULP energy -247792.902868 kJ/mol
# GULP energy per Si atom -12389.645143 kJ/mol
# Density = 2.298702 g / cm^3
# Si number density = 23.039464 Si / 1000 Ang^3
#
#
#
# Elastic Constant Matrix: (Units=GPa)
#
#
# Indices 1 2 3 4 5 6 
#
# 1 143.2143 11.9738 23.6066 0.0000 -9.0348 0.0000
# 2 11.9738 98.6968 7.1503 0.0000 -5.8753 0.0000
# 3 23.6066 7.1503 57.0217 0.0000 15.0581 0.0000
# 4 0.0000 0.0000 0.0000 34.0904 0.0000 0.3529
# 5 -9.0348 -5.8753 15.0581 0.0000 35.9493 0.0000
# 6 0.0000 0.0000 0.0000 0.3529 0.0000 17.5221
#
#
#
# Elastic Compliance Matrix: (Units=1/GPa)
#
#
# Indices 1 2 3 4 5 6 
#
# 1 0.007946 -0.000440 -0.004208 0.000000 0.003688 0.000000
# 2 -0.000440 0.010450 -0.001743 0.000000 0.002328 0.000000
# 3 -0.004208 -0.001743 0.022321 0.000000 -0.010692 0.000000
# 4 0.000000 0.000000 0.000000 0.029340 0.000000 -0.000591
# 5 0.003688 0.002328 -0.010692 0.000000 0.033603 0.000000
# 6 0.000000 0.000000 0.000000 -0.000591 0.000000 0.057083
#
#
# Mechanical properties :
#
#
# Convention : Reuss Voigt Hill
#
# Bulk Modulus (GPa) = 35.79653 42.71047 39.25350
# Shear Modulus (GPa) = 27.34689 34.59250 30.96970
#
# Velocity S-wave (km/s) = 3.44896 3.87905 3.67031
# Velocity P-wave (km/s) = 5.60636 6.21618 5.91913
#
# Compressibility (1/GPa) = 0.02793567
#
# Stress axis : x y z
#
# Youngs Moduli (GPa) = 125.85609 95.69184 44.79991
#
# Poissons Ratio (x) = 0.04206 0.18852
# Poissons Ratio (y) = 0.05532 0.07809
# Poissons Ratio (z) = 0.52962 0.16680
#
# Static dielectric constant tensor:
#      x y z
#    x 4.239350 0.000000 0.421890 
#    y 0.000000 3.943680 0.000000 
#    z 0.421890 0.000000 5.011440 
# 
# 
# High freq. dielectric constant tensor:
#      x y z
#    x 1.903150 0.000000 0.013350 
#    y 0.000000 1.907100 0.000000 
#    z 0.013350 0.000000 1.907150 
# 
# From -- ./inp_files/50922.got.cif
#   From: 2010.03.12/outbox.cif.g09.slc.cpg/sg14_26_cif.got.tgz:50922.got - 2010.03.31 13:35:05.
