data_PCOD8125281
_publ_section_title
;
Structure prediction by ZEFSAII (Michael W. Deem and Ramdas Pophale) SiO2 
 PCOD8125281
Probable space group: P 21/C
;
_chemical_formula_sum "Si O2"
_cell_formula_units_Z 32
_cell_length_a 8.034333
_cell_length_b 27.430288
_cell_length_c 12.632106
_cell_angle_alpha 90.000000
_cell_angle_beta 146.567122
_cell_angle_gamma 90.000000
_cell_volume 1533.824950
_symmetry_space_group_name_H-M "P 21/C"
_symmetry_group_IT_number 14
_symmetry_cell_setting 'monoclinic'
loop_
_space_group_symop_operation_xyz
x,y,z
-x,1/2+y,1/2-z
-x,-y,-z
x,1/2-y,1/2+z
loop_
_atom_site_type_symbol
_atom_site_label
_atom_site_fract_x
_atom_site_fract_y
_atom_site_fract_z
Si Si1 0.158126 0.542768 0.981003
Si Si2 0.464274 0.735062 0.463712
Si Si3 0.012599 0.193924 0.897014
Si Si4 0.921978 0.491989 0.665024
Si Si5 0.059053 0.587550 0.606555
Si Si6 0.061854 0.197429 0.175731
Si Si7 0.696896 0.905299 0.712050
Si Si8 0.559707 0.960474 0.243963
O O1 0.950648 0.505382 0.802587
O O2 0.890334 0.564992 0.910925
O O3 0.332257 0.586079 0.012117
O O4 0.410573 0.511374 0.176810
O O5 0.658193 0.704366 0.480467
O O6 0.702524 0.761398 0.666138
O O7 0.247957 0.771733 0.286404
O O8 0.255788 0.701670 0.429577
O O9 0.919333 0.138290 0.817989
O O10 0.017211 0.201249 0.026134
O O11 0.596647 0.472969 0.452985
O O12 0.017604 0.540866 0.656027
O O13 0.163759 0.449623 0.778160
O O14 0.360990 0.579562 0.698172
O O15 0.777464 0.593187 0.378474
O O16 0.206321 0.145775 0.287141
#
# Coordination Sequence:
#
# PCOD8125281 Si02
#       8
#     4   4   4   4   4   4   4   4
#     4  11  21  34  58  81 117 159 202 239 285 342
#     4  10  22  43  65  92 117 155 204 256 306 371
#     4  10  22  41  66  90 120 157 200 250 313 359
#     4  11  20  37  57  81 122 162 192 236 293 351
#     4  10  20  39  59  82 122 158 192 241 300 354
#     4  10  22  41  66  90 124 155 200 254 309 358
#     4  10  20  38  59  87 119 161 193 241 298 357
#     4  10  21  38  52  84 121 157 197 244 285 346
#
# _framework density 20.862874999999999
#
# number of rings (size 3 to 8) (size 9 to 14) (size 15 to 20)
#    0.000    1.750    2.500    2.250    1.750    0.000 
#    9.000    6.250    0.000    0.000    0.000    0.000 
#    0.000    0.000    0.000    0.000    0.000    0.000 
#
# Total GULP energy -396547.076950 kJ/mol
# GULP energy per Si atom -12392.096155 kJ/mol
# Density = 2.081539 g / cm^3
# Si number density = 20.862875 Si / 1000 Ang^3
#
#
#
# Elastic Constant Matrix: (Units=GPa)
#
#
# Indices 1 2 3 4 5 6 
#
# 1 80.9810 33.4224 42.3263 0.0000 20.6349 0.0000
# 2 33.4224 102.8615 24.1250 0.0000 22.5698 0.0000
# 3 42.3263 24.1250 77.8972 0.0000 24.5039 0.0000
# 4 0.0000 0.0000 0.0000 20.7061 0.0000 6.9789
# 5 20.6349 22.5698 24.5039 0.0000 35.3986 0.0000
# 6 0.0000 0.0000 0.0000 6.9789 0.0000 9.3663
#
#
#
# Elastic Compliance Matrix: (Units=1/GPa)
#
#
# Indices 1 2 3 4 5 6 
#
# 1 0.018874 -0.003536 -0.008192 0.000000 -0.003077 0.000000
# 2 -0.003536 0.012119 -0.000064 0.000000 -0.005622 0.000000
# 3 -0.008192 -0.000064 0.020190 0.000000 -0.009160 0.000000
# 4 0.000000 0.000000 0.000000 0.064491 0.000000 -0.048053
# 5 -0.003077 -0.005622 -0.009160 0.000000 0.039968 0.000000
# 6 0.000000 0.000000 0.000000 -0.048053 0.000000 0.142571
#
#
# Mechanical properties :
#
#
# Convention : Reuss Voigt Hill
#
# Bulk Modulus (GPa) = 36.23325 51.27634 43.75480
# Shear Modulus (GPa) = 15.10584 23.88526 19.49555
#
# Velocity S-wave (km/s) = 2.69374 3.38726 3.06021
# Velocity P-wave (km/s) = 5.20385 6.31896 5.78832
#
# Compressibility (1/GPa) = 0.02759896
#
# Stress axis : x y z
#
# Youngs Moduli (GPa) = 52.98338 82.51357 49.52955
#
# Poissons Ratio (x) = 0.29178 0.40576
# Poissons Ratio (y) = 0.18736 0.00315
# Poissons Ratio (z) = 0.43406 0.00524
#
# Static dielectric constant tensor:
#      x y z
#    x 3.824240 0.000000 0.024780 
#    y 0.000000 3.755130 0.000000 
#    z 0.024780 0.000000 3.914070 
# 
# 
# High freq. dielectric constant tensor:
#      x y z
#    x 1.819180 0.000000 0.006500 
#    y 0.000000 1.800830 0.000000 
#    z 0.006500 0.000000 1.830470 
# 
# From -- ./inp_files/42211.got.cif
#   From: 2010.03.12/outbox.cif.g09.slc.cpg/sg14_22_cif.got.tgz:42211.got - 2010.03.31 13:35:05.
