data_PCOD8125838
_publ_section_title
;
Structure prediction by ZEFSAII (Michael W. Deem and Ramdas Pophale) SiO2 
 PCOD8125838
Probable space group: P 21/C
;
_chemical_formula_sum "Si O2"
_cell_formula_units_Z 32
_cell_length_a 8.515622
_cell_length_b 13.455787
_cell_length_c 16.577015
_cell_angle_alpha 90.000000
_cell_angle_beta 123.422234
_cell_angle_gamma 90.000000
_cell_volume 1585.360294
_symmetry_space_group_name_H-M "P 21/C"
_symmetry_group_IT_number 14
_symmetry_cell_setting 'monoclinic'
loop_
_space_group_symop_operation_xyz
x,y,z
-x,1/2+y,1/2-z
-x,-y,-z
x,1/2-y,1/2+z
loop_
_atom_site_type_symbol
_atom_site_label
_atom_site_fract_x
_atom_site_fract_y
_atom_site_fract_z
Si Si1 0.642091 0.719624 0.481824
Si Si2 0.880737 0.798583 0.421917
Si Si3 0.415470 0.910455 0.815624
Si Si4 0.815444 0.895855 0.246529
Si Si5 0.589893 0.792412 0.638690
Si Si6 0.207992 0.094837 0.176340
Si Si7 0.780373 0.216568 0.370951
Si Si8 0.011423 0.892134 0.142307
O O1 0.684360 0.790193 0.416252
O O2 0.457084 0.654519 0.408104
O O3 0.603867 0.792409 0.546038
O O4 0.816261 0.643809 0.546680
O O5 0.884877 0.890024 0.359290
O O6 0.909402 0.691460 0.386335
O O7 0.034568 0.823111 0.532723
O O8 0.617169 0.931380 0.832037
O O9 0.271674 0.855216 0.716451
O O10 0.307466 0.008845 0.811317
O O11 0.675229 0.805133 0.201064
O O12 0.989006 0.885215 0.233276
O O13 0.703890 0.885811 0.709112
O O14 0.374622 0.786882 0.603589
O O15 0.059214 0.005455 0.133507
O O16 0.817230 0.324464 0.341285
#
# Coordination Sequence:
#
# PCOD8125838 Si02
#       8
#     4   4   4   4   4   4   4   4
#     4   9  20  36  56  82 109 141 180 223 270 317
#     4   9  20  37  54  76 108 141 177 221 270 318
#     4  10  21  36  55  78 107 143 181 220 266 315
#     4  10  21  35  54  80 108 140 177 222 269 318
#     4   9  19  36  56  80 109 138 176 221 269 320
#     4   9  19  36  56  80 107 138 175 221 270 318
#     4  10  21  36  55  78 107 144 181 221 265 318
#     4  10  21  35  56  82 107 138 179 222 269 320
#
# _framework density 20.184685000000002
#
# number of rings (size 3 to 8) (size 9 to 14) (size 15 to 20)
#    0.000    2.500    0.000    1.500    0.000   14.000 
#    0.000    0.000    0.000    3.750    0.000    0.000 
#    0.000    0.000    0.000    0.000    0.000    0.000 
#
# Total GULP energy -396594.778875 kJ/mol
# GULP energy per Si atom -12393.586840 kJ/mol
# Density = 2.013874 g / cm^3
# Si number density = 20.184685 Si / 1000 Ang^3
#
#
#
# Elastic Constant Matrix: (Units=GPa)
#
#
# Indices 1 2 3 4 5 6 
#
# 1 51.0411 10.7891 29.8975 0.0000 -7.5020 0.0000
# 2 10.7891 24.1869 9.0102 0.0000 1.1607 0.0000
# 3 29.8975 9.0102 88.1023 0.0000 -16.6758 0.0000
# 4 0.0000 0.0000 0.0000 21.3527 0.0000 -2.8190
# 5 -7.5020 1.1607 -16.6758 0.0000 34.2999 0.0000
# 6 0.0000 0.0000 0.0000 -2.8190 0.0000 16.0483
#
#
#
# Elastic Compliance Matrix: (Units=1/GPa)
#
#
# Indices 1 2 3 4 5 6 
#
# 1 0.026266 -0.009022 -0.007539 0.000000 0.002385 0.000000
# 2 -0.009022 0.046574 -0.002614 0.000000 -0.004820 0.000000
# 3 -0.007539 -0.002614 0.015288 0.000000 0.005872 0.000000
# 4 0.000000 0.000000 0.000000 0.047944 0.000000 0.008422
# 5 0.002385 -0.004820 0.005872 0.000000 0.032694 0.000000
# 6 0.000000 0.000000 0.000000 0.008422 0.000000 0.063791
#
#
# Mechanical properties :
#
#
# Convention : Reuss Voigt Hill
#
# Bulk Modulus (GPa) = 20.08955 29.19155 24.64055
# Shear Modulus (GPa) = 17.39127 21.91575 19.65351
#
# Velocity S-wave (km/s) = 2.93850 3.29866 3.12378
# Velocity P-wave (km/s) = 4.63546 5.38534 5.02441
#
# Compressibility (1/GPa) = 0.04977713
#
# Stress axis : x y z
#
# Youngs Moduli (GPa) = 38.07231 21.47102 65.41247
#
# Poissons Ratio (x) = 0.19372 0.49316
# Poissons Ratio (y) = 0.34350 0.17097
# Poissons Ratio (z) = 0.28703 0.05612
#
# Static dielectric constant tensor:
#      x y z
#    x 3.698790 0.000000 -0.296570 
#    y 0.000000 3.547960 0.000000 
#    z -0.296570 0.000000 4.099900 
# 
# 
# High freq. dielectric constant tensor:
#      x y z
#    x 1.782250 0.000000 -0.010470 
#    y 0.000000 1.763680 0.000000 
#    z -0.010470 0.000000 1.795320 
# 
# From -- ./inp_files/55609.got.cif
#   From: 2010.03.12/outbox.cif.g09.slc.cpg/sg14_28_cif.got.tgz:55609.got - 2010.03.31 13:35:05.
