data_PCOD8125085
_publ_section_title
;
Structure prediction by ZEFSAII (Michael W. Deem and Ramdas Pophale) SiO2 
 PCOD8125085
Probable space group: P 21/C
;
_chemical_formula_sum "Si O2"
_cell_formula_units_Z 32
_cell_length_a 18.171640
_cell_length_b 12.132416
_cell_length_c 13.162828
_cell_angle_alpha 90.000000
_cell_angle_beta 148.373693
_cell_angle_gamma 90.000000
_cell_volume 1521.718038
_symmetry_space_group_name_H-M "P 21/C"
_symmetry_group_IT_number 14
_symmetry_cell_setting 'monoclinic'
loop_
_space_group_symop_operation_xyz
x,y,z
-x,1/2+y,1/2-z
-x,-y,-z
x,1/2-y,1/2+z
loop_
_atom_site_type_symbol
_atom_site_label
_atom_site_fract_x
_atom_site_fract_y
_atom_site_fract_z
Si Si1 0.162339 0.967340 0.272026
Si Si2 0.522847 0.218349 0.079597
Si Si3 0.696328 0.800330 0.325401
Si Si4 0.230333 0.620718 0.645410
Si Si5 0.254778 0.953320 0.611559
Si Si6 0.752621 0.714424 0.128947
Si Si7 0.019306 0.805819 0.376596
Si Si8 0.122936 0.103929 0.989790
O O1 0.229646 0.885737 0.267814
O O2 0.222023 0.940799 0.453371
O O3 0.993273 0.946390 0.069523
O O4 0.208264 0.090332 0.289941
O O5 0.626176 0.320663 0.219964
O O6 0.594812 0.103081 0.193493
O O7 0.467837 0.213060 0.898067
O O8 0.381855 0.231456 0.978799
O O9 0.717634 0.782829 0.468359
O O10 0.785485 0.709204 0.363015
O O11 0.747130 0.921602 0.353564
O O12 0.094868 0.688108 0.445771
O O13 0.226287 0.499675 0.588466
O O14 0.140728 0.892337 0.550681
O O15 0.893325 0.789781 0.309524
O O16 0.956528 0.852680 0.200425
#
# Coordination Sequence:
#
# PCOD8125085 Si02
#       8
#     4   4   4   4   4   4   4   4
#     4  10  20  36  66  90 122 150 207 262 310 348
#     4  11  24  39  62  88 129 163 204 246 308 373
#     4  10  22  39  63  87 126 164 204 245 312 366
#     4  11  22  37  64  95 119 155 209 255 307 362
#     4   9  21  42  62  85 124 169 197 251 302 366
#     4  10  21  39  61  91 121 158 203 255 310 356
#     4   9  20  38  61  86 121 154 201 251 301 360
#     4  10  20  36  63  91 120 154 200 263 299 355
#
# _framework density 21.028863999999999
#
# number of rings (size 3 to 8) (size 9 to 14) (size 15 to 20)
#    0.000    2.000    1.250    1.500    5.250    2.000 
#    6.750    0.625    2.750    0.000    0.000    0.000 
#    0.000    0.000    0.000    0.000    0.000    0.000 
#
# Total GULP energy -396581.300248 kJ/mol
# GULP energy per Si atom -12393.165633 kJ/mol
# Density = 2.098100 g / cm^3
# Si number density = 21.028864 Si / 1000 Ang^3
#
#
#
# Elastic Constant Matrix: (Units=GPa)
#
#
# Indices 1 2 3 4 5 6 
#
# 1 54.6779 39.9816 28.3390 0.0000 23.6610 0.0000
# 2 39.9816 160.1403 66.1985 0.0000 13.6852 0.0000
# 3 28.3390 66.1985 119.2697 0.0000 21.3909 0.0000
# 4 0.0000 0.0000 0.0000 -4.4542 0.0000 -13.8481
# 5 23.6610 13.6852 21.3909 0.0000 33.7042 0.0000
# 6 0.0000 0.0000 0.0000 -13.8481 0.0000 27.5985
#
#
#
# Elastic Compliance Matrix: (Units=1/GPa)
#
#
# Indices 1 2 3 4 5 6 
#
# 1 0.031201 -0.005852 -0.000748 0.000000 -0.019052 0.000000
# 2 -0.005852 0.009209 -0.004273 0.000000 0.003081 0.000000
# 3 -0.000748 -0.004273 0.011881 0.000000 -0.005280 0.000000
# 4 0.000000 0.000000 0.000000 -0.087698 0.000000 -0.044004
# 5 -0.019052 0.003081 -0.005280 0.000000 0.045145 0.000000
# 6 0.000000 0.000000 0.000000 -0.044004 0.000000 0.014154
#
#
# Mechanical properties :
#
#
# Convention : Reuss Voigt Hill
#
# Bulk Modulus (GPa) = 32.74089 67.01401 49.87745
# Shear Modulus (GPa) = 89.57449 24.67429 57.12439
#
# Velocity S-wave (km/s) = 6.53364 3.42914 5.21764
# Velocity P-wave (km/s) = 8.51594 6.90040 7.75038
#
# Compressibility (1/GPa) = 0.03054285
#
# Stress axis : x y z
#
# Youngs Moduli (GPa) = 32.05066 108.59179 84.16849
#
# Poissons Ratio (x) = 0.63551 0.06297
# Poissons Ratio (y) = 0.18757 0.35968
# Poissons Ratio (z) = 0.02398 0.46405
#
# Static dielectric constant tensor:
#      x y z
#    x 3.656110 0.000000 -0.024640 
#    y 0.000000 4.096830 0.000000 
#    z -0.024640 0.000000 4.297410 
# 
# 
# High freq. dielectric constant tensor:
#      x y z
#    x 1.798580 0.000000 -0.009880 
#    y 0.000000 1.831600 0.000000 
#    z -0.009880 0.000000 1.848070 
# 
# From -- ./inp_files/49050.got.cif
#   From: 2010.03.12/outbox.cif.g09.slc.cpg/sg14_25_cif.got.tgz:49050.got - 2010.03.31 13:35:05.
