data_PCOD8125142
_publ_section_title
;
Structure prediction by ZEFSAII (Michael W. Deem and Ramdas Pophale) SiO2 
 PCOD8125142
Probable space group: P 21/C
;
_chemical_formula_sum "Si O2"
_cell_formula_units_Z 20
_cell_length_a 16.703720
_cell_length_b 5.046602
_cell_length_c 13.669815
_cell_angle_alpha 90.000000
_cell_angle_beta 53.766011
_cell_angle_gamma 90.000000
_cell_volume 929.476458
_symmetry_space_group_name_H-M "P 21/C"
_symmetry_group_IT_number 14
_symmetry_cell_setting 'monoclinic'
loop_
_space_group_symop_operation_xyz
x,y,z
-x,1/2+y,1/2-z
-x,-y,-z
x,1/2-y,1/2+z
loop_
_atom_site_type_symbol
_atom_site_label
_atom_site_fract_x
_atom_site_fract_y
_atom_site_fract_z
Si Si1 0.885311 0.534510 0.611822
Si Si2 0.618523 0.507127 0.120814
Si Si3 0.476570 0.511176 0.401242
Si Si4 0.991393 0.757012 0.200379
Si Si5 0.826929 0.046806 0.551896
O O1 0.823818 0.261139 0.643664
O O2 0.000000 0.500000 0.500000
O O3 0.890826 0.643633 0.718698
O O4 0.828282 0.749239 0.589020
O O5 0.575349 0.491120 0.262788
O O6 0.599934 0.786489 0.080452
O O7 0.571368 0.294794 0.082445
O O8 0.734319 0.437220 0.046133
O O9 0.500000 0.500000 0.500000
O O10 0.071631 0.605389 0.077317
O O11 0.955774 0.525843 0.299164
#
# Coordination Sequence:
#
# PCOD8125142 Si02
#       5
#     4   4   4   4   4
#     4  10  20  37  59  76 114 164 192 230 293 347
#     4  10  22  40  65  91 122 158 193 255 299 357
#     4  10  21  42  66  89 124 155 194 243 318 367
#     4  11  21  36  55  82 120 156 196 244 293 334
#     4  11  21  39  59  84 117 154 206 236 289 358
#
# _framework density 21.517489999999999
#
# number of rings (size 3 to 8) (size 9 to 14) (size 15 to 20)
#    0.000    1.600    0.000    7.800    0.000    0.000 
#   10.800    0.000    0.000    0.000    0.000    0.000 
#    0.000    0.000    0.000    0.000    0.000    0.000 
#
# Total GULP energy -247840.766497 kJ/mol
# GULP energy per Si atom -12392.038325 kJ/mol
# Density = 2.146852 g / cm^3
# Si number density = 21.517490 Si / 1000 Ang^3
#
#
#
# Elastic Constant Matrix: (Units=GPa)
#
#
# Indices 1 2 3 4 5 6 
#
# 1 88.3989 17.5956 22.9319 0.0000 15.4672 0.0000
# 2 17.5956 122.1154 18.0878 0.0000 9.6285 0.0000
# 3 22.9319 18.0878 72.4297 0.0000 31.8170 0.0000
# 4 0.0000 0.0000 0.0000 27.3379 0.0000 12.8935
# 5 15.4672 9.6285 31.8170 0.0000 26.2836 0.0000
# 6 0.0000 0.0000 0.0000 12.8935 0.0000 35.0328
#
#
#
# Elastic Compliance Matrix: (Units=1/GPa)
#
#
# Indices 1 2 3 4 5 6 
#
# 1 0.012867 -0.001220 -0.001365 0.000000 -0.005472 0.000000
# 2 -0.001220 0.008636 -0.001486 0.000000 -0.000646 0.000000
# 3 -0.001365 -0.001486 0.029937 0.000000 -0.034892 0.000000
# 4 0.000000 0.000000 0.000000 0.044262 0.000000 -0.016290
# 5 -0.005472 -0.000646 -0.034892 0.000000 0.083741 0.000000
# 6 0.000000 0.000000 0.000000 -0.016290 0.000000 0.034540
#
#
# Mechanical properties :
#
#
# Convention : Reuss Voigt Hill
#
# Bulk Modulus (GPa) = 23.09682 44.46384 33.78033
# Shear Modulus (GPa) = 21.13636 32.68612 26.91124
#
# Velocity S-wave (km/s) = 3.13755 3.90173 3.54032
# Velocity P-wave (km/s) = 4.88701 6.40366 5.69604
#
# Compressibility (1/GPa) = 0.04329600
#
# Stress axis : x y z
#
# Youngs Moduli (GPa) = 77.71903 115.79531 33.40325
#
# Poissons Ratio (x) = 0.14131 0.04560
# Poissons Ratio (y) = 0.09484 0.04965
# Poissons Ratio (z) = 0.10610 0.17213
#
# Static dielectric constant tensor:
#      x y z
#    x 4.056730 0.000000 0.516630 
#    y 0.000000 4.798820 0.000000 
#    z 0.516630 0.000000 4.126100 
# 
# 
# High freq. dielectric constant tensor:
#      x y z
#    x 1.832700 0.000000 0.028710 
#    y 0.000000 1.875760 0.000000 
#    z 0.028710 0.000000 1.819010 
# 
# From -- ./inp_files/30975.got.cif
#   From: 2010.03.12/outbox.cif.g09.slc.cpg/sg14_16_cif.got.tgz:30975.got - 2010.03.31 13:35:05.
