data_PCOD8125832
_publ_section_title
;
Structure prediction by ZEFSAII (Michael W. Deem and Ramdas Pophale) SiO2 
 PCOD8125832
Probable space group: P 21/C
;
_chemical_formula_sum "Si O2"
_cell_formula_units_Z 32
_cell_length_a 24.327583
_cell_length_b 9.310445
_cell_length_c 9.114466
_cell_angle_alpha 90.000000
_cell_angle_beta 55.805874
_cell_angle_gamma 90.000000
_cell_volume 1707.570750
_symmetry_space_group_name_H-M "P 21/C"
_symmetry_group_IT_number 14
_symmetry_cell_setting 'monoclinic'
loop_
_space_group_symop_operation_xyz
x,y,z
-x,1/2+y,1/2-z
-x,-y,-z
x,1/2-y,1/2+z
loop_
_atom_site_type_symbol
_atom_site_label
_atom_site_fract_x
_atom_site_fract_y
_atom_site_fract_z
Si Si1 0.326879 0.892070 0.179112
Si Si2 0.673124 0.392192 0.659864
Si Si3 0.939250 0.900601 0.763320
Si Si4 0.939258 0.900873 0.418723
Si Si5 0.445305 0.097095 0.005462
Si Si6 0.823076 0.394556 0.437538
Si Si7 0.176924 0.894318 0.406637
Si Si8 0.445315 0.402860 0.158600
O O1 0.353628 0.749907 0.219439
O O2 0.252252 0.932390 0.342219
O O3 0.373597 0.026829 0.143755
O O4 0.328364 0.852163 0.007380
O O5 0.747743 0.432633 0.599054
O O6 0.626401 0.526952 0.764589
O O7 0.941795 0.873670 0.587186
O O8 0.945409 0.749777 0.831611
O O9 0.870222 0.974961 0.915409
O O10 0.999994 0.999820 0.723869
O O11 0.870231 0.975296 0.473834
O O12 0.445801 0.249969 0.081314
O O13 0.460004 0.111616 0.809994
O O14 0.500000 0.000000 0.000000
O O15 0.828845 0.366915 0.256817
O O16 0.847840 0.250181 0.478421
O O17 0.500000 0.500000 0.000000
#
# Coordination Sequence:
#
# PCOD8125832 Si02
#       8
#     4   4   4   4   4   4   4   4
#     4   9  19  35  55  78 105 137 172 212 257 307
#     4   9  19  35  55  78 105 137 172 212 257 307
#     4  10  21  35  52  76 105 136 172 214 257 304
#     4  10  21  35  52  76 105 136 172 214 257 304
#     4  11  23  38  56  79 107 139 176 218 264 313
#     4   9  18  34  54  77 105 136 172 212 255 305
#     4   9  18  34  54  77 105 136 172 212 255 305
#     4  11  23  38  56  79 107 139 176 218 264 313
#
# _framework density 18.740072999999999
#
# number of rings (size 3 to 8) (size 9 to 14) (size 15 to 20)
#    0.000    2.250    0.000    2.250    0.000    6.500 
#    0.000    0.000    0.000    0.000    0.000    0.000 
#    0.000    0.000    0.000    0.000    0.000    0.000 
#
# Total GULP energy -396862.286063 kJ/mol
# GULP energy per Si atom -12401.946439 kJ/mol
# Density = 1.869742 g / cm^3
# Si number density = 18.740073 Si / 1000 Ang^3
#
#
#
# Elastic Constant Matrix: (Units=GPa)
#
#
# Indices 1 2 3 4 5 6 
#
# 1 105.5395 84.5570 49.7826 0.0000 -9.2445 0.0000
# 2 84.5570 183.5856 76.9081 0.0000 -7.6659 0.0000
# 3 49.7826 76.9081 84.0664 0.0000 -12.7669 0.0000
# 4 0.0000 0.0000 0.0000 38.3987 0.0000 3.6190
# 5 -9.2445 -7.6659 -12.7669 0.0000 19.7157 0.0000
# 6 0.0000 0.0000 0.0000 3.6190 0.0000 34.8938
#
#
#
# Elastic Compliance Matrix: (Units=1/GPa)
#
#
# Indices 1 2 3 4 5 6 
#
# 1 0.016107 -0.005649 -0.003945 0.000000 0.002802 0.000000
# 2 -0.005649 0.010884 -0.007067 0.000000 -0.002993 0.000000
# 3 -0.003945 -0.007067 0.022179 0.000000 0.009765 0.000000
# 4 0.000000 0.000000 0.000000 0.026300 0.000000 -0.002728
# 5 0.002802 -0.002993 0.009765 0.000000 0.057194 0.000000
# 6 0.000000 0.000000 0.000000 -0.002728 0.000000 0.028941
#
#
# Mechanical properties :
#
#
# Convention : Reuss Voigt Hill
#
# Bulk Modulus (GPa) = 63.09321 88.40964 75.75143
# Shear Modulus (GPa) = 24.97362 29.39790 27.18576
#
# Velocity S-wave (km/s) = 3.65448 3.96500 3.81291
# Velocity P-wave (km/s) = 7.17967 8.26080 7.73914
#
# Compressibility (1/GPa) = 0.01584957
#
# Stress axis : x y z
#
# Youngs Moduli (GPa) = 62.08320 91.87382 45.08686
#
# Poissons Ratio (x) = 0.51902 0.17786
# Poissons Ratio (y) = 0.35073 0.31862
# Poissons Ratio (z) = 0.24491 0.64925
#
# Static dielectric constant tensor:
#      x y z
#    x 3.758430 0.000000 -0.201560 
#    y 0.000000 3.346670 0.000000 
#    z -0.201560 0.000000 3.563700 
# 
# 
# High freq. dielectric constant tensor:
#      x y z
#    x 1.738410 0.000000 -0.007990 
#    y 0.000000 1.726770 0.000000 
#    z -0.007990 0.000000 1.730690 
# 
# From -- ./inp_files/19368.got.cif
#   From: 2010.03.12/outbox.cif.g09.slc.cpg/sg14_10_cif.got.tgz:19368.got - 2010.03.31 13:35:05.
