data_PCOD8125107
_publ_section_title
;
Structure prediction by ZEFSAII (Michael W. Deem and Ramdas Pophale) SiO2 
 PCOD8125107
Probable space group: P 21/C
;
_chemical_formula_sum "Si O2"
_cell_formula_units_Z 28
_cell_length_a 13.943711
_cell_length_b 13.731204
_cell_length_c 8.961465
_cell_angle_alpha 90.000000
_cell_angle_beta 46.785786
_cell_angle_gamma 90.000000
_cell_volume 1250.471054
_symmetry_space_group_name_H-M "P 21/C"
_symmetry_group_IT_number 14
_symmetry_cell_setting 'monoclinic'
loop_
_space_group_symop_operation_xyz
x,y,z
-x,1/2+y,1/2-z
-x,-y,-z
x,1/2-y,1/2+z
loop_
_atom_site_type_symbol
_atom_site_label
_atom_site_fract_x
_atom_site_fract_y
_atom_site_fract_z
Si Si1 0.055179 0.705858 0.218488
Si Si2 0.874933 0.752755 0.665764
Si Si3 0.409729 0.050681 0.389937
Si Si4 0.166118 0.971290 0.481509
Si Si5 0.112284 0.928191 0.204822
Si Si6 0.330851 0.049730 0.816329
Si Si7 0.303208 0.277225 0.892813
O O1 0.116255 0.813926 0.153653
O O2 0.954759 0.686564 0.462427
O O3 0.977628 0.678932 0.144553
O O4 0.164642 0.622665 0.095660
O O5 0.761012 0.811942 0.697069
O O6 0.805201 0.688738 0.867288
O O7 0.354676 0.041613 0.615263
O O8 0.432931 0.163718 0.308613
O O9 0.302231 0.020145 0.382343
O O10 0.545974 0.994919 0.225354
O O11 0.176946 0.940696 0.297588
O O12 0.039535 0.040037 0.641863
O O13 0.198638 0.991058 0.996458
O O14 0.323865 0.161983 0.872635
#
# Coordination Sequence:
#
# PCOD8125107 Si02
#       7
#     4   4   4   4   4   4   4
#     4  11  22  39  62 104 142 178 218 290 340 398
#     4  10  20  36  68  94 136 178 222 264 340 394
#     4  11  27  47  69 100 137 182 230 278 339 407
#     4  11  25  42  68 102 138 174 228 283 337 403
#     4  11  25  42  68 102 138 174 228 283 337 403
#     4  11  27  47  69 100 137 182 230 278 339 407
#     4  11  22  43  68  96 132 184 224 278 324 416
#
# _framework density 22.391563000000001
#
# number of rings (size 3 to 8) (size 9 to 14) (size 15 to 20)
#    0.000    1.143    2.857    3.429    8.000    2.286 
#    0.000    2.857    0.000    0.000    0.000    0.000 
#    0.000    0.000    0.000    0.000    0.000    0.000 
#
# Total GULP energy -346891.550710 kJ/mol
# GULP energy per Si atom -12388.983954 kJ/mol
# Density = 2.234060 g / cm^3
# Si number density = 22.391563 Si / 1000 Ang^3
#
#
#
# Elastic Constant Matrix: (Units=GPa)
#
#
# Indices 1 2 3 4 5 6 
#
# 1 115.9482 26.8882 24.6544 0.0000 3.9535 0.0000
# 2 26.8882 116.4195 15.8172 0.0000 -6.6736 0.0000
# 3 24.6544 15.8172 66.3451 0.0000 11.9241 0.0000
# 4 0.0000 0.0000 0.0000 18.6384 0.0000 1.9029
# 5 3.9535 -6.6736 11.9241 0.0000 32.1102 0.0000
# 6 0.0000 0.0000 0.0000 1.9029 0.0000 27.8504
#
#
#
# Elastic Compliance Matrix: (Units=1/GPa)
#
#
# Indices 1 2 3 4 5 6 
#
# 1 0.009727 -0.001851 -0.003096 0.000000 -0.000433 0.000000
# 2 -0.001851 0.009474 -0.002106 0.000000 0.002979 0.000000
# 3 -0.003096 -0.002106 0.017932 0.000000 -0.006716 0.000000
# 4 0.000000 0.000000 0.000000 0.054029 0.000000 -0.003692
# 5 -0.000433 0.002979 -0.006716 0.000000 0.034309 0.000000
# 6 0.000000 0.000000 0.000000 -0.003692 0.000000 0.036158
#
#
# Mechanical properties :
#
#
# Convention : Reuss Voigt Hill
#
# Bulk Modulus (GPa) = 43.42594 48.15916 45.79255
# Shear Modulus (GPa) = 27.26118 31.14333 29.20226
#
# Velocity S-wave (km/s) = 3.49302 3.73346 3.61524
# Velocity P-wave (km/s) = 5.97530 6.33556 6.15807
#
# Compressibility (1/GPa) = 0.02302771
#
# Stress axis : x y z
#
# Youngs Moduli (GPa) = 102.81003 105.55185 55.76553
#
# Poissons Ratio (x) = 0.19535 0.17262
# Poissons Ratio (y) = 0.19027 0.11746
# Poissons Ratio (z) = 0.31825 0.22233
#
# Static dielectric constant tensor:
#      x y z
#    x 4.214410 0.000000 0.217690 
#    y 0.000000 4.200760 0.000000 
#    z 0.217690 0.000000 4.025860 
# 
# 
# High freq. dielectric constant tensor:
#      x y z
#    x 1.880560 0.000000 0.025600 
#    y 0.000000 1.887240 0.000000 
#    z 0.025600 0.000000 1.873470 
# 
# From -- ./inp_files/16187.got.cif
#   From: 2010.03.12/outbox.cif.g09.slc.cpg/sg14_9_cif.got.tgz:16187.got - 2010.03.31 13:35:05.
