data_PCOD8125267
_publ_section_title
;
Structure prediction by ZEFSAII (Michael W. Deem and Ramdas Pophale) SiO2 
 PCOD8125267
Probable space group: P 21/C
;
_chemical_formula_sum "Si O2"
_cell_formula_units_Z 24
_cell_length_a 14.361878
_cell_length_b 8.799231
_cell_length_c 9.861392
_cell_angle_alpha 90.000000
_cell_angle_beta 70.023157
_cell_angle_gamma 90.000000
_cell_volume 1171.234450
_symmetry_space_group_name_H-M "P 21/C"
_symmetry_group_IT_number 14
_symmetry_cell_setting 'monoclinic'
loop_
_space_group_symop_operation_xyz
x,y,z
-x,1/2+y,1/2-z
-x,-y,-z
x,1/2-y,1/2+z
loop_
_atom_site_type_symbol
_atom_site_label
_atom_site_fract_x
_atom_site_fract_y
_atom_site_fract_z
Si Si1 0.080729 0.910526 0.792790
Si Si2 0.732393 0.599507 0.874141
Si Si3 0.626349 0.976724 0.685583
Si Si4 0.096697 0.875092 0.092469
Si Si5 0.424855 0.368113 0.271865
Si Si6 0.712742 0.946818 0.924679
O O1 0.089865 0.780672 0.677173
O O2 0.172749 0.025311 0.741714
O O3 0.075054 0.838508 0.945727
O O4 0.982146 0.005478 0.809258
O O5 0.637293 0.575670 0.826119
O O6 0.756157 0.777450 0.883399
O O7 0.709663 0.516598 0.027580
O O8 0.578043 0.811933 0.715956
O O9 0.679348 0.020390 0.799424
O O10 0.539639 0.094154 0.695340
O O11 0.205220 0.945477 0.052034
O O12 0.382030 0.444124 0.429350
#
# Coordination Sequence:
#
# PCOD8125267 Si02
#       6
#     4   4   4   4   4   4
#     4  11  25  44  66  94 125 159 202 253 305 368
#     4  10  21  40  62  89 124 166 205 254 308 359
#     4  10  22  34  61  88 123 164 207 250 306 362
#     4  11  25  44  66  94 125 159 202 253 305 368
#     4  10  20  38  57  88 123 164 207 256 304 358
#     4  10  21  40  62  89 124 166 205 254 308 359
#
# _framework density 20.491202000000001
#
# number of rings (size 3 to 8) (size 9 to 14) (size 15 to 20)
#    0.000    1.667    1.667    2.000    2.333    3.333 
#    0.000    0.000    0.000    0.000    0.000    0.000 
#    0.000    0.000    0.000    0.000    0.000    0.000 
#
# Total GULP energy -297749.145748 kJ/mol
# GULP energy per Si atom -12406.214406 kJ/mol
# Density = 2.044456 g / cm^3
# Si number density = 20.491202 Si / 1000 Ang^3
#
#
#
# Elastic Constant Matrix: (Units=GPa)
#
#
# Indices 1 2 3 4 5 6 
#
# 1 52.8529 5.4213 -3.7240 0.0000 -4.4597 0.0000
# 2 5.4213 46.1451 9.9824 0.0000 -6.0511 0.0000
# 3 -3.7240 9.9824 69.8666 0.0000 9.2582 0.0000
# 4 0.0000 0.0000 0.0000 32.4015 0.0000 -1.6306
# 5 -4.4597 -6.0511 9.2582 0.0000 32.5375 0.0000
# 6 0.0000 0.0000 0.0000 -1.6306 0.0000 29.8959
#
#
#
# Elastic Compliance Matrix: (Units=1/GPa)
#
#
# Indices 1 2 3 4 5 6 
#
# 1 0.019393 -0.002265 0.001102 0.000000 0.001923 0.000000
# 2 -0.002265 0.023530 -0.004179 0.000000 0.005255 0.000000
# 3 0.001102 -0.004179 0.015642 0.000000 -0.005077 0.000000
# 4 0.000000 0.000000 0.000000 0.030948 0.000000 0.001688
# 5 0.001923 0.005255 -0.005077 0.000000 0.033419 0.000000
# 6 0.000000 0.000000 0.000000 0.001688 0.000000 0.033542
#
#
# Mechanical properties :
#
#
# Convention : Reuss Voigt Hill
#
# Bulk Modulus (GPa) = 20.88475 21.35823 21.12149
# Shear Modulus (GPa) = 27.30518 29.44595 28.37557
#
# Velocity S-wave (km/s) = 3.65435 3.79490 3.72528
# Velocity P-wave (km/s) = 5.29338 5.44494 5.36970
#
# Compressibility (1/GPa) = 0.04788183
#
# Stress axis : x y z
#
# Youngs Moduli (GPa) = 51.56581 42.49910 63.93233
#
# Poissons Ratio (x) = 0.09624 -0.07048
# Poissons Ratio (y) = 0.11678 0.26717
# Poissons Ratio (z) = -0.05684 0.17760
#
# Static dielectric constant tensor:
#      x y z
#    x 3.633670 0.000000 0.084940 
#    y 0.000000 3.525640 0.000000 
#    z 0.084940 0.000000 3.882990 
# 
# 
# High freq. dielectric constant tensor:
#      x y z
#    x 1.803440 0.000000 0.004180 
#    y 0.000000 1.790350 0.000000 
#    z 0.004180 0.000000 1.816440 
# 
# From -- ./inp_files/28028.got.cif
#   From: 2010.03.12/outbox.cif.g09.slc.cpg/sg14_15_cif.got.tgz:28028.got - 2010.03.31 13:35:05.
