data_PCOD8125510
_publ_section_title
;
Structure prediction by ZEFSAII (Michael W. Deem and Ramdas Pophale) SiO2 
 PCOD8125510
Probable space group: P 21/C
;
_chemical_formula_sum "Si O2"
_cell_formula_units_Z 24
_cell_length_a 8.890785
_cell_length_b 15.237627
_cell_length_c 8.960918
_cell_angle_alpha 90.000000
_cell_angle_beta 87.418170
_cell_angle_gamma 90.000000
_cell_volume 1212.743277
_symmetry_space_group_name_H-M "P 21/C"
_symmetry_group_IT_number 14
_symmetry_cell_setting 'monoclinic'
loop_
_space_group_symop_operation_xyz
x,y,z
-x,1/2+y,1/2-z
-x,-y,-z
x,1/2-y,1/2+z
loop_
_atom_site_type_symbol
_atom_site_label
_atom_site_fract_x
_atom_site_fract_y
_atom_site_fract_z
Si Si1 0.340533 0.998492 0.083700
Si Si2 0.300546 0.344652 0.164437
Si Si3 0.915320 0.418315 0.572333
Si Si4 0.194764 0.176664 0.000002
Si Si5 0.407602 0.932889 0.405030
Si Si6 0.139980 0.974192 0.595966
O O1 0.353412 0.976422 0.255142
O O2 0.266351 0.094705 0.084258
O O3 0.248733 0.922637 0.997353
O O4 0.500000 0.000000 0.000000
O O5 0.236999 0.269822 0.063205
O O6 0.259110 0.320501 0.332745
O O7 0.482701 0.350386 0.134834
O O8 0.226133 0.437115 0.131733
O O9 0.909403 0.424144 0.752041
O O10 0.000000 0.500000 0.500000
O O11 0.011917 0.332633 0.519127
O O12 0.254404 0.908894 0.501843
O O13 0.500000 0.000000 0.500000
O O14 0.000000 0.000000 0.500000
#
# Coordination Sequence:
#
# PCOD8125510 Si02
#       6
#     4   4   4   4   4   4
#     4  11  19  40  68  89 121 169 211 261 306 386
#     4  11  24  42  60  95 127 166 210 265 322 383
#     4  10  20  39  64  92 119 170 215 251 314 388
#     4  11  24  40  65  90 129 163 215 262 332 378
#     4  10  22  38  63  95 124 162 219 257 312 382
#     4  11  21  39  68  94 125 162 216 267 310 380
#
# _framework density 19.789846000000001
#
# number of rings (size 3 to 8) (size 9 to 14) (size 15 to 20)
#    0.000    1.333    5.000    3.000    7.000    0.000 
#    0.000    1.667    0.000    0.000    0.000    0.000 
#    0.000    0.000    0.000    0.000    0.000    0.000 
#
# Total GULP energy -297464.015210 kJ/mol
# GULP energy per Si atom -12394.333967 kJ/mol
# Density = 1.974480 g / cm^3
# Si number density = 19.789846 Si / 1000 Ang^3
#
#
#
# Elastic Constant Matrix: (Units=GPa)
#
#
# Indices 1 2 3 4 5 6 
#
# 1 133.2217 20.9826 54.8809 0.0000 -19.9355 0.0000
# 2 20.9826 58.3410 18.7163 0.0000 -12.0264 0.0000
# 3 54.8809 18.7163 161.9702 0.0000 -15.1096 0.0000
# 4 0.0000 0.0000 0.0000 17.9688 0.0000 14.1690
# 5 -19.9355 -12.0264 -15.1096 0.0000 45.3075 0.0000
# 6 0.0000 0.0000 0.0000 14.1690 0.0000 20.8889
#
#
#
# Elastic Compliance Matrix: (Units=1/GPa)
#
#
# Indices 1 2 3 4 5 6 
#
# 1 0.009319 -0.001936 -0.002683 0.000000 0.002692 0.000000
# 2 -0.001936 0.019000 -0.001185 0.000000 0.003796 0.000000
# 3 -0.002683 -0.001185 0.007308 0.000000 0.000942 0.000000
# 4 0.000000 0.000000 0.000000 0.119646 0.000000 -0.081156
# 5 0.002692 0.003796 0.000942 0.000000 0.024578 0.000000
# 6 0.000000 0.000000 0.000000 -0.081156 0.000000 0.102920
#
#
# Mechanical properties :
#
#
# Convention : Reuss Voigt Hill
#
# Bulk Modulus (GPa) = 41.63507 60.29919 50.96713
# Shear Modulus (GPa) = 16.53520 34.09659 25.31589
#
# Velocity S-wave (km/s) = 2.89371 4.15533 3.58052
# Velocity P-wave (km/s) = 5.67882 7.31835 6.55008
#
# Compressibility (1/GPa) = 0.02401821
#
# Stress axis : x y z
#
# Youngs Moduli (GPa) = 107.30492 52.63234 136.83913
#
# Poissons Ratio (x) = 0.10190 0.36712
# Poissons Ratio (y) = 0.20776 0.16220
# Poissons Ratio (z) = 0.28788 0.06239
#
# Static dielectric constant tensor:
#      x y z
#    x 4.809860 0.000000 -0.228370 
#    y 0.000000 3.215740 0.000000 
#    z -0.228370 0.000000 3.927100 
# 
# 
# High freq. dielectric constant tensor:
#      x y z
#    x 1.794370 0.000000 -0.008220 
#    y 0.000000 1.727830 0.000000 
#    z -0.008220 0.000000 1.795080 
# 
# From -- ./inp_files/8528.got.cif
#   From: 2010.03.12/outbox.cif.g09.slc.cpg/sg14_5_cif.got.tgz:8528.got - 2010.03.31 13:35:05.
