data_PCOD8125148
_publ_section_title
;
Structure prediction by ZEFSAII (Michael W. Deem and Ramdas Pophale) SiO2 
 PCOD8125148
Probable space group: P 21/C
;
_chemical_formula_sum "Si O2"
_cell_formula_units_Z 32
_cell_length_a 20.438023
_cell_length_b 9.146903
_cell_length_c 26.945894
_cell_angle_alpha 90.000000
_cell_angle_beta 19.026141
_cell_angle_gamma 90.000000
_cell_volume 1642.186591
_symmetry_space_group_name_H-M "P 21/C"
_symmetry_group_IT_number 14
_symmetry_cell_setting 'monoclinic'
loop_
_space_group_symop_operation_xyz
x,y,z
-x,1/2+y,1/2-z
-x,-y,-z
x,1/2-y,1/2+z
loop_
_atom_site_type_symbol
_atom_site_label
_atom_site_fract_x
_atom_site_fract_y
_atom_site_fract_z
Si Si1 0.593477 0.555413 0.080339
Si Si2 0.171364 0.729255 0.660937
Si Si3 0.661141 0.599241 0.178849
Si Si4 0.390302 0.736699 0.798121
Si Si5 0.901748 0.936959 0.280247
Si Si6 0.966061 0.961554 0.384254
Si Si7 0.395723 0.225783 0.685620
Si Si8 0.942336 0.772344 0.151407
O O1 0.469971 0.689792 0.190762
O O2 0.442181 0.420835 0.182886
O O3 0.691458 0.606484 0.957807
O O4 0.773343 0.504394 0.987758
O O5 0.410536 0.729583 0.485307
O O6 0.087436 0.641403 0.673964
O O7 0.116695 0.652921 0.751847
O O8 0.071975 0.889046 0.733398
O O9 0.577849 0.435465 0.232125
O O10 0.516473 0.712795 0.255047
O O11 0.670430 0.644782 0.229632
O O12 0.884924 0.604560 0.994512
O O13 0.162447 0.785055 0.970238
O O14 0.901756 0.891783 0.223005
O O15 0.088964 0.110543 0.303948
O O16 0.214269 0.193744 0.779198
#
# Coordination Sequence:
#
# PCOD8125148 Si02
#       8
#     4   4   4   4   4   4   4   4
#     4   9  20  38  57  81 109 140 186 236 273 316
#     4  10  21  37  61  85 107 141 186 233 274 320
#     4  10  20  37  59  82 108 140 184 231 275 319
#     4  10  21  37  61  85 107 141 186 233 274 320
#     4  10  20  37  59  82 108 140 184 231 275 319
#     4   9  20  38  57  81 109 140 186 236 273 316
#     4  11  23  37  54  81 118 151 179 219 273 332
#     4  11  23  37  54  81 118 151 179 219 273 332
#
# _framework density 19.486214
#
# number of rings (size 3 to 8) (size 9 to 14) (size 15 to 20)
#    0.000    2.000    0.000    5.250    0.000   13.000 
#    0.000    2.500    0.000    0.000    0.000    0.000 
#    0.000    0.000    0.000    0.000    0.000    0.000 
#
# Total GULP energy -396858.017719 kJ/mol
# GULP energy per Si atom -12401.813054 kJ/mol
# Density = 1.944186 g / cm^3
# Si number density = 19.486214 Si / 1000 Ang^3
#
#
#
# Elastic Constant Matrix: (Units=GPa)
#
#
# Indices 1 2 3 4 5 6 
#
# 1 39.9099 5.2859 9.8876 0.0000 3.2694 0.0000
# 2 5.2859 47.9281 4.3662 0.0000 15.1690 0.0000
# 3 9.8876 4.3662 48.0662 0.0000 13.3023 0.0000
# 4 0.0000 0.0000 0.0000 33.1358 0.0000 11.4004
# 5 3.2694 15.1690 13.3023 0.0000 22.7299 0.0000
# 6 0.0000 0.0000 0.0000 11.4004 0.0000 28.1585
#
#
#
# Elastic Compliance Matrix: (Units=1/GPa)
#
#
# Indices 1 2 3 4 5 6 
#
# 1 0.026715 -0.002863 -0.005609 0.000000 0.001351 0.000000
# 2 -0.002863 0.027117 0.003604 0.000000 -0.019794 0.000000
# 3 -0.005609 0.003604 0.026339 0.000000 -0.017013 0.000000
# 4 0.000000 0.000000 0.000000 0.035063 0.000000 -0.014196
# 5 0.001351 -0.019794 -0.017013 0.000000 0.066966 0.000000
# 6 0.000000 0.000000 0.000000 -0.014196 0.000000 0.041261
#
#
# Mechanical properties :
#
#
# Convention : Reuss Voigt Hill
#
# Bulk Modulus (GPa) = 14.19769 19.44263 16.82016
# Shear Modulus (GPa) = 19.47985 24.56247 22.02116
#
# Velocity S-wave (km/s) = 3.16519 3.55421 3.36533
# Velocity P-wave (km/s) = 4.54530 5.18098 4.87351
#
# Compressibility (1/GPa) = 0.07043401
#
# Stress axis : x y z
#
# Youngs Moduli (GPa) = 37.43264 36.87772 37.96589
#
# Poissons Ratio (x) = 0.10557 0.21296
# Poissons Ratio (y) = 0.10716 -0.13681
# Poissons Ratio (z) = 0.20997 -0.13289
#
# Static dielectric constant tensor:
#      x y z
#    x 3.405120 0.000000 0.304410 
#    y 0.000000 3.574150 0.000000 
#    z 0.304410 0.000000 3.694670 
# 
# 
# High freq. dielectric constant tensor:
#      x y z
#    x 1.741670 0.000000 0.021740 
#    y 0.000000 1.764010 0.000000 
#    z 0.021740 0.000000 1.764190 
# 
# From -- ./inp_files/77963.got.cif
#   From: 2010.03.12/outbox.cif.g09.slc.cpg/sg14_39_cif.got.tgz:77963.got - 2010.03.31 13:35:05.
