data_PCOD8125766
_publ_section_title
;
Structure prediction by ZEFSAII (Michael W. Deem and Ramdas Pophale) SiO2 
 PCOD8125766
Probable space group: P 21/C
;
_chemical_formula_sum "Si O2"
_cell_formula_units_Z 20
_cell_length_a 8.709110
_cell_length_b 7.692294
_cell_length_c 18.269450
_cell_angle_alpha 90.000000
_cell_angle_beta 133.175627
_cell_angle_gamma 90.000000
_cell_volume 892.559906
_symmetry_space_group_name_H-M "P 21/C"
_symmetry_group_IT_number 14
_symmetry_cell_setting 'monoclinic'
loop_
_space_group_symop_operation_xyz
x,y,z
-x,1/2+y,1/2-z
-x,-y,-z
x,1/2-y,1/2+z
loop_
_atom_site_type_symbol
_atom_site_label
_atom_site_fract_x
_atom_site_fract_y
_atom_site_fract_z
Si Si1 0.896862 0.214192 0.061152
Si Si2 0.340041 0.275486 0.140187
Si Si3 0.727774 0.577097 0.595252
Si Si4 0.297245 0.057156 0.478851
Si Si5 0.498746 0.588223 0.656628
O O1 0.876662 0.406780 0.089905
O O2 0.109363 0.204265 0.084555
O O3 0.899175 0.067039 0.126151
O O4 0.700532 0.187267 0.942597
O O5 0.464856 0.342546 0.250787
O O6 0.463375 0.117081 0.144497
O O7 0.339812 0.428905 0.080015
O O8 0.500000 0.500000 0.500000
O O9 0.788819 0.757034 0.575845
O O10 0.711366 0.615463 0.676948
O O11 0.500000 0.000000 0.500000
#
# Coordination Sequence:
#
# PCOD8125766 Si02
#       5
#     4   4   4   4   4
#     4  11  23  45  69  99 130 174 225 272 329 394
#     4  12  25  42  68 103 130 176 225 275 327 393
#     4  10  20  42  67  92 129 178 213 268 341 387
#     4  12  21  40  72  93 132 179 216 265 339 396
#     4  11  23  43  65  95 138 171 219 277 331 393
#
# _framework density 22.407457999999998
#
# number of rings (size 3 to 8) (size 9 to 14) (size 15 to 20)
#    0.000    0.800    8.000    2.400    0.000    0.000 
#    3.600    0.000    0.000    0.000    0.000    0.000 
#    0.000    0.000    0.000    0.000    0.000    0.000 
#
# Total GULP energy -247984.123786 kJ/mol
# GULP energy per Si atom -12399.206189 kJ/mol
# Density = 2.235646 g / cm^3
# Si number density = 22.407458 Si / 1000 Ang^3
#
#
#
# Elastic Constant Matrix: (Units=GPa)
#
#
# Indices 1 2 3 4 5 6 
#
# 1 108.1352 16.6185 30.1798 0.0000 -17.2700 0.0000
# 2 16.6185 147.1363 12.2233 0.0000 -5.5267 0.0000
# 3 30.1798 12.2233 30.6028 0.0000 -1.5346 0.0000
# 4 0.0000 0.0000 0.0000 20.0587 0.0000 -14.0134
# 5 -17.2700 -5.5267 -1.5346 0.0000 21.2150 0.0000
# 6 0.0000 0.0000 0.0000 -14.0134 0.0000 47.8363
#
#
#
# Elastic Compliance Matrix: (Units=1/GPa)
#
#
# Indices 1 2 3 4 5 6 
#
# 1 0.015010 -0.000096 -0.014204 0.000000 0.011167 0.000000
# 2 -0.000096 0.007087 -0.002657 0.000000 0.001576 0.000000
# 3 -0.014204 -0.002657 0.047303 0.000000 -0.008834 0.000000
# 4 0.000000 0.000000 0.000000 0.062682 0.000000 0.018362
# 5 0.011167 0.001576 -0.008834 0.000000 0.055998 0.000000
# 6 0.000000 0.000000 0.000000 0.018362 0.000000 0.026284
#
#
# Mechanical properties :
#
#
# Convention : Reuss Voigt Hill
#
# Bulk Modulus (GPa) = 28.18046 44.87972 36.53009
# Shear Modulus (GPa) = 19.22279 32.94551 26.08415
#
# Velocity S-wave (km/s) = 2.93213 3.83860 3.41557
# Velocity P-wave (km/s) = 4.90580 6.30229 5.64738
#
# Compressibility (1/GPa) = 0.03548558
#
# Stress axis : x y z
#
# Youngs Moduli (GPa) = 66.62158 141.09959 21.14021
#
# Poissons Ratio (x) = 0.01353 0.30028
# Poissons Ratio (y) = 0.00639 0.05617
# Poissons Ratio (z) = 0.94632 0.37493
#
# Static dielectric constant tensor:
#      x y z
#    x 4.354720 0.000000 -0.481150 
#    y 0.000000 4.427560 0.000000 
#    z -0.481150 0.000000 3.814660 
# 
# 
# High freq. dielectric constant tensor:
#      x y z
#    x 1.895430 0.000000 -0.030590 
#    y 0.000000 1.904730 0.000000 
#    z -0.030590 0.000000 1.844540 
# 
# From -- ./inp_files/54349.got.cif
#   From: 2010.03.12/outbox.cif.g09.slc.cpg/sg14_28_cif.got.tgz:54349.got - 2010.03.31 13:35:05.
