data_PCOD8125172
_publ_section_title
;
Structure prediction by ZEFSAII (Michael W. Deem and Ramdas Pophale) SiO2 
 PCOD8125172
Probable space group: P 21/C
;
_chemical_formula_sum "Si O2"
_cell_formula_units_Z 32
_cell_length_a 6.877238
_cell_length_b 15.103491
_cell_length_c 21.446781
_cell_angle_alpha 90.000000
_cell_angle_beta 50.035984
_cell_angle_gamma 90.000000
_cell_volume 1707.403632
_symmetry_space_group_name_H-M "P 21/C"
_symmetry_group_IT_number 14
_symmetry_cell_setting 'monoclinic'
loop_
_space_group_symop_operation_xyz
x,y,z
-x,1/2+y,1/2-z
-x,-y,-z
x,1/2-y,1/2+z
loop_
_atom_site_type_symbol
_atom_site_label
_atom_site_fract_x
_atom_site_fract_y
_atom_site_fract_z
Si Si1 0.435155 0.734943 0.925614
Si Si2 0.835526 0.519080 0.593691
Si Si3 0.698387 0.797762 0.650200
Si Si4 0.989464 0.603158 0.989044
Si Si5 0.690282 0.163865 0.170938
Si Si6 0.867879 0.177744 0.906349
Si Si7 0.026337 0.324120 0.142188
Si Si8 0.369489 0.865653 0.176374
O O1 0.435195 0.798883 0.866031
O O2 0.710509 0.693303 0.877437
O O3 0.358176 0.796517 0.999892
O O4 0.249893 0.651791 0.953408
O O5 0.826635 0.429459 0.634779
O O6 0.547852 0.547761 0.635392
O O7 0.000000 0.500000 0.500000
O O8 0.975144 0.592982 0.604676
O O9 0.763996 0.858813 0.577894
O O10 0.530169 0.852269 0.733366
O O11 0.546548 0.716132 0.654463
O O12 0.946777 0.762510 0.635330
O O13 0.000000 0.500000 0.000000
O O14 0.925610 0.618201 0.929581
O O15 0.905295 0.229993 0.150673
O O16 0.761132 0.153567 0.861781
O O17 0.842097 0.378915 0.226384
#
# Coordination Sequence:
#
# PCOD8125172 Si02
#       8
#     4   4   4   4   4   4   4   4
#     4  10  20  37  63  83 113 154 192 235 284 348
#     4  11  23  37  58  90 120 150 190 236 292 345
#     4   9  20  39  59  81 111 153 195 230 287 341
#     4  10  22  38  61  84 115 151 190 241 287 334
#     4  10  21  38  59  84 116 153 189 237 286 346
#     4  10  20  37  60  84 116 152 190 236 285 341
#     4  10  22  39  60  86 113 153 198 233 287 342
#     4  10  22  38  59  84 116 151 191 239 280 341
#
# _framework density 18.741906
#
# number of rings (size 3 to 8) (size 9 to 14) (size 15 to 20)
#    0.000    2.000    1.250    1.500    5.250    3.000 
#    0.000    0.000    0.000    0.000    0.000    0.000 
#    0.000    0.000    0.000    0.000    0.000    0.000 
#
# Total GULP energy -396846.751388 kJ/mol
# GULP energy per Si atom -12401.460981 kJ/mol
# Density = 1.869925 g / cm^3
# Si number density = 18.741906 Si / 1000 Ang^3
#
#
#
# Elastic Constant Matrix: (Units=GPa)
#
#
# Indices 1 2 3 4 5 6 
#
# 1 83.7243 12.1890 38.3159 0.0000 0.8420 0.0000
# 2 12.1890 65.4521 46.1775 0.0000 -6.0958 0.0000
# 3 38.3159 46.1775 154.1764 0.0000 -0.6292 0.0000
# 4 0.0000 0.0000 0.0000 30.3641 0.0000 -4.5149
# 5 0.8420 -6.0958 -0.6292 0.0000 31.0529 0.0000
# 6 0.0000 0.0000 0.0000 -4.5149 0.0000 0.3207
#
#
#
# Elastic Compliance Matrix: (Units=1/GPa)
#
#
# Indices 1 2 3 4 5 6 
#
# 1 0.013485 -0.000241 -0.003281 0.000000 -0.000479 0.000000
# 2 -0.000241 0.019807 -0.005857 0.000000 0.003776 0.000000
# 3 -0.003281 -0.005857 0.009052 0.000000 -0.000877 0.000000
# 4 0.000000 0.000000 0.000000 -0.030114 0.000000 -0.424011
# 5 -0.000479 0.003776 -0.000877 0.000000 0.032940 0.000000
# 6 0.000000 0.000000 0.000000 -0.424011 0.000000 -2.851601
#
#
# Mechanical properties :
#
#
# Convention : Reuss Voigt Hill
#
# Bulk Modulus (GPa) = 42.39785 55.19084 48.79434
# Shear Modulus (GPa) = -1.79868 26.12556 12.16344
#
# Velocity S-wave (km/s) = -0.98071 3.73763 2.55031
# Velocity P-wave (km/s) = 4.62479 6.93818 5.89606
#
# Compressibility (1/GPa) = 0.02358610
#
# Stress axis : x y z
#
# Youngs Moduli (GPa) = 74.15378 50.48657 110.47034
#
# Poissons Ratio (x) = 0.01217 0.36247
# Poissons Ratio (y) = 0.01788 0.64704
# Poissons Ratio (z) = 0.24331 0.29571
#
# Static dielectric constant tensor:
#      x y z
#    x 3.197550 0.000000 -0.301240 
#    y 0.000000 3.304470 0.000000 
#    z -0.301240 0.000000 3.279310 
# 
# 
# High freq. dielectric constant tensor:
#      x y z
#    x 1.725740 0.000000 -0.001550 
#    y 0.000000 1.720110 0.000000 
#    z -0.001550 0.000000 1.747560 
# 
# From -- ./inp_files/63753.got.cif
#   From: 2010.03.12/outbox.cif.g09.slc.cpg/sg14_32_cif.got.tgz:63753.got - 2010.03.31 13:35:05.
