data_PCOD8125600
_publ_section_title
;
Structure prediction by ZEFSAII (Michael W. Deem and Ramdas Pophale) SiO2 
 PCOD8125600
Probable space group: P 21/C
;
_chemical_formula_sum "Si O2"
_cell_formula_units_Z 24
_cell_length_a 8.649035
_cell_length_b 8.846086
_cell_length_c 19.849108
_cell_angle_alpha 90.000000
_cell_angle_beta 128.413350
_cell_angle_gamma 90.000000
_cell_volume 1189.942032
_symmetry_space_group_name_H-M "P 21/C"
_symmetry_group_IT_number 14
_symmetry_cell_setting 'monoclinic'
loop_
_space_group_symop_operation_xyz
x,y,z
-x,1/2+y,1/2-z
-x,-y,-z
x,1/2-y,1/2+z
loop_
_atom_site_type_symbol
_atom_site_label
_atom_site_fract_x
_atom_site_fract_y
_atom_site_fract_z
Si Si1 0.658653 0.401394 0.749444
Si Si2 0.190070 0.068497 0.584032
Si Si3 0.873287 0.104177 0.768651
Si Si4 0.282020 0.331854 0.320432
Si Si5 0.767572 0.838997 0.823062
Si Si6 0.549222 0.535023 0.090278
O O1 0.787344 0.489044 0.838586
O O2 0.792160 0.271168 0.755256
O O3 0.600712 0.519520 0.674149
O O4 0.468292 0.333931 0.733890
O O5 0.151658 0.248448 0.589295
O O6 0.380142 0.041959 0.589314
O O7 0.000000 0.000000 0.500000
O O8 0.107323 0.112167 0.821762
O O9 0.842645 0.010178 0.830844
O O10 0.758899 0.030554 0.673439
O O11 0.175057 0.247721 0.229596
O O12 0.437134 0.217998 0.398767
O O13 0.500000 0.500000 0.000000
#
# Coordination Sequence:
#
# PCOD8125600 Si02
#       6
#     4   4   4   4   4   4
#     4  11  19  40  68  89 125 165 217 267 309 381
#     4  11  24  40  65  92 123 168 214 268 323 376
#     4  11  21  39  68  94 126 167 212 267 317 391
#     4  10  22  37  64  96 123 168 217 256 320 391
#     4  10  20  40  64  92 121 168 221 258 311 387
#     4  11  24  42  61  93 132 166 212 267 330 377
#
# _framework density 20.169049999999999
#
# number of rings (size 3 to 8) (size 9 to 14) (size 15 to 20)
#    0.000    1.333    5.000    3.000    7.000    0.000 
#    0.000    1.667    0.000    0.000    0.000    0.000 
#    0.000    0.000    0.000    0.000    0.000    0.000 
#
# Total GULP energy -297441.195873 kJ/mol
# GULP energy per Si atom -12393.383161 kJ/mol
# Density = 2.012314 g / cm^3
# Si number density = 20.169050 Si / 1000 Ang^3
#
#
#
# Elastic Constant Matrix: (Units=GPa)
#
#
# Indices 1 2 3 4 5 6 
#
# 1 91.9723 34.2687 31.4669 0.0000 -6.2099 0.0000
# 2 34.2687 126.2772 50.9640 0.0000 -20.6601 0.0000
# 3 31.4669 50.9640 86.0641 0.0000 -13.2638 0.0000
# 4 0.0000 0.0000 0.0000 31.8489 0.0000 -7.3999
# 5 -6.2099 -20.6601 -13.2638 0.0000 21.6997 0.0000
# 6 0.0000 0.0000 0.0000 -7.3999 0.0000 41.5034
#
#
#
# Elastic Compliance Matrix: (Units=1/GPa)
#
#
# Indices 1 2 3 4 5 6 
#
# 1 0.012838 -0.002158 -0.003496 0.000000 -0.000517 0.000000
# 2 -0.002158 0.011758 -0.005016 0.000000 0.007511 0.000000
# 3 -0.003496 -0.005016 0.016535 0.000000 0.004331 0.000000
# 4 0.000000 0.000000 0.000000 0.032755 0.000000 0.005840
# 5 -0.000517 0.007511 0.004331 0.000000 0.055734 0.000000
# 6 0.000000 0.000000 0.000000 0.005840 0.000000 0.025136
#
#
# Mechanical properties :
#
#
# Convention : Reuss Voigt Hill
#
# Bulk Modulus (GPa) = 50.52609 59.74588 55.13599
# Shear Modulus (GPa) = 27.36840 31.51802 29.44321
#
# Velocity S-wave (km/s) = 3.68768 3.95738 3.82491
# Velocity P-wave (km/s) = 6.57553 7.11112 6.84856
#
# Compressibility (1/GPa) = 0.01979175
#
# Stress axis : x y z
#
# Youngs Moduli (GPa) = 77.89435 85.04870 60.47694
#
# Poissons Ratio (x) = 0.18351 0.21142
# Poissons Ratio (y) = 0.16807 0.30336
# Poissons Ratio (z) = 0.27231 0.42662
#
# Static dielectric constant tensor:
#      x y z
#    x 3.307570 0.000000 -0.392430 
#    y 0.000000 4.224660 0.000000 
#    z -0.392430 0.000000 3.399070 
# 
# 
# High freq. dielectric constant tensor:
#      x y z
#    x 1.798460 0.000000 -0.008820 
#    y 0.000000 1.807330 0.000000 
#    z -0.008820 0.000000 1.739770 
# 
# From -- ./inp_files/54496.got.cif
#   From: 2010.03.12/outbox.cif.g09.slc.cpg/sg14_28_cif.got.tgz:54496.got - 2010.03.31 13:35:05.
