data_PCOD8125752
_publ_section_title
;
Structure prediction by ZEFSAII (Michael W. Deem and Ramdas Pophale) SiO2 
 PCOD8125752
Probable space group: P 21/C
;
_chemical_formula_sum "Si O2"
_cell_formula_units_Z 32
_cell_length_a 12.080378
_cell_length_b 14.321111
_cell_length_c 13.551415
_cell_angle_alpha 90.000000
_cell_angle_beta 40.946674
_cell_angle_gamma 90.000000
_cell_volume 1536.453340
_symmetry_space_group_name_H-M "P 21/C"
_symmetry_group_IT_number 14
_symmetry_cell_setting 'monoclinic'
loop_
_space_group_symop_operation_xyz
x,y,z
-x,1/2+y,1/2-z
-x,-y,-z
x,1/2-y,1/2+z
loop_
_atom_site_type_symbol
_atom_site_label
_atom_site_fract_x
_atom_site_fract_y
_atom_site_fract_z
Si Si1 0.246352 0.083598 0.606901
Si Si2 0.347732 0.462019 0.664167
Si Si3 0.334384 0.715318 0.439640
Si Si4 0.436115 0.242185 0.048858
Si Si5 0.495542 0.451788 0.769113
Si Si6 0.891191 0.110537 0.753606
Si Si7 0.749084 0.249732 0.205113
Si Si8 0.182646 0.531821 0.341221
O O1 0.293652 0.182322 0.623937
O O2 0.393667 0.044528 0.439226
O O3 0.084374 0.097328 0.648395
O O4 0.214532 0.008984 0.712399
O O5 0.500000 0.500000 0.500000
O O6 0.338952 0.351304 0.649469
O O7 0.387505 0.493112 0.750740
O O8 0.178171 0.511861 0.740756
O O9 0.440598 0.777724 0.444973
O O10 0.464630 0.654735 0.286724
O O11 0.210386 0.644920 0.581451
O O12 0.239841 0.777045 0.419799
O O13 0.560029 0.226946 0.872225
O O14 0.675228 0.502413 0.674586
O O15 0.883326 0.187223 0.672393
O O16 0.805309 0.142886 0.180544
O O17 0.000000 0.500000 0.500000
#
# Coordination Sequence:
#
# PCOD8125752 Si02
#       8
#     4   4   4   4   4   4   4   4
#     4  12  24  42  62  99 140 167 219 281 330 393
#     4  11  21  43  71  94 129 177 226 262 336 403
#     4   9  18  40  63  89 126 165 222 266 322 394
#     4  10  21  38  68  96 124 173 215 271 328 399
#     4  10  21  40  66  93 131 170 219 273 323 402
#     4  11  24  42  66  96 134 171 220 285 321 401
#     4  10  20  42  64  96 127 168 221 273 332 386
#     4  11  24  43  68  95 130 176 220 272 336 399
#
# _framework density 20.827186000000001
#
# number of rings (size 3 to 8) (size 9 to 14) (size 15 to 20)
#    0.000    1.500    6.250    1.875    0.000    2.500 
#   11.250    0.000    0.000    0.000    0.000    0.000 
#    0.000    0.000    0.000    0.000    0.000    0.000 
#
# Total GULP energy -396599.829137 kJ/mol
# GULP energy per Si atom -12393.744661 kJ/mol
# Density = 2.077978 g / cm^3
# Si number density = 20.827186 Si / 1000 Ang^3
#
#
#
# Elastic Constant Matrix: (Units=GPa)
#
#
# Indices 1 2 3 4 5 6 
#
# 1 169.5129 53.1608 57.2731 0.0000 -1.4656 0.0000
# 2 53.1608 81.9576 26.8191 0.0000 -4.5472 0.0000
# 3 57.2731 26.8191 98.9311 0.0000 4.6983 0.0000
# 4 0.0000 0.0000 0.0000 21.7157 0.0000 1.3565
# 5 -1.4656 -4.5472 4.6983 0.0000 47.0538 0.0000
# 6 0.0000 0.0000 0.0000 1.3565 0.0000 38.9040
#
#
#
# Elastic Compliance Matrix: (Units=1/GPa)
#
#
# Indices 1 2 3 4 5 6 
#
# 1 0.008521 -0.004276 -0.003785 0.000000 0.000230 0.000000
# 2 -0.004276 0.015666 -0.001846 0.000000 0.001565 0.000000
# 3 -0.003785 -0.001846 0.012875 0.000000 -0.001582 0.000000
# 4 0.000000 0.000000 0.000000 0.046150 0.000000 -0.001609
# 5 0.000230 0.001565 -0.001582 0.000000 0.021569 0.000000
# 6 0.000000 0.000000 0.000000 -0.001609 0.000000 0.025760
#
#
# Mechanical properties :
#
#
# Convention : Reuss Voigt Hill
#
# Bulk Modulus (GPa) = 57.97564 69.43416 63.70490
# Shear Modulus (GPa) = 32.03024 35.74460 33.88742
#
# Velocity S-wave (km/s) = 3.92587 4.14726 4.03808
# Velocity P-wave (km/s) = 6.96038 7.50624 7.23845
#
# Compressibility (1/GPa) = 0.01724862
#
# Stress axis : x y z
#
# Youngs Moduli (GPa) = 117.35859 63.83383 77.67231
#
# Poissons Ratio (x) = 0.27294 0.29397
# Poissons Ratio (y) = 0.50179 0.14337
# Poissons Ratio (z) = 0.44417 0.11783
#
# Static dielectric constant tensor:
#      x y z
#    x 4.725340 0.000000 0.217500 
#    y 0.000000 2.944830 0.000000 
#    z 0.217500 0.000000 3.682440 
# 
# 
# High freq. dielectric constant tensor:
#      x y z
#    x 1.837480 0.000000 0.015430 
#    y 0.000000 1.794490 0.000000 
#    z 0.015430 0.000000 1.804080 
# 
# From -- ./inp_files/45068.got.cif
#   From: 2010.03.12/outbox.cif.g09.slc.cpg/sg14_23_cif.got.tgz:45068.got - 2010.03.31 13:35:05.
