data_PCOD8125622
_publ_section_title
;
Structure prediction by ZEFSAII (Michael W. Deem and Ramdas Pophale) SiO2 
 PCOD8125622
Probable space group: P 21/C
;
_chemical_formula_sum "Si O2"
_cell_formula_units_Z 24
_cell_length_a 15.540099
_cell_length_b 9.180795
_cell_length_c 14.948595
_cell_angle_alpha 90.000000
_cell_angle_beta 27.480450
_cell_angle_gamma 90.000000
_cell_volume 984.136331
_symmetry_space_group_name_H-M "P 21/C"
_symmetry_group_IT_number 14
_symmetry_cell_setting 'monoclinic'
loop_
_space_group_symop_operation_xyz
x,y,z
-x,1/2+y,1/2-z
-x,-y,-z
x,1/2-y,1/2+z
loop_
_atom_site_type_symbol
_atom_site_label
_atom_site_fract_x
_atom_site_fract_y
_atom_site_fract_z
Si Si1 0.203321 0.473447 0.243978
Si Si2 0.135865 0.080404 0.065945
Si Si3 0.932275 0.154442 0.736587
Si Si4 0.483336 0.065929 0.335261
Si Si5 0.296742 0.826682 0.412548
Si Si6 0.916463 0.258439 0.559910
O O1 0.227309 0.603746 0.294800
O O2 0.033268 0.532074 0.340914
O O3 0.129292 0.320717 0.354549
O O4 0.395682 0.451134 0.014526
O O5 0.125357 0.257534 0.083667
O O6 0.083263 0.008914 0.210965
O O7 0.326633 0.027439 0.846622
O O8 0.902828 0.148251 0.656720
O O9 0.772842 0.250128 0.932597
O O10 0.346413 0.994484 0.386811
O O11 0.516788 0.236832 0.287078
O O12 0.145599 0.825695 0.472182
#
# Coordination Sequence:
#
# PCOD8125622 Si02
#       6
#     4   4   4   4   4   4
#     4  10  20  40  65  92 123 163 221 256 298 381
#     4  10  21  40  67  92 126 167 210 257 322 366
#     4  10  21  42  64  93 128 163 212 262 310 379
#     4  11  23  39  67  94 126 167 211 261 319 367
#     4  11  23  41  63  94 129 165 215 261 316 373
#     4  10  20  40  66  92 126 168 209 263 310 378
#
# _framework density 24.386863999999999
#
# number of rings (size 3 to 8) (size 9 to 14) (size 15 to 20)
#    0.000    1.667    6.667    0.000    2.333    0.667 
#    0.000    4.167    0.000    0.000    0.000    1.167 
#    0.000    0.000    0.000    0.000    0.000    0.000 
#
# Total GULP energy -297383.000923 kJ/mol
# GULP energy per Si atom -12390.958372 kJ/mol
# Density = 2.433136 g / cm^3
# Si number density = 24.386864 Si / 1000 Ang^3
#
#
#
# Elastic Constant Matrix: (Units=GPa)
#
#
# Indices 1 2 3 4 5 6 
#
# 1 71.4214 19.6501 17.1532 0.0000 18.3518 0.0000
# 2 19.6501 62.5610 9.0814 0.0000 10.1036 0.0000
# 3 17.1532 9.0814 148.6387 0.0000 31.8667 0.0000
# 4 0.0000 0.0000 0.0000 24.2504 0.0000 12.9978
# 5 18.3518 10.1036 31.8667 0.0000 26.5981 0.0000
# 6 0.0000 0.0000 0.0000 12.9978 0.0000 22.6713
#
#
#
# Elastic Compliance Matrix: (Units=1/GPa)
#
#
# Indices 1 2 3 4 5 6 
#
# 1 0.017901 -0.003830 0.000679 0.000000 -0.011709 0.000000
# 2 -0.003830 0.017873 0.000322 0.000000 -0.004532 0.000000
# 3 0.000679 0.000322 0.009092 0.000000 -0.011483 0.000000
# 4 0.000000 0.000000 0.000000 0.059529 0.000000 -0.034129
# 5 -0.011709 -0.004532 -0.011483 0.000000 0.061154 0.000000
# 6 0.000000 0.000000 0.000000 -0.034129 0.000000 0.063675
#
#
# Mechanical properties :
#
#
# Convention : Reuss Voigt Hill
#
# Bulk Modulus (GPa) = 25.50682 41.59894 33.55288
# Shear Modulus (GPa) = 20.16522 30.48637 25.32579
#
# Velocity S-wave (km/s) = 2.87869 3.53953 3.22607
# Velocity P-wave (km/s) = 4.64016 5.81372 5.25977
#
# Compressibility (1/GPa) = 0.03920520
#
# Stress axis : x y z
#
# Youngs Moduli (GPa) = 55.86319 55.95154 109.99196
#
# Poissons Ratio (x) = 0.21430 -0.07463
# Poissons Ratio (y) = 0.21396 -0.03537
# Poissons Ratio (z) = -0.03790 -0.01799
#
# Static dielectric constant tensor:
#      x y z
#    x 4.385270 0.000000 0.288900 
#    y 0.000000 4.733150 0.000000 
#    z 0.288900 0.000000 4.781550 
# 
# 
# High freq. dielectric constant tensor:
#      x y z
#    x 1.958020 0.000000 0.020550 
#    y 0.000000 1.950930 0.000000 
#    z 0.020550 0.000000 1.980080 
# 
# From -- ./inp_files/46863.got.cif
#   From: 2010.03.12/outbox.cif.g09.slc.cpg/sg14_24_cif.got.tgz:46863.got - 2010.03.31 13:35:05.
