data_PCOD8125636
_publ_section_title
;
Structure prediction by ZEFSAII (Michael W. Deem and Ramdas Pophale) SiO2 
 PCOD8125636
Probable space group: P 21/C
;
_chemical_formula_sum "Si O2"
_cell_formula_units_Z 32
_cell_length_a 5.636080
_cell_length_b 15.778522
_cell_length_c 17.840062
_cell_angle_alpha 90.000000
_cell_angle_beta 66.431734
_cell_angle_gamma 90.000000
_cell_volume 1454.160204
_symmetry_space_group_name_H-M "P 21/C"
_symmetry_group_IT_number 14
_symmetry_cell_setting 'monoclinic'
loop_
_space_group_symop_operation_xyz
x,y,z
-x,1/2+y,1/2-z
-x,-y,-z
x,1/2-y,1/2+z
loop_
_atom_site_type_symbol
_atom_site_label
_atom_site_fract_x
_atom_site_fract_y
_atom_site_fract_z
Si Si1 0.633993 0.823873 0.591615
Si Si2 0.145885 0.635564 0.947139
Si Si3 0.010853 0.126740 0.696869
Si Si4 0.703118 0.036709 0.033549
Si Si5 0.673977 0.276942 0.478114
Si Si6 0.498205 0.046525 0.799863
Si Si7 0.541396 0.499835 0.862017
Si Si8 0.173795 0.207882 0.818024
O O1 0.574941 0.745779 0.541989
O O2 0.642426 0.784333 0.675136
O O3 0.898015 0.868337 0.531794
O O4 0.429724 0.901895 0.615073
O O5 0.296185 0.546076 0.931866
O O6 0.090201 0.664480 0.868401
O O7 0.332960 0.707679 0.955502
O O8 0.199313 0.049823 0.650252
O O9 0.147713 0.200435 0.730367
O O10 0.777553 0.090250 0.777577
O O11 0.565433 0.022894 0.130250
O O12 0.692699 0.135301 0.018135
O O13 0.500000 0.000000 0.000000
O O14 0.000000 0.000000 0.000000
O O15 0.905806 0.270096 0.390570
O O16 0.502528 0.998243 0.720992
O O17 0.276687 0.117433 0.832745
#
# Coordination Sequence:
#
# PCOD8125636 Si02
#       8
#     4   4   4   4   4   4   4   4
#     4  11  23  41  66  99 131 176 227 279 347 419
#     4  10  23  42  67  94 134 172 228 281 349 411
#     4  10  21  41  69  91 128 180 221 282 345 404
#     4  12  25  44  74 101 139 185 231 292 350 424
#     4  11  24  41  66 101 131 174 223 286 341 419
#     4  10  22  43  65  92 130 177 228 276 349 415
#     4  10  23  43  65  94 131 178 227 283 349 419
#     4  10  20  40  66  90 129 169 221 271 344 407
#
# _framework density 22.00583
#
# number of rings (size 3 to 8) (size 9 to 14) (size 15 to 20)
#    0.000    1.500    1.250    3.375    3.500    6.000 
#   11.250    0.000    0.000    0.000    0.000    0.000 
#    0.000    0.000    0.000    0.000    0.000    0.000 
#
# Total GULP energy -396509.582359 kJ/mol
# GULP energy per Si atom -12390.924449 kJ/mol
# Density = 2.195574 g / cm^3
# Si number density = 22.005830 Si / 1000 Ang^3
#
#
#
# Elastic Constant Matrix: (Units=GPa)
#
#
# Indices 1 2 3 4 5 6 
#
# 1 89.5315 16.8299 11.8100 0.0000 9.6416 0.0000
# 2 16.8299 100.4562 28.2199 0.0000 13.1387 0.0000
# 3 11.8100 28.2199 60.9883 0.0000 6.2425 0.0000
# 4 0.0000 0.0000 0.0000 40.3654 0.0000 2.8724
# 5 9.6416 13.1387 6.2425 0.0000 28.9496 0.0000
# 6 0.0000 0.0000 0.0000 2.8724 0.0000 26.1177
#
#
#
# Elastic Compliance Matrix: (Units=1/GPa)
#
#
# Indices 1 2 3 4 5 6 
#
# 1 0.011918 -0.001184 -0.001441 0.000000 -0.003121 0.000000
# 2 -0.001184 0.012067 -0.004943 0.000000 -0.004016 0.000000
# 3 -0.001441 -0.004943 0.019106 0.000000 -0.001397 0.000000
# 4 0.000000 0.000000 0.000000 0.024969 0.000000 -0.002746
# 5 -0.003121 -0.004016 -0.001397 0.000000 0.037706 0.000000
# 6 0.000000 0.000000 0.000000 -0.002746 0.000000 0.038590
#
#
# Mechanical properties :
#
#
# Convention : Reuss Voigt Hill
#
# Bulk Modulus (GPa) = 35.77111 40.52174 38.14643
# Shear Modulus (GPa) = 29.61917 32.02762 30.82340
#
# Velocity S-wave (km/s) = 3.67273 3.81913 3.74664
# Velocity P-wave (km/s) = 5.85455 6.15644 6.00739
#
# Compressibility (1/GPa) = 0.02795552
#
# Stress axis : x y z
#
# Youngs Moduli (GPa) = 83.90716 82.87191 52.34030
#
# Poissons Ratio (x) = 0.09810 0.07540
# Poissons Ratio (y) = 0.09932 0.25872
# Poissons Ratio (z) = 0.12088 0.40965
#
# Static dielectric constant tensor:
#      x y z
#    x 3.496300 0.000000 -0.507150 
#    y 0.000000 3.579300 0.000000 
#    z -0.507150 0.000000 3.489620 
# 
# 
# High freq. dielectric constant tensor:
#      x y z
#    x 1.876180 0.000000 0.007530 
#    y 0.000000 1.852790 0.000000 
#    z 0.007530 0.000000 1.865670 
# 
# From -- ./inp_files/53470.got.cif
#   From: 2010.03.12/outbox.cif.g09.slc.cpg/sg14_27_cif.got.tgz:53470.got - 2010.03.31 13:35:05.
