data_PCOD8125287
_publ_section_title
;
Structure prediction by ZEFSAII (Michael W. Deem and Ramdas Pophale) SiO2 
 PCOD8125287
Probable space group: P 21/C
;
_chemical_formula_sum "Si O2"
_cell_formula_units_Z 16
_cell_length_a 7.446228
_cell_length_b 7.170843
_cell_length_c 19.948823
_cell_angle_alpha 90.000000
_cell_angle_beta 141.171319
_cell_angle_gamma 90.000000
_cell_volume 667.862569
_symmetry_space_group_name_H-M "P 21/C"
_symmetry_group_IT_number 14
_symmetry_cell_setting 'monoclinic'
loop_
_space_group_symop_operation_xyz
x,y,z
-x,1/2+y,1/2-z
-x,-y,-z
x,1/2-y,1/2+z
loop_
_atom_site_type_symbol
_atom_site_label
_atom_site_fract_x
_atom_site_fract_y
_atom_site_fract_z
Si Si1 0.905498 0.150690 0.631159
Si Si2 0.483025 0.768470 0.173918
Si Si3 0.366794 0.412235 0.051941
Si Si4 0.794694 0.637918 0.384890
O O1 0.827765 0.958597 0.569417
O O2 0.214479 0.129350 0.757162
O O3 0.931589 0.322406 0.584288
O O4 0.660044 0.190523 0.614485
O O5 0.432749 0.605867 0.107280
O O6 0.508610 0.684363 0.257045
O O7 0.225781 0.923149 0.095577
O O8 0.186997 0.277892 0.047170
#
# Coordination Sequence:
#
# PCOD8125287 Si02
#       4
#     4   4   4   4
#     4   9  23  39  61  90 125 167 199 262 309 364
#     4  10  21  38  63  91 121 164 207 249 310 369
#     4  11  21  42  61  88 130 159 210 255 312 367
#     4  10  20  38  59  91 122 167 198 254 311 364
#
# _framework density 23.957024000000001
#
# number of rings (size 3 to 8) (size 9 to 14) (size 15 to 20)
#    1.500    0.500    2.500    0.750    3.500    1.000 
#    0.000    7.500    0.000    0.000    0.000    0.000 
#    0.000    0.000    0.000    0.000    0.000    0.000 
#
# Total GULP energy -198283.034209 kJ/mol
# GULP energy per Si atom -12392.689638 kJ/mol
# Density = 2.390250 g / cm^3
# Si number density = 23.957024 Si / 1000 Ang^3
#
#
#
# Elastic Constant Matrix: (Units=GPa)
#
#
# Indices 1 2 3 4 5 6 
#
# 1 128.8046 68.8193 11.7189 0.0000 7.9511 0.0000
# 2 68.8193 127.9101 32.7579 0.0000 7.2185 0.0000
# 3 11.7189 32.7579 46.8592 0.0000 5.0955 0.0000
# 4 0.0000 0.0000 0.0000 48.9531 0.0000 30.8108
# 5 7.9511 7.2185 5.0955 0.0000 33.1020 0.0000
# 6 0.0000 0.0000 0.0000 30.8108 0.0000 116.2522
#
#
#
# Elastic Compliance Matrix: (Units=1/GPa)
#
#
# Indices 1 2 3 4 5 6 
#
# 1 0.011083 -0.006344 0.001833 0.000000 -0.001561 0.000000
# 2 -0.006344 0.013192 -0.007616 0.000000 -0.000181 0.000000
# 3 0.001833 -0.007616 0.026517 0.000000 -0.002861 0.000000
# 4 0.000000 0.000000 0.000000 0.024517 0.000000 -0.006498
# 5 -0.001561 -0.000181 -0.002861 0.000000 0.031064 0.000000
# 6 0.000000 0.000000 0.000000 -0.006498 0.000000 0.010324
#
#
# Mechanical properties :
#
#
# Convention : Reuss Voigt Hill
#
# Bulk Modulus (GPa) = 37.68164 58.90734 48.29449
# Shear Modulus (GPa) = 33.37814 52.34666 42.86240
#
# Velocity S-wave (km/s) = 3.73668 4.67949 4.23441
# Velocity P-wave (km/s) = 5.86345 7.33751 6.64150
#
# Compressibility (1/GPa) = 0.02653812
#
# Stress axis : x y z
#
# Youngs Moduli (GPa) = 90.22825 75.80318 37.71128
#
# Poissons Ratio (x) = 0.48092 -0.06913
# Poissons Ratio (y) = 0.57244 0.28721
# Poissons Ratio (z) = -0.16540 0.57731
#
# Static dielectric constant tensor:
#      x y z
#    x 4.208410 0.000000 0.046690 
#    y 0.000000 3.995310 0.000000 
#    z 0.046690 0.000000 4.364070 
# 
# 
# High freq. dielectric constant tensor:
#      x y z
#    x 1.936920 0.000000 0.004390 
#    y 0.000000 1.926440 0.000000 
#    z 0.004390 0.000000 1.964160 
# 
# From -- ./inp_files/38334.got.cif
#   From: 2010.03.12/outbox.cif.g09.slc.cpg/sg14_20_cif.got.tgz:38334.got - 2010.03.31 13:35:05.
