data_PCOD8125383
_publ_section_title
;
Structure prediction by ZEFSAII (Michael W. Deem and Ramdas Pophale) SiO2 
 PCOD8125383
Probable space group: P 21/C
;
_chemical_formula_sum "Si O2"
_cell_formula_units_Z 32
_cell_length_a 10.208103
_cell_length_b 10.476792
_cell_length_c 15.365241
_cell_angle_alpha 90.000000
_cell_angle_beta 106.027952
_cell_angle_gamma 90.000000
_cell_volume 1579.405221
_symmetry_space_group_name_H-M "P 21/C"
_symmetry_group_IT_number 14
_symmetry_cell_setting 'monoclinic'
loop_
_space_group_symop_operation_xyz
x,y,z
-x,1/2+y,1/2-z
-x,-y,-z
x,1/2-y,1/2+z
loop_
_atom_site_type_symbol
_atom_site_label
_atom_site_fract_x
_atom_site_fract_y
_atom_site_fract_z
Si Si1 0.706499 0.381047 0.527181
Si Si2 0.256623 0.251509 0.355159
Si Si3 0.581816 0.859147 0.960580
Si Si4 0.864713 0.999343 0.200185
Si Si5 0.367580 0.965028 0.703168
Si Si6 0.939766 0.941826 0.617922
Si Si7 0.168101 0.864617 0.534621
Si Si8 0.575224 0.754002 0.281748
O O1 0.582703 0.343924 0.569608
O O2 0.642240 0.497826 0.459297
O O3 0.839592 0.417733 0.608700
O O4 0.761101 0.270478 0.473539
O O5 0.375197 0.306910 0.437593
O O6 0.130970 0.350632 0.325806
O O7 0.202873 0.127095 0.393615
O O8 0.311612 0.221744 0.269382
O O9 0.636693 0.781406 0.887616
O O10 0.736474 0.018210 0.238388
O O11 0.003350 0.032746 0.274761
O O12 0.286236 0.954516 0.596899
O O13 0.447328 0.834158 0.734786
O O14 0.460911 0.093880 0.721051
O O15 0.045784 0.854298 0.582745
O O16 0.900550 0.073601 0.563296
#
# Coordination Sequence:
#
# PCOD8125383 Si02
#       8
#     4   4   4   4   4   4   4   4
#     4  10  20  38  64  91 121 162 206 255 328 383
#     4  10  22  40  59  89 125 160 206 256 315 373
#     4  10  21  39  64  91 129 160 200 264 325 382
#     4   9  20  39  59  83 120 164 196 251 314 373
#     4  10  21  38  60  90 123 162 206 255 319 374
#     4  10  22  41  58  85 122 166 212 261 305 373
#     4  10  22  39  64  85 120 169 213 261 316 371
#     4  11  22  38  64  92 127 165 204 260 321 380
#
# _framework density 20.260791000000001
#
# number of rings (size 3 to 8) (size 9 to 14) (size 15 to 20)
#    0.000    2.000    1.250    1.500    5.250    2.000 
#    2.250    3.750    0.000    0.000    0.000    0.000 
#    0.000    0.000    0.000    0.000    0.000    0.000 
#
# Total GULP energy -396568.293037 kJ/mol
# GULP energy per Si atom -12392.759157 kJ/mol
# Density = 2.021468 g / cm^3
# Si number density = 20.260791 Si / 1000 Ang^3
#
#
#
# Elastic Constant Matrix: (Units=GPa)
#
#
# Indices 1 2 3 4 5 6 
#
# 1 41.9502 24.6828 18.4714 0.0000 3.7826 0.0000
# 2 24.6828 74.1583 23.3717 0.0000 0.3944 0.0000
# 3 18.4714 23.3717 96.6448 0.0000 -1.2763 0.0000
# 4 0.0000 0.0000 0.0000 28.0766 0.0000 -2.6583
# 5 3.7826 0.3944 -1.2763 0.0000 28.5280 0.0000
# 6 0.0000 0.0000 0.0000 -2.6583 0.0000 29.7671
#
#
#
# Elastic Compliance Matrix: (Units=1/GPa)
#
#
# Indices 1 2 3 4 5 6 
#
# 1 0.031306 -0.009195 -0.003815 0.000000 -0.004195 0.000000
# 2 -0.009195 0.017302 -0.002415 0.000000 0.000872 0.000000
# 3 -0.003815 -0.002415 0.011674 0.000000 0.001062 0.000000
# 4 0.000000 0.000000 0.000000 0.035921 0.000000 0.003208
# 5 -0.004195 0.000872 0.001062 0.000000 0.035645 0.000000
# 6 0.000000 0.000000 0.000000 0.003208 0.000000 0.033881
#
#
# Mechanical properties :
#
#
# Convention : Reuss Voigt Hill
#
# Bulk Modulus (GPa) = 33.97741 38.42278 36.20009
# Shear Modulus (GPa) = 24.22598 27.02281 25.62440
#
# Velocity S-wave (km/s) = 3.46165 3.65602 3.56016
# Velocity P-wave (km/s) = 5.72572 6.06854 5.89962
#
# Compressibility (1/GPa) = 0.02943132
#
# Stress axis : x y z
#
# Youngs Moduli (GPa) = 31.94254 57.79770 85.65744
#
# Poissons Ratio (x) = 0.53146 0.32680
# Poissons Ratio (y) = 0.29372 0.20687
# Poissons Ratio (z) = 0.12187 0.13959
#
# Static dielectric constant tensor:
#      x y z
#    x 3.378450 0.000000 0.055540 
#    y 0.000000 3.789200 0.000000 
#    z 0.055540 0.000000 3.857550 
# 
# 
# High freq. dielectric constant tensor:
#      x y z
#    x 1.763420 0.000000 0.005200 
#    y 0.000000 1.787300 0.000000 
#    z 0.005200 0.000000 1.808240 
# 
# From -- ./inp_files/43772.got.cif
#   From: 2010.03.12/outbox.cif.g09.slc.cpg/sg14_22_cif.got.tgz:43772.got - 2010.03.31 13:35:05.
