data_PCOD8125522
_publ_section_title
;
Structure prediction by ZEFSAII (Michael W. Deem and Ramdas Pophale) SiO2 
 PCOD8125522
Probable space group: P 21/C
;
_chemical_formula_sum "Si O2"
_cell_formula_units_Z 24
_cell_length_a 24.428061
_cell_length_b 8.908765
_cell_length_c 16.925672
_cell_angle_alpha 90.000000
_cell_angle_beta 18.628088
_cell_angle_gamma 90.000000
_cell_volume 1176.575548
_symmetry_space_group_name_H-M "P 21/C"
_symmetry_group_IT_number 14
_symmetry_cell_setting 'monoclinic'
loop_
_space_group_symop_operation_xyz
x,y,z
-x,1/2+y,1/2-z
-x,-y,-z
x,1/2-y,1/2+z
loop_
_atom_site_type_symbol
_atom_site_label
_atom_site_fract_x
_atom_site_fract_y
_atom_site_fract_z
Si Si1 0.316508 0.715580 0.819202
Si Si2 0.059647 0.583629 0.057357
Si Si3 0.696205 0.804433 0.789066
Si Si4 0.203047 0.465042 0.453831
Si Si5 0.098380 0.220460 0.852326
Si Si6 0.899832 0.047446 0.254768
O O1 0.501226 0.636753 0.554333
O O2 0.199776 0.694747 0.901932
O O3 0.236800 0.637644 0.005852
O O4 0.328662 0.897370 0.807004
O O5 0.884801 0.587468 0.345488
O O6 0.001032 0.637548 0.050597
O O7 0.151328 0.421431 0.937179
O O8 0.696254 0.672964 0.723457
O O9 0.730548 0.756893 0.832511
O O10 0.055832 0.513205 0.594135
O O11 0.170641 0.105069 0.687760
O O12 0.958787 0.154728 0.103605
#
# Coordination Sequence:
#
# PCOD8125522 Si02
#       6
#     4   4   4   4   4   4
#     4  11  22  40  60  91 124 156 199 257 307 350
#     4  11  21  39  65  88 115 164 207 245 293 379
#     4  11  24  38  59  96 126 150 200 262 311 352
#     4  10  20  39  65  86 117 164 207 236 299 374
#     4  10  20  40  61  85 118 160 211 242 301 367
#     4   9  20  38  64  85 116 166 206 247 294 376
#
# _framework density 20.39818
#
# number of rings (size 3 to 8) (size 9 to 14) (size 15 to 20)
#    0.000    1.667    1.667    4.500    2.333    0.000 
#    6.000    0.000    0.000    0.000    0.000    0.000 
#    0.000    0.000    0.000    0.000    0.000    0.000 
#
# Total GULP energy -297379.396954 kJ/mol
# GULP energy per Si atom -12390.808206 kJ/mol
# Density = 2.035175 g / cm^3
# Si number density = 20.398180 Si / 1000 Ang^3
#
#
#
# Elastic Constant Matrix: (Units=GPa)
#
#
# Indices 1 2 3 4 5 6 
#
# 1 80.1857 37.6117 32.7260 0.0000 18.6989 0.0000
# 2 37.6117 96.8433 30.4699 0.0000 7.0953 0.0000
# 3 32.7260 30.4699 90.9746 0.0000 5.0973 0.0000
# 4 0.0000 0.0000 0.0000 22.0254 0.0000 3.9508
# 5 18.6989 7.0953 5.0973 0.0000 15.4965 0.0000
# 6 0.0000 0.0000 0.0000 3.9508 0.0000 33.1593
#
#
#
# Elastic Compliance Matrix: (Units=1/GPa)
#
#
# Indices 1 2 3 4 5 6 
#
# 1 0.022387 -0.005463 -0.004941 0.000000 -0.022887 0.000000
# 2 -0.005463 0.013135 -0.002513 0.000000 0.001405 0.000000
# 3 -0.004941 -0.002513 0.013461 0.000000 0.002685 0.000000
# 4 0.000000 0.000000 0.000000 0.046394 0.000000 -0.005528
# 5 -0.022887 0.001405 0.002685 0.000000 0.090621 0.000000
# 6 0.000000 0.000000 0.000000 -0.005528 0.000000 0.030816
#
#
# Mechanical properties :
#
#
# Convention : Reuss Voigt Hill
#
# Bulk Modulus (GPa) = 43.19840 52.17987 47.68914
# Shear Modulus (GPa) = 19.97084 25.28265 22.62674
#
# Velocity S-wave (km/s) = 3.13237 3.52441 3.33416
# Velocity P-wave (km/s) = 5.85712 6.49601 6.18482
#
# Compressibility (1/GPa) = 0.02314900
#
# Stress axis : x y z
#
# Youngs Moduli (GPa) = 44.66805 76.12975 74.29016
#
# Poissons Ratio (x) = 0.41592 0.36708
# Poissons Ratio (y) = 0.24403 0.18668
# Poissons Ratio (z) = 0.22071 0.19130
#
# Static dielectric constant tensor:
#      x y z
#    x 4.013900 0.000000 0.102740 
#    y 0.000000 3.784890 0.000000 
#    z 0.102740 0.000000 3.371630 
# 
# 
# High freq. dielectric constant tensor:
#      x y z
#    x 1.803520 0.000000 0.007640 
#    y 0.000000 1.806670 0.000000 
#    z 0.007640 0.000000 1.770560 
# 
# From -- ./inp_files/56976.got.cif
#   From: 2010.03.12/outbox.cif.g09.slc.cpg/sg14_29_cif.got.tgz:56976.got - 2010.03.31 13:35:05.
