data_PCOD8125032
_publ_section_title
;
Structure prediction by ZEFSAII (Michael W. Deem and Ramdas Pophale) SiO2 
 PCOD8125032
Probable space group: P 21/C
;
_chemical_formula_sum "Si O2"
_cell_formula_units_Z 32
_cell_length_a 11.987963
_cell_length_b 25.908710
_cell_length_c 4.970158
_cell_angle_alpha 90.000000
_cell_angle_beta 96.691586
_cell_angle_gamma 90.000000
_cell_volume 1533.178579
_symmetry_space_group_name_H-M "P 21/C"
_symmetry_group_IT_number 14
_symmetry_cell_setting 'monoclinic'
loop_
_space_group_symop_operation_xyz
x,y,z
-x,1/2+y,1/2-z
-x,-y,-z
x,1/2-y,1/2+z
loop_
_atom_site_type_symbol
_atom_site_label
_atom_site_fract_x
_atom_site_fract_y
_atom_site_fract_z
Si Si1 0.491630 0.061540 0.254479
Si Si2 0.960704 0.396696 0.095541
Si Si3 0.148912 0.942490 0.927508
Si Si4 0.294201 0.283041 0.297515
Si Si5 0.964351 0.784123 0.297162
Si Si6 0.389755 0.391265 0.240485
Si Si7 0.329095 0.975259 0.329573
Si Si8 0.178972 0.043441 0.643708
O O1 0.421325 0.096115 0.444738
O O2 0.619251 0.054392 0.396092
O O3 0.430971 0.005572 0.211599
O O4 0.490062 0.090151 0.966743
O O5 0.940236 0.422877 0.378352
O O6 0.963275 0.335155 0.130200
O O7 0.077378 0.420194 0.014770
O O8 0.863268 0.409328 0.850678
O O9 0.132233 0.002977 0.850747
O O10 0.273759 0.936562 0.095288
O O11 0.319896 0.264183 0.604923
O O12 0.165674 0.300606 0.222375
O O13 0.375540 0.330316 0.258926
O O14 0.994531 0.739425 0.517173
O O15 0.276275 0.420869 0.300400
O O16 0.229306 0.012683 0.403065
#
# Coordination Sequence:
#
# PCOD8125032 Si02
#       8
#     4   4   4   4   4   4   4   4
#     4  10  23  36  60  81 116 157 199 238 280 345
#     4  12  25  37  59  88 118 163 197 229 300 353
#     4  12  24  38  55  86 123 162 197 235 276 347
#     4  10  20  36  59  85 117 147 187 243 303 356
#     4  10  21  40  59  84 114 150 194 248 290 344
#     4  11  21  37  59  88 115 158 194 234 297 352
#     4  10  23  39  56  83 119 160 200 237 279 326
#     4  11  23  38  56  84 130 160 194 229 280 352
#
# _framework density 20.871670000000002
#
# number of rings (size 3 to 8) (size 9 to 14) (size 15 to 20)
#    0.000    1.250    3.750    2.250    3.500    1.500 
#    0.000    0.000    0.000    0.000    0.000   17.500 
#    0.000    0.000    0.000    0.000    0.000    0.000 
#
# Total GULP energy -396849.528595 kJ/mol
# GULP energy per Si atom -12401.547769 kJ/mol
# Density = 2.082416 g / cm^3
# Si number density = 20.871670 Si / 1000 Ang^3
#
#
#
# Elastic Constant Matrix: (Units=GPa)
#
#
# Indices 1 2 3 4 5 6 
#
# 1 31.4259 19.0095 6.5575 0.0000 10.2624 0.0000
# 2 19.0095 85.9968 13.0839 0.0000 15.5772 0.0000
# 3 6.5575 13.0839 91.9568 0.0000 16.4540 0.0000
# 4 0.0000 0.0000 0.0000 17.1810 0.0000 2.3755
# 5 10.2624 15.5772 16.4540 0.0000 36.2450 0.0000
# 6 0.0000 0.0000 0.0000 2.3755 0.0000 21.2694
#
#
#
# Elastic Compliance Matrix: (Units=1/GPa)
#
#
# Indices 1 2 3 4 5 6 
#
# 1 0.038722 -0.007101 -0.000365 0.000000 -0.007746 0.000000
# 2 -0.007101 0.013981 -0.000835 0.000000 -0.003619 0.000000
# 3 -0.000365 -0.000835 0.011904 0.000000 -0.004942 0.000000
# 4 0.000000 0.000000 0.000000 0.059117 0.000000 -0.006603
# 5 -0.007746 -0.003619 -0.004942 0.000000 0.033582 0.000000
# 6 0.000000 0.000000 0.000000 -0.006603 0.000000 0.047753
#
#
# Mechanical properties :
#
#
# Convention : Reuss Voigt Hill
#
# Bulk Modulus (GPa) = 20.83152 31.85350 26.34251
# Shear Modulus (GPa) = 21.03832 26.32099 23.67965
#
# Velocity S-wave (km/s) = 3.17832 3.55503 3.37194
# Velocity P-wave (km/s) = 4.84473 5.66972 5.27338
#
# Compressibility (1/GPa) = 0.04800417
#
# Stress axis : x y z
#
# Youngs Moduli (GPa) = 25.82513 71.52798 84.00715
#
# Poissons Ratio (x) = 0.50791 0.03066
# Poissons Ratio (y) = 0.18338 0.07017
# Poissons Ratio (z) = 0.00942 0.05975
#
# Static dielectric constant tensor:
#      x y z
#    x 3.621300 0.000000 0.098690 
#    y 0.000000 3.518870 0.000000 
#    z 0.098690 0.000000 3.902270 
# 
# 
# High freq. dielectric constant tensor:
#      x y z
#    x 1.794350 0.000000 -0.003140 
#    y 0.000000 1.790870 0.000000 
#    z -0.003140 0.000000 1.836470 
# 
# From -- ./inp_files/3228.got.cif
#   From: 2010.03.12/outbox.cif.g09.slc.cpg/sg14_2_cif.got.tgz:3228.got - 2010.03.31 13:35:05.
