data_PCOD8125593
_publ_section_title
;
Structure prediction by ZEFSAII (Michael W. Deem and Ramdas Pophale) SiO2 
 PCOD8125593
Probable space group: P 21/C
;
_chemical_formula_sum "Si O2"
_cell_formula_units_Z 28
_cell_length_a 17.390638
_cell_length_b 7.751854
_cell_length_c 15.355292
_cell_angle_alpha 90.000000
_cell_angle_beta 138.432046
_cell_angle_gamma 90.000000
_cell_volume 1373.489205
_symmetry_space_group_name_H-M "P 21/C"
_symmetry_group_IT_number 14
_symmetry_cell_setting 'monoclinic'
loop_
_space_group_symop_operation_xyz
x,y,z
-x,1/2+y,1/2-z
-x,-y,-z
x,1/2-y,1/2+z
loop_
_atom_site_type_symbol
_atom_site_label
_atom_site_fract_x
_atom_site_fract_y
_atom_site_fract_z
Si Si1 0.085697 0.849416 0.912804
Si Si2 0.760279 0.032510 0.483323
Si Si3 0.944919 0.750560 0.630525
Si Si4 0.519816 0.748180 0.026729
Si Si5 0.320032 0.956867 0.399551
Si Si6 0.357502 0.939343 0.781617
Si Si7 0.135276 0.738726 0.645655
O O1 0.981436 0.787306 0.761885
O O2 0.105021 0.055193 0.917018
O O3 0.194623 0.731293 0.975812
O O4 0.064021 0.813794 0.997689
O O5 0.724702 0.968795 0.547996
O O6 0.648215 0.025454 0.326111
O O7 0.851070 0.892673 0.524053
O O8 0.048067 0.787348 0.649435
O O9 0.604887 0.590571 0.090095
O O10 0.601065 0.895815 0.131137
O O11 0.407548 0.704762 0.992846
O O12 0.456382 0.794962 0.881244
O O13 0.210389 0.920757 0.244994
O O14 0.226641 0.891603 0.702481
#
# Coordination Sequence:
#
# PCOD8125593 Si02
#       7
#     4   4   4   4   4   4   4
#     4  11  23  40  59  89 127 161 212 247 296 368
#     4  11  24  41  60  94 126 159 214 252 306 375
#     4  12  23  42  60  91 129 171 204 254 303 366
#     4   9  20  40  64  87 119 159 206 258 321 367
#     4  10  20  40  64  88 123 162 202 261 312 373
#     4   9  21  40  61  93 118 156 208 260 310 376
#     4  10  22  40  63  89 128 163 203 257 305 373
#
# _framework density 20.386036000000001
#
# number of rings (size 3 to 8) (size 9 to 14) (size 15 to 20)
#    0.000    1.714    2.857    0.429    2.000    4.571 
#    5.143    0.000    0.000    0.000    0.000    0.000 
#    0.000    0.000    0.000    0.000    0.000    0.000 
#
# Total GULP energy -346898.191337 kJ/mol
# GULP energy per Si atom -12389.221119 kJ/mol
# Density = 2.033964 g / cm^3
# Si number density = 20.386036 Si / 1000 Ang^3
#
#
#
# Elastic Constant Matrix: (Units=GPa)
#
#
# Indices 1 2 3 4 5 6 
#
# 1 69.3470 19.4197 27.6974 0.0000 -10.4356 0.0000
# 2 19.4197 93.3048 36.6922 0.0000 0.9874 0.0000
# 3 27.6974 36.6922 131.9950 0.0000 -20.1715 0.0000
# 4 0.0000 0.0000 0.0000 12.7310 0.0000 -1.0753
# 5 -10.4356 0.9874 -20.1715 0.0000 25.0643 0.0000
# 6 0.0000 0.0000 0.0000 -1.0753 0.0000 18.9280
#
#
#
# Elastic Compliance Matrix: (Units=1/GPa)
#
#
# Indices 1 2 3 4 5 6 
#
# 1 0.016804 -0.002813 -0.001890 0.000000 0.005586 0.000000
# 2 -0.002813 0.012797 -0.003675 0.000000 -0.004633 0.000000
# 3 -0.001890 -0.003675 0.010144 0.000000 0.007521 0.000000
# 4 0.000000 0.000000 0.000000 0.078927 0.000000 0.004484
# 5 0.005586 -0.004633 0.007521 0.000000 0.048459 0.000000
# 6 0.000000 0.000000 0.000000 0.004484 0.000000 0.053086
#
#
# Mechanical properties :
#
#
# Convention : Reuss Voigt Hill
#
# Bulk Modulus (GPa) = 43.50219 51.36282 47.43250
# Shear Modulus (GPa) = 20.43847 25.40048 22.91948
#
# Velocity S-wave (km/s) = 3.16978 3.53367 3.35666
# Velocity P-wave (km/s) = 5.89764 6.47293 6.19197
#
# Compressibility (1/GPa) = 0.02298735
#
# Stress axis : x y z
#
# Youngs Moduli (GPa) = 59.51110 78.14120 98.58275
#
# Poissons Ratio (x) = 0.21982 0.18637
# Poissons Ratio (y) = 0.16741 0.36231
# Poissons Ratio (z) = 0.11250 0.28718
#
# Static dielectric constant tensor:
#      x y z
#    x 3.552580 0.000000 -0.047580 
#    y 0.000000 3.885630 0.000000 
#    z -0.047580 0.000000 4.048660 
# 
# 
# High freq. dielectric constant tensor:
#      x y z
#    x 1.773110 0.000000 -0.003340 
#    y 0.000000 1.798750 0.000000 
#    z -0.003340 0.000000 1.814060 
# 
# From -- ./inp_files/48582.got.cif
#   From: 2010.03.12/outbox.cif.g09.slc.cpg/sg14_25_cif.got.tgz:48582.got - 2010.03.31 13:35:05.
