data_PCOD8125176
_publ_section_title
;
Structure prediction by ZEFSAII (Michael W. Deem and Ramdas Pophale) SiO2 
 PCOD8125176
Probable space group: P 21/C
;
_chemical_formula_sum "Si O2"
_cell_formula_units_Z 28
_cell_length_a 15.483866
_cell_length_b 16.823253
_cell_length_c 12.750021
_cell_angle_alpha 90.000000
_cell_angle_beta 153.131421
_cell_angle_gamma 90.000000
_cell_volume 1501.019808
_symmetry_space_group_name_H-M "P 21/C"
_symmetry_group_IT_number 14
_symmetry_cell_setting 'monoclinic'
loop_
_space_group_symop_operation_xyz
x,y,z
-x,1/2+y,1/2-z
-x,-y,-z
x,1/2-y,1/2+z
loop_
_atom_site_type_symbol
_atom_site_label
_atom_site_fract_x
_atom_site_fract_y
_atom_site_fract_z
Si Si1 0.526838 0.777800 0.463986
Si Si2 0.724536 0.513192 0.865432
Si Si3 0.616991 0.900531 0.040599
Si Si4 0.138315 0.291885 0.528825
Si Si5 0.232904 0.335391 0.959273
Si Si6 0.025344 0.117852 0.713630
Si Si7 0.099231 0.726522 0.529991
O O1 0.533047 0.683008 0.488558
O O2 0.587409 0.800658 0.411205
O O3 0.313438 0.808209 0.257000
O O4 0.673874 0.819858 0.703712
O O5 0.548171 0.453854 0.688784
O O6 0.719160 0.555432 0.747329
O O7 0.717284 0.575574 0.952449
O O8 0.922484 0.465870 0.087932
O O9 0.767676 0.884122 0.113457
O O10 0.197162 0.217150 0.522624
O O11 0.057373 0.364074 0.371425
O O12 0.970307 0.264036 0.425595
O O13 0.041035 0.334741 0.681207
O O14 0.901905 0.187611 0.526740
#
# Coordination Sequence:
#
# PCOD8125176 Si02
#       7
#     4   4   4   4   4   4   4
#     4  11  20  38  60  86 122 155 201 246 290 350
#     4  11  23  37  60  93 122 153 189 252 307 348
#     4  11  21  37  59  91 123 150 189 250 304 351
#     4  10  20  37  60  86 116 155 204 239 284 355
#     4  10  21  39  58  87 123 152 203 244 287 361
#     4  11  21  38  60  87 123 157 193 244 302 352
#     4  10  21  36  60  86 114 160 199 241 290 352
#
# _framework density 18.653984000000001
#
# number of rings (size 3 to 8) (size 9 to 14) (size 15 to 20)
#    0.000    1.429    7.143    0.429    0.000    4.571 
#    0.000    2.857    0.000    5.143    0.000    0.000 
#    0.000    0.000    0.000    0.000    0.000    0.000 
#
# Total GULP energy -347266.278273 kJ/mol
# GULP energy per Si atom -12402.367081 kJ/mol
# Density = 1.861153 g / cm^3
# Si number density = 18.653984 Si / 1000 Ang^3
#
#
#
# Elastic Constant Matrix: (Units=GPa)
#
#
# Indices 1 2 3 4 5 6 
#
# 1 113.4430 12.6029 60.1413 0.0000 2.3986 0.0000
# 2 12.6029 56.9922 23.8884 0.0000 -11.5019 0.0000
# 3 60.1413 23.8884 93.9665 0.0000 10.3322 0.0000
# 4 0.0000 0.0000 0.0000 31.9413 0.0000 -1.2860
# 5 2.3986 -11.5019 10.3322 0.0000 32.4670 0.0000
# 6 0.0000 0.0000 0.0000 -1.2860 0.0000 27.2410
#
#
#
# Elastic Compliance Matrix: (Units=1/GPa)
#
#
# Indices 1 2 3 4 5 6 
#
# 1 0.013530 0.001393 -0.009283 0.000000 0.002448 0.000000
# 2 0.001393 0.022591 -0.007776 0.000000 0.010375 0.000000
# 3 -0.009283 -0.007776 0.019469 0.000000 -0.008264 0.000000
# 4 0.000000 0.000000 0.000000 0.031367 0.000000 0.001481
# 5 0.002448 0.010375 -0.008264 0.000000 0.036925 0.000000
# 6 0.000000 0.000000 0.000000 0.001481 0.000000 0.036779
#
#
# Mechanical properties :
#
#
# Convention : Reuss Voigt Hill
#
# Bulk Modulus (GPa) = 41.22157 50.85189 46.03673
# Shear Modulus (GPa) = 24.99028 29.51445 27.25237
#
# Velocity S-wave (km/s) = 3.66413 3.98201 3.82637
# Velocity P-wave (km/s) = 6.32828 6.96144 6.65240
#
# Compressibility (1/GPa) = 0.02425914
#
# Stress axis : x y z
#
# Youngs Moduli (GPa) = 73.91168 44.26517 51.36440
#
# Poissons Ratio (x) = -0.06166 0.47680
# Poissons Ratio (y) = -0.10296 0.39939
# Poissons Ratio (z) = 0.68610 0.34419
#
# Static dielectric constant tensor:
#      x y z
#    x 3.443140 0.000000 -0.095520 
#    y 0.000000 3.292200 0.000000 
#    z -0.095520 0.000000 3.499430 
# 
# 
# High freq. dielectric constant tensor:
#      x y z
#    x 1.728130 0.000000 -0.000490 
#    y 0.000000 1.703090 0.000000 
#    z -0.000490 0.000000 1.729660 
# 
# From -- ./inp_files/32934.got.cif
#   From: 2010.03.12/outbox.cif.g09.slc.cpg/sg14_17_cif.got.tgz:32934.got - 2010.03.31 13:35:05.
