data_PCOD8125754
_publ_section_title
;
Structure prediction by ZEFSAII (Michael W. Deem and Ramdas Pophale) SiO2 
 PCOD8125754
Probable space group: P 21/C
;
_chemical_formula_sum "Si O2"
_cell_formula_units_Z 32
_cell_length_a 11.252686
_cell_length_b 11.614261
_cell_length_c 23.228999
_cell_angle_alpha 90.000000
_cell_angle_beta 150.020216
_cell_angle_gamma 90.000000
_cell_volume 1516.990157
_symmetry_space_group_name_H-M "P 21/C"
_symmetry_group_IT_number 14
_symmetry_cell_setting 'monoclinic'
loop_
_space_group_symop_operation_xyz
x,y,z
-x,1/2+y,1/2-z
-x,-y,-z
x,1/2-y,1/2+z
loop_
_atom_site_type_symbol
_atom_site_label
_atom_site_fract_x
_atom_site_fract_y
_atom_site_fract_z
Si Si1 0.404496 0.502174 0.568783
Si Si2 0.740894 0.853173 0.405789
Si Si3 0.243005 0.272278 0.472187
Si Si4 0.558484 0.690816 0.707282
Si Si5 0.901092 0.391135 0.763894
Si Si6 0.953086 0.381964 0.130616
Si Si7 0.655048 0.185279 0.054987
Si Si8 0.227690 0.895718 0.565643
O O1 0.194951 0.405929 0.472775
O O2 0.380839 0.583945 0.615393
O O3 0.638923 0.423905 0.676414
O O4 0.421707 0.581029 0.518806
O O5 0.656306 0.797820 0.430324
O O6 0.614644 0.794047 0.298241
O O7 0.029555 0.840922 0.525102
O O8 0.662108 0.986000 0.364936
O O9 0.435717 0.274077 0.501966
O O10 0.007438 0.212023 0.347690
O O11 0.435908 0.808757 0.638228
O O12 0.788259 0.679172 0.762108
O O13 0.879433 0.351810 0.688656
O O14 0.058882 0.507953 0.831949
O O15 0.743051 0.293963 0.055847
O O16 0.914493 0.432650 0.051145
#
# Coordination Sequence:
#
# PCOD8125754 Si02
#       8
#     4   4   4   4   4   4   4   4
#     4  10  23  43  63  91 126 168 211 253 320 375
#     4  10  23  39  64  93 123 162 215 255 315 376
#     4  11  23  40  61  95 125 166 210 256 313 380
#     4  10  22  40  69  85 122 173 204 259 318 365
#     4  10  22  37  62  86 124 168 201 251 316 363
#     4  10  21  41  61  94 119 163 215 250 313 376
#     4  11  24  40  66  91 132 164 206 261 313 382
#     4  10  20  42  65  87 124 164 209 265 307 373
#
# _framework density 21.094403
#
# number of rings (size 3 to 8) (size 9 to 14) (size 15 to 20)
#    0.000    1.750    2.500    1.500    8.750    1.500 
#    2.250    1.875    0.000    0.000    0.000    0.000 
#    0.000    0.000    0.000    0.000    0.000    0.000 
#
# Total GULP energy -396555.992708 kJ/mol
# GULP energy per Si atom -12392.374772 kJ/mol
# Density = 2.104639 g / cm^3
# Si number density = 21.094403 Si / 1000 Ang^3
#
#
#
# Elastic Constant Matrix: (Units=GPa)
#
#
# Indices 1 2 3 4 5 6 
#
# 1 65.2145 34.4840 29.9440 0.0000 -15.1312 0.0000
# 2 34.4840 84.9016 40.4611 0.0000 -6.2784 0.0000
# 3 29.9440 40.4611 87.8084 0.0000 -22.0965 0.0000
# 4 0.0000 0.0000 0.0000 45.5963 0.0000 -4.0603
# 5 -15.1312 -6.2784 -22.0965 0.0000 23.9931 0.0000
# 6 0.0000 0.0000 0.0000 -4.0603 0.0000 33.0977
#
#
#
# Elastic Compliance Matrix: (Units=1/GPa)
#
#
# Indices 1 2 3 4 5 6 
#
# 1 0.022585 -0.007696 -0.001404 0.000000 0.010937 0.000000
# 2 -0.007696 0.017905 -0.007379 0.000000 -0.006963 0.000000
# 3 -0.001404 -0.007379 0.018950 0.000000 0.014636 0.000000
# 4 0.000000 0.000000 0.000000 0.022174 0.000000 0.002720
# 5 0.010937 -0.006963 0.014636 0.000000 0.060233 0.000000
# 6 0.000000 0.000000 0.000000 0.002720 0.000000 0.030547
#
#
# Mechanical properties :
#
#
# Convention : Reuss Voigt Hill
#
# Bulk Modulus (GPa) = 37.75672 49.74475 43.75073
# Shear Modulus (GPa) = 23.34492 29.40646 26.37569
#
# Velocity S-wave (km/s) = 3.33030 3.73774 3.53989
# Velocity P-wave (km/s) = 5.72063 6.50082 6.12317
#
# Compressibility (1/GPa) = 0.02648535
#
# Stress axis : x y z
#
# Youngs Moduli (GPa) = 44.27629 55.84887 52.77007
#
# Poissons Ratio (x) = 0.42980 0.07407
# Poissons Ratio (y) = 0.34074 0.38936
# Poissons Ratio (z) = 0.06215 0.41208
#
# Static dielectric constant tensor:
#      x y z
#    x 3.516290 0.000000 -0.295380 
#    y 0.000000 3.986890 0.000000 
#    z -0.295380 0.000000 3.924350 
# 
# 
# High freq. dielectric constant tensor:
#      x y z
#    x 1.799020 0.000000 -0.030330 
#    y 0.000000 1.835980 0.000000 
#    z -0.030330 0.000000 1.826910 
# 
# From -- ./inp_files/73315.got.cif
#   From: 2010.03.12/outbox.cif.g09.slc.cpg/sg14_37_cif.got.tgz:73315.got - 2010.03.31 13:35:05.
