data_PCOD8125618
_publ_section_title
;
Structure prediction by ZEFSAII (Michael W. Deem and Ramdas Pophale) SiO2 
 PCOD8125618
Probable space group: P 21/C
;
_chemical_formula_sum "Si O2"
_cell_formula_units_Z 20
_cell_length_a 8.444378
_cell_length_b 8.300828
_cell_length_c 25.049760
_cell_angle_alpha 90.000000
_cell_angle_beta 148.204278
_cell_angle_gamma 90.000000
_cell_volume 925.155067
_symmetry_space_group_name_H-M "P 21/C"
_symmetry_group_IT_number 14
_symmetry_cell_setting 'monoclinic'
loop_
_space_group_symop_operation_xyz
x,y,z
-x,1/2+y,1/2-z
-x,-y,-z
x,1/2-y,1/2+z
loop_
_atom_site_type_symbol
_atom_site_label
_atom_site_fract_x
_atom_site_fract_y
_atom_site_fract_z
Si Si1 0.335963 0.063989 0.758445
Si Si2 0.520537 0.240211 0.913626
Si Si3 0.298094 0.421444 0.062874
Si Si4 0.220568 0.300446 0.631891
Si Si5 0.245748 0.132633 0.431059
O O1 0.359004 0.123835 0.825686
O O2 0.272885 0.217108 0.703508
O O3 0.646163 0.980269 0.828373
O O4 0.072687 0.934422 0.679204
O O5 0.478186 0.428154 0.883425
O O6 0.347873 0.220990 0.921280
O O7 0.867921 0.190980 0.018404
O O8 0.406830 0.296215 0.139076
O O9 0.228566 0.319385 0.988749
O O10 0.000000 0.500000 0.000000
O O11 0.500000 0.000000 0.500000
#
# Coordination Sequence:
#
# PCOD8125618 Si02
#       5
#     4   4   4   4   4
#     4  12  23  39  70  99 127 176 225 267 331 397
#     4  10  22  41  64  92 135 166 218 279 324 390
#     4   9  17  38  64  88 125 174 209 263 323 385
#     4  11  23  40  66  97 129 171 223 273 323 400
#     4  10  20  40  65  88 130 175 214 260 335 388
#
# _framework density 21.617998
#
# number of rings (size 3 to 8) (size 9 to 14) (size 15 to 20)
#    0.000    1.600    6.000    1.800    2.800    3.200 
#    0.000    1.000    0.000    0.000    0.000    0.000 
#    0.000    0.000    0.000    0.000    0.000    0.000 
#
# Total GULP energy -247897.340114 kJ/mol
# GULP energy per Si atom -12394.867006 kJ/mol
# Density = 2.156879 g / cm^3
# Si number density = 21.617998 Si / 1000 Ang^3
#
#
#
# Elastic Constant Matrix: (Units=GPa)
#
#
# Indices 1 2 3 4 5 6 
#
# 1 115.3820 4.2736 34.3545 0.0000 -16.3480 0.0000
# 2 4.2736 23.5129 18.8283 0.0000 -0.1771 0.0000
# 3 34.3545 18.8283 95.9612 0.0000 -14.1776 0.0000
# 4 0.0000 0.0000 0.0000 31.3897 0.0000 -10.6504
# 5 -16.3480 -0.1771 -14.1776 0.0000 20.9647 0.0000
# 6 0.0000 0.0000 0.0000 -10.6504 0.0000 39.6757
#
#
#
# Elastic Compliance Matrix: (Units=1/GPa)
#
#
# Indices 1 2 3 4 5 6 
#
# 1 0.010384 0.000486 -0.002906 0.000000 0.006136 0.000000
# 2 0.000486 0.051413 -0.011267 0.000000 -0.006806 0.000000
# 3 -0.002906 -0.011267 0.014802 0.000000 0.007649 0.000000
# 4 0.000000 0.000000 0.000000 0.035050 0.000000 0.009409
# 5 0.006136 -0.006806 0.007649 0.000000 0.057599 0.000000
# 6 0.000000 0.000000 0.000000 0.009409 0.000000 0.027730
#
#
# Mechanical properties :
#
#
# Convention : Reuss Voigt Hill
#
# Bulk Modulus (GPa) = 20.31541 38.86322 29.58932
# Shear Modulus (GPa) = 20.76766 30.23267 25.50016
#
# Velocity S-wave (km/s) = 3.10282 3.74370 3.43823
# Velocity P-wave (km/s) = 4.71747 6.05833 5.42945
#
# Compressibility (1/GPa) = 0.04922373
#
# Stress axis : x y z
#
# Youngs Moduli (GPa) = 96.30657 19.45049 67.55827
#
# Poissons Ratio (x) = -0.00946 0.19634
# Poissons Ratio (y) = -0.04682 0.76119
# Poissons Ratio (z) = 0.27989 0.21915
#
# Static dielectric constant tensor:
#      x y z
#    x 5.132940 0.000000 0.198470 
#    y 0.000000 3.931870 0.000000 
#    z 0.198470 0.000000 5.458310 
# 
# 
# High freq. dielectric constant tensor:
#      x y z
#    x 1.861470 0.000000 -0.015340 
#    y 0.000000 1.814830 0.000000 
#    z -0.015340 0.000000 1.846820 
# 
# From -- ./inp_files/23035.got.cif
#   From: 2010.03.12/outbox.cif.g09.slc.cpg/sg14_12_cif.got.tgz:23035.got - 2010.03.31 13:35:05.
