data_PCOD8125474
_publ_section_title
;
Structure prediction by ZEFSAII (Michael W. Deem and Ramdas Pophale) SiO2 
 PCOD8125474
Probable space group: P 21/C
;
_chemical_formula_sum "Si O2"
_cell_formula_units_Z 32
_cell_length_a 8.731616
_cell_length_b 14.014117
_cell_length_c 23.597927
_cell_angle_alpha 90.000000
_cell_angle_beta 150.532057
_cell_angle_gamma 90.000000
_cell_volume 1420.506691
_symmetry_space_group_name_H-M "P 21/C"
_symmetry_group_IT_number 14
_symmetry_cell_setting 'monoclinic'
loop_
_space_group_symop_operation_xyz
x,y,z
-x,1/2+y,1/2-z
-x,-y,-z
x,1/2-y,1/2+z
loop_
_atom_site_type_symbol
_atom_site_label
_atom_site_fract_x
_atom_site_fract_y
_atom_site_fract_z
Si Si1 0.101223 0.740729 0.027775
Si Si2 0.168490 0.262258 0.239252
Si Si3 0.743018 0.926861 0.872828
Si Si4 0.232645 0.314807 0.879034
Si Si5 0.610569 0.353308 0.534110
Si Si6 0.365651 0.497263 0.546200
Si Si7 0.894410 0.106870 0.370812
Si Si8 0.142280 0.600681 0.939804
O O1 0.465967 0.760576 0.155079
O O2 0.973945 0.682050 0.041101
O O3 0.034668 0.677245 0.951612
O O4 0.915536 0.839037 0.959910
O O5 0.093940 0.243016 0.281389
O O6 0.977732 0.174831 0.147407
O O7 0.027738 0.364402 0.173118
O O8 0.480535 0.897175 0.743231
O O9 0.557172 0.985820 0.862597
O O10 0.985722 0.998206 0.919977
O O11 0.957075 0.359309 0.826809
O O12 0.416883 0.242400 0.978888
O O13 0.480457 0.397873 0.942305
O O14 0.527100 0.415286 0.561776
O O15 0.517364 0.403228 0.444089
O O16 0.047412 0.003865 0.429819
#
# Coordination Sequence:
#
# PCOD8125474 Si02
#       8
#     4   4   4   4   4   4   4   4
#     4  11  23  43  64  90 133 168 207 259 322 380
#     4  10  21  41  66  86 128 171 209 249 327 385
#     4  11  24  39  62  95 126 164 207 256 326 370
#     4  10  22  40  63  89 125 167 208 263 319 371
#     4  10  20  39  62  90 122 162 209 256 322 365
#     4  10  21  37  61  90 128 150 204 269 301 374
#     4  12  24  40  66  95 128 164 217 261 315 379
#     4  10  23  41  66  90 123 171 214 256 316 380
#
# _framework density 22.527173999999999
#
# number of rings (size 3 to 8) (size 9 to 14) (size 15 to 20)
#    0.000    1.500    0.000    6.000    5.250    1.000 
#    2.250    0.000    8.250    0.000    0.000    0.000 
#    0.000    0.000    0.000    0.000    0.000    0.000 
#
# Total GULP energy -396592.280989 kJ/mol
# GULP energy per Si atom -12393.508781 kJ/mol
# Density = 2.247590 g / cm^3
# Si number density = 22.527174 Si / 1000 Ang^3
#
#
#
# Elastic Constant Matrix: (Units=GPa)
#
#
# Indices 1 2 3 4 5 6 
#
# 1 73.8802 11.6088 -1.5494 0.0000 6.6222 0.0000
# 2 11.6088 70.0080 16.3490 0.0000 12.3791 0.0000
# 3 -1.5494 16.3490 64.3526 0.0000 4.7496 0.0000
# 4 0.0000 0.0000 0.0000 29.9632 0.0000 1.0958
# 5 6.6222 12.3791 4.7496 0.0000 25.9573 0.0000
# 6 0.0000 0.0000 0.0000 1.0958 0.0000 35.4623
#
#
#
# Elastic Compliance Matrix: (Units=1/GPa)
#
#
# Indices 1 2 3 4 5 6 
#
# 1 0.014140 -0.002102 0.001081 0.000000 -0.002803 0.000000
# 2 -0.002102 0.016711 -0.003799 0.000000 -0.006738 0.000000
# 3 0.001081 -0.003799 0.016642 0.000000 -0.001509 0.000000
# 4 0.000000 0.000000 0.000000 0.033412 0.000000 -0.001032
# 5 -0.002803 -0.006738 -0.001509 0.000000 0.042730 0.000000
# 6 0.000000 0.000000 0.000000 -0.001032 0.000000 0.028231
#
#
# Mechanical properties :
#
#
# Convention : Reuss Voigt Hill
#
# Bulk Modulus (GPa) = 26.41696 29.00639 27.71167
# Shear Modulus (GPa) = 28.71557 30.39871 29.55714
#
# Velocity S-wave (km/s) = 3.57418 3.67744 3.62618
# Velocity P-wave (km/s) = 5.36518 5.56197 5.46446
#
# Compressibility (1/GPa) = 0.03785446
#
# Stress axis : x y z
#
# Youngs Moduli (GPa) = 70.72362 59.84012 60.08923
#
# Poissons Ratio (x) = 0.12575 -0.06497
# Poissons Ratio (y) = 0.14863 0.22827
# Poissons Ratio (z) = -0.07647 0.22732
#
# Static dielectric constant tensor:
#      x y z
#    x 4.085210 0.000000 -0.012090 
#    y 0.000000 4.050870 0.000000 
#    z -0.012090 0.000000 3.960400 
# 
# 
# High freq. dielectric constant tensor:
#      x y z
#    x 1.889970 0.000000 -0.001540 
#    y 0.000000 1.888920 0.000000 
#    z -0.001540 0.000000 1.877630 
# 
# From -- ./inp_files/34167.got.cif
#   From: 2010.03.12/outbox.cif.g09.slc.cpg/sg14_18_cif.got.tgz:34167.got - 2010.03.31 13:35:05.
