data_PCOD8125780
_publ_section_title
;
Structure prediction by ZEFSAII (Michael W. Deem and Ramdas Pophale) SiO2 
 PCOD8125780
Probable space group: P 21/C
;
_chemical_formula_sum "Si O2"
_cell_formula_units_Z 32
_cell_length_a 21.204432
_cell_length_b 14.869920
_cell_length_c 14.134081
_cell_angle_alpha 90.000000
_cell_angle_beta 160.244442
_cell_angle_gamma 90.000000
_cell_volume 1506.363732
_symmetry_space_group_name_H-M "P 21/C"
_symmetry_group_IT_number 14
_symmetry_cell_setting 'monoclinic'
loop_
_space_group_symop_operation_xyz
x,y,z
-x,1/2+y,1/2-z
-x,-y,-z
x,1/2-y,1/2+z
loop_
_atom_site_type_symbol
_atom_site_label
_atom_site_fract_x
_atom_site_fract_y
_atom_site_fract_z
Si Si1 0.446795 0.627534 0.237247
Si Si2 0.542737 0.006679 0.709680
Si Si3 0.608002 0.846262 0.161169
Si Si4 0.258461 0.687623 0.442763
Si Si5 0.958184 0.769166 0.154600
Si Si6 0.794889 0.157572 0.344060
Si Si7 0.202878 0.459578 0.604011
Si Si8 0.817110 0.488602 0.019898
O O1 0.541005 0.564015 0.292400
O O2 0.596714 0.635870 0.533148
O O3 0.395194 0.726404 0.124945
O O4 0.255315 0.585428 0.007382
O O5 0.621704 0.104097 0.848803
O O6 0.328631 0.018080 0.372345
O O7 0.669225 0.961731 0.808048
O O8 0.761973 0.773923 0.400796
O O9 0.661717 0.935012 0.295644
O O10 0.414329 0.809151 0.928081
O O11 0.082454 0.708686 0.260377
O O12 0.169960 0.660341 0.217573
O O13 0.065083 0.775079 0.405398
O O14 0.906014 0.865574 0.037095
O O15 0.829775 0.057177 0.433635
O O16 0.023103 0.526955 0.339919
#
# Coordination Sequence:
#
# PCOD8125780 Si02
#       8
#     4   4   4   4   4   4   4   4
#     4  11  23  42  64  98 132 169 228 276 324 407
#     4  11  25  41  69  98 132 184 220 270 344 396
#     4  11  21  40  71  89 131 175 220 276 337 391
#     4  12  23  44  67  96 136 177 224 274 337 399
#     4  11  24  44  64 100 132 177 223 276 331 394
#     4  10  23  42  65  94 134 170 226 275 329 399
#     4  10  23  44  63  94 142 170 221 280 328 397
#     4  10  20  43  64  94 127 171 219 281 330 386
#
# _framework density 21.243210999999999
#
# number of rings (size 3 to 8) (size 9 to 14) (size 15 to 20)
#    0.000    1.250    3.750    4.500    1.750    4.500 
#    4.500    4.375    0.000    0.000    0.000    0.000 
#    0.000    0.000    0.000    0.000    0.000    0.000 
#
# Total GULP energy -396748.521431 kJ/mol
# GULP energy per Si atom -12398.391295 kJ/mol
# Density = 2.119486 g / cm^3
# Si number density = 21.243211 Si / 1000 Ang^3
#
#
#
# Elastic Constant Matrix: (Units=GPa)
#
#
# Indices 1 2 3 4 5 6 
#
# 1 67.7742 11.9217 20.7682 0.0000 -21.6346 0.0000
# 2 11.9217 70.0785 25.0417 0.0000 -0.6291 0.0000
# 3 20.7682 25.0417 155.2200 0.0000 -8.3848 0.0000
# 4 0.0000 0.0000 0.0000 26.2784 0.0000 9.5444
# 5 -21.6346 -0.6291 -8.3848 0.0000 22.9516 0.0000
# 6 0.0000 0.0000 0.0000 9.5444 0.0000 25.5858
#
#
#
# Elastic Compliance Matrix: (Units=1/GPa)
#
#
# Indices 1 2 3 4 5 6 
#
# 1 0.022221 -0.003107 -0.001372 0.000000 0.020359 0.000000
# 2 -0.003107 0.015582 -0.002278 0.000000 -0.003334 0.000000
# 3 -0.001372 -0.002278 0.007060 0.000000 0.001223 0.000000
# 4 0.000000 0.000000 0.000000 0.044018 0.000000 -0.016420
# 5 0.020359 -0.003334 0.001223 0.000000 0.063117 0.000000
# 6 0.000000 0.000000 0.000000 -0.016420 0.000000 0.045209
#
#
# Mechanical properties :
#
#
# Convention : Reuss Voigt Hill
#
# Bulk Modulus (GPa) = 31.89985 45.39287 38.64636
# Shear Modulus (GPa) = 22.60688 30.65256 26.62972
#
# Velocity S-wave (km/s) = 3.26574 3.80272 3.54441
# Velocity P-wave (km/s) = 5.41010 6.37930 5.91458
#
# Compressibility (1/GPa) = 0.03134811
#
# Stress axis : x y z
#
# Youngs Moduli (GPa) = 45.00260 64.17456 141.64933
#
# Poissons Ratio (x) = 0.19940 0.19435
# Poissons Ratio (y) = 0.13983 0.32272
# Poissons Ratio (z) = 0.06175 0.14621
#
# Static dielectric constant tensor:
#      x y z
#    x 3.674880 0.000000 -0.076320 
#    y 0.000000 3.898100 0.000000 
#    z -0.076320 0.000000 4.236800 
# 
# 
# High freq. dielectric constant tensor:
#      x y z
#    x 1.817620 0.000000 -0.003450 
#    y 0.000000 1.830080 0.000000 
#    z -0.003450 0.000000 1.854140 
# 
# From -- ./inp_files/50724.got.cif
#   From: 2010.03.12/outbox.cif.g09.slc.cpg/sg14_26_cif.got.tgz:50724.got - 2010.03.31 13:35:05.
