data_PCOD8125876
_publ_section_title
;
Structure prediction by ZEFSAII (Michael W. Deem and Ramdas Pophale) SiO2 
 PCOD8125876
Probable space group: P 21/C
;
_chemical_formula_sum "Si O2"
_cell_formula_units_Z 32
_cell_length_a 20.290749
_cell_length_b 8.887051
_cell_length_c 9.871400
_cell_angle_alpha 90.000000
_cell_angle_beta 74.875812
_cell_angle_gamma 90.000000
_cell_volume 1718.402744
_symmetry_space_group_name_H-M "P 21/C"
_symmetry_group_IT_number 14
_symmetry_cell_setting 'monoclinic'
loop_
_space_group_symop_operation_xyz
x,y,z
-x,1/2+y,1/2-z
-x,-y,-z
x,1/2-y,1/2+z
loop_
_atom_site_type_symbol
_atom_site_label
_atom_site_fract_x
_atom_site_fract_y
_atom_site_fract_z
Si Si1 0.681506 0.364561 0.775444
Si Si2 0.446304 0.362038 0.884977
Si Si3 0.178422 0.569658 0.972238
Si Si4 0.829909 0.201131 0.243230
Si Si5 0.329972 0.589016 0.914480
Si Si6 0.040795 0.419739 0.094278
Si Si7 0.431411 0.085496 0.699651
Si Si8 0.023050 0.597938 0.366174
O O1 0.763347 0.389121 0.724778
O O2 0.660247 0.218611 0.701598
O O3 0.644199 0.514297 0.739759
O O4 0.658375 0.337373 0.943571
O O5 0.384794 0.460203 0.856853
O O6 0.446881 0.202143 0.810305
O O7 0.516851 0.446138 0.817722
O O8 0.437472 0.333433 0.050391
O O9 0.170163 0.632862 0.823774
O O10 0.255543 0.508531 0.945213
O O11 0.168763 0.702210 0.092478
O O12 0.122691 0.439526 0.029727
O O13 0.897420 0.124813 0.150599
O O14 0.011271 0.502012 0.239873
O O15 0.023586 0.245509 0.115085
O O16 0.000000 0.500000 0.000000
O O17 0.000000 0.500000 0.500000
#
# Coordination Sequence:
#
# PCOD8125876 Si02
#       8
#     4   4   4   4   4   4   4   4
#     4   9  18  34  55  79 106 141 180 217 262 316
#     4  10  21  36  55  80 111 143 178 224 268 317
#     4   9  18  33  55  78 107 143 177 225 268 323
#     4   9  18  33  55  77 106 140 179 219 268 323
#     4   9  18  34  55  79 109 140 180 219 266 317
#     4  11  21  36  57  79 109 142 183 228 278 332
#     4  10  21  36  55  81 111 143 179 223 268 317
#     4  11  23  37  55  80 107 142 183 230 279 331
#
# _framework density 18.621943999999999
#
# number of rings (size 3 to 8) (size 9 to 14) (size 15 to 20)
#    0.000    2.250    1.250    1.500    1.750    1.500 
#    2.250    0.000    2.750    0.000    0.000    0.000 
#    0.000    0.000    0.000    0.000    0.000    0.000 
#
# Total GULP energy -396645.886631 kJ/mol
# GULP energy per Si atom -12395.183957 kJ/mol
# Density = 1.857956 g / cm^3
# Si number density = 18.621944 Si / 1000 Ang^3
#
#
#
# Elastic Constant Matrix: (Units=GPa)
#
#
# Indices 1 2 3 4 5 6 
#
# 1 97.8227 42.0867 38.1505 0.0000 -3.2736 0.0000
# 2 42.0867 95.2692 38.4366 0.0000 1.6581 0.0000
# 3 38.1505 38.4366 64.3238 0.0000 3.9687 0.0000
# 4 0.0000 0.0000 0.0000 32.1898 0.0000 3.4787
# 5 -3.2736 1.6581 3.9687 0.0000 26.1586 0.0000
# 6 0.0000 0.0000 0.0000 3.4787 0.0000 28.2817
#
#
#
# Elastic Compliance Matrix: (Units=1/GPa)
#
#
# Indices 1 2 3 4 5 6 
#
# 1 0.014512 -0.003842 -0.006499 0.000000 0.003046 0.000000
# 2 -0.003842 0.014852 -0.006570 0.000000 -0.000425 0.000000
# 3 -0.006499 -0.006570 0.023572 0.000000 -0.003973 0.000000
# 4 0.000000 0.000000 0.000000 0.031484 0.000000 -0.003873
# 5 0.003046 -0.000425 -0.003973 0.000000 0.039239 0.000000
# 6 0.000000 0.000000 0.000000 -0.003873 0.000000 0.035835
#
#
# Mechanical properties :
#
#
# Convention : Reuss Voigt Hill
#
# Bulk Modulus (GPa) = 52.31790 54.97369 53.64579
# Shear Modulus (GPa) = 25.03910 26.57549 25.80729
#
# Velocity S-wave (km/s) = 3.67086 3.78180 3.72674
# Velocity P-wave (km/s) = 6.79137 6.97527 6.88393
#
# Compressibility (1/GPa) = 0.01911392
#
# Stress axis : x y z
#
# Youngs Moduli (GPa) = 68.90794 67.33210 42.42306
#
# Poissons Ratio (x) = 0.25867 0.27573
# Poissons Ratio (y) = 0.26473 0.27871
# Poissons Ratio (z) = 0.44786 0.44236
#
# Static dielectric constant tensor:
#      x y z
#    x 7.081160 0.000000 1.668450 
#    y 0.000000 3.368020 0.000000 
#    z 1.668450 0.000000 4.475790 
# 
# 
# High freq. dielectric constant tensor:
#      x y z
#    x 1.745270 0.000000 0.002220 
#    y 0.000000 1.686170 0.000000 
#    z 0.002220 0.000000 1.731650 
# 
# From -- ./inp_files/18603.got.cif
#   From: 2010.03.12/outbox.cif.g09.slc.cpg/sg14_10_cif.got.tgz:18603.got - 2010.03.31 13:35:05.
