data_PCOD8125431
_publ_section_title
;
Structure prediction by ZEFSAII (Michael W. Deem and Ramdas Pophale) SiO2 
 PCOD8125431
Probable space group: P 21/C
;
_chemical_formula_sum "Si O2"
_cell_formula_units_Z 32
_cell_length_a 21.696020
_cell_length_b 11.469063
_cell_length_c 20.166688
_cell_angle_alpha 90.000000
_cell_angle_beta 19.423389
_cell_angle_gamma 90.000000
_cell_volume 1668.762392
_symmetry_space_group_name_H-M "P 21/C"
_symmetry_group_IT_number 14
_symmetry_cell_setting 'monoclinic'
loop_
_space_group_symop_operation_xyz
x,y,z
-x,1/2+y,1/2-z
-x,-y,-z
x,1/2-y,1/2+z
loop_
_atom_site_type_symbol
_atom_site_label
_atom_site_fract_x
_atom_site_fract_y
_atom_site_fract_z
Si Si1 0.488816 0.968229 0.689756
Si Si2 0.236109 0.262055 0.119816
Si Si3 0.660158 0.997400 0.785058
Si Si4 0.228989 0.744216 0.787060
Si Si5 0.453518 0.593000 0.733756
Si Si6 0.834083 0.765396 0.655121
Si Si7 0.465748 0.393807 0.083765
Si Si8 0.184644 0.702078 0.476688
O O1 0.637597 0.876050 0.511593
O O2 0.560035 0.018642 0.686282
O O3 0.486109 0.072465 0.639497
O O4 0.284273 0.910762 0.908569
O O5 0.212639 0.222956 0.219660
O O6 0.037208 0.287149 0.286415
O O7 0.346553 0.157261 0.971876
O O8 0.784386 0.882814 0.666117
O O9 0.780841 0.111109 0.678355
O O10 0.571960 0.003455 0.801273
O O11 0.500000 0.000000 0.000000
O O12 0.402979 0.782899 0.566475
O O13 0.226703 0.820432 0.856293
O O14 0.048506 0.763641 0.925817
O O15 0.283103 0.683424 0.905852
O O16 0.739780 0.653088 0.718528
O O17 0.500000 0.500000 0.000000
#
# Coordination Sequence:
#
# PCOD8125431 Si02
#       8
#     4   4   4   4   4   4   4   4
#     4  11  23  38  59  84 121 158 192 238 293 355
#     4  10  20  39  60  81 116 157 192 237 302 352
#     4  11  19  39  65  84 114 152 197 251 297 341
#     4  10  21  37  60  92 119 149 200 246 298 346
#     4  10  22  39  58  85 114 152 196 241 294 350
#     4  11  21  36  63  91 116 153 198 255 295 340
#     4  12  21  37  58  87 120 155 197 237 286 353
#     4   9  20  39  60  81 114 158 193 234 295 360
#
# _framework density 19.175886999999999
#
# number of rings (size 3 to 8) (size 9 to 14) (size 15 to 20)
#    0.000    1.500    5.000    1.125    0.000    4.500 
#    0.000    1.250    0.000    0.000    0.000    0.000 
#    0.000    0.000    0.000    0.000    0.000    0.000 
#
# Total GULP energy -396761.929416 kJ/mol
# GULP energy per Si atom -12398.810294 kJ/mol
# Density = 1.913224 g / cm^3
# Si number density = 19.175887 Si / 1000 Ang^3
#
#
#
# Elastic Constant Matrix: (Units=GPa)
#
#
# Indices 1 2 3 4 5 6 
#
# 1 112.5686 46.0799 33.2263 0.0000 -14.8844 0.0000
# 2 46.0799 79.0936 18.3278 0.0000 -14.2681 0.0000
# 3 33.2263 18.3278 93.7539 0.0000 -30.2207 0.0000
# 4 0.0000 0.0000 0.0000 15.0664 0.0000 -2.0568
# 5 -14.8844 -14.2681 -30.2207 0.0000 29.0262 0.0000
# 6 0.0000 0.0000 0.0000 -2.0568 0.0000 34.0983
#
#
#
# Elastic Compliance Matrix: (Units=1/GPa)
#
#
# Indices 1 2 3 4 5 6 
#
# 1 0.012494 -0.006565 -0.003190 0.000000 -0.000142 0.000000
# 2 -0.006565 0.017361 0.000901 0.000000 0.006105 0.000000
# 3 -0.003190 0.000901 0.016912 0.000000 0.016415 0.000000
# 4 0.000000 0.000000 0.000000 0.066924 0.000000 0.004037
# 5 -0.000142 0.006105 0.016415 0.000000 0.054470 0.000000
# 6 0.000000 0.000000 0.000000 0.004037 0.000000 0.029571
#
#
# Mechanical properties :
#
#
# Convention : Reuss Voigt Hill
#
# Bulk Modulus (GPa) = 34.41469 53.40935 43.91202
# Shear Modulus (GPa) = 22.20979 28.15698 25.18339
#
# Velocity S-wave (km/s) = 3.40695 3.83607 3.62786
# Velocity P-wave (km/s) = 5.78465 6.89444 6.36379
#
# Compressibility (1/GPa) = 0.02905736
#
# Stress axis : x y z
#
# Youngs Moduli (GPa) = 80.03960 57.60113 59.13018
#
# Poissons Ratio (x) = 0.37817 0.18863
# Poissons Ratio (y) = 0.52548 -0.05327
# Poissons Ratio (z) = 0.25533 -0.05189
#
# Static dielectric constant tensor:
#      x y z
#    x 3.399040 0.000000 -0.242440 
#    y 0.000000 3.263550 0.000000 
#    z -0.242440 0.000000 3.572790 
# 
# 
# High freq. dielectric constant tensor:
#      x y z
#    x 1.732680 0.000000 -0.019680 
#    y 0.000000 1.747850 0.000000 
#    z -0.019680 0.000000 1.744450 
# 
# From -- ./inp_files/69909.got.cif
#   From: 2010.03.12/outbox.cif.g09.slc.cpg/sg14_35_cif.got.tgz:69909.got - 2010.03.31 13:35:05.
