data_PCOD8125699
_publ_section_title
;
Structure prediction by ZEFSAII (Michael W. Deem and Ramdas Pophale) SiO2 
 PCOD8125699
Probable space group: P 21/C
;
_chemical_formula_sum "Si O2"
_cell_formula_units_Z 32
_cell_length_a 14.482873
_cell_length_b 16.765781
_cell_length_c 17.536223
_cell_angle_alpha 90.000000
_cell_angle_beta 21.875302
_cell_angle_gamma 90.000000
_cell_volume 1586.511387
_symmetry_space_group_name_H-M "P 21/C"
_symmetry_group_IT_number 14
_symmetry_cell_setting 'monoclinic'
loop_
_space_group_symop_operation_xyz
x,y,z
-x,1/2+y,1/2-z
-x,-y,-z
x,1/2-y,1/2+z
loop_
_atom_site_type_symbol
_atom_site_label
_atom_site_fract_x
_atom_site_fract_y
_atom_site_fract_z
Si Si1 0.837375 0.581371 0.944136
Si Si2 0.423721 0.624914 0.376134
Si Si3 0.212993 0.308038 0.612742
Si Si4 0.419588 0.075500 0.514545
Si Si5 0.297813 0.778578 0.742941
Si Si6 0.825049 0.273079 0.324595
Si Si7 0.983942 0.811791 0.118508
Si Si8 0.301645 0.488361 0.585666
O O1 0.683909 0.612308 0.134297
O O2 0.684852 0.549007 0.988154
O O3 0.990563 0.655355 0.793043
O O4 0.028532 0.513047 0.825738
O O5 0.371748 0.542560 0.459849
O O6 0.418530 0.703089 0.437534
O O7 0.224574 0.641640 0.463480
O O8 0.460057 0.257741 0.399199
O O9 0.988808 0.304922 0.721469
O O10 0.092974 0.268577 0.779271
O O11 0.296045 0.397718 0.562707
O O12 0.656765 0.131077 0.318632
O O13 0.237115 0.124766 0.709954
O O14 0.500000 0.000000 0.500000
O O15 0.248589 0.724222 0.706646
O O16 0.051453 0.779699 0.982683
O O17 0.500000 0.500000 0.500000
#
# Coordination Sequence:
#
# PCOD8125699 Si02
#       8
#     4   4   4   4   4   4   4   4
#     4  11  21  43  63  88 128 171 204 255 321 371
#     4  10  20  41  66  84 126 170 203 250 328 369
#     4  10  21  40  59  87 130 156 206 263 305 374
#     4  11  23  40  62  93 128 165 210 260 311 376
#     4  11  22  39  66  94 119 163 212 258 313 380
#     4  10  21  38  62  89 122 160 205 266 314 367
#     4  10  20  42  65  90 123 168 207 262 317 372
#     4  11  24  39  61  94 125 164 206 259 313 376
#
# _framework density 20.17004
#
# number of rings (size 3 to 8) (size 9 to 14) (size 15 to 20)
#    0.000    1.500    6.250    1.500    1.750    5.000 
#    2.250    0.000    0.000    0.000    0.000    0.000 
#    0.000    0.000    0.000    0.000    0.000    0.000 
#
# Total GULP energy -396593.311070 kJ/mol
# GULP energy per Si atom -12393.540971 kJ/mol
# Density = 2.012413 g / cm^3
# Si number density = 20.170040 Si / 1000 Ang^3
#
#
#
# Elastic Constant Matrix: (Units=GPa)
#
#
# Indices 1 2 3 4 5 6 
#
# 1 95.1507 24.2281 35.2764 0.0000 5.6372 0.0000
# 2 24.2281 87.1615 12.3617 0.0000 -2.4380 0.0000
# 3 35.2764 12.3617 100.2599 0.0000 20.7411 0.0000
# 4 0.0000 0.0000 0.0000 24.9828 0.0000 -2.5158
# 5 5.6372 -2.4380 20.7411 0.0000 30.0558 0.0000
# 6 0.0000 0.0000 0.0000 -2.5158 0.0000 27.1655
#
#
#
# Elastic Compliance Matrix: (Units=1/GPa)
#
#
# Indices 1 2 3 4 5 6 
#
# 1 0.012802 -0.002957 -0.004192 0.000000 0.000252 0.000000
# 2 -0.002957 0.012494 -0.000962 0.000000 0.002232 0.000000
# 3 -0.004192 -0.000962 0.013323 0.000000 -0.008486 0.000000
# 4 0.000000 0.000000 0.000000 0.040404 0.000000 0.003742
# 5 0.000252 0.002232 -0.008486 0.000000 0.039261 0.000000
# 6 0.000000 0.000000 0.000000 0.003742 0.000000 0.037158
#
#
# Mechanical properties :
#
#
# Convention : Reuss Voigt Hill
#
# Bulk Modulus (GPa) = 44.64768 47.36718 46.00743
# Shear Modulus (GPa) = 27.91291 30.48789 29.20040
#
# Velocity S-wave (km/s) = 3.72409 3.89208 3.80901
# Velocity P-wave (km/s) = 6.37773 6.61306 6.49646
#
# Compressibility (1/GPa) = 0.02239758
#
# Stress axis : x y z
#
# Youngs Moduli (GPa) = 78.11456 80.04031 75.05810
#
# Poissons Ratio (x) = 0.23667 0.31463
# Poissons Ratio (y) = 0.23098 0.07219
# Poissons Ratio (z) = 0.32744 0.07698
#
# Static dielectric constant tensor:
#      x y z
#    x 3.739270 0.000000 -0.033110 
#    y 0.000000 3.603760 0.000000 
#    z -0.033110 0.000000 3.928470 
# 
# 
# High freq. dielectric constant tensor:
#      x y z
#    x 1.783370 0.000000 -0.001850 
#    y 0.000000 1.775900 0.000000 
#    z -0.001850 0.000000 1.792060 
# 
# From -- ./inp_files/59715.got.cif
#   From: 2010.03.12/outbox.cif.g09.slc.cpg/sg14_30_cif.got.tgz:59715.got - 2010.03.31 13:35:05.
