data_PCOD8125081
_publ_section_title
;
Structure prediction by ZEFSAII (Michael W. Deem and Ramdas Pophale) SiO2 
 PCOD8125081
Probable space group: P 21/C
;
_chemical_formula_sum "Si O2"
_cell_formula_units_Z 28
_cell_length_a 10.081300
_cell_length_b 12.441240
_cell_length_c 12.988981
_cell_angle_alpha 90.000000
_cell_angle_beta 119.938356
_cell_angle_gamma 90.000000
_cell_volume 1411.742060
_symmetry_space_group_name_H-M "P 21/C"
_symmetry_group_IT_number 14
_symmetry_cell_setting 'monoclinic'
loop_
_space_group_symop_operation_xyz
x,y,z
-x,1/2+y,1/2-z
-x,-y,-z
x,1/2-y,1/2+z
loop_
_atom_site_type_symbol
_atom_site_label
_atom_site_fract_x
_atom_site_fract_y
_atom_site_fract_z
Si Si1 0.161523 0.098255 0.161968
Si Si2 0.929124 0.364255 0.398741
Si Si3 0.026790 0.209108 0.728305
Si Si4 0.526791 0.790891 0.728306
Si Si5 0.570876 0.135745 0.101258
Si Si6 0.661524 0.598255 0.661969
Si Si7 0.250000 0.753000 0.500000
O O1 0.090596 0.173394 0.223418
O O2 0.343098 0.118049 0.226311
O O3 0.127433 0.974936 0.175883
O O4 0.087390 0.122749 0.022164
O O5 0.796594 0.322309 0.422333
O O6 0.959961 0.281857 0.317655
O O7 0.156901 0.118048 0.773689
O O8 0.892977 0.175818 0.594942
O O9 0.459962 0.781856 0.817656
O O10 0.590597 0.673393 0.723418
O O11 0.392977 0.824182 0.594943
O O12 0.703406 0.177692 0.077667
O O13 0.627434 0.025065 0.175884
O O14 0.412610 0.122748 0.977836
#
# Coordination Sequence:
#
# PCOD8125081 Si02
#       7
#     4   4   4   4   4   4   4
#     4   9  21  35  60  91 107 148 198 232 283 330
#     4  10  20  36  63  84 114 146 194 241 273 333
#     4  10  20  37  56  84 121 145 186 239 284 332
#     4  10  20  37  56  84 121 145 186 239 284 332
#     4  10  20  36  63  84 114 146 194 241 273 333
#     4   9  21  35  60  91 107 148 198 232 283 330
#     4  10  22  36  56  90 116 152 186 228 290 340
#
# _framework density 19.833653000000002
#
# number of rings (size 3 to 8) (size 9 to 14) (size 15 to 20)
#    0.000    2.286    0.000    1.714   12.000    0.000 
#    0.000    1.429   12.571    0.000    0.000    0.000 
#    0.000    0.000    0.000    0.000    0.000    0.000 
#
# Total GULP energy -347180.256421 kJ/mol
# GULP energy per Si atom -12399.294872 kJ/mol
# Density = 1.978851 g / cm^3
# Si number density = 19.833653 Si / 1000 Ang^3
#
#
#
# Elastic Constant Matrix: (Units=GPa)
#
#
# Indices 1 2 3 4 5 6 
#
# 1 136.6861 48.4091 71.8345 0.0000 -2.8764 0.0000
# 2 48.4091 83.0460 56.1366 0.0000 -5.3600 0.0000
# 3 71.8345 56.1366 105.1376 0.0000 7.5378 0.0000
# 4 0.0000 0.0000 0.0000 33.9686 0.0000 -0.4293
# 5 -2.8764 -5.3600 7.5378 0.0000 55.7938 0.0000
# 6 0.0000 0.0000 0.0000 -0.4293 0.0000 20.6649
#
#
#
# Elastic Compliance Matrix: (Units=1/GPa)
#
#
# Indices 1 2 3 4 5 6 
#
# 1 0.011769 -0.001987 -0.007078 0.000000 0.001372 0.000000
# 2 -0.001987 0.019761 -0.009413 0.000000 0.003068 0.000000
# 3 -0.007078 -0.009413 0.019655 0.000000 -0.003925 0.000000
# 4 0.000000 0.000000 0.000000 0.029447 0.000000 0.000612
# 5 0.001372 0.003068 -0.003925 0.000000 0.018819 0.000000
# 6 0.000000 0.000000 0.000000 0.000612 0.000000 0.048404
#
#
# Mechanical properties :
#
#
# Convention : Reuss Voigt Hill
#
# Bulk Modulus (GPa) = 70.28733 75.29224 72.78978
# Shear Modulus (GPa) = 26.37776 31.98477 29.18127
#
# Velocity S-wave (km/s) = 3.65080 4.02014 3.83992
# Velocity P-wave (km/s) = 7.29976 7.71965 7.51264
#
# Compressibility (1/GPa) = 0.01422732
#
# Stress axis : x y z
#
# Youngs Moduli (GPa) = 84.97249 50.60502 50.87737
#
# Poissons Ratio (x) = 0.10054 0.36013
# Poissons Ratio (y) = 0.16882 0.47893
# Poissons Ratio (z) = 0.60146 0.47637
#
# Static dielectric constant tensor:
#      x y z
#    x 3.745140 0.000000 0.174790 
#    y 0.000000 3.297990 0.000000 
#    z 0.174790 0.000000 3.758110 
# 
# 
# High freq. dielectric constant tensor:
#      x y z
#    x 1.790780 0.000000 0.008660 
#    y 0.000000 1.737360 0.000000 
#    z 0.008660 0.000000 1.775350 
# 
# From -- ./inp_files/44092.got.cif
#   From: 2010.03.12/outbox.cif.g09.slc.cpg/sg14_23_cif.got.tgz:44092.got - 2010.03.31 13:35:05.
