data_PCOD8125871
_publ_section_title
;
Structure prediction by ZEFSAII (Michael W. Deem and Ramdas Pophale) SiO2 
 PCOD8125871
Probable space group: P 21/C
;
_chemical_formula_sum "Si O2"
_cell_formula_units_Z 32
_cell_length_a 8.116878
_cell_length_b 9.295271
_cell_length_c 26.448085
_cell_angle_alpha 90.000000
_cell_angle_beta 47.035906
_cell_angle_gamma 90.000000
_cell_volume 1460.247283
_symmetry_space_group_name_H-M "P 21/C"
_symmetry_group_IT_number 14
_symmetry_cell_setting 'monoclinic'
loop_
_space_group_symop_operation_xyz
x,y,z
-x,1/2+y,1/2-z
-x,-y,-z
x,1/2-y,1/2+z
loop_
_atom_site_type_symbol
_atom_site_label
_atom_site_fract_x
_atom_site_fract_y
_atom_site_fract_z
Si Si1 0.068562 0.051420 0.240691
Si Si2 0.825782 0.076243 0.950659
Si Si3 0.969052 0.282289 0.573748
Si Si4 0.771902 0.375864 0.202249
Si Si5 0.774172 0.717815 0.574028
Si Si6 0.559830 0.073427 0.101133
Si Si7 0.596475 0.660918 0.205711
Si Si8 0.015647 0.186455 0.814357
O O1 0.306926 0.113071 0.170185
O O2 0.934045 0.189103 0.291840
O O3 0.084779 0.931034 0.280877
O O4 0.938270 0.966590 0.223296
O O5 0.011516 0.137623 0.948953
O O6 0.821000 0.160315 0.897860
O O7 0.596165 0.093039 0.032177
O O8 0.898472 0.911514 0.926157
O O9 0.933605 0.153927 0.620986
O O10 0.730104 0.332029 0.599555
O O11 0.140298 0.215017 0.496485
O O12 0.588236 0.498913 0.227502
O O13 0.651972 0.225808 0.240243
O O14 0.582393 0.596719 0.607692
O O15 0.683445 0.841968 0.629730
O O16 0.757135 0.760863 0.206511
#
# Coordination Sequence:
#
# PCOD8125871 Si02
#       8
#     4   4   4   4   4   4   4   4
#     4  11  23  37  55  81 115 144 189 229 271 330
#     4   8  17  32  59  79 108 143 182 228 274 326
#     4   9  17  30  57  86 110 141 175 225 284 325
#     4  11  22  33  56  85 111 145 183 229 270 335
#     4   8  15  32  54  82 112 135 176 231 275 324
#     4   9  16  35  56  85 108 138 187 230 266 329
#     4  10  21  36  54  81 112 142 184 229 276 325
#     4  10  23  37  53  81 110 150 179 230 277 325
#
# _framework density 21.914097999999999
#
# number of rings (size 3 to 8) (size 9 to 14) (size 15 to 20)
#    0.000    2.500    1.250    3.000    5.250    1.000 
#    0.000    0.000    0.000    0.750    0.000    0.000 
#    0.000    0.000    0.000    0.000    0.000    0.000 
#
# Total GULP energy -396534.924320 kJ/mol
# GULP energy per Si atom -12391.716385 kJ/mol
# Density = 2.186422 g / cm^3
# Si number density = 21.914098 Si / 1000 Ang^3
#
#
#
# Elastic Constant Matrix: (Units=GPa)
#
#
# Indices 1 2 3 4 5 6 
#
# 1 17.3390 17.8212 28.0265 0.0000 10.9100 0.0000
# 2 17.8212 63.1967 44.4022 0.0000 14.5081 0.0000
# 3 28.0265 44.4022 129.6850 0.0000 28.0757 0.0000
# 4 0.0000 0.0000 0.0000 43.1215 0.0000 8.0663
# 5 10.9100 14.5081 28.0757 0.0000 24.7266 0.0000
# 6 0.0000 0.0000 0.0000 8.0663 0.0000 29.1510
#
#
#
# Elastic Compliance Matrix: (Units=1/GPa)
#
#
# Indices 1 2 3 4 5 6 
#
# 1 0.111243 -0.016562 -0.013058 0.000000 -0.024540 0.000000
# 2 -0.016562 0.023875 -0.004169 0.000000 -0.001967 0.000000
# 3 -0.013058 -0.004169 0.013503 0.000000 -0.007124 0.000000
# 4 0.000000 0.000000 0.000000 0.024456 0.000000 -0.006767
# 5 -0.024540 -0.001967 -0.007124 0.000000 0.060512 0.000000
# 6 0.000000 0.000000 0.000000 -0.006767 0.000000 0.036177
#
#
# Mechanical properties :
#
#
# Convention : Reuss Voigt Hill
#
# Bulk Modulus (GPa) = 12.33922 43.41338 27.87630
# Shear Modulus (GPa) = 13.72272 27.39788 20.56030
#
# Velocity S-wave (km/s) = 2.50512 3.53971 3.06636
# Velocity P-wave (km/s) = 3.74306 6.04647 5.02843
#
# Compressibility (1/GPa) = 0.08104242
#
# Stress axis : x y z
#
# Youngs Moduli (GPa) = 8.98929 41.88487 74.05913
#
# Poissons Ratio (x) = 0.69370 0.96705
# Poissons Ratio (y) = 0.14888 0.30878
# Poissons Ratio (z) = 0.11738 0.17464
#
# Static dielectric constant tensor:
#      x y z
#    x 3.578640 0.000000 0.418600 
#    y 0.000000 3.752830 0.000000 
#    z 0.418600 0.000000 4.336580 
# 
# 
# High freq. dielectric constant tensor:
#      x y z
#    x 1.827710 0.000000 0.026020 
#    y 0.000000 1.833830 0.000000 
#    z 0.026020 0.000000 1.879440 
# 
# From -- ./inp_files/76354.got.cif
#   From: 2010.03.12/outbox.cif.g09.slc.cpg/sg14_39_cif.got.tgz:76354.got - 2010.03.31 13:35:05.
