data_PCOD8125992
_publ_section_title
;
Structure prediction by ZEFSAII (Michael W. Deem and Ramdas Pophale) SiO2 
 PCOD8125992
Probable space group: P 21/C
;
_chemical_formula_sum "Si O2"
_cell_formula_units_Z 32
_cell_length_a 15.757867
_cell_length_b 20.184329
_cell_length_c 8.958046
_cell_angle_alpha 90.000000
_cell_angle_beta 149.354046
_cell_angle_gamma 90.000000
_cell_volume 1452.334322
_symmetry_space_group_name_H-M "P 21/C"
_symmetry_group_IT_number 14
_symmetry_cell_setting 'monoclinic'
loop_
_space_group_symop_operation_xyz
x,y,z
-x,1/2+y,1/2-z
-x,-y,-z
x,1/2-y,1/2+z
loop_
_atom_site_type_symbol
_atom_site_label
_atom_site_fract_x
_atom_site_fract_y
_atom_site_fract_z
Si Si1 0.165608 0.030051 0.072045
Si Si2 0.554462 0.605235 0.862507
Si Si3 0.645835 0.791614 0.734651
Si Si4 0.280595 0.711070 0.782879
Si Si5 0.952641 0.104388 0.986580
Si Si6 0.142984 0.386921 0.261039
Si Si7 0.787734 0.338491 0.639392
Si Si8 0.267376 0.141829 0.643798
O O1 0.351750 0.042994 0.418955
O O2 0.025403 0.074816 0.943363
O O3 0.160123 0.047703 0.888664
O O4 0.124917 0.953272 0.027741
O O5 0.356034 0.604805 0.585687
O O6 0.592322 0.605738 0.742957
O O7 0.628882 0.672170 0.049347
O O8 0.478167 0.801170 0.577646
O O9 0.683059 0.716868 0.747963
O O10 0.797290 0.822725 0.056492
O O11 0.193499 0.658234 0.764451
O O12 0.249965 0.785931 0.787686
O O13 0.199741 0.700778 0.497396
O O14 0.095300 0.141231 0.293931
O O15 0.254043 0.396878 0.280516
O O16 0.954837 0.377050 0.926215
#
# Coordination Sequence:
#
# PCOD8125992 Si02
#       8
#     4   4   4   4   4   4   4   4
#     4   9  22  43  67  86 122 170 220 255 301 375
#     4   9  20  39  62  84 125 168 198 254 309 371
#     4  10  21  37  58  91 123 163 202 249 320 379
#     4  11  23  38  61  93 125 161 199 259 313 376
#     4  10  21  42  67  90 121 171 216 253 308 373
#     4  11  23  36  60  92 121 161 208 260 311 360
#     4  11  23  39  58  95 130 156 201 262 317 370
#     4  11  19  36  60  88 124 156 204 252 317 365
#
# _framework density 22.033494000000001
#
# number of rings (size 3 to 8) (size 9 to 14) (size 15 to 20)
#    0.000    1.750    2.500    1.500    3.500    1.500 
#    0.000    5.625    0.000    2.250    0.000    0.000 
#    0.000    0.000    0.000    0.000    0.000    0.000 
#
# Total GULP energy -396836.028837 kJ/mol
# GULP energy per Si atom -12401.125901 kJ/mol
# Density = 2.198335 g / cm^3
# Si number density = 22.033494 Si / 1000 Ang^3
#
#
#
# Elastic Constant Matrix: (Units=GPa)
#
#
# Indices 1 2 3 4 5 6 
#
# 1 92.6939 -6.8433 23.4433 0.0000 0.5246 0.0000
# 2 -6.8433 34.0431 9.6006 0.0000 9.8070 0.0000
# 3 23.4433 9.6006 84.5076 0.0000 -0.5372 0.0000
# 4 0.0000 0.0000 0.0000 18.7220 0.0000 4.1001
# 5 0.5246 9.8070 -0.5372 0.0000 24.0333 0.0000
# 6 0.0000 0.0000 0.0000 4.1001 0.0000 23.9682
#
#
#
# Elastic Compliance Matrix: (Units=1/GPa)
#
#
# Indices 1 2 3 4 5 6 
#
# 1 0.012069 0.004085 -0.003825 0.000000 -0.002016 0.000000
# 2 0.004085 0.035985 -0.005316 0.000000 -0.014892 0.000000
# 3 -0.003825 -0.005316 0.013515 0.000000 0.002555 0.000000
# 4 0.000000 0.000000 0.000000 0.055492 0.000000 -0.009493
# 5 -0.002016 -0.014892 0.002555 0.000000 0.047787 0.000000
# 6 0.000000 0.000000 0.000000 -0.009493 0.000000 0.043346
#
#
# Mechanical properties :
#
#
# Convention : Reuss Voigt Hill
#
# Bulk Modulus (GPa) = 19.43371 29.29397 24.36384
# Shear Modulus (GPa) = 21.23533 25.68095 23.45814
#
# Velocity S-wave (km/s) = 3.10784 3.41771 3.26645
# Velocity P-wave (km/s) = 4.66020 5.37572 5.03070
#
# Compressibility (1/GPa) = 0.05145699
#
# Stress axis : x y z
#
# Youngs Moduli (GPa) = 82.85975 27.78930 73.99451
#
# Poissons Ratio (x) = -0.11353 0.28302
# Poissons Ratio (y) = -0.33852 0.39337
# Poissons Ratio (z) = 0.31693 0.14773
#
# Static dielectric constant tensor:
#      x y z
#    x 4.278050 0.000000 0.120430 
#    y 0.000000 3.691980 0.000000 
#    z 0.120430 0.000000 3.942100 
# 
# 
# High freq. dielectric constant tensor:
#      x y z
#    x 1.881380 0.000000 0.007530 
#    y 0.000000 1.841310 0.000000 
#    z 0.007530 0.000000 1.860570 
# 
# From -- ./inp_files/17012.got.cif
#   From: 2010.03.12/outbox.cif.g09.slc.cpg/sg14_9_cif.got.tgz:17012.got - 2010.03.31 13:35:05.
