data_PCOD8125399
_publ_section_title
;
Structure prediction by ZEFSAII (Michael W. Deem and Ramdas Pophale) SiO2 
 PCOD8125399
Probable space group: P 21/C
;
_chemical_formula_sum "Si O2"
_cell_formula_units_Z 24
_cell_length_a 9.439656
_cell_length_b 13.757711
_cell_length_c 15.119069
_cell_angle_alpha 90.000000
_cell_angle_beta 143.458444
_cell_angle_gamma 90.000000
_cell_volume 1169.069573
_symmetry_space_group_name_H-M "P 21/C"
_symmetry_group_IT_number 14
_symmetry_cell_setting 'monoclinic'
loop_
_space_group_symop_operation_xyz
x,y,z
-x,1/2+y,1/2-z
-x,-y,-z
x,1/2-y,1/2+z
loop_
_atom_site_type_symbol
_atom_site_label
_atom_site_fract_x
_atom_site_fract_y
_atom_site_fract_z
Si Si1 0.699108 0.135106 0.574000
Si Si2 0.843276 0.578699 0.180188
Si Si3 0.221863 0.119771 0.061969
Si Si4 0.942540 0.228928 0.333598
Si Si5 0.347694 0.786350 0.633199
Si Si6 0.812231 0.411674 0.486545
O O1 0.416849 0.121681 0.434867
O O2 0.763916 0.221350 0.674187
O O3 0.776092 0.160438 0.512220
O O4 0.837773 0.037494 0.670057
O O5 0.956821 0.626436 0.149916
O O6 0.013540 0.608828 0.345199
O O7 0.399188 0.164057 0.222857
O O8 0.965471 0.094786 0.974013
O O9 0.170116 0.199424 0.960379
O O10 0.319509 0.016739 0.072230
O O11 0.814588 0.203892 0.361563
O O12 0.384698 0.673507 0.621993
#
# Coordination Sequence:
#
# PCOD8125399 Si02
#       6
#     4   4   4   4   4   4
#     4  11  23  40  66  92 121 166 215 244 300 377
#     4  11  22  40  65  90 124 166 208 248 302 376
#     4  10  21  39  61  91 122 159 211 250 300 372
#     4  11  23  40  61  94 127 160 203 263 308 352
#     4  11  23  39  64  94 123 160 209 258 308 359
#     4  10  20  38  66  86 121 166 202 251 308 361
#
# _framework density 20.529146000000001
#
# number of rings (size 3 to 8) (size 9 to 14) (size 15 to 20)
#    0.000    1.333    5.000    1.000    0.000    2.000 
#    0.000    4.167    0.000    0.000    0.000    0.000 
#    0.000    0.000    0.000    0.000    0.000    0.000 
#
# Total GULP energy -297521.610335 kJ/mol
# GULP energy per Si atom -12396.733764 kJ/mol
# Density = 2.048242 g / cm^3
# Si number density = 20.529146 Si / 1000 Ang^3
#
#
#
# Elastic Constant Matrix: (Units=GPa)
#
#
# Indices 1 2 3 4 5 6 
#
# 1 84.4840 31.8917 22.2976 0.0000 -20.3685 0.0000
# 2 31.8917 78.8620 25.2888 0.0000 10.3360 0.0000
# 3 22.2976 25.2888 82.0815 0.0000 -12.0184 0.0000
# 4 0.0000 0.0000 0.0000 37.9948 0.0000 -6.1893
# 5 -20.3685 10.3360 -12.0184 0.0000 25.5362 0.0000
# 6 0.0000 0.0000 0.0000 -6.1893 0.0000 24.6127
#
#
#
# Elastic Compliance Matrix: (Units=1/GPa)
#
#
# Indices 1 2 3 4 5 6 
#
# 1 0.021516 -0.012037 0.001170 0.000000 0.022585 0.000000
# 2 -0.012037 0.022662 -0.006939 0.000000 -0.022039 0.000000
# 3 0.001170 -0.006939 0.015628 0.000000 0.011097 0.000000
# 4 0.000000 0.000000 0.000000 0.027444 0.000000 0.006901
# 5 0.022585 -0.022039 0.011097 0.000000 0.071318 0.000000
# 6 0.000000 0.000000 0.000000 0.006901 0.000000 0.042365
#
#
# Mechanical properties :
#
#
# Convention : Reuss Voigt Hill
#
# Bulk Modulus (GPa) = 41.33061 44.93154 43.13108
# Shear Modulus (GPa) = 20.44087 28.69204 24.56645
#
# Velocity S-wave (km/s) = 3.15889 3.74254 3.46303
# Velocity P-wave (km/s) = 5.78629 6.37257 6.08650
#
# Compressibility (1/GPa) = 0.02419514
#
# Stress axis : x y z
#
# Youngs Moduli (GPa) = 46.47621 44.12738 63.98822
#
# Poissons Ratio (x) = 0.53114 -0.07489
# Poissons Ratio (y) = 0.55941 0.44402
# Poissons Ratio (z) = -0.05439 0.30621
#
# Static dielectric constant tensor:
#      x y z
#    x 3.450760 0.000000 -0.201220 
#    y 0.000000 4.160010 0.000000 
#    z -0.201220 0.000000 3.669740 
# 
# 
# High freq. dielectric constant tensor:
#      x y z
#    x 1.775180 0.000000 -0.024770 
#    y 0.000000 1.819270 0.000000 
#    z -0.024770 0.000000 1.805720 
# 
# From -- ./inp_files/41340.got.cif
#   From: 2010.03.12/outbox.cif.g09.slc.cpg/sg14_21_cif.got.tgz:41340.got - 2010.03.31 13:35:05.
