data_PCOD8125113
_publ_section_title
;
Structure prediction by ZEFSAII (Michael W. Deem and Ramdas Pophale) SiO2 
 PCOD8125113
Probable space group: P 21/C
;
_chemical_formula_sum "Si O2"
_cell_formula_units_Z 32
_cell_length_a 9.990219
_cell_length_b 22.446542
_cell_length_c 16.774963
_cell_angle_alpha 90.000000
_cell_angle_beta 25.719079
_cell_angle_gamma 90.000000
_cell_volume 1632.431010
_symmetry_space_group_name_H-M "P 21/C"
_symmetry_group_IT_number 14
_symmetry_cell_setting 'monoclinic'
loop_
_space_group_symop_operation_xyz
x,y,z
-x,1/2+y,1/2-z
-x,-y,-z
x,1/2-y,1/2+z
loop_
_atom_site_type_symbol
_atom_site_label
_atom_site_fract_x
_atom_site_fract_y
_atom_site_fract_z
Si Si1 0.974647 0.246036 0.238361
Si Si2 0.186232 0.941455 0.870137
Si Si3 0.407416 0.173212 0.603569
Si Si4 0.316400 0.953276 0.151859
Si Si5 0.386891 0.126765 0.789696
Si Si6 0.543474 0.327347 0.375135
Si Si7 0.602431 0.555227 0.994873
Si Si8 0.648513 0.009749 0.695305
O O1 0.725614 0.205118 0.414229
O O2 0.828925 0.284820 0.244810
O O3 0.121160 0.286649 0.229036
O O4 0.223193 0.204086 0.064253
O O5 0.326444 0.937946 0.706400
O O6 0.489580 0.945627 0.763031
O O7 0.976599 0.883397 0.994802
O O8 0.000000 0.000000 0.000000
O O9 0.400943 0.165387 0.702362
O O10 0.381872 0.111501 0.570967
O O11 0.425887 0.885015 0.082966
O O12 0.450997 0.969561 0.165147
O O13 0.943992 0.957669 0.347626
O O14 0.500000 0.000000 0.000000
O O15 0.557786 0.158774 0.772599
O O16 0.546200 0.062228 0.688652
O O17 0.500000 0.500000 0.000000
O O18 0.000000 0.000000 0.500000
#
# Coordination Sequence:
#
# PCOD8125113 Si02
#       8
#     4   4   4   4   4   4   4   4
#     4  10  23  43  71  85 128 167 215 269 310 379
#     4  10  21  38  58  87 128 174 202 258 313 383
#     4  11  24  43  65  97 124 168 217 265 320 378
#     4  11  25  37  62  96 132 165 209 262 317 393
#     4  10  23  38  63  88 130 159 215 265 314 381
#     4  10  22  45  62  95 121 168 212 259 322 375
#     4  12  24  38  65  96 129 167 217 255 326 387
#     4  10  20  37  55  86 129 170 210 249 316 375
#
# _framework density 19.602665999999999
#
# number of rings (size 3 to 8) (size 9 to 14) (size 15 to 20)
#    0.000    1.500    2.500    2.250    8.750    1.000 
#    0.000    1.250    0.000    0.000    0.000    0.000 
#    0.000    0.000    0.000    0.000    0.000    0.000 
#
# Total GULP energy -396485.461722 kJ/mol
# GULP energy per Si atom -12390.170679 kJ/mol
# Density = 1.955805 g / cm^3
# Si number density = 19.602666 Si / 1000 Ang^3
#
#
#
# Elastic Constant Matrix: (Units=GPa)
#
#
# Indices 1 2 3 4 5 6 
#
# 1 105.1506 35.3722 30.3771 0.0000 -4.2059 0.0000
# 2 35.3722 81.1167 24.7519 0.0000 -3.5839 0.0000
# 3 30.3771 24.7519 87.3588 0.0000 -8.8457 0.0000
# 4 0.0000 0.0000 0.0000 871.2861 0.0000 -324.2344
# 5 -4.2059 -3.5839 -8.8457 0.0000 37.4128 0.0000
# 6 0.0000 0.0000 0.0000 -324.2344 0.0000 160.7639
#
#
#
# Elastic Compliance Matrix: (Units=1/GPa)
#
#
# Indices 1 2 3 4 5 6 
#
# 1 0.011778 -0.004251 -0.002867 0.000000 0.000239 0.000000
# 2 -0.004251 0.015034 -0.002750 0.000000 0.000312 0.000000
# 3 -0.002867 -0.002750 0.013487 0.000000 0.002603 0.000000
# 4 0.000000 0.000000 0.000000 0.004601 0.000000 0.009279
# 5 0.000239 0.000312 0.002603 0.000000 0.027401 0.000000
# 6 0.000000 0.000000 0.000000 0.009279 0.000000 0.024934
#
#
# Mechanical properties :
#
#
# Convention : Reuss Voigt Hill
#
# Bulk Modulus (GPa) = 48.62935 50.51429 49.57182
# Shear Modulus (GPa) = 40.37967 226.10089 133.24028
#
# Velocity S-wave (km/s) = 4.54354 10.75139 8.25337
# Velocity P-wave (km/s) = 7.23785 13.41447 10.77809
#
# Compressibility (1/GPa) = 0.02056371
#
# Stress axis : x y z
#
# Youngs Moduli (GPa) = 84.90535 66.51418 74.14683
#
# Poissons Ratio (x) = 0.28272 0.21258
# Poissons Ratio (y) = 0.36089 0.20391
# Poissons Ratio (z) = 0.24342 0.18292
#
# Static dielectric constant tensor:
#      x y z
#    x 3.384230 0.000000 -0.313480 
#    y 0.000000 3.667230 0.000000 
#    z -0.313480 0.000000 3.437350 
# 
# 
# High freq. dielectric constant tensor:
#      x y z
#    x 1.776760 0.000000 -0.016280 
#    y 0.000000 1.759670 0.000000 
#    z -0.016280 0.000000 1.768310 
# 
# From -- ./inp_files/42236.got.cif
#   From: 2010.03.12/outbox.cif.g09.slc.cpg/sg14_22_cif.got.tgz:42236.got - 2010.03.31 13:35:05.
