data_PCOD8125264
_publ_section_title
;
Structure prediction by ZEFSAII (Michael W. Deem and Ramdas Pophale) SiO2 
 PCOD8125264
Probable space group: P 21/C
;
_chemical_formula_sum "Si O2"
_cell_formula_units_Z 32
_cell_length_a 18.937294
_cell_length_b 10.322005
_cell_length_c 28.281354
_cell_angle_alpha 90.000000
_cell_angle_beta 17.568232
_cell_angle_gamma 90.000000
_cell_volume 1668.633305
_symmetry_space_group_name_H-M "P 21/C"
_symmetry_group_IT_number 14
_symmetry_cell_setting 'monoclinic'
loop_
_space_group_symop_operation_xyz
x,y,z
-x,1/2+y,1/2-z
-x,-y,-z
x,1/2-y,1/2+z
loop_
_atom_site_type_symbol
_atom_site_label
_atom_site_fract_x
_atom_site_fract_y
_atom_site_fract_z
Si Si1 0.773954 0.813373 0.526452
Si Si2 0.849713 0.406683 0.279491
Si Si3 0.838186 0.681784 0.580726
Si Si4 0.612297 0.316233 0.603129
Si Si5 0.284652 0.073919 0.000433
Si Si6 0.738558 0.111976 0.125697
Si Si7 0.380973 0.165446 0.039268
Si Si8 0.986300 0.150112 0.794522
O O1 0.859276 0.788316 0.525618
O O2 0.785068 0.675589 0.494134
O O3 0.515313 0.873229 0.688433
O O4 0.946877 0.912597 0.389775
O O5 0.764472 0.551545 0.342956
O O6 0.637677 0.319028 0.396068
O O7 0.935298 0.332887 0.271578
O O8 0.611641 0.722511 0.756232
O O9 0.803183 0.539170 0.581222
O O10 0.069105 0.687582 0.465691
O O11 0.542460 0.464463 0.632543
O O12 0.732962 0.321335 0.577854
O O13 0.802291 0.264565 0.443422
O O14 0.408989 0.140607 0.965510
O O15 0.044186 0.000628 0.170842
O O16 0.248266 0.299477 0.135468
#
# Coordination Sequence:
#
# PCOD8125264 Si02
#       8
#     4   4   4   4   4   4   4   4
#     4  11  21  37  59  80 115 146 185 229 289 327
#     4  10  22  35  59  87 111 151 185 232 279 334
#     4  10  21  39  57  83 111 143 197 229 276 335
#     4   9  20  38  57  79 112 151 180 231 284 322
#     4   9  19  37  55  77 119 145 177 231 275 331
#     4  10  22  38  59  82 110 149 186 239 275 331
#     4  10  20  38  56  86 117 145 193 224 274 343
#     4   9  19  36  60  77 113 151 178 230 283 321
#
# _framework density 19.17737
#
# number of rings (size 3 to 8) (size 9 to 14) (size 15 to 20)
#    0.750    1.500    2.500    0.000    3.500    1.000 
#    0.000    1.250    0.000    0.000    0.000    0.000 
#    0.000    0.000    0.000    0.000    0.000    0.000 
#
# Total GULP energy -396612.236317 kJ/mol
# GULP energy per Si atom -12394.132385 kJ/mol
# Density = 1.913372 g / cm^3
# Si number density = 19.177370 Si / 1000 Ang^3
#
#
#
# Elastic Constant Matrix: (Units=GPa)
#
#
# Indices 1 2 3 4 5 6 
#
# 1 76.9181 10.6238 48.5684 0.0000 4.3465 0.0000
# 2 10.6238 25.7430 5.9767 0.0000 -5.3492 0.0000
# 3 48.5684 5.9767 94.1884 0.0000 -3.8500 0.0000
# 4 0.0000 0.0000 0.0000 31.4700 0.0000 -2.6475
# 5 4.3465 -5.3492 -3.8500 0.0000 27.8730 0.0000
# 6 0.0000 0.0000 0.0000 -2.6475 0.0000 17.2738
#
#
#
# Elastic Compliance Matrix: (Units=1/GPa)
#
#
# Indices 1 2 3 4 5 6 
#
# 1 0.021132 -0.007534 -0.010673 0.000000 -0.006215 0.000000
# 2 -0.007534 0.043630 0.001515 0.000000 0.009757 0.000000
# 3 -0.010673 0.001515 0.016196 0.000000 0.004192 0.000000
# 4 0.000000 0.000000 0.000000 0.032191 0.000000 0.004934
# 5 -0.006215 0.009757 0.004192 0.000000 0.039298 0.000000
# 6 0.000000 0.000000 0.000000 0.004934 0.000000 0.058647
#
#
# Mechanical properties :
#
#
# Convention : Reuss Voigt Hill
#
# Bulk Modulus (GPa) = 21.01965 36.35417 28.68691
# Shear Modulus (GPa) = 19.20597 24.10206 21.65402
#
# Velocity S-wave (km/s) = 3.16807 3.54898 3.36392
# Velocity P-wave (km/s) = 4.93626 5.98261 5.48445
#
# Compressibility (1/GPa) = 0.04757454
#
# Stress axis : x y z
#
# Youngs Moduli (GPa) = 47.32237 22.91975 61.74550
#
# Poissons Ratio (x) = 0.17269 0.65898
# Poissons Ratio (y) = 0.35655 -0.09357
# Poissons Ratio (z) = 0.50505 -0.03473
#
# Static dielectric constant tensor:
#      x y z
#    x 3.586430 0.000000 0.152760 
#    y 0.000000 3.247830 0.000000 
#    z 0.152760 0.000000 3.435530 
# 
# 
# High freq. dielectric constant tensor:
#      x y z
#    x 1.752310 0.000000 0.012940 
#    y 0.000000 1.728590 0.000000 
#    z 0.012940 0.000000 1.735370 
# 
# From -- ./inp_files/77820.got.cif
#   From: 2010.03.12/outbox.cif.g09.slc.cpg/sg14_39_cif.got.tgz:77820.got - 2010.03.31 13:35:05.
