data_PCOD8125465
_publ_section_title
;
Structure prediction by ZEFSAII (Michael W. Deem and Ramdas Pophale) SiO2 
 PCOD8125465
Probable space group: P 21/C
;
_chemical_formula_sum "Si O2"
_cell_formula_units_Z 32
_cell_length_a 17.021190
_cell_length_b 12.775136
_cell_length_c 14.058614
_cell_angle_alpha 90.000000
_cell_angle_beta 32.211476
_cell_angle_gamma 90.000000
_cell_volume 1629.530321
_symmetry_space_group_name_H-M "P 21/C"
_symmetry_group_IT_number 14
_symmetry_cell_setting 'monoclinic'
loop_
_space_group_symop_operation_xyz
x,y,z
-x,1/2+y,1/2-z
-x,-y,-z
x,1/2-y,1/2+z
loop_
_atom_site_type_symbol
_atom_site_label
_atom_site_fract_x
_atom_site_fract_y
_atom_site_fract_z
Si Si1 0.077145 0.952684 0.830595
Si Si2 0.257757 0.327237 0.667521
Si Si3 0.974193 0.775884 0.444328
Si Si4 0.489060 0.790290 0.946554
Si Si5 0.772627 0.067426 0.842101
Si Si6 0.728604 0.777471 0.061520
Si Si7 0.641290 0.429402 0.868777
Si Si8 0.802743 0.487251 0.518791
O O1 0.252405 0.979312 0.656767
O O2 0.072532 0.827145 0.837599
O O3 0.000000 0.000000 0.000000
O O4 0.982799 0.998899 0.838832
O O5 0.411240 0.318281 0.565238
O O6 0.213101 0.447661 0.702819
O O7 0.273828 0.269668 0.549827
O O8 0.129156 0.268817 0.856744
O O9 0.871480 0.783703 0.455503
O O10 0.080917 0.874973 0.344036
O O11 0.583066 0.776617 0.753690
O O12 0.375018 0.884591 0.050490
O O13 0.400430 0.686073 0.059072
O O14 0.763266 0.077288 0.965633
O O15 0.729839 0.897726 0.095080
O O16 0.735919 0.422761 0.675012
O O17 0.500000 0.500000 0.000000
#
# Coordination Sequence:
#
# PCOD8125465 Si02
#       8
#     4   4   4   4   4   4   4   4
#     4   9  19  36  59  87 118 147 194 253 300 341
#     4  10  23  40  62  82 124 166 196 240 305 357
#     4  10  20  39  62  86 114 159 204 243 293 356
#     4  11  22  38  61  89 122 157 198 241 299 362
#     4  11  22  40  59  88 127 156 203 246 289 362
#     4   9  20  39  57  85 117 153 195 248 293 354
#     4  11  20  36  60  90 120 152 199 250 305 352
#     4   9  20  37  58  84 120 154 190 250 302 343
#
# _framework density 19.637560000000001
#
# number of rings (size 3 to 8) (size 9 to 14) (size 15 to 20)
#    0.000    2.000    2.500    0.750    3.500    2.000 
#    0.000    0.000    2.750    0.000    0.000    0.000 
#    0.000    0.000    0.000    0.000    0.000    0.000 
#
# Total GULP energy -396715.099854 kJ/mol
# GULP energy per Si atom -12397.346870 kJ/mol
# Density = 1.959286 g / cm^3
# Si number density = 19.637560 Si / 1000 Ang^3
#
#
#
# Elastic Constant Matrix: (Units=GPa)
#
#
# Indices 1 2 3 4 5 6 
#
# 1 133.2440 18.8333 62.5559 0.0000 -7.6341 0.0000
# 2 18.8333 32.5311 17.1427 0.0000 -7.8324 0.0000
# 3 62.5559 17.1427 87.6264 0.0000 -14.1583 0.0000
# 4 0.0000 0.0000 0.0000 29.6192 0.0000 -2.1671
# 5 -7.6341 -7.8324 -14.1583 0.0000 36.2339 0.0000
# 6 0.0000 0.0000 0.0000 -2.1671 0.0000 30.9587
#
#
#
# Elastic Compliance Matrix: (Units=1/GPa)
#
#
# Indices 1 2 3 4 5 6 
#
# 1 0.011534 -0.002826 -0.007885 0.000000 -0.001262 0.000000
# 2 -0.002826 0.035876 -0.004103 0.000000 0.005556 0.000000
# 3 -0.007885 -0.004103 0.018607 0.000000 0.004722 0.000000
# 4 0.000000 0.000000 0.000000 0.033936 0.000000 0.002375
# 5 -0.001262 0.005556 0.004722 0.000000 0.030379 0.000000
# 6 0.000000 0.000000 0.000000 0.002375 0.000000 0.032467
#
#
# Mechanical properties :
#
#
# Convention : Reuss Voigt Hill
#
# Bulk Modulus (GPa) = 27.48155 50.05169 38.76662
# Shear Modulus (GPa) = 24.44301 29.68700 27.06501
#
# Velocity S-wave (km/s) = 3.53187 3.89234 3.71647
# Velocity P-wave (km/s) = 5.53687 6.76339 6.18063
#
# Compressibility (1/GPa) = 0.03638806
#
# Stress axis : x y z
#
# Youngs Moduli (GPa) = 86.69919 27.87379 53.74323
#
# Poissons Ratio (x) = 0.07877 0.42377
# Poissons Ratio (y) = 0.24502 0.22052
# Poissons Ratio (z) = 0.68364 0.11437
#
# Static dielectric constant tensor:
#      x y z
#    x 3.930490 0.000000 -0.267500 
#    y 0.000000 3.549380 0.000000 
#    z -0.267500 0.000000 3.484950 
# 
# 
# High freq. dielectric constant tensor:
#      x y z
#    x 1.776060 0.000000 -0.018420 
#    y 0.000000 1.760550 0.000000 
#    z -0.018420 0.000000 1.755260 
# 
# From -- ./inp_files/40068.got.cif
#   From: 2010.03.12/outbox.cif.g09.slc.cpg/sg14_21_cif.got.tgz:40068.got - 2010.03.31 13:35:05.
