data_PCOD8125638
_publ_section_title
;
Structure prediction by ZEFSAII (Michael W. Deem and Ramdas Pophale) SiO2 
 PCOD8125638
Probable space group: P 21/C
;
_chemical_formula_sum "Si O2"
_cell_formula_units_Z 28
_cell_length_a 8.573850
_cell_length_b 18.496291
_cell_length_c 17.247526
_cell_angle_alpha 90.000000
_cell_angle_beta 29.278324
_cell_angle_gamma 90.000000
_cell_volume 1337.651005
_symmetry_space_group_name_H-M "P 21/C"
_symmetry_group_IT_number 14
_symmetry_cell_setting 'monoclinic'
loop_
_space_group_symop_operation_xyz
x,y,z
-x,1/2+y,1/2-z
-x,-y,-z
x,1/2-y,1/2+z
loop_
_atom_site_type_symbol
_atom_site_label
_atom_site_fract_x
_atom_site_fract_y
_atom_site_fract_z
Si Si1 0.681459 0.573771 0.401343
Si Si2 0.584140 0.432675 0.071961
Si Si3 0.629326 0.303534 0.757487
Si Si4 0.712670 0.603049 0.211389
Si Si5 0.662983 0.967715 0.166593
Si Si6 0.640721 0.660037 0.565069
Si Si7 0.570731 0.084106 0.411818
O O1 0.500000 0.500000 0.500000
O O2 0.601095 0.599413 0.349204
O O3 0.572905 0.639856 0.504735
O O4 0.057783 0.560184 0.249986
O O5 0.328066 0.428736 0.252816
O O6 0.643714 0.516234 0.021392
O O7 0.467151 0.391826 0.044252
O O8 0.907733 0.395830 0.961473
O O9 0.426663 0.324595 0.768707
O O10 0.589595 0.221048 0.800875
O O11 0.502995 0.350015 0.884555
O O12 0.996205 0.316593 0.578503
O O13 0.585581 0.533304 0.220159
O O14 0.555840 0.912192 0.148199
O O15 0.000000 0.000000 0.000000
#
# Coordination Sequence:
#
# PCOD8125638 Si02
#       7
#     4   4   4   4   4   4   4
#     4  10  20  40  66  94 122 160 218 266 317 371
#     4  10  21  36  63  96 121 164 214 262 318 367
#     4  11  24  44  60  90 133 169 208 259 331 390
#     4  11  22  38  67  94 128 160 215 272 307 386
#     4  12  21  39  66  94 123 165 217 266 311 364
#     4  11  25  42  64  90 129 173 204 264 329 386
#     4   9  20  39  61  89 134 161 198 269 314 381
#
# _framework density 20.932217000000001
#
# number of rings (size 3 to 8) (size 9 to 14) (size 15 to 20)
#    0.000    1.429    4.286    1.286    2.000    0.000 
#    5.143    1.429    0.000    0.000    0.000    0.000 
#    0.000    0.000    0.000    0.000    0.000    0.000 
#
# Total GULP energy -347176.401131 kJ/mol
# GULP energy per Si atom -12399.157183 kJ/mol
# Density = 2.088457 g / cm^3
# Si number density = 20.932217 Si / 1000 Ang^3
#
#
#
# Elastic Constant Matrix: (Units=GPa)
#
#
# Indices 1 2 3 4 5 6 
#
# 1 106.9592 20.4522 35.9231 0.0000 25.4366 0.0000
# 2 20.4522 76.6382 9.3585 0.0000 5.8429 0.0000
# 3 35.9231 9.3585 76.1229 0.0000 26.7173 0.0000
# 4 0.0000 0.0000 0.0000 31.5683 0.0000 9.6133
# 5 25.4366 5.8429 26.7173 0.0000 38.8580 0.0000
# 6 0.0000 0.0000 0.0000 9.6133 0.0000 30.7447
#
#
#
# Elastic Compliance Matrix: (Units=1/GPa)
#
#
# Indices 1 2 3 4 5 6 
#
# 1 0.012275 -0.002434 -0.003693 0.000000 -0.005130 0.000000
# 2 -0.002434 0.013769 -0.000497 0.000000 -0.000136 0.000000
# 3 -0.003693 -0.000497 0.018540 0.000000 -0.010255 0.000000
# 4 0.000000 0.000000 0.000000 0.035011 0.000000 -0.010947
# 5 -0.005130 -0.000136 -0.010255 0.000000 0.036165 0.000000
# 6 0.000000 0.000000 0.000000 -0.010947 0.000000 0.035949
#
#
# Mechanical properties :
#
#
# Convention : Reuss Voigt Hill
#
# Bulk Modulus (GPa) = 31.91101 43.46534 37.68817
# Shear Modulus (GPa) = 28.50619 33.16661 30.83640
#
# Velocity S-wave (km/s) = 3.69431 3.98487 3.84233
# Velocity P-wave (km/s) = 5.78578 6.47936 6.14237
#
# Compressibility (1/GPa) = 0.03133715
#
# Stress axis : x y z
#
# Youngs Moduli (GPa) = 81.46590 72.62798 53.93812
#
# Poissons Ratio (x) = 0.17676 0.19919
# Poissons Ratio (y) = 0.19827 0.02678
# Poissons Ratio (z) = 0.30085 0.03607
#
# Static dielectric constant tensor:
#      x y z
#    x 4.228460 0.000000 0.299410 
#    y 0.000000 3.472830 0.000000 
#    z 0.299410 0.000000 3.735530 
# 
# 
# High freq. dielectric constant tensor:
#      x y z
#    x 1.832490 0.000000 0.019800 
#    y 0.000000 1.788670 0.000000 
#    z 0.019800 0.000000 1.819360 
# 
# From -- ./inp_files/56145.got.cif
#   From: 2010.03.12/outbox.cif.g09.slc.cpg/sg14_29_cif.got.tgz:56145.got - 2010.03.31 13:35:05.
