data_PCOD8125303
_publ_section_title
;
Structure prediction by ZEFSAII (Michael W. Deem and Ramdas Pophale) SiO2 
 PCOD8125303
Probable space group: P 21/C
;
_chemical_formula_sum "Si O2"
_cell_formula_units_Z 20
_cell_length_a 7.201027
_cell_length_b 14.519745
_cell_length_c 10.235316
_cell_angle_alpha 90.000000
_cell_angle_beta 66.312139
_cell_angle_gamma 90.000000
_cell_volume 980.010064
_symmetry_space_group_name_H-M "P 21/C"
_symmetry_group_IT_number 14
_symmetry_cell_setting 'monoclinic'
loop_
_space_group_symop_operation_xyz
x,y,z
-x,1/2+y,1/2-z
-x,-y,-z
x,1/2-y,1/2+z
loop_
_atom_site_type_symbol
_atom_site_label
_atom_site_fract_x
_atom_site_fract_y
_atom_site_fract_z
Si Si1 0.826901 0.508217 0.887524
Si Si2 0.001859 0.154748 0.978472
Si Si3 0.701042 0.008424 0.139723
Si Si4 0.264911 0.536790 0.809064
Si Si5 0.009456 0.806741 0.304608
O O1 0.733115 0.467258 0.782955
O O2 0.065165 0.475791 0.829549
O O3 0.827020 0.620579 0.886437
O O4 0.697742 0.469115 0.045030
O O5 0.996405 0.217086 0.848819
O O6 0.798789 0.091691 0.030089
O O7 0.015976 0.215448 0.104058
O O8 0.195799 0.088122 0.926443
O O9 0.461277 0.001478 0.177474
O O10 0.223358 0.643402 0.781200
#
# Coordination Sequence:
#
# PCOD8125303 Si02
#       5
#     4   4   4   4   4
#     4   8  18  36  59  86 113 148 187 242 282 342
#     4  10  22  38  58  84 122 149 193 243 286 338
#     4  10  20  38  60  85 114 159 189 233 292 351
#     4   9  18  36  60  85 114 148 196 231 292 348
#     4   9  20  38  55  83 117 150 189 243 286 330
#
# _framework density 20.407952000000002
#
# number of rings (size 3 to 8) (size 9 to 14) (size 15 to 20)
#    1.200    1.600    0.000    0.600    2.800    0.800 
#    3.600    2.000    0.000    0.000    0.000    0.000 
#    0.000    0.000    0.000    0.000    0.000    0.000 
#
# Total GULP energy -247813.466932 kJ/mol
# GULP energy per Si atom -12390.673347 kJ/mol
# Density = 2.036150 g / cm^3
# Si number density = 20.407952 Si / 1000 Ang^3
#
#
#
# Elastic Constant Matrix: (Units=GPa)
#
#
# Indices 1 2 3 4 5 6 
#
# 1 43.2607 17.1020 30.5355 0.0000 -13.8701 0.0000
# 2 17.1020 58.6311 48.2696 0.0000 12.1401 0.0000
# 3 30.5355 48.2696 99.7594 0.0000 1.2572 0.0000
# 4 0.0000 0.0000 0.0000 38.9962 0.0000 7.9947
# 5 -13.8701 12.1401 1.2572 0.0000 40.0715 0.0000
# 6 0.0000 0.0000 0.0000 7.9947 0.0000 14.2989
#
#
#
# Elastic Compliance Matrix: (Units=1/GPa)
#
#
# Indices 1 2 3 4 5 6 
#
# 1 0.036302 -0.007306 -0.007766 0.000000 0.015022 0.000000
# 2 -0.007306 0.032764 -0.013465 0.000000 -0.012032 0.000000
# 3 -0.007766 -0.013465 0.018907 0.000000 0.000798 0.000000
# 4 0.000000 0.000000 0.000000 0.028963 0.000000 -0.016194
# 5 0.015022 -0.012032 0.000798 0.000000 0.033775 0.000000
# 6 0.000000 0.000000 0.000000 -0.016194 0.000000 0.078990
#
#
# Mechanical properties :
#
#
# Convention : Reuss Voigt Hill
#
# Bulk Modulus (GPa) = 32.36442 43.71837 38.04139
# Shear Modulus (GPa) = 16.83079 25.72292 21.27685
#
# Velocity S-wave (km/s) = 2.87490 3.55411 3.23240
# Velocity P-wave (km/s) = 5.18780 6.18959 5.71070
#
# Compressibility (1/GPa) = 0.03089813
#
# Stress axis : x y z
#
# Youngs Moduli (GPa) = 27.54680 30.52139 52.89180
#
# Poissons Ratio (x) = 0.22298 0.41076
# Poissons Ratio (y) = 0.20125 0.71220
# Poissons Ratio (z) = 0.21393 0.41098
#
# Static dielectric constant tensor:
#      x y z
#    x 3.414740 0.000000 0.077670 
#    y 0.000000 3.225500 0.000000 
#    z 0.077670 0.000000 3.766440 
# 
# 
# High freq. dielectric constant tensor:
#      x y z
#    x 1.777800 0.000000 0.013410 
#    y 0.000000 1.757000 0.000000 
#    z 0.013410 0.000000 1.808540 
# 
# From -- ./inp_files/24464.got.cif
#   From: 2010.03.12/outbox.cif.g09.slc.cpg/sg14_13_cif.got.tgz:24464.got - 2010.03.31 13:35:05.
