data_PCOD8125594
_publ_section_title
;
Structure prediction by ZEFSAII (Michael W. Deem and Ramdas Pophale) SiO2 
 PCOD8125594
Probable space group: P 21/C
;
_chemical_formula_sum "Si O2"
_cell_formula_units_Z 32
_cell_length_a 18.906292
_cell_length_b 18.650632
_cell_length_c 9.773044
_cell_angle_alpha 90.000000
_cell_angle_beta 28.776650
_cell_angle_gamma 90.000000
_cell_volume 1658.947738
_symmetry_space_group_name_H-M "P 21/C"
_symmetry_group_IT_number 14
_symmetry_cell_setting 'monoclinic'
loop_
_space_group_symop_operation_xyz
x,y,z
-x,1/2+y,1/2-z
-x,-y,-z
x,1/2-y,1/2+z
loop_
_atom_site_type_symbol
_atom_site_label
_atom_site_fract_x
_atom_site_fract_y
_atom_site_fract_z
Si Si1 0.363546 0.332039 0.839311
Si Si2 0.501880 0.334328 0.870813
Si Si3 0.347102 0.961095 0.771970
Si Si4 0.556048 0.174741 0.752739
Si Si5 0.858316 0.540872 0.186086
Si Si6 0.865492 0.940954 0.358568
Si Si7 0.199580 0.936577 0.736452
Si Si8 0.685460 0.672334 0.549446
O O1 0.430319 0.372332 0.858754
O O2 0.498324 0.329526 0.505159
O O3 0.295059 0.256885 0.011397
O O4 0.229638 0.370037 0.992623
O O5 0.633341 0.378739 0.716491
O O6 0.575542 0.259831 0.695123
O O7 0.366819 0.330881 0.205463
O O8 0.254202 0.965215 0.790598
O O9 0.500000 0.000000 0.500000
O O10 0.276977 0.000529 0.018746
O O11 0.708791 0.132133 0.472831
O O12 0.439931 0.141876 0.841101
O O13 0.834829 0.625373 0.270113
O O14 0.860494 0.530682 0.020697
O O15 0.000000 0.500000 0.000000
O O16 0.789016 0.000303 0.393169
O O17 0.028422 0.917046 0.038856
#
# Coordination Sequence:
#
# PCOD8125594 Si02
#       8
#     4   4   4   4   4   4   4   4
#     4  10  22  38  66  92 117 162 205 253 308 371
#     4  10  21  37  66  93 121 156 210 257 312 362
#     4  12  22  39  64  91 122 165 206 260 312 364
#     4  10  20  40  64  91 121 157 208 264 305 359
#     4  12  24  41  62  90 125 164 212 251 304 379
#     4  11  25  43  60  88 129 166 204 249 313 378
#     4  11  24  42  60  87 129 163 200 258 313 360
#     4  10  20  40  64  88 124 159 207 258 306 364
#
# _framework density 19.289335999999999
#
# number of rings (size 3 to 8) (size 9 to 14) (size 15 to 20)
#    0.000    1.250    5.000    0.750    1.750    0.500 
#    2.250    0.000    0.000    0.000    0.000    0.000 
#    0.000    0.000    0.000    0.000    0.000    0.000 
#
# Total GULP energy -396608.779966 kJ/mol
# GULP energy per Si atom -12394.024374 kJ/mol
# Density = 1.924543 g / cm^3
# Si number density = 19.289336 Si / 1000 Ang^3
#
#
#
# Elastic Constant Matrix: (Units=GPa)
#
#
# Indices 1 2 3 4 5 6 
#
# 1 133.9163 44.6742 34.7601 0.0000 9.9090 0.0000
# 2 44.6742 93.9412 45.3382 0.0000 -7.3579 0.0000
# 3 34.7601 45.3382 91.3203 0.0000 0.5955 0.0000
# 4 0.0000 0.0000 0.0000 33.2482 0.0000 0.6880
# 5 9.9090 -7.3579 0.5955 0.0000 33.3492 0.0000
# 6 0.0000 0.0000 0.0000 0.6880 0.0000 31.8756
#
#
#
# Elastic Compliance Matrix: (Units=1/GPa)
#
#
# Indices 1 2 3 4 5 6 
#
# 1 0.009500 -0.004041 -0.001586 0.000000 -0.003686 0.000000
# 2 -0.004041 0.016071 -0.006473 0.000000 0.004862 0.000000
# 3 -0.001586 -0.006473 0.014775 0.000000 -0.001221 0.000000
# 4 0.000000 0.000000 0.000000 0.030090 0.000000 -0.000650
# 5 -0.003686 0.004862 -0.001221 0.000000 0.032176 0.000000
# 6 0.000000 0.000000 0.000000 -0.000650 0.000000 0.031386
#
#
# Mechanical properties :
#
#
# Convention : Reuss Voigt Hill
#
# Bulk Modulus (GPa) = 61.92713 63.19144 62.55929
# Shear Modulus (GPa) = 30.56617 32.65493 31.61055
#
# Velocity S-wave (km/s) = 3.98504 4.11895 4.05255
# Velocity P-wave (km/s) = 7.30398 7.44660 7.37564
#
# Compressibility (1/GPa) = 0.01614801
#
# Stress axis : x y z
#
# Youngs Moduli (GPa) = 105.26574 62.22256 67.67991
#
# Poissons Ratio (x) = 0.25145 0.10732
# Poissons Ratio (y) = 0.42539 0.43806
# Poissons Ratio (z) = 0.16692 0.40274
#
# Static dielectric constant tensor:
#      x y z
#    x 3.891380 0.000000 0.244110 
#    y 0.000000 3.710060 0.000000 
#    z 0.244110 0.000000 3.412140 
# 
# 
# High freq. dielectric constant tensor:
#      x y z
#    x 1.763100 0.000000 0.021520 
#    y 0.000000 1.749420 0.000000 
#    z 0.021520 0.000000 1.741130 
# 
# From -- ./inp_files/18229.got.cif
#   From: 2010.03.12/outbox.cif.g09.slc.cpg/sg14_10_cif.got.tgz:18229.got - 2010.03.31 13:35:05.
