data_PCOD8125186
_publ_section_title
;
Structure prediction by ZEFSAII (Michael W. Deem and Ramdas Pophale) SiO2 
 PCOD8125186
Probable space group: P 21/C
;
_chemical_formula_sum "Si O2"
_cell_formula_units_Z 24
_cell_length_a 13.570608
_cell_length_b 8.974122
_cell_length_c 16.890221
_cell_angle_alpha 90.000000
_cell_angle_beta 143.431616
_cell_angle_gamma 90.000000
_cell_volume 1225.501451
_symmetry_space_group_name_H-M "P 21/C"
_symmetry_group_IT_number 14
_symmetry_cell_setting 'monoclinic'
loop_
_space_group_symop_operation_xyz
x,y,z
-x,1/2+y,1/2-z
-x,-y,-z
x,1/2-y,1/2+z
loop_
_atom_site_type_symbol
_atom_site_label
_atom_site_fract_x
_atom_site_fract_y
_atom_site_fract_z
Si Si1 0.157277 0.237494 0.020165
Si Si2 0.139244 0.941948 0.725508
Si Si3 0.330294 0.820279 0.711949
Si Si4 0.505854 0.901354 0.238018
Si Si5 0.004092 0.259340 0.079040
Si Si6 0.198450 0.556533 0.447966
O O1 0.320355 0.320242 0.156069
O O2 0.080756 0.172922 0.052593
O O3 0.030578 0.352598 0.897437
O O4 0.196946 0.109232 0.983210
O O5 0.295756 0.866910 0.780468
O O6 0.185732 0.944415 0.846556
O O7 0.125568 0.112665 0.688940
O O8 0.409163 0.652717 0.756365
O O9 0.159817 0.842321 0.556067
O O10 0.462760 0.922488 0.749602
O O11 0.371457 0.861661 0.082214
O O12 0.961507 0.142595 0.120553
#
# Coordination Sequence:
#
# PCOD8125186 Si02
#       6
#     4   4   4   4   4   4
#     4  11  20  39  60  83 112 157 193 224 277 343
#     4  11  21  39  59  86 116 149 186 236 288 330
#     4  10  20  37  61  81 111 152 193 229 277 345
#     4  11  20  37  58  84 109 154 192 229 274 342
#     4  10  20  38  62  80 115 154 192 224 277 348
#     4  11  24  35  58  91 118 141 189 244 282 323
#
# _framework density 19.583819999999999
#
# number of rings (size 3 to 8) (size 9 to 14) (size 15 to 20)
#    0.000    1.333    5.000    2.500    0.000    0.667 
#    0.000    0.000    0.000    2.000    0.000    0.000 
#    0.000    0.000    0.000    0.000    0.000    0.000 
#
# Total GULP energy -297335.031020 kJ/mol
# GULP energy per Si atom -12388.959626 kJ/mol
# Density = 1.953925 g / cm^3
# Si number density = 19.583820 Si / 1000 Ang^3
#
#
#
# Elastic Constant Matrix: (Units=GPa)
#
#
# Indices 1 2 3 4 5 6 
#
# 1 105.1710 47.0989 53.7201 0.0000 -13.9628 0.0000
# 2 47.0989 70.1506 31.4011 0.0000 -6.2984 0.0000
# 3 53.7201 31.4011 85.3526 0.0000 -2.1860 0.0000
# 4 0.0000 0.0000 0.0000 21.6158 0.0000 4.4646
# 5 -13.9628 -6.2984 -2.1860 0.0000 34.4345 0.0000
# 6 0.0000 0.0000 0.0000 4.4646 0.0000 40.2806
#
#
#
# Elastic Compliance Matrix: (Units=1/GPa)
#
#
# Indices 1 2 3 4 5 6 
#
# 1 0.017972 -0.007885 -0.008274 0.000000 0.005320 0.000000
# 2 -0.007885 0.020784 -0.002673 0.000000 0.000435 0.000000
# 3 -0.008274 -0.002673 0.017838 0.000000 -0.002712 0.000000
# 4 0.000000 0.000000 0.000000 0.047346 0.000000 -0.005248
# 5 0.005320 0.000435 -0.002712 0.000000 0.031105 0.000000
# 6 0.000000 0.000000 0.000000 -0.005248 0.000000 0.025408
#
#
# Mechanical properties :
#
#
# Convention : Reuss Voigt Hill
#
# Bulk Modulus (GPa) = 52.82564 58.34607 55.58585
# Shear Modulus (GPa) = 24.45852 27.82978 26.14415
#
# Velocity S-wave (km/s) = 3.53783 3.77378 3.65771
# Velocity P-wave (km/s) = 6.61219 6.98901 6.80321
#
# Compressibility (1/GPa) = 0.01893020
#
# Stress axis : x y z
#
# Youngs Moduli (GPa) = 55.64126 48.11299 56.06084
#
# Poissons Ratio (x) = 0.37937 0.46387
# Poissons Ratio (y) = 0.43873 0.14983
# Poissons Ratio (z) = 0.46040 0.12859
#
# Static dielectric constant tensor:
#      x y z
#    x 3.752810 0.000000 0.245620 
#    y 0.000000 3.614670 0.000000 
#    z 0.245620 0.000000 3.532920 
# 
# 
# High freq. dielectric constant tensor:
#      x y z
#    x 1.763550 0.000000 0.020160 
#    y 0.000000 1.759110 0.000000 
#    z 0.020160 0.000000 1.753040 
# 
# From -- ./inp_files/56994.got.cif
#   From: 2010.03.12/outbox.cif.g09.slc.cpg/sg14_29_cif.got.tgz:56994.got - 2010.03.31 13:35:05.
