data_PCOD8125591
_publ_section_title
;
Structure prediction by ZEFSAII (Michael W. Deem and Ramdas Pophale) SiO2 
 PCOD8125591
Probable space group: P 21/C
;
_chemical_formula_sum "Si O2"
_cell_formula_units_Z 20
_cell_length_a 16.158697
_cell_length_b 12.703639
_cell_length_c 8.726886
_cell_angle_alpha 90.000000
_cell_angle_beta 32.316428
_cell_angle_gamma 90.000000
_cell_volume 957.675593
_symmetry_space_group_name_H-M "P 21/C"
_symmetry_group_IT_number 14
_symmetry_cell_setting 'monoclinic'
loop_
_space_group_symop_operation_xyz
x,y,z
-x,1/2+y,1/2-z
-x,-y,-z
x,1/2-y,1/2+z
loop_
_atom_site_type_symbol
_atom_site_label
_atom_site_fract_x
_atom_site_fract_y
_atom_site_fract_z
Si Si1 0.162580 0.329178 0.050601
Si Si2 0.291344 0.552275 0.847263
Si Si3 0.684589 0.879492 0.201806
Si Si4 0.521414 0.026041 0.224471
Si Si5 0.023882 0.158611 0.089905
O O1 0.052381 0.281448 0.089789
O O2 0.053877 0.356513 0.364377
O O3 0.240090 0.435878 0.874267
O O4 0.298845 0.243355 0.876366
O O5 0.389925 0.592717 0.546382
O O6 0.392081 0.547057 0.844810
O O7 0.150000 0.629767 0.096251
O O8 0.556880 0.891434 0.536349
O O9 0.641168 0.951156 0.126332
O O10 0.853230 0.913662 0.006824
#
# Coordination Sequence:
#
# PCOD8125591 Si02
#       5
#     4   4   4   4   4
#     4  10  20  40  64  86 121 166 199 251 300 359
#     4  11  21  39  66  91 123 162 198 253 303 361
#     4   9  21  40  63  86 118 164 200 245 301 368
#     4  10  21  38  61  90 121 155 202 250 312 351
#     4  10  22  39  65  84 119 166 210 238 300 361
#
# _framework density 20.883899
#
# number of rings (size 3 to 8) (size 9 to 14) (size 15 to 20)
#    1.200    0.800    2.000    1.800    0.000    0.800 
#    0.000    8.000    0.000    0.000    0.000    0.000 
#    0.000    0.000    0.000    0.000    0.000    0.000 
#
# Total GULP energy -247834.810780 kJ/mol
# GULP energy per Si atom -12391.740539 kJ/mol
# Density = 2.083637 g / cm^3
# Si number density = 20.883899 Si / 1000 Ang^3
#
#
#
# Elastic Constant Matrix: (Units=GPa)
#
#
# Indices 1 2 3 4 5 6 
#
# 1 62.6111 -6.1620 30.7485 0.0000 3.2336 0.0000
# 2 -6.1620 27.6289 9.0266 0.0000 -0.9011 0.0000
# 3 30.7485 9.0266 108.3985 0.0000 3.1088 0.0000
# 4 0.0000 0.0000 0.0000 25.2312 0.0000 0.9461
# 5 3.2336 -0.9011 3.1088 0.0000 30.9530 0.0000
# 6 0.0000 0.0000 0.0000 0.9461 0.0000 20.5662
#
#
#
# Elastic Compliance Matrix: (Units=1/GPa)
#
#
# Indices 1 2 3 4 5 6 
#
# 1 0.019634 0.006318 -0.006059 0.000000 -0.001259 0.000000
# 2 0.006318 0.039300 -0.005093 0.000000 0.000996 0.000000
# 3 -0.006059 -0.005093 0.011387 0.000000 -0.000659 0.000000
# 4 0.000000 0.000000 0.000000 0.039702 0.000000 -0.001826
# 5 -0.001259 0.000996 -0.000659 0.000000 0.032534 0.000000
# 6 0.000000 0.000000 0.000000 -0.001826 0.000000 0.048708
#
#
# Mechanical properties :
#
#
# Convention : Reuss Voigt Hill
#
# Bulk Modulus (GPa) = 16.48787 29.54054 23.01420
# Shear Modulus (GPa) = 22.60899 26.35176 24.48038
#
# Velocity S-wave (km/s) = 3.29386 3.55607 3.42747
# Velocity P-wave (km/s) = 4.73056 5.57105 5.16792
#
# Compressibility (1/GPa) = 0.06065064
#
# Stress axis : x y z
#
# Youngs Moduli (GPa) = 50.93159 25.44562 87.81889
#
# Poissons Ratio (x) = -0.16075 0.53213
# Poissons Ratio (y) = -0.32176 0.44728
# Poissons Ratio (z) = 0.30862 0.12960
#
# Static dielectric constant tensor:
#      x y z
#    x 3.755440 0.000000 0.027000 
#    y 0.000000 3.406180 0.000000 
#    z 0.027000 0.000000 3.751730 
# 
# 
# High freq. dielectric constant tensor:
#      x y z
#    x 1.816030 0.000000 0.010660 
#    y 0.000000 1.779890 0.000000 
#    z 0.010660 0.000000 1.828990 
# 
# From -- ./inp_files/17880.got.cif
#   From: 2010.03.12/outbox.cif.g09.slc.cpg/sg14_9_cif.got.tgz:17880.got - 2010.03.31 13:35:05.
