data_PCOD8125755
_publ_section_title
;
Structure prediction by ZEFSAII (Michael W. Deem and Ramdas Pophale) SiO2 
 PCOD8125755
Probable space group: P 21/C
;
_chemical_formula_sum "Si O2"
_cell_formula_units_Z 24
_cell_length_a 9.742900
_cell_length_b 20.149129
_cell_length_c 8.240433
_cell_angle_alpha 90.000000
_cell_angle_beta 136.645722
_cell_angle_gamma 90.000000
_cell_volume 1110.554388
_symmetry_space_group_name_H-M "P 21/C"
_symmetry_group_IT_number 14
_symmetry_cell_setting 'monoclinic'
loop_
_space_group_symop_operation_xyz
x,y,z
-x,1/2+y,1/2-z
-x,-y,-z
x,1/2-y,1/2+z
loop_
_atom_site_type_symbol
_atom_site_label
_atom_site_fract_x
_atom_site_fract_y
_atom_site_fract_z
Si Si1 0.921275 0.165907 0.047924
Si Si2 0.206139 0.050618 0.323924
Si Si3 0.108691 0.240896 0.935824
Si Si4 0.715379 0.656577 0.664359
Si Si5 0.844836 0.533879 0.586166
Si Si6 0.572731 0.414742 0.361099
O O1 0.074551 0.113872 0.258214
O O2 0.938787 0.233088 0.166727
O O3 0.698208 0.136573 0.857045
O O4 0.994026 0.181928 0.929257
O O5 0.403486 0.053291 0.602220
O O6 0.256746 0.050989 0.175488
O O7 0.077175 0.985023 0.257181
O O8 0.296997 0.208233 0.998341
O O9 0.182587 0.302912 0.103235
O O10 0.845793 0.593840 0.715495
O O11 0.506977 0.626637 0.551204
O O12 0.714766 0.473363 0.549942
#
# Coordination Sequence:
#
# PCOD8125755 Si02
#       6
#     4   4   4   4   4   4
#     4  10  21  42  62  89 125 164 216 255 312 377
#     4  10  20  42  65  92 128 168 198 264 316 372
#     4  10  22  42  66  84 126 177 205 256 323 368
#     4  11  22  41  65  93 124 168 208 261 311 376
#     4  10  22  40  66  95 130 160 209 259 319 372
#     4  11  23  39  66  98 125 159 217 263 312 372
#
# _framework density 21.61083
#
# number of rings (size 3 to 8) (size 9 to 14) (size 15 to 20)
#    0.000    1.667    3.333    1.000    0.000    2.000 
#    3.000    1.667    0.000    0.000    0.000    0.000 
#    0.000    0.000    0.000    0.000    0.000    0.000 
#
# Total GULP energy -297416.031804 kJ/mol
# GULP energy per Si atom -12392.334658 kJ/mol
# Density = 2.156164 g / cm^3
# Si number density = 21.610830 Si / 1000 Ang^3
#
#
#
# Elastic Constant Matrix: (Units=GPa)
#
#
# Indices 1 2 3 4 5 6 
#
# 1 143.7022 66.3168 41.4120 0.0000 -7.4945 0.0000
# 2 66.3168 110.3606 33.6219 0.0000 -5.2765 0.0000
# 3 41.4120 33.6219 61.0770 0.0000 3.5695 0.0000
# 4 0.0000 0.0000 0.0000 28.6489 0.0000 -7.9789
# 5 -7.4945 -5.2765 3.5695 0.0000 27.2957 0.0000
# 6 0.0000 0.0000 0.0000 -7.9789 0.0000 55.2272
#
#
#
# Elastic Compliance Matrix: (Units=1/GPa)
#
#
# Indices 1 2 3 4 5 6 
#
# 1 0.010705 -0.004866 -0.004733 0.000000 0.002617 0.000000
# 2 -0.004866 0.013333 -0.004145 0.000000 0.001783 0.000000
# 3 -0.004733 -0.004145 0.022155 0.000000 -0.004998 0.000000
# 4 0.000000 0.000000 0.000000 0.036369 0.000000 0.005254
# 5 0.002617 0.001783 -0.004998 0.000000 0.038353 0.000000
# 6 0.000000 0.000000 0.000000 0.005254 0.000000 0.018866
#
#
# Mechanical properties :
#
#
# Convention : Reuss Voigt Hill
#
# Bulk Modulus (GPa) = 53.45600 66.42682 59.94141
# Shear Modulus (GPa) = 28.81807 33.82028 31.31918
#
# Velocity S-wave (km/s) = 3.65568 3.96026 3.81101
# Velocity P-wave (km/s) = 6.52749 7.19139 6.86746
#
# Compressibility (1/GPa) = 0.01870697
#
# Stress axis : x y z
#
# Youngs Moduli (GPa) = 93.41812 75.00201 45.13583
#
# Poissons Ratio (x) = 0.36492 0.21361
# Poissons Ratio (y) = 0.45453 0.18708
# Poissons Ratio (z) = 0.44211 0.31087
#
# Static dielectric constant tensor:
#      x y z
#    x 4.182380 0.000000 -0.121060 
#    y 0.000000 4.166090 0.000000 
#    z -0.121060 0.000000 3.347220 
# 
# 
# High freq. dielectric constant tensor:
#      x y z
#    x 1.861480 0.000000 -0.014560 
#    y 0.000000 1.868770 0.000000 
#    z -0.014560 0.000000 1.801190 
# 
# From -- ./inp_files/10273.got.cif
#   From: 2010.03.12/outbox.cif.g09.slc.cpg/sg14_6_cif.got.tgz:10273.got - 2010.03.31 13:35:05.
