data_PCOD8125197
_publ_section_title
;
Structure prediction by ZEFSAII (Michael W. Deem and Ramdas Pophale) SiO2 
 PCOD8125197
Probable space group: P 21/C
;
_chemical_formula_sum "Si O2"
_cell_formula_units_Z 20
_cell_length_a 10.473212
_cell_length_b 5.000880
_cell_length_c 28.292343
_cell_angle_alpha 90.000000
_cell_angle_beta 32.255565
_cell_angle_gamma 90.000000
_cell_volume 790.841999
_symmetry_space_group_name_H-M "P 21/C"
_symmetry_group_IT_number 14
_symmetry_cell_setting 'monoclinic'
loop_
_space_group_symop_operation_xyz
x,y,z
-x,1/2+y,1/2-z
-x,-y,-z
x,1/2-y,1/2+z
loop_
_atom_site_type_symbol
_atom_site_label
_atom_site_fract_x
_atom_site_fract_y
_atom_site_fract_z
Si Si1 0.541087 0.271908 0.088362
Si Si2 0.229143 0.394216 0.866035
Si Si3 0.070789 0.359265 0.699455
Si Si4 0.274643 0.417609 0.262331
Si Si5 0.846116 0.719382 0.508966
O O1 0.387944 0.236841 0.184848
O O2 0.647908 0.567242 0.054166
O O3 0.759719 0.064402 0.016111
O O4 0.348828 0.231871 0.106054
O O5 0.516198 0.406747 0.779228
O O6 0.154689 0.267572 0.839601
O O7 0.132496 0.212777 0.940277
O O8 0.105702 0.689627 0.907612
O O9 0.937268 0.391828 0.690935
O O10 0.924227 0.143231 0.775452
#
# Coordination Sequence:
#
# PCOD8125197 Si02
#       5
#     4   4   4   4   4
#     4  10  20  39  60  83 112 155 198 238 288 345
#     4  10  21  36  57  88 119 153 193 240 294 348
#     4  10  20  37  61  87 115 152 200 247 290 340
#     4  10  21  36  61  90 118 154 201 246 287 346
#     4  10  22  38  59  83 120 156 189 237 297 352
#
# _framework density 25.289497999999998
#
# number of rings (size 3 to 8) (size 9 to 14) (size 15 to 20)
#    0.000    2.000    0.000    4.800    0.000   10.400 
#    0.000    2.000    0.000    0.000    0.000    0.000 
#    0.000    0.000    0.000    0.000    0.000    0.000 
#
# Total GULP energy -248015.496894 kJ/mol
# GULP energy per Si atom -12400.774845 kJ/mol
# Density = 2.523194 g / cm^3
# Si number density = 25.289498 Si / 1000 Ang^3
#
#
#
# Elastic Constant Matrix: (Units=GPa)
#
#
# Indices 1 2 3 4 5 6 
#
# 1 166.3799 30.4389 37.9152 0.0000 -35.6897 0.0000
# 2 30.4389 52.7418 -0.6226 0.0000 2.0527 0.0000
# 3 37.9152 -0.6226 72.0919 0.0000 -7.4856 0.0000
# 4 0.0000 0.0000 0.0000 23.7754 0.0000 -9.5731
# 5 -35.6897 2.0527 -7.4856 0.0000 39.2358 0.0000
# 6 0.0000 0.0000 0.0000 -9.5731 0.0000 47.5735
#
#
#
# Elastic Compliance Matrix: (Units=1/GPa)
#
#
# Indices 1 2 3 4 5 6 
#
# 1 0.009973 -0.006141 -0.004410 0.000000 0.008552 0.000000
# 2 -0.006141 0.022780 0.002778 0.000000 -0.006248 0.000000
# 3 -0.004410 0.002778 0.016102 0.000000 -0.001085 0.000000
# 4 0.000000 0.000000 0.000000 0.045769 0.000000 0.009210
# 5 0.008552 -0.006248 -0.001085 0.000000 0.033386 0.000000
# 6 0.000000 0.000000 0.000000 0.009210 0.000000 0.022873
#
#
# Mechanical properties :
#
#
# Convention : Reuss Voigt Hill
#
# Bulk Modulus (GPa) = 30.02219 47.40850 38.71535
# Shear Modulus (GPa) = 28.16384 37.01576 32.58980
#
# Velocity S-wave (km/s) = 3.34077 3.82996 3.59370
# Velocity P-wave (km/s) = 5.17476 6.19234 5.70628
#
# Compressibility (1/GPa) = 0.03330869
#
# Stress axis : x y z
#
# Youngs Moduli (GPa) = 100.26874 43.89765 62.10405
#
# Poissons Ratio (x) = 0.26956 0.27390
# Poissons Ratio (y) = 0.61572 -0.17250
# Poissons Ratio (z) = 0.44221 -0.12193
#
# Static dielectric constant tensor:
#      x y z
#    x 4.872390 0.000000 -0.334990 
#    y 0.000000 4.384290 0.000000 
#    z -0.334990 0.000000 4.285420 
# 
# 
# High freq. dielectric constant tensor:
#      x y z
#    x 2.014960 0.000000 -0.032830 
#    y 0.000000 2.008130 0.000000 
#    z -0.032830 0.000000 1.984410 
# 
# From -- ./inp_files/75860.got.cif
#   From: 2010.03.12/outbox.cif.g09.slc.cpg/sg14_38_cif.got.tgz:75860.got - 2010.03.31 13:35:05.
