data_PCOD8125076
_publ_section_title
;
Structure prediction by ZEFSAII (Michael W. Deem and Ramdas Pophale) SiO2 
 PCOD8125076
Probable space group: P 21/C
;
_chemical_formula_sum "Si O2"
_cell_formula_units_Z 32
_cell_length_a 9.058375
_cell_length_b 17.408693
_cell_length_c 20.788259
_cell_angle_alpha 90.000000
_cell_angle_beta 150.632199
_cell_angle_gamma 90.000000
_cell_volume 1607.672212
_symmetry_space_group_name_H-M "P 21/C"
_symmetry_group_IT_number 14
_symmetry_cell_setting 'monoclinic'
loop_
_space_group_symop_operation_xyz
x,y,z
-x,1/2+y,1/2-z
-x,-y,-z
x,1/2-y,1/2+z
loop_
_atom_site_type_symbol
_atom_site_label
_atom_site_fract_x
_atom_site_fract_y
_atom_site_fract_z
Si Si1 0.328482 0.555863 0.274233
Si Si2 0.656013 0.887677 0.777293
Si Si3 0.669622 0.519379 0.000001
Si Si4 0.722307 0.190016 0.000001
Si Si5 0.192128 0.853990 0.499999
Si Si6 0.453163 0.387677 0.277295
Si Si7 0.231556 0.944137 0.225770
Si Si8 0.562418 0.584369 0.500001
O O1 0.553995 0.598204 0.311332
O O2 0.390655 0.464933 0.294358
O O3 0.397563 0.593189 0.369223
O O4 0.974891 0.568447 0.125304
O O5 0.357860 0.852359 0.631499
O O6 0.925507 0.827917 0.873653
O O7 0.786775 0.964933 0.794356
O O8 0.730730 0.434732 0.000003
O O9 0.473683 0.568446 0.874699
O O10 0.500000 0.500000 0.000000
O O11 0.564773 0.148373 1.000000
O O12 0.694528 0.281926 0.000000
O O13 0.569118 0.172083 0.873658
O O14 0.831859 0.852358 0.368498
O O15 0.691337 0.401796 0.311333
O O16 0.920676 0.906811 0.130781
O O17 0.500000 0.500000 0.500000
#
# Coordination Sequence:
#
# PCOD8125076 Si02
#       8
#     4   4   4   4   4   4   4   4
#     4  10  20  36  62  92 115 146 203 254 294 330
#     4  10  20  38  62  87 114 154 201 251 288 348
#     4  10  21  37  65  90 116 151 198 255 297 349
#     4  12  23  37  61  84 125 166 193 237 304 367
#     4  10  23  39  61  85 115 158 204 237 303 362
#     4  10  20  38  62  87 114 154 201 251 288 348
#     4  10  20  36  62  92 115 146 203 254 294 330
#     4  12  21  35  58  95 126 155 196 245 291 358
#
# _framework density 19.904554000000001
#
# number of rings (size 3 to 8) (size 9 to 14) (size 15 to 20)
#    0.000    1.500    2.500    3.000    3.500    5.000 
#    0.000    0.000   16.500    0.000    0.000    0.000 
#    0.000    0.000    0.000    0.000    0.000    0.000 
#
# Total GULP energy -396644.851316 kJ/mol
# GULP energy per Si atom -12395.151604 kJ/mol
# Density = 1.985925 g / cm^3
# Si number density = 19.904554 Si / 1000 Ang^3
#
#
#
# Elastic Constant Matrix: (Units=GPa)
#
#
# Indices 1 2 3 4 5 6 
#
# 1 101.2220 21.7483 54.6699 0.0000 -0.1896 0.0000
# 2 21.7483 62.7001 34.6078 0.0000 -0.1160 0.0000
# 3 54.6699 34.6078 160.3340 0.0000 -0.3426 0.0000
# 4 0.0000 0.0000 0.0000 11.2027 0.0000 0.0333
# 5 -0.1896 -0.1160 -0.3426 0.0000 33.8148 0.0000
# 6 0.0000 0.0000 0.0000 0.0333 0.0000 14.8434
#
#
#
# Elastic Compliance Matrix: (Units=1/GPa)
#
#
# Indices 1 2 3 4 5 6 
#
# 1 0.012378 -0.002229 -0.003739 0.000000 0.000024 0.000000
# 2 -0.002229 0.018508 -0.003235 0.000000 0.000018 0.000000
# 3 -0.003739 -0.003235 0.008210 0.000000 0.000051 0.000000
# 4 0.000000 0.000000 0.000000 0.089265 0.000000 -0.000201
# 5 0.000024 0.000018 0.000051 0.000000 0.029574 0.000000
# 6 0.000000 0.000000 0.000000 -0.000201 0.000000 0.067370
#
#
# Mechanical properties :
#
#
# Convention : Reuss Voigt Hill
#
# Bulk Modulus (GPa) = 48.33457 60.70090 54.51773
# Shear Modulus (GPa) = 19.95148 26.18751 23.06950
#
# Velocity S-wave (km/s) = 3.16944 3.63113 3.40811
# Velocity P-wave (km/s) = 6.14245 6.93847 6.55256
#
# Compressibility (1/GPa) = 0.02068913
#
# Stress axis : x y z
#
# Youngs Moduli (GPa) = 80.78901 54.03172 121.79854
#
# Poissons Ratio (x) = 0.12046 0.45544
# Poissons Ratio (y) = 0.18012 0.39397
# Poissons Ratio (z) = 0.30209 0.17477
#
# Static dielectric constant tensor:
#      x y z
#    x 3.566530 0.000000 0.001190 
#    y 0.000000 3.412670 0.000000 
#    z 0.001190 0.000000 3.431800 
# 
# 
# High freq. dielectric constant tensor:
#      x y z
#    x 1.774340 0.000000 -0.000230 
#    y 0.000000 1.747390 0.000000 
#    z -0.000230 0.000000 1.799310 
# 
# From -- ./inp_files/66039.got.cif
#   From: 2010.03.12/outbox.cif.g09.slc.cpg/sg14_34_cif.got.tgz:66039.got - 2010.03.31 13:35:05.
