data_PCOD8125001
_publ_section_title
;
Structure prediction by ZEFSAII (Michael W. Deem and Ramdas Pophale) SiO2 
 PCOD8125001
Probable space group: P 21/C
;
_chemical_formula_sum "Si O2"
_cell_formula_units_Z 32
_cell_length_a 8.910828
_cell_length_b 14.246120
_cell_length_c 13.246597
_cell_angle_alpha 90.000000
_cell_angle_beta 93.114814
_cell_angle_gamma 90.000000
_cell_volume 1679.101331
_symmetry_space_group_name_H-M "P 21/C"
_symmetry_group_IT_number 14
_symmetry_cell_setting 'monoclinic'
loop_
_space_group_symop_operation_xyz
x,y,z
-x,1/2+y,1/2-z
-x,-y,-z
x,1/2-y,1/2+z
loop_
_atom_site_type_symbol
_atom_site_label
_atom_site_fract_x
_atom_site_fract_y
_atom_site_fract_z
Si Si1 0.812434 0.691572 0.294353
Si Si2 0.389128 0.655759 0.720198
Si Si3 0.431931 0.315138 0.878058
Si Si4 0.660304 0.060345 0.108585
Si Si5 0.680128 0.041837 0.326759
Si Si6 0.841320 0.304587 0.736436
Si Si7 0.327797 0.470308 0.594294
Si Si8 0.634727 0.649813 0.896073
O O1 0.725268 0.678505 0.186438
O O2 0.794372 0.599610 0.363520
O O3 0.755206 0.781789 0.351625
O O4 0.985063 0.708452 0.276933
O O5 0.482110 0.719449 0.645476
O O6 0.229730 0.704512 0.739017
O O7 0.351141 0.557294 0.669152
O O8 0.480852 0.643017 0.827185
O O9 0.526056 0.406016 0.849348
O O10 0.401627 0.313962 0.994874
O O11 0.664251 0.997975 0.211995
O O12 0.753482 0.156077 0.133358
O O13 0.484967 0.085264 0.081391
O O14 0.732392 0.005089 0.017056
O O15 0.814225 0.119712 0.327490
O O16 0.709013 0.955039 0.403008
#
# Coordination Sequence:
#
# PCOD8125001 Si02
#       8
#     4   4   4   4   4   4   4   4
#     4  11  23  38  50  84 122 145 180 232 274 346
#     4  10  20  36  58  85 106 146 186 237 274 326
#     4  10  21  35  59  81 108 145 188 236 281 316
#     4   9  19  36  60  82 108 141 189 236 273 320
#     4   9  18  40  56  80 106 144 189 236 271 320
#     4   9  21  40  53  78 124 143 175 231 282 333
#     4  11  20  34  62  85 108 143 192 230 283 319
#     4  11  21  35  61  82 108 145 195 232 277 323
#
# _framework density 19.057811999999998
#
# number of rings (size 3 to 8) (size 9 to 14) (size 15 to 20)
#    0.750    1.250    2.500    1.125    5.250    1.500 
#    2.250    0.625    0.000    0.000    0.000    0.000 
#    0.000    0.000    0.000    0.000    0.000    0.000 
#
# Total GULP energy -396620.744679 kJ/mol
# GULP energy per Si atom -12394.398271 kJ/mol
# Density = 1.901444 g / cm^3
# Si number density = 19.057812 Si / 1000 Ang^3
#
#
#
# Elastic Constant Matrix: (Units=GPa)
#
#
# Indices 1 2 3 4 5 6 
#
# 1 128.1788 49.1233 38.2260 0.0000 -13.0042 0.0000
# 2 49.1233 98.8055 16.5004 0.0000 -3.5247 0.0000
# 3 38.2260 16.5004 82.2113 0.0000 -11.3092 0.0000
# 4 0.0000 0.0000 0.0000 17.1146 0.0000 -0.7507
# 5 -13.0042 -3.5247 -11.3092 0.0000 14.5384 0.0000
# 6 0.0000 0.0000 0.0000 -0.7507 0.0000 19.0302
#
#
#
# Elastic Compliance Matrix: (Units=1/GPa)
#
#
# Indices 1 2 3 4 5 6 
#
# 1 0.011311 -0.004827 -0.003426 0.000000 0.006282 0.000000
# 2 -0.004827 0.012545 -0.000503 0.000000 -0.001667 0.000000
# 3 -0.003426 -0.000503 0.015027 0.000000 0.008503 0.000000
# 4 0.000000 0.000000 0.000000 0.058531 0.000000 0.002309
# 5 0.006282 -0.001667 0.008503 0.000000 0.080612 0.000000
# 6 0.000000 0.000000 0.000000 0.002309 0.000000 0.052639
#
#
# Mechanical properties :
#
#
# Convention : Reuss Voigt Hill
#
# Bulk Modulus (GPa) = 46.79198 57.43276 52.11237
# Shear Modulus (GPa) = 19.58472 23.82638 21.70555
#
# Velocity S-wave (km/s) = 3.20917 3.53968 3.37847
# Velocity P-wave (km/s) = 6.19174 6.84889 6.52859
#
# Compressibility (1/GPa) = 0.02137118
#
# Stress axis : x y z
#
# Youngs Moduli (GPa) = 88.41287 79.71133 66.54471
#
# Poissons Ratio (x) = 0.38477 0.22799
# Poissons Ratio (y) = 0.42677 0.03346
# Poissons Ratio (z) = 0.30292 0.04008
#
# Static dielectric constant tensor:
#      x y z
#    x 3.178990 0.000000 -0.135410 
#    y 0.000000 3.507550 0.000000 
#    z -0.135410 0.000000 3.478500 
# 
# 
# High freq. dielectric constant tensor:
#      x y z
#    x 1.713300 0.000000 -0.014420 
#    y 0.000000 1.746900 0.000000 
#    z -0.014420 0.000000 1.733450 
# 
# From -- ./inp_files/40975.got.cif
#   From: 2010.03.12/outbox.cif.g09.slc.cpg/sg14_21_cif.got.tgz:40975.got - 2010.03.31 13:35:05.
