data_PCOD8125906
_publ_section_title
;
Structure prediction by ZEFSAII (Michael W. Deem and Ramdas Pophale) SiO2 
 PCOD8125906
Probable space group: P 21/C
;
_chemical_formula_sum "Si O2"
_cell_formula_units_Z 32
_cell_length_a 17.154424
_cell_length_b 18.993230
_cell_length_c 17.723425
_cell_angle_alpha 90.000000
_cell_angle_beta 15.962668
_cell_angle_gamma 90.000000
_cell_volume 1588.080963
_symmetry_space_group_name_H-M "P 21/C"
_symmetry_group_IT_number 14
_symmetry_cell_setting 'monoclinic'
loop_
_space_group_symop_operation_xyz
x,y,z
-x,1/2+y,1/2-z
-x,-y,-z
x,1/2-y,1/2+z
loop_
_atom_site_type_symbol
_atom_site_label
_atom_site_fract_x
_atom_site_fract_y
_atom_site_fract_z
Si Si1 0.248825 0.206219 0.088597
Si Si2 0.393190 0.702799 0.447442
Si Si3 0.872056 0.958176 0.263557
Si Si4 0.600815 0.254948 0.894616
Si Si5 0.162983 0.153891 0.584836
Si Si6 0.617505 0.951960 0.246264
Si Si7 0.879017 0.854216 0.123516
Si Si8 0.676130 0.158097 0.574961
O O1 0.193746 0.287886 0.121692
O O2 0.952276 0.163014 0.373075
O O3 0.460027 0.203918 0.963130
O O4 0.393103 0.168647 0.884757
O O5 0.415691 0.705537 0.516521
O O6 0.296634 0.780845 0.512819
O O7 0.157053 0.646834 0.644751
O O8 0.666140 0.673571 0.149784
O O9 0.773093 0.919412 0.433021
O O10 0.975134 0.906896 0.100031
O O11 0.586432 0.002230 0.508061
O O12 0.155949 0.003833 0.013523
O O13 0.910444 0.286785 0.584367
O O14 0.421713 0.324939 0.071545
O O15 0.820011 0.896937 0.101819
O O16 0.378593 0.915827 0.415243
#
# Coordination Sequence:
#
# PCOD8125906 Si02
#       8
#     4   4   4   4   4   4   4   4
#     4  10  21  36  59  83 115 149 197 247 306 346
#     4  10  21  36  59  83 115 149 197 247 306 346
#     4  12  24  39  58  84 123 170 206 237 284 351
#     4  12  22  37  62  90 120 161 188 247 308 367
#     4  10  21  37  57  83 113 154 201 248 287 346
#     4  12  24  39  58  84 123 170 206 237 284 351
#     4  12  24  37  56  88 130 161 204 229 280 369
#     4  10  21  37  57  83 113 154 201 248 287 346
#
# _framework density 20.150107999999999
#
# number of rings (size 3 to 8) (size 9 to 14) (size 15 to 20)
#    0.000    1.000    2.500    5.250    7.000    0.000 
#    0.000    0.000    0.000    0.000    0.000   17.500 
#    0.000    0.000    0.000    0.000    0.000    0.000 
#
# Total GULP energy -396546.487051 kJ/mol
# GULP energy per Si atom -12392.077720 kJ/mol
# Density = 2.010425 g / cm^3
# Si number density = 20.150108 Si / 1000 Ang^3
#
#
#
# Elastic Constant Matrix: (Units=GPa)
#
#
# Indices 1 2 3 4 5 6 
#
# 1 104.9865 32.6926 12.9786 0.0000 -1.1763 0.0000
# 2 32.6926 51.1860 22.0867 0.0000 -1.4320 0.0000
# 3 12.9786 22.0867 87.5092 0.0000 -7.6222 0.0000
# 4 0.0000 0.0000 0.0000 33.7925 0.0000 -4.5884
# 5 -1.1763 -1.4320 -7.6222 0.0000 20.3502 0.0000
# 6 0.0000 0.0000 0.0000 -4.5884 0.0000 19.3846
#
#
#
# Elastic Compliance Matrix: (Units=1/GPa)
#
#
# Indices 1 2 3 4 5 6 
#
# 1 0.011893 -0.007673 0.000192 0.000000 0.000219 0.000000
# 2 -0.007673 0.026880 -0.005706 0.000000 -0.000689 0.000000
# 3 0.000192 -0.005706 0.013237 0.000000 0.004567 0.000000
# 4 0.000000 0.000000 0.000000 0.030575 0.000000 0.007237
# 5 0.000219 -0.000689 0.004567 0.000000 0.050815 0.000000
# 6 0.000000 0.000000 0.000000 0.007237 0.000000 0.053300
#
#
# Mechanical properties :
#
#
# Convention : Reuss Voigt Hill
#
# Bulk Modulus (GPa) = 39.00845 42.13305 40.57075
# Shear Modulus (GPa) = 22.56113 26.43372 24.49742
#
# Velocity S-wave (km/s) = 3.34975 3.62586 3.49054
# Velocity P-wave (km/s) = 5.86192 6.20356 6.03516
#
# Compressibility (1/GPa) = 0.02563547
#
# Stress axis : x y z
#
# Youngs Moduli (GPa) = 84.08266 37.20209 75.54563
#
# Poissons Ratio (x) = 0.28544 -0.01449
# Poissons Ratio (y) = 0.64514 0.43110
# Poissons Ratio (z) = -0.01612 0.21229
#
# Static dielectric constant tensor:
#      x y z
#    x 3.631060 0.000000 -0.109670 
#    y 0.000000 3.429020 0.000000 
#    z -0.109670 0.000000 3.737470 
# 
# 
# High freq. dielectric constant tensor:
#      x y z
#    x 1.772320 0.000000 -0.006860 
#    y 0.000000 1.752120 0.000000 
#    z -0.006860 0.000000 1.808870 
# 
# From -- ./inp_files/47613.got.cif
#   From: 2010.03.12/outbox.cif.g09.slc.cpg/sg14_24_cif.got.tgz:47613.got - 2010.03.31 13:35:05.
