data_PCOD8125886
_publ_section_title
;
Structure prediction by ZEFSAII (Michael W. Deem and Ramdas Pophale) SiO2 
 PCOD8125886
Probable space group: P 21/C
;
_chemical_formula_sum "Si O2"
_cell_formula_units_Z 24
_cell_length_a 17.748411
_cell_length_b 11.233712
_cell_length_c 4.934365
_cell_angle_alpha 90.000000
_cell_angle_beta 72.811003
_cell_angle_gamma 90.000000
_cell_volume 939.874319
_symmetry_space_group_name_H-M "P 21/C"
_symmetry_group_IT_number 14
_symmetry_cell_setting 'monoclinic'
loop_
_space_group_symop_operation_xyz
x,y,z
-x,1/2+y,1/2-z
-x,-y,-z
x,1/2-y,1/2+z
loop_
_atom_site_type_symbol
_atom_site_label
_atom_site_fract_x
_atom_site_fract_y
_atom_site_fract_z
Si Si1 0.132933 0.501758 0.370119
Si Si2 0.254388 0.667094 0.981761
Si Si3 0.998191 0.670052 0.621010
Si Si4 0.586597 0.828944 0.240198
Si Si5 0.426598 0.671307 0.749506
Si Si6 0.756128 0.832007 0.954806
O O1 0.193232 0.560990 0.094077
O O2 0.079637 0.599532 0.580297
O O3 0.179078 0.431816 0.556344
O O4 0.076687 0.415556 0.253560
O O5 0.241238 0.776176 0.201962
O O6 0.342794 0.608651 0.906689
O O7 0.994646 0.716979 0.318148
O O8 0.584880 0.790933 0.555011
O O9 0.506534 0.903971 0.245039
O O10 0.669561 0.894107 0.085334
O O11 0.429863 0.790930 0.933010
O O12 0.766628 0.717579 0.140914
#
# Coordination Sequence:
#
# PCOD8125886 Si02
#       6
#     4   4   4   4   4   4
#     4  11  24  40  65  88 114 150 187 230 288 339
#     4  10  21  36  56  85 117 149 190 235 278 330
#     4  11  26  45  64  88 116 147 186 231 282 346
#     4   8  14  27  48  73 106 148 186 224 272 320
#     4   8  14  27  48  73 106 148 186 224 272 320
#     4  10  21  36  56  85 117 149 190 235 278 330
#
# _framework density 25.535330999999999
#
# number of rings (size 3 to 8) (size 9 to 14) (size 15 to 20)
#    0.000    2.333    0.000    2.000    0.000    6.667 
#    0.000    0.833    0.000    0.000    0.000   23.333 
#    0.000    0.000    0.000    0.000    0.000    0.000 
#
# Total GULP energy -297453.834628 kJ/mol
# GULP energy per Si atom -12393.909776 kJ/mol
# Density = 2.547721 g / cm^3
# Si number density = 25.535331 Si / 1000 Ang^3
#
#
#
# Elastic Constant Matrix: (Units=GPa)
#
#
# Indices 1 2 3 4 5 6 
#
# 1 168.5315 35.1956 12.2889 0.0000 -34.7666 0.0000
# 2 35.1956 55.6176 -3.6409 0.0000 -0.2881 0.0000
# 3 12.2889 -3.6409 52.3437 0.0000 15.8980 0.0000
# 4 0.0000 0.0000 0.0000 -6.1499 0.0000 31.1024
# 5 -34.7666 -0.2881 15.8980 0.0000 21.5932 0.0000
# 6 0.0000 0.0000 0.0000 31.1024 0.0000 -51.9257
#
#
#
# Elastic Compliance Matrix: (Units=1/GPa)
#
#
# Indices 1 2 3 4 5 6 
#
# 1 0.019518 -0.013381 -0.019325 0.000000 0.045476 0.000000
# 2 -0.013381 0.027249 0.014774 0.000000 -0.032058 0.000000
# 3 -0.019325 0.014774 0.043869 0.000000 -0.063217 0.000000
# 4 0.000000 0.000000 0.000000 0.080129 0.000000 0.047996
# 5 0.045476 -0.032058 -0.063217 0.000000 0.165645 0.000000
# 6 0.000000 0.000000 0.000000 0.047996 0.000000 0.009490
#
#
# Mechanical properties :
#
#
# Convention : Reuss Voigt Hill
#
# Bulk Modulus (GPa) = 18.25776 40.46444 29.36110
# Shear Modulus (GPa) = 12.49927 8.21348 10.35637
#
# Velocity S-wave (km/s) = 2.21484 1.79541 2.01606
# Velocity P-wave (km/s) = 3.70219 4.49209 4.11613
#
# Compressibility (1/GPa) = 0.05477124
#
# Stress axis : x y z
#
# Youngs Moduli (GPa) = 51.23365 36.69908 22.79494
#
# Poissons Ratio (x) = 0.49107 0.44051
# Poissons Ratio (y) = 0.68556 -0.33676
# Poissons Ratio (z) = 0.99010 -0.54217
#
# Static dielectric constant tensor:
#      x y z
#    x 5.338430 0.000000 -0.350130 
#    y 0.000000 3.872130 0.000000 
#    z -0.350130 0.000000 4.424690 
# 
# 
# High freq. dielectric constant tensor:
#      x y z
#    x 2.054690 0.000000 -0.013150 
#    y 0.000000 1.958060 0.000000 
#    z -0.013150 0.000000 2.025840 
# 
# From -- ./inp_files/4060.got.cif
#   From: 2010.03.12/outbox.cif.g09.slc.cpg/sg14_3_cif.got.tgz:4060.got - 2010.03.31 13:35:05.
