data_PCOD8125527
_publ_section_title
;
Structure prediction by ZEFSAII (Michael W. Deem and Ramdas Pophale) SiO2 
 PCOD8125527
Probable space group: P 21/C
;
_chemical_formula_sum "Si O2"
_cell_formula_units_Z 28
_cell_length_a 5.452381
_cell_length_b 22.386799
_cell_length_c 12.025156
_cell_angle_alpha 90.000000
_cell_angle_beta 66.566316
_cell_angle_gamma 90.000000
_cell_volume 1346.743601
_symmetry_space_group_name_H-M "P 21/C"
_symmetry_group_IT_number 14
_symmetry_cell_setting 'monoclinic'
loop_
_space_group_symop_operation_xyz
x,y,z
-x,1/2+y,1/2-z
-x,-y,-z
x,1/2-y,1/2+z
loop_
_atom_site_type_symbol
_atom_site_label
_atom_site_fract_x
_atom_site_fract_y
_atom_site_fract_z
Si Si1 0.836741 0.639885 0.909985
Si Si2 0.872767 0.633495 0.149741
Si Si3 0.590436 0.305338 0.877181
Si Si4 0.795703 0.432842 0.449943
Si Si5 0.337795 0.077675 0.760483
Si Si6 0.322027 0.828590 0.191926
Si Si7 0.607741 0.527182 0.312502
O O1 0.786445 0.581320 0.841438
O O2 0.040311 0.681821 0.805097
O O3 0.963326 0.619318 0.005816
O O4 0.562168 0.676341 0.981276
O O5 0.586259 0.668763 0.194705
O O6 0.825744 0.572253 0.223825
O O7 0.105409 0.670010 0.172403
O O8 0.578465 0.234362 0.870490
O O9 0.690108 0.373054 0.410289
O O10 0.739762 0.492742 0.390568
O O11 0.656635 0.437697 0.595504
O O12 0.117128 0.429396 0.398896
O O13 0.480117 0.141248 0.754747
O O14 0.531027 0.020453 0.730402
#
# Coordination Sequence:
#
# PCOD8125527 Si02
#       7
#     4   4   4   4   4   4   4
#     4   9  22  39  64  91 130 163 216 260 326 386
#     4  10  24  43  63  96 129 166 216 265 320 380
#     4  10  24  43  63  94 130 169 217 266 317 390
#     4   9  21  37  64  93 128 169 218 269 326 383
#     4  10  20  39  65  93 125 172 210 270 325 383
#     4  10  21  41  63  92 127 170 216 266 327 379
#     4  10  21  40  62  93 132 165 221 268 322 387
#
# _framework density 20.790891999999999
#
# number of rings (size 3 to 8) (size 9 to 14) (size 15 to 20)
#    0.857    1.429    0.000    1.286    6.000    1.714 
#    5.143    7.143    0.000    0.000    0.000    0.000 
#    0.000    0.000    0.000    0.000    0.000    0.000 
#
# Total GULP energy -346940.412678 kJ/mol
# GULP energy per Si atom -12390.729024 kJ/mol
# Density = 2.074357 g / cm^3
# Si number density = 20.790892 Si / 1000 Ang^3
#
#
#
# Elastic Constant Matrix: (Units=GPa)
#
#
# Indices 1 2 3 4 5 6 
#
# 1 110.8807 42.4418 12.8706 0.0000 -7.8062 0.0000
# 2 42.4418 119.6144 45.7616 0.0000 -13.1640 0.0000
# 3 12.8706 45.7616 76.0644 0.0000 -11.6490 0.0000
# 4 0.0000 0.0000 0.0000 19.9882 0.0000 -11.0059
# 5 -7.8062 -13.1640 -11.6490 0.0000 24.0549 0.0000
# 6 0.0000 0.0000 0.0000 -11.0059 0.0000 19.7202
#
#
#
# Elastic Compliance Matrix: (Units=1/GPa)
#
#
# Indices 1 2 3 4 5 6 
#
# 1 0.010519 -0.003851 0.000796 0.000000 0.001692 0.000000
# 2 -0.003851 0.012474 -0.006479 0.000000 0.002439 0.000000
# 3 0.000796 -0.006479 0.017721 0.000000 0.005294 0.000000
# 4 0.000000 0.000000 0.000000 0.072224 0.000000 0.040308
# 5 0.001692 0.002439 0.005294 0.000000 0.046019 0.000000
# 6 0.000000 0.000000 0.000000 0.040308 0.000000 0.073205
#
#
# Mechanical properties :
#
#
# Convention : Reuss Voigt Hill
#
# Bulk Modulus (GPa) = 46.19889 56.52305 51.36097
# Shear Modulus (GPa) = 19.34637 26.45171 22.89904
#
# Velocity S-wave (km/s) = 3.05375 3.57076 3.32233
# Velocity P-wave (km/s) = 5.89091 6.65176 6.28287
#
# Compressibility (1/GPa) = 0.02164554
#
# Stress axis : x y z
#
# Youngs Moduli (GPa) = 95.06255 80.16808 56.43029
#
# Poissons Ratio (x) = 0.30871 -0.04491
# Poissons Ratio (y) = 0.36607 0.36563
# Poissons Ratio (z) = -0.07565 0.51944
#
# Static dielectric constant tensor:
#      x y z
#    x 3.841210 0.000000 -0.155090 
#    y 0.000000 3.493760 0.000000 
#    z -0.155090 0.000000 3.594930 
# 
# 
# High freq. dielectric constant tensor:
#      x y z
#    x 1.819860 0.000000 -0.009490 
#    y 0.000000 1.797270 0.000000 
#    z -0.009490 0.000000 1.798050 
# 
# From -- ./inp_files/21746.got.cif
#   From: 2010.03.12/outbox.cif.g09.slc.cpg/sg14_11_cif.got.tgz:21746.got - 2010.03.31 13:35:05.
