data_PCOD8125678
_publ_section_title
;
Structure prediction by ZEFSAII (Michael W. Deem and Ramdas Pophale) SiO2 
 PCOD8125678
Probable space group: P 21/C
;
_chemical_formula_sum "Si O2"
_cell_formula_units_Z 28
_cell_length_a 8.722737
_cell_length_b 16.377100
_cell_length_c 9.174907
_cell_angle_alpha 90.000000
_cell_angle_beta 104.831977
_cell_angle_gamma 90.000000
_cell_volume 1266.993788
_symmetry_space_group_name_H-M "P 21/C"
_symmetry_group_IT_number 14
_symmetry_cell_setting 'monoclinic'
loop_
_space_group_symop_operation_xyz
x,y,z
-x,1/2+y,1/2-z
-x,-y,-z
x,1/2-y,1/2+z
loop_
_atom_site_type_symbol
_atom_site_label
_atom_site_fract_x
_atom_site_fract_y
_atom_site_fract_z
Si Si1 0.743240 0.808499 0.849717
Si Si2 0.651858 0.941454 0.355630
Si Si3 0.585352 0.586869 0.528947
Si Si4 0.128773 0.570686 0.015977
Si Si5 0.664793 0.141508 0.643233
Si Si6 0.120667 0.174475 0.418531
Si Si7 0.436727 0.764089 0.123712
O O1 0.686947 0.894603 0.907904
O O2 0.832030 0.760747 0.000748
O O3 0.869944 0.824331 0.753773
O O4 0.598055 0.755894 0.750511
O O5 0.466611 0.926736 0.346121
O O6 0.754472 0.891882 0.495629
O O7 0.702897 0.037099 0.378852
O O8 0.692675 0.913189 0.201111
O O9 0.500000 0.500000 0.500000
O O10 0.462790 0.662423 0.514856
O O11 0.169166 0.596393 0.857212
O O12 0.000000 0.500000 0.000000
O O13 0.059479 0.649348 0.083928
O O14 0.622259 0.186614 0.480187
O O15 0.687804 0.204531 0.782784
#
# Coordination Sequence:
#
# PCOD8125678 Si02
#       7
#     4   4   4   4   4   4   4
#     4  12  19  40  65  94 126 171 222 262 332 393
#     4  10  20  41  63  91 129 167 216 271 327 378
#     4  11  23  36  61 104 132 159 214 289 331 374
#     4  10  25  39  58  94 133 173 215 261 330 395
#     4  11  21  38  67  92 123 167 220 274 312 387
#     4  11  21  39  66  90 125 176 217 257 321 408
#     4  11  20  37  64  97 120 161 222 271 321 381
#
# _framework density 22.099557000000001
#
# number of rings (size 3 to 8) (size 9 to 14) (size 15 to 20)
#    0.000    1.143    7.143    0.429    2.000    5.714 
#    0.000    0.714    0.000    0.000    0.000    0.000 
#    0.000    0.000    0.000    0.000    0.000    0.000 
#
# Total GULP energy -346958.401729 kJ/mol
# GULP energy per Si atom -12391.371490 kJ/mol
# Density = 2.204926 g / cm^3
# Si number density = 22.099557 Si / 1000 Ang^3
#
#
#
# Elastic Constant Matrix: (Units=GPa)
#
#
# Indices 1 2 3 4 5 6 
#
# 1 80.6302 37.4770 41.9045 0.0000 -36.5257 0.0000
# 2 37.4770 99.2730 33.9176 0.0000 -7.9248 0.0000
# 3 41.9045 33.9176 123.4697 0.0000 -37.2641 0.0000
# 4 0.0000 0.0000 0.0000 32.0931 0.0000 -12.0552
# 5 -36.5257 -7.9248 -37.2641 0.0000 33.6330 0.0000
# 6 0.0000 0.0000 0.0000 -12.0552 0.0000 44.5026
#
#
#
# Elastic Compliance Matrix: (Units=1/GPa)
#
#
# Indices 1 2 3 4 5 6 
#
# 1 0.031320 -0.009926 0.002489 0.000000 0.034433 0.000000
# 2 -0.009926 0.014292 -0.004198 0.000000 -0.012063 0.000000
# 3 0.002489 -0.004198 0.013409 0.000000 0.016570 0.000000
# 4 0.000000 0.000000 0.000000 0.034689 0.000000 0.009397
# 5 0.034433 -0.012063 0.016570 0.000000 0.082644 0.000000
# 6 0.000000 0.000000 0.000000 0.009397 0.000000 0.025016
#
#
# Mechanical properties :
#
#
# Convention : Reuss Voigt Hill
#
# Bulk Modulus (GPa) = 27.97105 58.88570 43.42838
# Shear Modulus (GPa) = 21.13667 34.71734 27.92701
#
# Velocity S-wave (km/s) = 3.09597 3.96782 3.55870
# Velocity P-wave (km/s) = 5.04623 6.90616 6.04811
#
# Compressibility (1/GPa) = 0.03575124
#
# Stress axis : x y z
#
# Youngs Moduli (GPa) = 31.92806 69.97128 74.57900
#
# Poissons Ratio (x) = 0.69450 -0.18561
# Poissons Ratio (y) = 0.31690 0.31308
# Poissons Ratio (z) = -0.07946 0.29374
#
# Static dielectric constant tensor:
#      x y z
#    x 4.101980 0.000000 -0.388430 
#    y 0.000000 4.378540 0.000000 
#    z -0.388430 0.000000 4.141290 
# 
# 
# High freq. dielectric constant tensor:
#      x y z
#    x 1.837380 0.000000 -0.033520 
#    y 0.000000 1.878840 0.000000 
#    z -0.033520 0.000000 1.866340 
# 
# From -- ./inp_files/9446.got.cif
#   From: 2010.03.12/outbox.cif.g09.slc.cpg/sg14_5_cif.got.tgz:9446.got - 2010.03.31 13:35:05.
