data_PCOD8125064
_publ_section_title
;
Structure prediction by ZEFSAII (Michael W. Deem and Ramdas Pophale) SiO2 
 PCOD8125064
Probable space group: P 21/C
;
_chemical_formula_sum "Si O2"
_cell_formula_units_Z 24
_cell_length_a 14.573432
_cell_length_b 8.698163
_cell_length_c 15.200453
_cell_angle_alpha 90.000000
_cell_angle_beta 139.524071
_cell_angle_gamma 90.000000
_cell_volume 1250.767562
_symmetry_space_group_name_H-M "P 21/C"
_symmetry_group_IT_number 14
_symmetry_cell_setting 'monoclinic'
loop_
_space_group_symop_operation_xyz
x,y,z
-x,1/2+y,1/2-z
-x,-y,-z
x,1/2-y,1/2+z
loop_
_atom_site_type_symbol
_atom_site_label
_atom_site_fract_x
_atom_site_fract_y
_atom_site_fract_z
Si Si1 0.336134 0.308965 0.596206
Si Si2 0.385777 0.866085 0.185061
Si Si3 0.158881 0.315154 0.118283
Si Si4 0.334307 0.314775 0.903707
Si Si5 0.643576 0.361992 0.143255
Si Si6 0.834548 0.326382 0.892397
O O1 0.363622 0.491550 0.603007
O O2 0.209289 0.285388 0.572313
O O3 0.293227 0.243114 0.470452
O O4 0.474609 0.228611 0.738728
O O5 0.403131 0.935440 0.296370
O O6 0.250311 0.750100 0.087266
O O7 0.241014 0.278030 0.266988
O O8 0.181266 0.492348 0.111297
O O9 0.995776 0.273160 0.014414
O O10 0.300281 0.498089 0.875495
O O11 0.500046 0.285320 0.000381
O O12 0.764656 0.233412 0.248781
#
# Coordination Sequence:
#
# PCOD8125064 Si02
#       6
#     4   4   4   4   4   4
#     4  11  21  36  62  89 117 154 204 250 298 356
#     4   9  19  38  57  87 117 158 193 242 300 355
#     4  11  21  39  62  86 121 161 199 249 292 362
#     4  10  20  36  61  90 117 150 205 245 292 354
#     4   8  18  39  57  86 116 156 192 242 298 351
#     4   9  21  40  60  83 125 166 192 239 315 351
#
# _framework density 19.188217999999999
#
# number of rings (size 3 to 8) (size 9 to 14) (size 15 to 20)
#    1.000    1.333    1.667    1.000    0.000    3.333 
#    0.000    6.667    0.000    0.000    0.000    0.000 
#    0.000    0.000    0.000    0.000    0.000    0.000 
#
# Total GULP energy -297446.232336 kJ/mol
# GULP energy per Si atom -12393.593014 kJ/mol
# Density = 1.914454 g / cm^3
# Si number density = 19.188218 Si / 1000 Ang^3
#
#
#
# Elastic Constant Matrix: (Units=GPa)
#
#
# Indices 1 2 3 4 5 6 
#
# 1 58.4265 11.5449 29.0229 0.0000 6.0706 0.0000
# 2 11.5449 62.5167 25.7052 0.0000 11.4955 0.0000
# 3 29.0229 25.7052 101.0454 0.0000 15.5728 0.0000
# 4 0.0000 0.0000 0.0000 32.0822 0.0000 1.7956
# 5 6.0706 11.4955 15.5728 0.0000 27.9097 0.0000
# 6 0.0000 0.0000 0.0000 1.7956 0.0000 29.2961
#
#
#
# Elastic Compliance Matrix: (Units=1/GPa)
#
#
# Indices 1 2 3 4 5 6 
#
# 1 0.020106 -0.001380 -0.005293 0.000000 -0.000852 0.000000
# 2 -0.001380 0.018699 -0.003523 0.000000 -0.005436 0.000000
# 3 -0.005293 -0.003523 0.013033 0.000000 -0.004670 0.000000
# 4 0.000000 0.000000 0.000000 0.031277 0.000000 -0.001917
# 5 -0.000852 -0.005436 -0.004670 0.000000 0.040860 0.000000
# 6 0.000000 0.000000 0.000000 -0.001917 0.000000 0.034252
#
#
# Mechanical properties :
#
#
# Convention : Reuss Voigt Hill
#
# Bulk Modulus (GPa) = 31.80037 39.39274 35.59655
# Shear Modulus (GPa) = 26.44131 28.23863 27.33997
#
# Velocity S-wave (km/s) = 3.71617 3.84039 3.77879
# Velocity P-wave (km/s) = 5.91794 6.34342 6.13437
#
# Compressibility (1/GPa) = 0.03144618
#
# Stress axis : x y z
#
# Youngs Moduli (GPa) = 49.73707 53.48015 76.73117
#
# Poissons Ratio (x) = 0.07381 0.40610
# Poissons Ratio (y) = 0.06864 0.27029
# Poissons Ratio (z) = 0.26324 0.18839
#
# Static dielectric constant tensor:
#      x y z
#    x 3.237230 0.000000 0.151880 
#    y 0.000000 3.394990 0.000000 
#    z 0.151880 0.000000 3.437470 
# 
# 
# High freq. dielectric constant tensor:
#      x y z
#    x 1.723140 0.000000 0.011400 
#    y 0.000000 1.749290 0.000000 
#    z 0.011400 0.000000 1.736840 
# 
# From -- ./inp_files/46595.got.cif
#   From: 2010.03.12/outbox.cif.g09.slc.cpg/sg14_24_cif.got.tgz:46595.got - 2010.03.31 13:35:05.
