data_PCOD8125706
_publ_section_title
;
Structure prediction by ZEFSAII (Michael W. Deem and Ramdas Pophale) SiO2 
 PCOD8125706
Probable space group: P 21/C
;
_chemical_formula_sum "Si O2"
_cell_formula_units_Z 32
_cell_length_a 22.077195
_cell_length_b 11.237708
_cell_length_c 7.679822
_cell_angle_alpha 90.000000
_cell_angle_beta 43.358953
_cell_angle_gamma 90.000000
_cell_volume 1308.144133
_symmetry_space_group_name_H-M "P 21/C"
_symmetry_group_IT_number 14
_symmetry_cell_setting 'monoclinic'
loop_
_space_group_symop_operation_xyz
x,y,z
-x,1/2+y,1/2-z
-x,-y,-z
x,1/2-y,1/2+z
loop_
_atom_site_type_symbol
_atom_site_label
_atom_site_fract_x
_atom_site_fract_y
_atom_site_fract_z
Si Si1 0.282671 0.915057 0.421278
Si Si2 0.549286 0.643565 0.587565
Si Si3 0.953559 0.911796 0.823252
Si Si4 0.855507 0.375603 0.092775
Si Si5 0.840439 0.372184 0.529913
Si Si6 0.256157 0.345102 0.843266
Si Si7 0.868046 0.689775 0.187707
Si Si8 0.473597 0.619637 0.390752
O O1 0.224194 0.884850 0.374713
O O2 0.252100 0.862129 0.670072
O O3 0.274771 0.057650 0.452337
O O4 0.379762 0.867863 0.182028
O O5 0.648049 0.680452 0.444296
O O6 0.548966 0.620880 0.380687
O O7 0.521835 0.510123 0.722527
O O8 0.486843 0.758780 0.751751
O O9 0.936704 0.889636 0.651733
O O10 0.055675 0.951417 0.631469
O O11 0.922520 0.799634 0.999815
O O12 0.895219 0.022284 0.004414
O O13 0.821828 0.388262 0.362997
O O14 0.894985 0.243912 0.971008
O O15 0.183451 0.390362 0.849930
O O16 0.213281 0.229055 0.018015
#
# Coordination Sequence:
#
# PCOD8125706 Si02
#       8
#     4   4   4   4   4   4   4   4
#     4  11  25  45  67  98 136 182 225 279 343 408
#     4  10  22  43  68  99 137 175 220 287 338 419
#     4  11  24  43  64  97 132 175 228 279 335 390
#     4  12  26  43  66  96 136 178 228 278 334 407
#     4  12  25  44  65  96 132 183 221 285 334 392
#     4  10  20  41  66  96 132 173 224 275 345 404
#     4  10  21  38  66  97 130 173 221 279 334 401
#     4  10  24  43  69 102 137 175 227 280 347 417
#
# _framework density 24.462133999999999
#
# number of rings (size 3 to 8) (size 9 to 14) (size 15 to 20)
#    0.000    1.250    2.500    2.625    1.750    3.000 
#    0.000    0.000    0.000    0.000    0.000    0.000 
#    0.000    0.000    0.000    0.000    0.000    0.000 
#
# Total GULP energy -396421.236557 kJ/mol
# GULP energy per Si atom -12388.163642 kJ/mol
# Density = 2.440646 g / cm^3
# Si number density = 24.462134 Si / 1000 Ang^3
#
#
#
# Elastic Constant Matrix: (Units=GPa)
#
#
# Indices 1 2 3 4 5 6 
#
# 1 94.0085 0.2424 29.0391 0.0000 -14.7414 0.0000
# 2 0.2424 90.9863 18.5304 0.0000 -2.2633 0.0000
# 3 29.0391 18.5304 92.9443 0.0000 -4.3482 0.0000
# 4 0.0000 0.0000 0.0000 35.0010 0.0000 2.2898
# 5 -14.7414 -2.2633 -4.3482 0.0000 34.1338 0.0000
# 6 0.0000 0.0000 0.0000 2.2898 0.0000 28.3965
#
#
#
# Elastic Compliance Matrix: (Units=1/GPa)
#
#
# Indices 1 2 3 4 5 6 
#
# 1 0.012621 0.000882 -0.003885 0.000000 0.005014 0.000000
# 2 0.000882 0.011525 -0.002535 0.000000 0.000822 0.000000
# 3 -0.003885 -0.002535 0.012466 0.000000 -0.000258 0.000000
# 4 0.000000 0.000000 0.000000 0.028722 0.000000 -0.002316
# 5 0.005014 0.000822 -0.000258 0.000000 0.031484 0.000000
# 6 0.000000 0.000000 0.000000 -0.002316 0.000000 0.035402
#
#
# Mechanical properties :
#
#
# Convention : Reuss Voigt Hill
#
# Bulk Modulus (GPa) = 39.15753 41.50700 40.33226
# Shear Modulus (GPa) = 32.93633 34.84808 33.89220
#
# Velocity S-wave (km/s) = 3.67334 3.77845 3.72626
# Velocity P-wave (km/s) = 5.83382 6.00335 5.91919
#
# Compressibility (1/GPa) = 0.02553787
#
# Stress axis : x y z
#
# Youngs Moduli (GPa) = 79.23092 86.76760 80.21701
#
# Poissons Ratio (x) = -0.07655 0.31162
# Poissons Ratio (y) = -0.06990 0.20335
# Poissons Ratio (z) = 0.30779 0.21995
#
# Static dielectric constant tensor:
#      x y z
#    x 4.367960 0.000000 -0.069280 
#    y 0.000000 5.028970 0.000000 
#    z -0.069280 0.000000 4.166800 
# 
# 
# High freq. dielectric constant tensor:
#      x y z
#    x 1.967570 0.000000 -0.013380 
#    y 0.000000 1.993810 0.000000 
#    z -0.013380 0.000000 1.956020 
# 
# From -- ./inp_files/19475.got.cif
#   From: 2010.03.12/outbox.cif.g09.slc.cpg/sg14_10_cif.got.tgz:19475.got - 2010.03.31 13:35:05.
