data_PCOD8125521
_publ_section_title
;
Structure prediction by ZEFSAII (Michael W. Deem and Ramdas Pophale) SiO2 
 PCOD8125521
Probable space group: P 21/C
;
_chemical_formula_sum "Si O2"
_cell_formula_units_Z 32
_cell_length_a 30.587501
_cell_length_b 8.470501
_cell_length_c 13.219015
_cell_angle_alpha 90.000000
_cell_angle_beta 28.221768
_cell_angle_gamma 90.000000
_cell_volume 1619.601764
_symmetry_space_group_name_H-M "P 21/C"
_symmetry_group_IT_number 14
_symmetry_cell_setting 'monoclinic'
loop_
_space_group_symop_operation_xyz
x,y,z
-x,1/2+y,1/2-z
-x,-y,-z
x,1/2-y,1/2+z
loop_
_atom_site_type_symbol
_atom_site_label
_atom_site_fract_x
_atom_site_fract_y
_atom_site_fract_z
Si Si1 0.813337 0.402204 0.902658
Si Si2 0.404790 0.276264 0.540425
Si Si3 0.281229 0.764577 0.223479
Si Si4 0.889452 0.303244 0.543362
Si Si5 0.570177 0.021347 0.633757
Si Si6 0.748219 0.890642 0.786415
Si Si7 0.318989 0.156457 0.419127
Si Si8 0.931733 0.997508 0.346005
O O1 0.855517 0.294319 0.728467
O O2 0.896684 0.446933 0.807549
O O3 0.735764 0.305149 0.123747
O O4 0.765530 0.557395 0.954208
O O5 0.470210 0.419849 0.372681
O O6 0.304808 0.298634 0.694058
O O7 0.391765 0.282699 0.687263
O O8 0.445176 0.107068 0.423549
O O9 0.197724 0.655461 0.351193
O O10 0.280022 0.924231 0.158038
O O11 0.376854 0.672680 0.019610
O O12 0.964926 0.438161 0.375102
O O13 0.935843 0.138913 0.418269
O O14 0.624770 0.949489 0.616697
O O15 0.857812 0.870635 0.540583
O O16 0.723468 0.813653 0.944086
#
# Coordination Sequence:
#
# PCOD8125521 Si02
#       8
#     4   4   4   4   4   4   4   4
#     4  10  20  39  65  83 121 161 201 247 306 357
#     4  11  22  41  58  95 117 158 205 244 302 361
#     4  10  21  42  61  88 122 161 198 255 305 355
#     4  10  21  38  60  88 118 159 203 244 305 356
#     4  11  24  39  68  86 127 160 196 255 302 357
#     4   9  21  39  60  87 121 157 198 253 298 351
#     4  11  21  40  66  89 120 163 202 247 302 368
#     4  10  22  38  62  86 124 158 198 255 299 361
#
# _framework density 19.757944999999999
#
# number of rings (size 3 to 8) (size 9 to 14) (size 15 to 20)
#    0.000    2.000    3.750    1.500    1.750    2.000 
#    0.000    5.625    0.000    0.000    0.000    0.000 
#    0.000    0.000    0.000    0.000    0.000    0.000 
#
# Total GULP energy -396767.768404 kJ/mol
# GULP energy per Si atom -12398.992763 kJ/mol
# Density = 1.971298 g / cm^3
# Si number density = 19.757945 Si / 1000 Ang^3
#
#
#
# Elastic Constant Matrix: (Units=GPa)
#
#
# Indices 1 2 3 4 5 6 
#
# 1 69.2044 43.8870 44.7711 0.0000 22.0750 0.0000
# 2 43.8870 80.2840 44.6374 0.0000 24.6354 0.0000
# 3 44.7711 44.6374 105.2212 0.0000 32.0751 0.0000
# 4 0.0000 0.0000 0.0000 44.2593 0.0000 -2.1480
# 5 22.0750 24.6354 32.0751 0.0000 33.2695 0.0000
# 6 0.0000 0.0000 0.0000 -2.1480 0.0000 31.3929
#
#
#
# Elastic Compliance Matrix: (Units=1/GPa)
#
#
# Indices 1 2 3 4 5 6 
#
# 1 0.025428 -0.009478 -0.005374 0.000000 -0.004672 0.000000
# 2 -0.009478 0.021336 -0.003001 0.000000 -0.006616 0.000000
# 3 -0.005374 -0.003001 0.016002 0.000000 -0.009639 0.000000
# 4 0.000000 0.000000 0.000000 0.022669 0.000000 0.001551
# 5 -0.004672 -0.006616 -0.009639 0.000000 0.047350 0.000000
# 6 0.000000 0.000000 0.000000 0.001551 0.000000 0.031960
#
#
# Mechanical properties :
#
#
# Convention : Reuss Voigt Hill
#
# Bulk Modulus (GPa) = 36.95776 57.92230 47.44003
# Shear Modulus (GPa) = 23.86935 29.87861 26.87398
#
# Velocity S-wave (km/s) = 3.47953 3.89296 3.69204
# Velocity P-wave (km/s) = 5.90666 7.04177 6.49904
#
# Compressibility (1/GPa) = 0.02705792
#
# Stress axis : x y z
#
# Youngs Moduli (GPa) = 39.32675 46.86891 62.49142
#
# Poissons Ratio (x) = 0.44424 0.33585
# Poissons Ratio (y) = 0.37276 0.18756
# Poissons Ratio (z) = 0.21135 0.14067
#
# Static dielectric constant tensor:
#      x y z
#    x 3.547000 0.000000 0.085650 
#    y 0.000000 3.561840 0.000000 
#    z 0.085650 0.000000 3.759610 
# 
# 
# High freq. dielectric constant tensor:
#      x y z
#    x 1.762810 0.000000 0.002270 
#    y 0.000000 1.761510 0.000000 
#    z 0.002270 0.000000 1.781410 
# 
# From -- ./inp_files/36453.got.cif
#   From: 2010.03.12/outbox.cif.g09.slc.cpg/sg14_19_cif.got.tgz:36453.got - 2010.03.31 13:35:05.
