data_PCOD8125289
_publ_section_title
;
Structure prediction by ZEFSAII (Michael W. Deem and Ramdas Pophale) SiO2 
 PCOD8125289
Probable space group: P 21/C
;
_chemical_formula_sum "Si O2"
_cell_formula_units_Z 32
_cell_length_a 14.360837
_cell_length_b 9.039950
_cell_length_c 14.453963
_cell_angle_alpha 90.000000
_cell_angle_beta 60.178323
_cell_angle_gamma 90.000000
_cell_volume 1627.949522
_symmetry_space_group_name_H-M "P 21/C"
_symmetry_group_IT_number 14
_symmetry_cell_setting 'monoclinic'
loop_
_space_group_symop_operation_xyz
x,y,z
-x,1/2+y,1/2-z
-x,-y,-z
x,1/2-y,1/2+z
loop_
_atom_site_type_symbol
_atom_site_label
_atom_site_fract_x
_atom_site_fract_y
_atom_site_fract_z
Si Si1 0.967122 0.397738 0.931529
Si Si2 0.890744 0.078548 0.030415
Si Si3 0.365081 0.028119 0.319967
Si Si4 0.752634 0.883675 0.965068
Si Si5 0.428756 0.359735 0.304009
Si Si6 0.231875 0.043244 0.555825
Si Si7 0.264669 0.041251 0.750044
Si Si8 0.201271 0.127951 0.262307
O O1 0.880902 0.466085 0.905165
O O2 0.073594 0.385665 0.816915
O O3 0.916691 0.245973 0.992471
O O4 0.000000 0.500000 0.000000
O O5 0.812444 0.073931 0.158483
O O6 0.836855 0.993602 0.970896
O O7 0.000000 0.000000 0.000000
O O8 0.423944 0.185945 0.284807
O O9 0.326752 0.986706 0.442128
O O10 0.257028 0.023505 0.311210
O O11 0.447476 0.904009 0.243700
O O12 0.792157 0.714879 0.953160
O O13 0.743089 0.919332 0.861313
O O14 0.636479 0.899337 0.070422
O O15 0.381621 0.455130 0.240831
O O16 0.273087 0.002903 0.637958
O O17 0.217638 0.204541 0.786796
#
# Coordination Sequence:
#
# PCOD8125289 Si02
#       8
#     4   4   4   4   4   4   4   4
#     4  12  23  37  57  86 123 160 189 237 286 343
#     4  11  21  37  58  84 119 158 196 232 279 345
#     4  10  20  38  60  81 115 153 194 243 293 347
#     4   9  21  39  60  86 117 152 198 240 288 352
#     4   9  20  38  61  82 113 153 193 245 296 337
#     4  10  21  39  60  88 119 152 194 239 296 346
#     4   9  20  40  61  85 115 154 196 235 290 353
#     4  10  20  38  60  87 118 154 193 236 293 345
#
# _framework density 19.65663
#
# number of rings (size 3 to 8) (size 9 to 14) (size 15 to 20)
#    0.000    2.000    2.500    1.500    1.750    3.000 
#    2.250    0.000    0.000    0.000    0.000    0.000 
#    0.000    0.000    0.000    0.000    0.000    0.000 
#
# Total GULP energy -396764.774116 kJ/mol
# GULP energy per Si atom -12398.899191 kJ/mol
# Density = 1.961189 g / cm^3
# Si number density = 19.656630 Si / 1000 Ang^3
#
#
#
# Elastic Constant Matrix: (Units=GPa)
#
#
# Indices 1 2 3 4 5 6 
#
# 1 82.1096 28.6087 49.8662 0.0000 -9.2830 0.0000
# 2 28.6087 60.1316 35.0656 0.0000 -3.5017 0.0000
# 3 49.8662 35.0656 124.8620 0.0000 9.2376 0.0000
# 4 0.0000 0.0000 0.0000 23.2204 0.0000 -6.3267
# 5 -9.2830 -3.5017 9.2376 0.0000 34.6129 0.0000
# 6 0.0000 0.0000 0.0000 -6.3267 0.0000 33.3700
#
#
#
# Elastic Compliance Matrix: (Units=1/GPa)
#
#
# Indices 1 2 3 4 5 6 
#
# 1 0.018460 -0.004606 -0.006540 0.000000 0.006230 0.000000
# 2 -0.004606 0.021479 -0.004348 0.000000 0.002098 0.000000
# 3 -0.006540 -0.004348 0.012246 0.000000 -0.005462 0.000000
# 4 0.000000 0.000000 0.000000 0.045411 0.000000 0.008610
# 5 0.006230 0.002098 -0.005462 0.000000 0.032232 0.000000
# 6 0.000000 0.000000 0.000000 0.008610 0.000000 0.031599
#
#
# Mechanical properties :
#
#
# Convention : Reuss Voigt Hill
#
# Bulk Modulus (GPa) = 47.17541 54.90938 51.04240
# Shear Modulus (GPa) = 25.06519 28.47819 26.77169
#
# Velocity S-wave (km/s) = 3.57480 3.81042 3.69449
# Velocity P-wave (km/s) = 6.41021 6.88142 6.64999
#
# Compressibility (1/GPa) = 0.02119748
#
# Stress axis : x y z
#
# Youngs Moduli (GPa) = 54.17216 46.55665 81.66162
#
# Poissons Ratio (x) = 0.21445 0.53403
# Poissons Ratio (y) = 0.24953 0.35505
# Poissons Ratio (z) = 0.35426 0.20242
#
# Static dielectric constant tensor:
#      x y z
#    x 4.285420 0.000000 -0.233320 
#    y 0.000000 5.093510 0.000000 
#    z -0.233320 0.000000 3.865610 
# 
# 
# High freq. dielectric constant tensor:
#      x y z
#    x 1.763940 0.000000 -0.000320 
#    y 0.000000 1.751750 0.000000 
#    z -0.000320 0.000000 1.772030 
# 
# From -- ./inp_files/46485.got.cif
#   From: 2010.03.12/outbox.cif.g09.slc.cpg/sg14_24_cif.got.tgz:46485.got - 2010.03.31 13:35:05.
