data_PCOD8125018
_publ_section_title
;
Structure prediction by ZEFSAII (Michael W. Deem and Ramdas Pophale) SiO2 
 PCOD8125018
Probable space group: P 21/C
;
_chemical_formula_sum "Si O2"
_cell_formula_units_Z 28
_cell_length_a 8.522022
_cell_length_b 18.994299
_cell_length_c 9.086860
_cell_angle_alpha 90.000000
_cell_angle_beta 67.078136
_cell_angle_gamma 90.000000
_cell_volume 1354.742527
_symmetry_space_group_name_H-M "P 21/C"
_symmetry_group_IT_number 14
_symmetry_cell_setting 'monoclinic'
loop_
_space_group_symop_operation_xyz
x,y,z
-x,1/2+y,1/2-z
-x,-y,-z
x,1/2-y,1/2+z
loop_
_atom_site_type_symbol
_atom_site_label
_atom_site_fract_x
_atom_site_fract_y
_atom_site_fract_z
Si Si1 0.208398 0.269482 0.092273
Si Si2 0.363317 0.409268 0.130195
Si Si3 0.441208 0.790686 0.145851
Si Si4 0.318605 0.827820 0.508791
Si Si5 0.534566 0.446044 0.356759
Si Si6 0.936173 0.664452 0.124141
Si Si7 0.192597 0.023910 0.425102
O O1 0.250647 0.337734 0.177547
O O2 0.124587 0.207616 0.214251
O O3 0.374253 0.242928 0.945495
O O4 0.068896 0.289349 0.021447
O O5 0.382096 0.440130 0.290242
O O6 0.549989 0.389767 0.992339
O O7 0.275794 0.467270 0.057052
O O8 0.399617 0.795151 0.332097
O O9 0.303546 0.738459 0.124128
O O10 0.432458 0.869701 0.081687
O O11 0.131693 0.861881 0.566548
O O12 0.500000 0.500000 0.500000
O O13 0.703914 0.467755 0.207496
O O14 0.805850 0.599304 0.157536
O O15 0.000000 0.000000 0.500000
#
# Coordination Sequence:
#
# PCOD8125018 Si02
#       7
#     4   4   4   4   4   4   4
#     4  10  20  36  59  82 111 142 185 242 285 327
#     4   9  21  40  60  80 112 156 193 228 283 342
#     4  10  20  37  56  83 112 148 187 227 285 339
#     4  10  20  36  60  84 111 144 189 241 282 334
#     4  11  22  37  58  85 118 152 189 232 279 344
#     4  11  21  35  56  85 110 142 187 238 288 327
#     4  11  23  39  59  81 114 156 194 228 277 349
#
# _framework density 20.668133000000001
#
# number of rings (size 3 to 8) (size 9 to 14) (size 15 to 20)
#    0.000    1.714    0.000    6.429    0.000    3.429 
#    0.000    2.143    0.000    0.000    0.000    0.000 
#    0.000    0.000    0.000    0.000    0.000    0.000 
#
# Total GULP energy -347118.141358 kJ/mol
# GULP energy per Si atom -12397.076477 kJ/mol
# Density = 2.062109 g / cm^3
# Si number density = 20.668133 Si / 1000 Ang^3
#
#
#
# Elastic Constant Matrix: (Units=GPa)
#
#
# Indices 1 2 3 4 5 6 
#
# 1 101.7049 19.6935 25.0081 0.0000 3.5397 0.0000
# 2 19.6935 77.0455 12.6729 0.0000 13.9215 0.0000
# 3 25.0081 12.6729 55.9488 0.0000 -0.6619 0.0000
# 4 0.0000 0.0000 0.0000 41.7745 0.0000 4.0946
# 5 3.5397 13.9215 -0.6619 0.0000 23.3691 0.0000
# 6 0.0000 0.0000 0.0000 4.0946 0.0000 38.3187
#
#
#
# Elastic Compliance Matrix: (Units=1/GPa)
#
#
# Indices 1 2 3 4 5 6 
#
# 1 0.011389 -0.002031 -0.004638 0.000000 -0.000646 0.000000
# 2 -0.002031 0.015583 -0.002729 0.000000 -0.009053 0.000000
# 3 -0.004638 -0.002729 0.020599 0.000000 0.002912 0.000000
# 4 0.000000 0.000000 0.000000 0.024191 0.000000 -0.002585
# 5 -0.000646 -0.009053 0.002912 0.000000 0.048365 0.000000
# 6 0.000000 0.000000 0.000000 -0.002585 0.000000 0.026373
#
#
# Mechanical properties :
#
#
# Convention : Reuss Voigt Hill
#
# Bulk Modulus (GPa) = 34.75298 38.82756 36.79027
# Shear Modulus (GPa) = 28.58963 32.51411 30.55187
#
# Velocity S-wave (km/s) = 3.72327 3.97060 3.84892
# Velocity P-wave (km/s) = 5.94432 6.31252 6.13118
#
# Compressibility (1/GPa) = 0.02877451
#
# Stress axis : x y z
#
# Youngs Moduli (GPa) = 87.80670 64.17158 48.54564
#
# Poissons Ratio (x) = 0.13036 0.22516
# Poissons Ratio (y) = 0.17837 0.13247
# Poissons Ratio (z) = 0.40725 0.17511
#
# Static dielectric constant tensor:
#      x y z
#    x 3.884870 0.000000 0.169120 
#    y 0.000000 4.157530 0.000000 
#    z 0.169120 0.000000 3.501040 
# 
# 
# High freq. dielectric constant tensor:
#      x y z
#    x 1.810860 0.000000 0.008950 
#    y 0.000000 1.824690 0.000000 
#    z 0.008950 0.000000 1.786160 
# 
# From -- ./inp_files/9877.got.cif
#   From: 2010.03.12/outbox.cif.g09.slc.cpg/sg14_5_cif.got.tgz:9877.got - 2010.03.31 13:35:05.
