data_PCOD8125180
_publ_section_title
;
Structure prediction by ZEFSAII (Michael W. Deem and Ramdas Pophale) SiO2 
 PCOD8125180
Probable space group: P 21/C
;
_chemical_formula_sum "Si O2"
_cell_formula_units_Z 32
_cell_length_a 20.674398
_cell_length_b 14.338909
_cell_length_c 13.764348
_cell_angle_alpha 90.000000
_cell_angle_beta 155.902981
_cell_angle_gamma 90.000000
_cell_volume 1665.965054
_symmetry_space_group_name_H-M "P 21/C"
_symmetry_group_IT_number 14
_symmetry_cell_setting 'monoclinic'
loop_
_space_group_symop_operation_xyz
x,y,z
-x,1/2+y,1/2-z
-x,-y,-z
x,1/2-y,1/2+z
loop_
_atom_site_type_symbol
_atom_site_label
_atom_site_fract_x
_atom_site_fract_y
_atom_site_fract_z
Si Si1 0.871974 0.147839 0.571827
Si Si2 0.377589 0.306910 0.234923
Si Si3 0.973741 0.210903 0.365110
Si Si4 0.877589 0.806910 0.234923
Si Si5 0.473742 0.710903 0.365111
Si Si6 0.827700 0.948635 0.456605
Si Si7 0.327700 0.448635 0.456605
Si Si8 0.371975 0.647839 0.571828
O O1 0.943376 0.192583 0.767512
O O2 0.686327 0.168825 0.309257
O O3 0.957951 0.191777 0.596676
O O4 0.905433 0.036703 0.618020
O O5 0.407779 0.263948 0.383902
O O6 0.542050 0.308224 0.403325
O O7 0.250000 0.250000 0.000000
O O8 0.308800 0.410618 0.158402
O O9 0.092220 0.236052 0.616097
O O10 0.046679 0.133898 0.392009
O O11 0.813673 0.168824 0.190742
O O12 0.808801 0.910618 0.158403
O O13 0.546679 0.633898 0.392009
O O14 0.443377 0.807418 0.267514
O O15 0.749999 0.985013 0.249999
O O16 0.405433 0.536703 0.618021
#
# Coordination Sequence:
#
# PCOD8125180 Si02
#       8
#     4   4   4   4   4   4   4   4
#     4  11  21  36  60  85 117 146 188 241 282 327
#     4  11  21  37  60  82 116 153 187 230 285 335
#     4  10  22  37  57  88 116 147 190 235 285 334
#     4  11  21  37  60  82 116 153 187 230 285 335
#     4  10  22  37  57  88 116 147 190 235 285 334
#     4  10  20  37  60  87 110 149 197 233 276 341
#     4  10  20  37  60  87 110 149 197 233 276 341
#     4  11  21  36  60  85 117 146 188 241 282 327
#
# _framework density 19.208085000000001
#
# number of rings (size 3 to 8) (size 9 to 14) (size 15 to 20)
#    0.000    1.500    2.500    3.750    0.000    4.000 
#    0.000    1.250    0.000    3.000    0.000    0.000 
#    0.000    0.000    0.000    0.000    0.000    0.000 
#
# Total GULP energy -396764.428300 kJ/mol
# GULP energy per Si atom -12398.888384 kJ/mol
# Density = 1.916437 g / cm^3
# Si number density = 19.208085 Si / 1000 Ang^3
#
#
#
# Elastic Constant Matrix: (Units=GPa)
#
#
# Indices 1 2 3 4 5 6 
#
# 1 105.8210 41.0370 38.5389 0.0000 10.0324 0.0000
# 2 41.0370 111.5680 60.6130 0.0000 -18.8447 0.0000
# 3 38.5389 60.6130 93.8711 0.0000 -9.9894 0.0000
# 4 0.0000 0.0000 0.0000 28.4223 0.0000 0.1584
# 5 10.0324 -18.8447 -9.9894 0.0000 38.6487 0.0000
# 6 0.0000 0.0000 0.0000 0.1584 0.0000 25.3195
#
#
#
# Elastic Compliance Matrix: (Units=1/GPa)
#
#
# Indices 1 2 3 4 5 6 
#
# 1 0.012764 -0.003887 -0.003377 0.000000 -0.006082 0.000000
# 2 -0.003887 0.015816 -0.007906 0.000000 0.006677 0.000000
# 3 -0.003377 -0.007906 0.017303 0.000000 0.001494 0.000000
# 4 0.000000 0.000000 0.000000 0.035185 0.000000 -0.000220
# 5 -0.006082 0.006677 0.001494 0.000000 0.031095 0.000000
# 6 0.000000 0.000000 0.000000 -0.000220 0.000000 0.039497
#
#
# Mechanical properties :
#
#
# Convention : Reuss Voigt Hill
#
# Bulk Modulus (GPa) = 64.34117 65.73754 65.03935
# Shear Modulus (GPa) = 26.71206 29.88288 28.29747
#
# Velocity S-wave (km/s) = 3.73321 3.94857 3.84240
# Velocity P-wave (km/s) = 7.22164 7.42203 7.32252
#
# Compressibility (1/GPa) = 0.01554215
#
# Stress axis : x y z
#
# Youngs Moduli (GPa) = 78.34568 63.22736 57.79191
#
# Poissons Ratio (x) = 0.24577 0.19519
# Poissons Ratio (y) = 0.30454 0.45690
# Poissons Ratio (z) = 0.26461 0.49987
#
# Static dielectric constant tensor:
#      x y z
#    x 3.844710 0.000000 0.210690 
#    y 0.000000 3.394310 0.000000 
#    z 0.210690 0.000000 3.473170 
# 
# 
# High freq. dielectric constant tensor:
#      x y z
#    x 1.766790 0.000000 0.019210 
#    y 0.000000 1.729940 0.000000 
#    z 0.019210 0.000000 1.738080 
# 
# From -- ./inp_files/34166.got.cif
#   From: 2010.03.12/outbox.cif.g09.slc.cpg/sg14_18_cif.got.tgz:34166.got - 2010.03.31 13:35:05.
