data_PCOD8125805
_publ_section_title
;
Structure prediction by ZEFSAII (Michael W. Deem and Ramdas Pophale) SiO2 
 PCOD8125805
Probable space group: P 21/C
;
_chemical_formula_sum "Si O2"
_cell_formula_units_Z 20
_cell_length_a 7.630601
_cell_length_b 11.945262
_cell_length_c 11.910968
_cell_angle_alpha 90.000000
_cell_angle_beta 123.533997
_cell_angle_gamma 90.000000
_cell_volume 904.976704
_symmetry_space_group_name_H-M "P 21/C"
_symmetry_group_IT_number 14
_symmetry_cell_setting 'monoclinic'
loop_
_space_group_symop_operation_xyz
x,y,z
-x,1/2+y,1/2-z
-x,-y,-z
x,1/2-y,1/2+z
loop_
_atom_site_type_symbol
_atom_site_label
_atom_site_fract_x
_atom_site_fract_y
_atom_site_fract_z
Si Si1 0.808247 0.267102 0.986527
Si Si2 0.562113 0.437242 0.766493
Si Si3 0.871640 0.605026 0.758033
Si Si4 0.495453 0.133121 0.014939
Si Si5 0.136495 0.564370 0.641001
O O1 0.648402 0.368287 0.902736
O O2 0.707149 0.187773 0.044631
O O3 0.856677 0.194912 0.892365
O O4 0.023189 0.313729 0.114196
O O5 0.757409 0.506645 0.785456
O O6 0.478725 0.348074 0.642905
O O7 0.373010 0.518088 0.735210
O O8 0.705445 0.678479 0.625609
O O9 0.039129 0.552168 0.730375
O O10 0.500000 0.000000 0.000000
O O11 0.000000 0.500000 0.500000
#
# Coordination Sequence:
#
# PCOD8125805 Si02
#       5
#     4   4   4   4   4
#     4  12  25  43  71 103 134 182 227 289 349 390
#     4  11  24  48  67  98 144 173 231 292 337 414
#     4  11  24  44  69 102 136 174 237 283 332 419
#     4  10  20  45  67  91 137 176 222 277 336 414
#     4  12  24  43  73  97 134 192 222 270 363 411
#
# _framework density 22.100016
#
# number of rings (size 3 to 8) (size 9 to 14) (size 15 to 20)
#    0.000    0.800    6.000    3.000    2.800    0.800 
#    3.600    0.000    0.000    0.000    0.000    0.000 
#    0.000    0.000    0.000    0.000    0.000    0.000 
#
# Total GULP energy -247990.094328 kJ/mol
# GULP energy per Si atom -12399.504716 kJ/mol
# Density = 2.204972 g / cm^3
# Si number density = 22.100016 Si / 1000 Ang^3
#
#
#
# Elastic Constant Matrix: (Units=GPa)
#
#
# Indices 1 2 3 4 5 6 
#
# 1 129.5236 40.9541 15.3758 0.0000 3.9125 0.0000
# 2 40.9541 87.3463 41.3534 0.0000 14.3778 0.0000
# 3 15.3758 41.3534 100.5612 0.0000 33.2659 0.0000
# 4 0.0000 0.0000 0.0000 34.5457 0.0000 1.2574
# 5 3.9125 14.3778 33.2659 0.0000 32.4460 0.0000
# 6 0.0000 0.0000 0.0000 1.2574 0.0000 26.7198
#
#
#
# Elastic Compliance Matrix: (Units=1/GPa)
#
#
# Indices 1 2 3 4 5 6 
#
# 1 0.009090 -0.004482 0.000240 0.000000 0.000643 0.000000
# 2 -0.004482 0.016431 -0.005813 0.000000 -0.000780 0.000000
# 3 0.000240 -0.005813 0.017335 0.000000 -0.015226 0.000000
# 4 0.000000 0.000000 0.000000 0.028997 0.000000 -0.001365
# 5 0.000643 -0.000780 -0.015226 0.000000 0.046699 0.000000
# 6 0.000000 0.000000 0.000000 -0.001365 0.000000 0.037490
#
#
# Mechanical properties :
#
#
# Convention : Reuss Voigt Hill
#
# Bulk Modulus (GPa) = 43.96431 56.97752 50.47092
# Shear Modulus (GPa) = 27.21358 33.39217 30.30287
#
# Velocity S-wave (km/s) = 3.51291 3.89132 3.70695
# Velocity P-wave (km/s) = 6.03246 6.78435 6.41943
#
# Compressibility (1/GPa) = 0.02274572
#
# Stress axis : x y z
#
# Youngs Moduli (GPa) = 110.01505 60.86172 57.68754
#
# Poissons Ratio (x) = 0.27275 -0.01386
# Poissons Ratio (y) = 0.49304 0.33536
# Poissons Ratio (z) = -0.02643 0.35381
#
# Static dielectric constant tensor:
#      x y z
#    x 4.026630 0.000000 0.090760 
#    y 0.000000 3.905270 0.000000 
#    z 0.090760 0.000000 4.553610 
# 
# 
# High freq. dielectric constant tensor:
#      x y z
#    x 1.874420 0.000000 0.008210 
#    y 0.000000 1.847580 0.000000 
#    z 0.008210 0.000000 1.879290 
# 
# From -- ./inp_files/24319.got.cif
#   From: 2010.03.12/outbox.cif.g09.slc.cpg/sg14_13_cif.got.tgz:24319.got - 2010.03.31 13:35:05.
