data_PCOD8125537
_publ_section_title
;
Structure prediction by ZEFSAII (Michael W. Deem and Ramdas Pophale) SiO2 
 PCOD8125537
Probable space group: P 21/C
;
_chemical_formula_sum "Si O2"
_cell_formula_units_Z 24
_cell_length_a 11.069512
_cell_length_b 10.987802
_cell_length_c 13.987598
_cell_angle_alpha 90.000000
_cell_angle_beta 138.122493
_cell_angle_gamma 90.000000
_cell_volume 1135.690349
_symmetry_space_group_name_H-M "P 21/C"
_symmetry_group_IT_number 14
_symmetry_cell_setting 'monoclinic'
loop_
_space_group_symop_operation_xyz
x,y,z
-x,1/2+y,1/2-z
-x,-y,-z
x,1/2-y,1/2+z
loop_
_atom_site_type_symbol
_atom_site_label
_atom_site_fract_x
_atom_site_fract_y
_atom_site_fract_z
Si Si1 0.206184 0.566256 0.485447
Si Si2 0.470996 0.744422 0.540440
Si Si3 0.020889 0.260753 0.056708
Si Si4 0.368220 0.359882 0.698027
Si Si5 0.787481 0.933921 0.201962
Si Si6 0.677388 0.179794 0.231754
O O1 0.360642 0.660684 0.548487
O O2 0.027502 0.639487 0.411845
O O3 0.286193 0.490321 0.622117
O O4 0.146648 0.478622 0.363291
O O5 0.533469 0.862761 0.638870
O O6 0.644499 0.673142 0.602182
O O7 0.353271 0.772820 0.376075
O O8 0.207248 0.239594 0.109277
O O9 0.042441 0.378306 0.138999
O O10 0.864900 0.284964 0.889281
O O11 0.510259 0.310898 0.704703
O O12 0.689449 0.042367 0.200524
#
# Coordination Sequence:
#
# PCOD8125537 Si02
#       6
#     4   4   4   4   4   4
#     4  11  20  40  66  91 131 168 209 274 319 372
#     4  10  20  39  67  88 119 177 216 252 318 386
#     4  11  25  38  65 100 127 168 216 267 325 372
#     4  11  22  40  65  91 131 166 213 261 322 380
#     4  10  21  40  66  91 121 174 225 253 320 389
#     4  11  20  42  66  90 129 171 214 263 311 385
#
# _framework density 21.132521000000001
#
# number of rings (size 3 to 8) (size 9 to 14) (size 15 to 20)
#    0.000    1.333    5.000    2.000    0.000    2.667 
#    0.000    0.833    0.000    0.000    0.000    0.000 
#    0.000    0.000    0.000    0.000    0.000    0.000 
#
# Total GULP energy -297537.162518 kJ/mol
# GULP energy per Si atom -12397.381772 kJ/mol
# Density = 2.108442 g / cm^3
# Si number density = 21.132521 Si / 1000 Ang^3
#
#
#
# Elastic Constant Matrix: (Units=GPa)
#
#
# Indices 1 2 3 4 5 6 
#
# 1 69.8648 31.8873 68.7398 0.0000 -13.2701 0.0000
# 2 31.8873 43.3478 45.2777 0.0000 -13.8920 0.0000
# 3 68.7398 45.2777 167.5389 0.0000 -16.8459 0.0000
# 4 0.0000 0.0000 0.0000 45.0829 0.0000 -5.6782
# 5 -13.2701 -13.8920 -16.8459 0.0000 29.1196 0.0000
# 6 0.0000 0.0000 0.0000 -5.6782 0.0000 28.7451
#
#
#
# Elastic Compliance Matrix: (Units=1/GPa)
#
#
# Indices 1 2 3 4 5 6 
#
# 1 0.027980 -0.011164 -0.008193 0.000000 0.002685 0.000000
# 2 -0.011164 0.040257 -0.005181 0.000000 0.011121 0.000000
# 3 -0.008193 -0.005181 0.010731 0.000000 0.000003 0.000000
# 4 0.000000 0.000000 0.000000 0.022747 0.000000 0.004493
# 5 0.002685 0.011121 0.000003 0.000000 0.040871 0.000000
# 6 0.000000 0.000000 0.000000 0.004493 0.000000 0.035676
#
#
# Mechanical properties :
#
#
# Convention : Reuss Voigt Hill
#
# Bulk Modulus (GPa) = 33.45401 63.61788 48.53595
# Shear Modulus (GPa) = 21.07020 29.57928 25.32474
#
# Velocity S-wave (km/s) = 3.16104 3.74532 3.46551
# Velocity P-wave (km/s) = 5.40258 6.99091 6.24743
#
# Compressibility (1/GPa) = 0.02989178
#
# Stress axis : x y z
#
# Youngs Moduli (GPa) = 35.74025 24.84025 93.19209
#
# Poissons Ratio (x) = 0.27733 0.76349
# Poissons Ratio (y) = 0.39902 0.48281
# Poissons Ratio (z) = 0.29281 0.12869
#
# Static dielectric constant tensor:
#      x y z
#    x 3.873320 0.000000 -0.155840 
#    y 0.000000 3.702880 0.000000 
#    z -0.155840 0.000000 4.145200 
# 
# 
# High freq. dielectric constant tensor:
#      x y z
#    x 1.831700 0.000000 -0.004590 
#    y 0.000000 1.798290 0.000000 
#    z -0.004590 0.000000 1.840050 
# 
# From -- ./inp_files/44466.got.cif
#   From: 2010.03.12/outbox.cif.g09.slc.cpg/sg14_23_cif.got.tgz:44466.got - 2010.03.31 13:35:05.
