data_PCOD8125508
_publ_section_title
;
Structure prediction by ZEFSAII (Michael W. Deem and Ramdas Pophale) SiO2 
 PCOD8125508
Probable space group: P 21/C
;
_chemical_formula_sum "Si O2"
_cell_formula_units_Z 20
_cell_length_a 5.301783
_cell_length_b 22.359228
_cell_length_c 9.180174
_cell_angle_alpha 90.000000
_cell_angle_beta 129.430664
_cell_angle_gamma 90.000000
_cell_volume 840.559428
_symmetry_space_group_name_H-M "P 21/C"
_symmetry_group_IT_number 14
_symmetry_cell_setting 'monoclinic'
loop_
_space_group_symop_operation_xyz
x,y,z
-x,1/2+y,1/2-z
-x,-y,-z
x,1/2-y,1/2+z
loop_
_atom_site_type_symbol
_atom_site_label
_atom_site_fract_x
_atom_site_fract_y
_atom_site_fract_z
Si Si1 0.478265 0.312607 0.442778
Si Si2 0.427250 0.410710 0.002087
Si Si3 0.351584 0.491136 0.718101
Si Si4 0.723100 0.205951 0.709584
Si Si5 0.232757 0.564455 0.359669
O O1 0.686098 0.271003 0.625967
O O2 0.550682 0.293985 0.303724
O O3 0.576290 0.380995 0.500269
O O4 0.104562 0.307784 0.354457
O O5 0.584762 0.441415 0.203254
O O6 0.545376 0.342421 0.040837
O O7 0.544817 0.446432 0.900896
O O8 0.031086 0.412724 0.856827
O O9 0.518274 0.482117 0.622835
O O10 0.963390 0.470490 0.580486
#
# Coordination Sequence:
#
# PCOD8125508 Si02
#       5
#     4   4   4   4   4
#     4  12  27  44  65  95 127 169 212 266 324 366
#     4   9  22  38  68  92 127 166 217 243 314 379
#     4   9  20  36  70  91 125 169 209 245 313 383
#     4  12  27  43  66  93 128 165 216 263 317 380
#     4  10  20  39  64  90 127 162 211 252 309 370
#
# _framework density 23.793679000000001
#
# number of rings (size 3 to 8) (size 9 to 14) (size 15 to 20)
#    1.200    0.400    0.000    4.200    5.600    0.000 
#    0.000    6.000    0.000    0.000    0.000    0.000 
#    0.000    0.000    0.000    0.000    0.000    0.000 
#
# Total GULP energy -248050.922614 kJ/mol
# GULP energy per Si atom -12402.546131 kJ/mol
# Density = 2.373952 g / cm^3
# Si number density = 23.793679 Si / 1000 Ang^3
#
#
#
# Elastic Constant Matrix: (Units=GPa)
#
#
# Indices 1 2 3 4 5 6 
#
# 1 141.9279 49.1282 39.8051 0.0000 -5.1879 0.0000
# 2 49.1282 74.3917 24.6151 0.0000 -6.6385 0.0000
# 3 39.8051 24.6151 85.4178 0.0000 18.8515 0.0000
# 4 0.0000 0.0000 0.0000 51.1750 0.0000 -1.7237
# 5 -5.1879 -6.6385 18.8515 0.0000 45.0797 0.0000
# 6 0.0000 0.0000 0.0000 -1.7237 0.0000 31.7791
#
#
#
# Elastic Compliance Matrix: (Units=1/GPa)
#
#
# Indices 1 2 3 4 5 6 
#
# 1 0.009905 -0.005211 -0.003521 0.000000 0.001845 0.000000
# 2 -0.005211 0.018431 -0.003690 0.000000 0.003658 0.000000
# 3 -0.003521 -0.003690 0.016107 0.000000 -0.007684 0.000000
# 4 0.000000 0.000000 0.000000 0.019577 0.000000 0.001062
# 5 0.001845 0.003658 -0.007684 0.000000 0.026147 0.000000
# 6 0.000000 0.000000 0.000000 0.001062 0.000000 0.031525
#
#
# Mechanical properties :
#
#
# Convention : Reuss Voigt Hill
#
# Bulk Modulus (GPa) = 51.02479 58.75936 54.89208
# Shear Modulus (GPa) = 32.66483 38.15268 35.40876
#
# Velocity S-wave (km/s) = 3.70920 4.00869 3.86185
# Velocity P-wave (km/s) = 6.31153 6.79523 6.55784
#
# Compressibility (1/GPa) = 0.01959832
#
# Stress axis : x y z
#
# Youngs Moduli (GPa) = 100.96245 54.25541 62.08370
#
# Poissons Ratio (x) = 0.28274 0.21860
# Poissons Ratio (y) = 0.52615 0.22910
# Poissons Ratio (z) = 0.35549 0.20021
#
# Static dielectric constant tensor:
#      x y z
#    x 4.229080 0.000000 0.003060 
#    y 0.000000 4.206770 0.000000 
#    z 0.003060 0.000000 4.394310 
# 
# 
# High freq. dielectric constant tensor:
#      x y z
#    x 1.949300 0.000000 -0.000020 
#    y 0.000000 1.950540 0.000000 
#    z -0.000020 0.000000 1.967990 
# 
# From -- ./inp_files/21671.got.cif
#   From: 2010.03.12/outbox.cif.g09.slc.cpg/sg14_11_cif.got.tgz:21671.got - 2010.03.31 13:35:05.
