data_PCOD8125029
_publ_section_title
;
Structure prediction by ZEFSAII (Michael W. Deem and Ramdas Pophale) SiO2 
 PCOD8125029
Probable space group: P 21/C
;
_chemical_formula_sum "Si O2"
_cell_formula_units_Z 28
_cell_length_a 18.856673
_cell_length_b 9.084053
_cell_length_c 9.887031
_cell_angle_alpha 90.000000
_cell_angle_beta 47.424319
_cell_angle_gamma 90.000000
_cell_volume 1247.139850
_symmetry_space_group_name_H-M "P 21/C"
_symmetry_group_IT_number 14
_symmetry_cell_setting 'monoclinic'
loop_
_space_group_symop_operation_xyz
x,y,z
-x,1/2+y,1/2-z
-x,-y,-z
x,1/2-y,1/2+z
loop_
_atom_site_type_symbol
_atom_site_label
_atom_site_fract_x
_atom_site_fract_y
_atom_site_fract_z
Si Si1 0.371547 0.523534 0.621151
Si Si2 0.211494 0.788799 0.221466
Si Si3 0.519334 0.752755 0.975214
Si Si4 0.929889 0.592174 0.286588
Si Si5 0.540249 0.003413 0.276129
Si Si6 0.005294 0.189098 0.567515
Si Si7 0.743977 0.083931 0.102891
O O1 0.261756 0.564712 0.725224
O O2 0.385174 0.358629 0.663358
O O3 0.422111 0.654684 0.640922
O O4 0.445428 0.522797 0.399392
O O5 0.097285 0.797736 0.375324
O O6 0.242391 0.644041 0.262958
O O7 0.246104 0.782376 0.020339
O O8 0.501611 0.661315 0.858853
O O9 0.532190 0.630226 0.076704
O O10 0.004330 0.458604 0.159802
O O11 0.824308 0.536930 0.462056
O O12 0.971664 0.678089 0.361691
O O13 0.921518 0.684290 0.155559
O O14 0.640867 0.009867 0.228806
#
# Coordination Sequence:
#
# PCOD8125029 Si02
#       7
#     4   4   4   4   4   4   4
#     4  10  20  36  60  85 116 154 198 243 295 367
#     4  10  20  38  63  86 122 155 202 247 304 357
#     4  10  20  36  59  85 114 156 194 241 298 369
#     4  10  22  40  63  89 123 159 213 244 318 358
#     4  10  20  37  57  84 121 151 193 250 302 350
#     4  10  21  40  65  90 122 167 199 265 300 371
#     4  10  21  39  59  89 121 157 201 257 298 366
#
# _framework density 22.451371999999999
#
# number of rings (size 3 to 8) (size 9 to 14) (size 15 to 20)
#    0.000    2.000    1.429    2.571    0.000    2.286 
#   10.286    1.429    0.000    0.000    0.000    0.000 
#    0.000    0.000    0.000    0.000    0.000    0.000 
#
# Total GULP energy -346875.920287 kJ/mol
# GULP energy per Si atom -12388.425725 kJ/mol
# Density = 2.240027 g / cm^3
# Si number density = 22.451372 Si / 1000 Ang^3
#
#
#
# Elastic Constant Matrix: (Units=GPa)
#
#
# Indices 1 2 3 4 5 6 
#
# 1 88.6531 36.4915 13.1199 0.0000 -1.8770 0.0000
# 2 36.4915 103.5469 14.8671 0.0000 -1.7134 0.0000
# 3 13.1199 14.8671 52.0116 0.0000 -1.1544 0.0000
# 4 0.0000 0.0000 0.0000 28.8641 0.0000 13.4138
# 5 -1.8770 -1.7134 -1.1544 0.0000 23.8400 0.0000
# 6 0.0000 0.0000 0.0000 13.4138 0.0000 31.2701
#
#
#
# Elastic Compliance Matrix: (Units=1/GPa)
#
#
# Indices 1 2 3 4 5 6 
#
# 1 0.013424 -0.004417 -0.002109 0.000000 0.000637 0.000000
# 2 -0.004417 0.011533 -0.002174 0.000000 0.000376 0.000000
# 3 -0.002109 -0.002174 0.020395 0.000000 0.000665 0.000000
# 4 0.000000 0.000000 0.000000 0.043271 0.000000 -0.018562
# 5 0.000637 0.000376 0.000665 0.000000 0.042056 0.000000
# 6 0.000000 0.000000 0.000000 -0.018562 0.000000 0.039942
#
#
# Mechanical properties :
#
#
# Convention : Reuss Voigt Hill
#
# Bulk Modulus (GPa) = 35.77825 41.46320 38.62073
# Shear Modulus (GPa) = 25.33728 28.77704 27.05716
#
# Velocity S-wave (km/s) = 3.36302 3.58404 3.47529
# Velocity P-wave (km/s) = 5.57228 5.96952 5.77432
#
# Compressibility (1/GPa) = 0.02794994
#
# Stress axis : x y z
#
# Youngs Moduli (GPa) = 74.49420 86.71115 49.03233
#
# Poissons Ratio (x) = 0.38304 0.10343
# Poissons Ratio (y) = 0.32907 0.10659
# Poissons Ratio (z) = 0.15713 0.18850
#
# Static dielectric constant tensor:
#      x y z
#    x 3.954330 0.000000 0.149920 
#    y 0.000000 4.143050 0.000000 
#    z 0.149920 0.000000 3.993290 
# 
# 
# High freq. dielectric constant tensor:
#      x y z
#    x 1.877810 0.000000 0.012220 
#    y 0.000000 1.876880 0.000000 
#    z 0.012220 0.000000 1.873990 
# 
# From -- ./inp_files/34943.got.cif
#   From: 2010.03.12/outbox.cif.g09.slc.cpg/sg14_18_cif.got.tgz:34943.got - 2010.03.31 13:35:05.
