data_PCOD8125202
_publ_section_title
;
Structure prediction by ZEFSAII (Michael W. Deem and Ramdas Pophale) SiO2 
 PCOD8125202
Probable space group: P 21/C
;
_chemical_formula_sum "Si O2"
_cell_formula_units_Z 24
_cell_length_a 15.428456
_cell_length_b 12.554002
_cell_length_c 9.738599
_cell_angle_alpha 90.000000
_cell_angle_beta 138.875784
_cell_angle_gamma 90.000000
_cell_volume 1240.580104
_symmetry_space_group_name_H-M "P 21/C"
_symmetry_group_IT_number 14
_symmetry_cell_setting 'monoclinic'
loop_
_space_group_symop_operation_xyz
x,y,z
-x,1/2+y,1/2-z
-x,-y,-z
x,1/2-y,1/2+z
loop_
_atom_site_type_symbol
_atom_site_label
_atom_site_fract_x
_atom_site_fract_y
_atom_site_fract_z
Si Si1 0.739669 0.219975 0.888412
Si Si2 0.319921 0.349495 0.237820
Si Si3 0.157247 0.552798 0.048264
Si Si4 0.437569 0.754884 0.572617
Si Si5 0.876046 0.468070 0.672791
Si Si6 0.303188 0.163586 0.033424
O O1 0.804427 0.336169 0.975068
O O2 0.632501 0.204174 0.879781
O O3 0.669717 0.198185 0.659614
O O4 0.853263 0.132070 0.045199
O O5 0.272324 0.468855 0.150587
O O6 0.478252 0.340519 0.400851
O O7 0.282119 0.316380 0.347116
O O8 0.245691 0.266152 0.047275
O O9 0.141420 0.570176 0.191655
O O10 0.021838 0.512040 0.820437
O O11 0.540433 0.847196 0.743075
O O12 0.770757 0.558047 0.506522
#
# Coordination Sequence:
#
# PCOD8125202 Si02
#       6
#     4   4   4   4   4   4
#     4  12  22  39  61  94 119 153 205 251 296 352
#     4   9  19  39  62  87 118 159 196 242 300 354
#     4  10  23  41  64  85 121 167 200 239 300 365
#     4  10  20  37  61  94 120 154 196 251 299 357
#     4  10  23  41  63  86 122 165 198 247 296 356
#     4   9  19  39  61  88 120 157 195 242 303 350
#
# _framework density 19.345787000000001
#
# number of rings (size 3 to 8) (size 9 to 14) (size 15 to 20)
#    1.000    1.000    3.333    0.000    2.333    2.667 
#    3.000    0.833    0.000    0.000    0.000    0.000 
#    0.000    0.000    0.000    0.000    0.000    0.000 
#
# Total GULP energy -297520.998593 kJ/mol
# GULP energy per Si atom -12396.708275 kJ/mol
# Density = 1.930176 g / cm^3
# Si number density = 19.345787 Si / 1000 Ang^3
#
#
#
# Elastic Constant Matrix: (Units=GPa)
#
#
# Indices 1 2 3 4 5 6 
#
# 1 57.7221 34.5156 18.5899 0.0000 -2.0786 0.0000
# 2 34.5156 126.7996 48.9033 0.0000 3.1302 0.0000
# 3 18.5899 48.9033 96.0858 0.0000 8.9025 0.0000
# 4 0.0000 0.0000 0.0000 37.2813 0.0000 3.3937
# 5 -2.0786 3.1302 8.9025 0.0000 28.8191 0.0000
# 6 0.0000 0.0000 0.0000 3.3937 0.0000 23.5998
#
#
#
# Elastic Compliance Matrix: (Units=1/GPa)
#
#
# Indices 1 2 3 4 5 6 
#
# 1 0.021035 -0.005136 -0.001697 0.000000 0.002599 0.000000
# 2 -0.005136 0.011073 -0.004629 0.000000 -0.000143 0.000000
# 3 -0.001697 -0.004629 0.013441 0.000000 -0.003772 0.000000
# 4 0.000000 0.000000 0.000000 0.027179 0.000000 -0.003908
# 5 0.002599 -0.000143 -0.003772 0.000000 0.036067 0.000000
# 6 0.000000 0.000000 0.000000 -0.003908 0.000000 0.042935
#
#
# Mechanical properties :
#
#
# Convention : Reuss Voigt Hill
#
# Bulk Modulus (GPa) = 44.19512 53.84723 49.02117
# Shear Modulus (GPa) = 27.44296 29.84661 28.64479
#
# Velocity S-wave (km/s) = 3.77045 3.93211 3.85213
# Velocity P-wave (km/s) = 6.46912 6.96490 6.72158
#
# Compressibility (1/GPa) = 0.02262693
#
# Stress axis : x y z
#
# Youngs Moduli (GPa) = 47.53884 90.30802 74.39950
#
# Poissons Ratio (x) = 0.46380 0.12623
# Poissons Ratio (y) = 0.24415 0.34438
# Poissons Ratio (z) = 0.08066 0.41802
#
# Static dielectric constant tensor:
#      x y z
#    x 3.416800 0.000000 0.020160 
#    y 0.000000 3.322590 0.000000 
#    z 0.020160 0.000000 3.574970 
# 
# 
# High freq. dielectric constant tensor:
#      x y z
#    x 1.743270 0.000000 0.001280 
#    y 0.000000 1.739590 0.000000 
#    z 0.001280 0.000000 1.755030 
# 
# From -- ./inp_files/35063.got.cif
#   From: 2010.03.12/outbox.cif.g09.slc.cpg/sg14_18_cif.got.tgz:35063.got - 2010.03.31 13:35:05.
