data_PCOD8125428
_publ_section_title
;
Structure prediction by ZEFSAII (Michael W. Deem and Ramdas Pophale) SiO2 
 PCOD8125428
Probable space group: P 21/C
;
_chemical_formula_sum "Si O2"
_cell_formula_units_Z 20
_cell_length_a 11.108948
_cell_length_b 8.800585
_cell_length_c 9.948897
_cell_angle_alpha 90.000000
_cell_angle_beta 94.446799
_cell_angle_gamma 90.000000
_cell_volume 969.728381
_symmetry_space_group_name_H-M "P 21/C"
_symmetry_group_IT_number 14
_symmetry_cell_setting 'monoclinic'
loop_
_space_group_symop_operation_xyz
x,y,z
-x,1/2+y,1/2-z
-x,-y,-z
x,1/2-y,1/2+z
loop_
_atom_site_type_symbol
_atom_site_label
_atom_site_fract_x
_atom_site_fract_y
_atom_site_fract_z
Si Si1 0.926970 0.616221 0.304869
Si Si2 0.560842 0.207912 0.717069
Si Si3 0.692428 0.177252 0.980396
Si Si4 0.041763 0.787782 0.077698
Si Si5 0.658001 0.592958 0.307072
O O1 0.964092 0.444758 0.341383
O O2 0.785947 0.637842 0.253145
O O3 0.003356 0.659152 0.179854
O O4 0.955107 0.716398 0.439873
O O5 0.652959 0.295360 0.628129
O O6 0.422838 0.256946 0.675883
O O7 0.582355 0.025486 0.705225
O O8 0.598501 0.259703 0.870744
O O9 0.824534 0.244683 0.966089
O O10 0.688324 0.994363 0.950608
#
# Coordination Sequence:
#
# PCOD8125428 Si02
#       5
#     4   4   4   4   4
#     4  10  22  41  61  92 119 158 199 250 295 362
#     4  10  20  39  59  83 121 151 195 244 285 355
#     4   9  20  37  63  83 116 153 192 237 298 347
#     4  10  21  41  64  87 126 154 200 247 304 348
#     4   9  22  39  59  87 118 153 201 235 300 349
#
# _framework density 20.624334000000001
#
# number of rings (size 3 to 8) (size 9 to 14) (size 15 to 20)
#    1.200    1.200    0.000    1.800    0.000    3.200 
#   10.800    0.000    0.000    0.000    0.000    0.000 
#    0.000    0.000    0.000    0.000    0.000    0.000 
#
# Total GULP energy -247826.618041 kJ/mol
# GULP energy per Si atom -12391.330902 kJ/mol
# Density = 2.057739 g / cm^3
# Si number density = 20.624334 Si / 1000 Ang^3
#
#
#
# Elastic Constant Matrix: (Units=GPa)
#
#
# Indices 1 2 3 4 5 6 
#
# 1 147.3041 35.8930 18.8070 0.0000 4.8125 0.0000
# 2 35.8930 24.8119 11.1992 0.0000 5.1212 0.0000
# 3 18.8070 11.1992 43.5608 0.0000 4.5716 0.0000
# 4 0.0000 0.0000 0.0000 22.5121 0.0000 -1.4685
# 5 4.8125 5.1212 4.5716 0.0000 15.9251 0.0000
# 6 0.0000 0.0000 0.0000 -1.4685 0.0000 35.1640
#
#
#
# Elastic Compliance Matrix: (Units=1/GPa)
#
#
# Indices 1 2 3 4 5 6 
#
# 1 0.010561 -0.015309 -0.000830 0.000000 0.001970 0.000000
# 2 -0.015309 0.069982 -0.009802 0.000000 -0.015065 0.000000
# 3 -0.000830 -0.009802 0.026269 0.000000 -0.004138 0.000000
# 4 0.000000 0.000000 0.000000 0.044542 0.000000 0.001860
# 5 0.001970 -0.015065 -0.004138 0.000000 0.068231 0.000000
# 6 0.000000 0.000000 0.000000 0.001860 0.000000 0.028516
#
#
# Mechanical properties :
#
#
# Convention : Reuss Voigt Hill
#
# Bulk Modulus (GPa) = 18.20475 38.60834 28.40655
# Shear Modulus (GPa) = 15.70881 24.70540 20.20710
#
# Velocity S-wave (km/s) = 2.76282 3.46479 3.13352
# Velocity P-wave (km/s) = 4.36160 5.89634 5.18606
#
# Compressibility (1/GPa) = 0.05493071
#
# Stress axis : x y z
#
# Youngs Moduli (GPa) = 94.69200 14.28932 38.06746
#
# Poissons Ratio (x) = 0.21875 0.03161
# Poissons Ratio (y) = 1.44961 0.37312
# Poissons Ratio (z) = 0.07863 0.14006
#
# Static dielectric constant tensor:
#      x y z
#    x 3.683210 0.000000 0.095040 
#    y 0.000000 3.403670 0.000000 
#    z 0.095040 0.000000 3.528120 
# 
# 
# High freq. dielectric constant tensor:
#      x y z
#    x 1.814460 0.000000 -0.000910 
#    y 0.000000 1.775630 0.000000 
#    z -0.000910 0.000000 1.794070 
# 
# From -- ./inp_files/11863.got.cif
#   From: 2010.03.12/outbox.cif.g09.slc.cpg/sg14_6_cif.got.tgz:11863.got - 2010.03.31 13:35:05.
