data_PCOD8125683
_publ_section_title
;
Structure prediction by ZEFSAII (Michael W. Deem and Ramdas Pophale) SiO2 
 PCOD8125683
Probable space group: P 21/C
;
_chemical_formula_sum "Si O2"
_cell_formula_units_Z 20
_cell_length_a 8.294419
_cell_length_b 9.078084
_cell_length_c 24.205003
_cell_angle_alpha 90.000000
_cell_angle_beta 147.268337
_cell_angle_gamma 90.000000
_cell_volume 985.475691
_symmetry_space_group_name_H-M "P 21/C"
_symmetry_group_IT_number 14
_symmetry_cell_setting 'monoclinic'
loop_
_space_group_symop_operation_xyz
x,y,z
-x,1/2+y,1/2-z
-x,-y,-z
x,1/2-y,1/2+z
loop_
_atom_site_type_symbol
_atom_site_label
_atom_site_fract_x
_atom_site_fract_y
_atom_site_fract_z
Si Si1 0.238616 0.781192 0.064646
Si Si2 0.272085 0.603519 0.967691
Si Si3 0.414931 0.396761 0.627038
Si Si4 0.114068 0.661485 0.146574
Si Si5 0.524768 0.657388 0.479356
O O1 0.244230 0.704086 0.125140
O O2 0.441348 0.926449 0.129877
O O3 0.364182 0.663253 0.055776
O O4 0.912882 0.838417 0.951885
O O5 0.246424 0.750493 0.923490
O O6 0.970926 0.510707 0.884555
O O7 0.500000 0.500000 0.000000
O O8 0.631834 0.326484 0.734532
O O9 0.517343 0.335891 0.597808
O O10 0.842576 0.768033 0.086620
O O11 0.500000 0.500000 0.500000
#
# Coordination Sequence:
#
# PCOD8125683 Si02
#       5
#     4   4   4   4   4
#     4  10  21  41  62  88 129 161 200 266 307 363
#     4  10  21  40  62  89 126 160 199 262 314 364
#     4  10  22  39  63  92 122 164 211 249 312 374
#     4  10  23  38  62  95 119 167 214 250 311 378
#     4  10  20  41  64  87 131 162 201 262 314 369
#
# _framework density 20.294767
#
# number of rings (size 3 to 8) (size 9 to 14) (size 15 to 20)
#    0.000    2.000    2.000    0.600    2.800    1.600 
#    0.000    0.000    0.000    0.000    0.000    0.000 
#    0.000    0.000    0.000    0.000    0.000    0.000 
#
# Total GULP energy -247823.932882 kJ/mol
# GULP energy per Si atom -12391.196644 kJ/mol
# Density = 2.024858 g / cm^3
# Si number density = 20.294767 Si / 1000 Ang^3
#
#
#
# Elastic Constant Matrix: (Units=GPa)
#
#
# Indices 1 2 3 4 5 6 
#
# 1 105.0353 51.8157 49.0845 0.0000 -29.4289 0.0000
# 2 51.8157 132.7920 51.6491 0.0000 -13.3345 0.0000
# 3 49.0845 51.6491 118.8119 0.0000 -21.5862 0.0000
# 4 0.0000 0.0000 0.0000 23.7175 0.0000 -2.5003
# 5 -29.4289 -13.3345 -21.5862 0.0000 16.8569 0.0000
# 6 0.0000 0.0000 0.0000 -2.5003 0.0000 46.8602
#
#
#
# Elastic Compliance Matrix: (Units=1/GPa)
#
#
# Indices 1 2 3 4 5 6 
#
# 1 0.021340 -0.004735 -0.000873 0.000000 0.032393 0.000000
# 2 -0.004735 0.010214 -0.003281 0.000000 -0.004388 0.000000
# 3 -0.000873 -0.003281 0.012322 0.000000 0.011660 0.000000
# 4 0.000000 0.000000 0.000000 0.042401 0.000000 0.002262
# 5 0.032393 -0.004388 0.011660 0.000000 0.127334 0.000000
# 6 0.000000 0.000000 0.000000 0.002262 0.000000 0.021461
#
#
# Mechanical properties :
#
#
# Convention : Reuss Voigt Hill
#
# Bulk Modulus (GPa) = 38.31669 73.52644 55.92156
# Shear Modulus (GPa) = 19.11693 31.09291 25.10492
#
# Velocity S-wave (km/s) = 3.07247 3.91841 3.52094
# Velocity P-wave (km/s) = 5.61319 7.53524 6.64408
#
# Compressibility (1/GPa) = 0.02609829
#
# Stress axis : x y z
#
# Youngs Moduli (GPa) = 46.86055 97.90826 81.15569
#
# Poissons Ratio (x) = 0.46357 0.07082
# Poissons Ratio (y) = 0.22187 0.26629
# Poissons Ratio (z) = 0.04089 0.32126
#
# Static dielectric constant tensor:
#      x y z
#    x 4.027450 0.000000 -0.012190 
#    y 0.000000 4.298600 0.000000 
#    z -0.012190 0.000000 3.323180 
# 
# 
# High freq. dielectric constant tensor:
#      x y z
#    x 1.810220 0.000000 -0.017160 
#    y 0.000000 1.813810 0.000000 
#    z -0.017160 0.000000 1.753530 
# 
# From -- ./inp_files/23006.got.cif
#   From: 2010.03.12/outbox.cif.g09.slc.cpg/sg14_12_cif.got.tgz:23006.got - 2010.03.31 13:35:05.
