data_PCOD8125859
_publ_section_title
;
Structure prediction by ZEFSAII (Michael W. Deem and Ramdas Pophale) SiO2 
 PCOD8125859
Probable space group: P 21/C
;
_chemical_formula_sum "Si O2"
_cell_formula_units_Z 16
_cell_length_a 10.144223
_cell_length_b 16.578181
_cell_length_c 5.059071
_cell_angle_alpha 90.000000
_cell_angle_beta 93.693810
_cell_angle_gamma 90.000000
_cell_volume 849.030497
_symmetry_space_group_name_H-M "P 21/C"
_symmetry_group_IT_number 14
_symmetry_cell_setting 'monoclinic'
loop_
_space_group_symop_operation_xyz
x,y,z
-x,1/2+y,1/2-z
-x,-y,-z
x,1/2-y,1/2+z
loop_
_atom_site_type_symbol
_atom_site_label
_atom_site_fract_x
_atom_site_fract_y
_atom_site_fract_z
Si Si1 0.355904 0.534788 0.517699
Si Si2 0.761124 0.096815 0.484916
Si Si3 0.993740 0.199275 0.603450
Si Si4 0.103390 0.032806 0.797749
O O1 0.500000 0.500000 0.500000
O O2 0.342811 0.571105 0.806706
O O3 0.247194 0.464421 0.460685
O O4 0.323979 0.605356 0.296134
O O5 0.837101 0.177334 0.586739
O O6 0.880607 0.030399 0.448515
O O7 0.026626 0.229588 0.313386
O O8 0.080007 0.122262 0.690678
O O9 0.000000 0.000000 0.000000
#
# Coordination Sequence:
#
# PCOD8125859 Si02
#       4
#     4   4   4   4
#     4  10  21  35  63  88 110 148 201 244 282 333
#     4  10  21  37  59  82 121 146 198 238 284 336
#     4  12  23  34  56  91 121 151 187 241 301 345
#     4  10  21  37  63  85 120 145 200 244 286 337
#
# _framework density 18.845022
#
# number of rings (size 3 to 8) (size 9 to 14) (size 15 to 20)
#    1.500    0.000    2.500    4.500    3.500    0.000 
#    0.000    0.000    0.000    9.000    0.000    0.000 
#    0.000    0.000    0.000    0.000    0.000    0.000 
#
# Total GULP energy -198228.612641 kJ/mol
# GULP energy per Si atom -12389.288290 kJ/mol
# Density = 1.880213 g / cm^3
# Si number density = 18.845022 Si / 1000 Ang^3
#
#
#
# Elastic Constant Matrix: (Units=GPa)
#
#
# Indices 1 2 3 4 5 6 
#
# 1 104.6717 20.9104 25.2461 0.0000 -4.1096 0.0000
# 2 20.9104 55.9001 19.3281 0.0000 6.8849 0.0000
# 3 25.2461 19.3281 126.0809 0.0000 -7.4779 0.0000
# 4 0.0000 0.0000 0.0000 34.9204 0.0000 9.5696
# 5 -4.1096 6.8849 -7.4779 0.0000 27.8020 0.0000
# 6 0.0000 0.0000 0.0000 9.5696 0.0000 24.9582
#
#
#
# Elastic Compliance Matrix: (Units=1/GPa)
#
#
# Indices 1 2 3 4 5 6 
#
# 1 0.010741 -0.003782 -0.001444 0.000000 0.002136 0.000000
# 2 -0.003782 0.021102 -0.002867 0.000000 -0.006556 0.000000
# 3 -0.001444 -0.002867 0.008830 0.000000 0.002871 0.000000
# 4 0.000000 0.000000 0.000000 0.031999 0.000000 -0.012269
# 5 0.002136 -0.006556 0.002871 0.000000 0.038680 0.000000
# 6 0.000000 0.000000 0.000000 -0.012269 0.000000 0.044771
#
#
# Mechanical properties :
#
#
# Convention : Reuss Voigt Hill
#
# Bulk Modulus (GPa) = 40.83505 46.40243 43.61874
# Shear Modulus (GPa) = 27.70508 32.28065 29.99286
#
# Velocity S-wave (km/s) = 3.83842 4.14327 3.99376
# Velocity P-wave (km/s) = 6.43121 6.89678 6.66806
#
# Compressibility (1/GPa) = 0.02448877
#
# Stress axis : x y z
#
# Youngs Moduli (GPa) = 93.09794 47.38842 113.24519
#
# Poissons Ratio (x) = 0.17920 0.16358
# Poissons Ratio (y) = 0.35206 0.32462
# Poissons Ratio (z) = 0.13447 0.13584
#
# Static dielectric constant tensor:
#      x y z
#    x 3.261480 0.000000 0.151780 
#    y 0.000000 3.194670 0.000000 
#    z 0.151780 0.000000 3.655410 
# 
# 
# High freq. dielectric constant tensor:
#      x y z
#    x 1.713810 0.000000 0.010530 
#    y 0.000000 1.696500 0.000000 
#    z 0.010530 0.000000 1.758050 
# 
# From -- ./inp_files/1257.got.cif
#   From: 2010.03.12/outbox.cif.g09.slc.cpg/sg14_1_cif.got.tgz:1257.got - 2010.03.31 13:35:05.
