data_PCOD8125050
_publ_section_title
;
Structure prediction by ZEFSAII (Michael W. Deem and Ramdas Pophale) SiO2 
 PCOD8125050
Probable space group: P 21/C
;
_chemical_formula_sum "Si O2"
_cell_formula_units_Z 28
_cell_length_a 14.870205
_cell_length_b 9.926916
_cell_length_c 10.804194
_cell_angle_alpha 90.000000
_cell_angle_beta 50.601883
_cell_angle_gamma 90.000000
_cell_volume 1232.438287
_symmetry_space_group_name_H-M "P 21/C"
_symmetry_group_IT_number 14
_symmetry_cell_setting 'monoclinic'
loop_
_space_group_symop_operation_xyz
x,y,z
-x,1/2+y,1/2-z
-x,-y,-z
x,1/2-y,1/2+z
loop_
_atom_site_type_symbol
_atom_site_label
_atom_site_fract_x
_atom_site_fract_y
_atom_site_fract_z
Si Si1 0.872033 0.505790 0.742620
Si Si2 0.283074 0.757331 0.647610
Si Si3 0.451907 0.101820 0.872234
Si Si4 0.123543 0.463054 0.539772
Si Si5 0.336829 0.638134 0.356168
Si Si6 0.325349 0.497219 0.719943
Si Si7 0.733810 0.702337 0.028527
O O1 0.825875 0.352933 0.778614
O O2 0.892490 0.570012 0.590734
O O3 0.775317 0.600533 0.887362
O O4 0.995427 0.495948 0.707827
O O5 0.358243 0.742430 0.453431
O O6 0.362653 0.810212 0.693776
O O7 0.240209 0.606395 0.727757
O O8 0.414912 0.993663 0.802044
O O9 0.591395 0.086907 0.761239
O O10 0.400021 0.078383 0.052796
O O11 0.401680 0.248945 0.873227
O O12 0.201197 0.596396 0.488784
O O13 0.182905 0.332751 0.550353
O O14 0.255452 0.382163 0.853827
#
# Coordination Sequence:
#
# PCOD8125050 Si02
#       7
#     4   4   4   4   4   4   4
#     4  10  21  38  59  88 121 163 203 254 312 366
#     4  10  20  36  60  88 122 152 204 254 302 370
#     4   9  21  39  58  85 126 160 199 257 312 358
#     4   9  21  39  58  85 126 160 199 257 312 358
#     4   9  19  36  60  84 121 161 196 256 306 361
#     4  10  21  38  59  88 121 163 203 254 312 366
#     4  11  21  38  64  88 117 161 212 252 300 383
#
# _framework density 22.719190000000001
#
# number of rings (size 3 to 8) (size 9 to 14) (size 15 to 20)
#    0.000    2.286    0.000    1.714    4.000    0.000 
#    5.143    1.429    0.000    0.000    0.000    0.000 
#    0.000    0.000    0.000    0.000    0.000    0.000 
#
# Total GULP energy -346881.369136 kJ/mol
# GULP energy per Si atom -12388.620326 kJ/mol
# Density = 2.266748 g / cm^3
# Si number density = 22.719190 Si / 1000 Ang^3
#
#
#
# Elastic Constant Matrix: (Units=GPa)
#
#
# Indices 1 2 3 4 5 6 
#
# 1 62.5793 22.7687 10.8809 0.0000 9.0202 0.0000
# 2 22.7687 104.2428 28.6711 0.0000 -0.7699 0.0000
# 3 10.8809 28.6711 56.8311 0.0000 19.8885 0.0000
# 4 0.0000 0.0000 0.0000 36.8669 0.0000 3.1876
# 5 9.0202 -0.7699 19.8885 0.0000 32.1261 0.0000
# 6 0.0000 0.0000 0.0000 3.1876 0.0000 33.0500
#
#
#
# Elastic Compliance Matrix: (Units=1/GPa)
#
#
# Indices 1 2 3 4 5 6 
#
# 1 0.018201 -0.004172 0.000566 0.000000 -0.005561 0.000000
# 2 -0.004172 0.012702 -0.007820 0.000000 0.006317 0.000000
# 3 0.000566 -0.007820 0.027515 0.000000 -0.017380 0.000000
# 4 0.000000 0.000000 0.000000 0.027353 0.000000 -0.002638
# 5 -0.005561 0.006317 -0.017380 0.000000 0.043600 0.000000
# 6 0.000000 0.000000 0.000000 -0.002638 0.000000 0.030512
#
#
# Mechanical properties :
#
#
# Convention : Reuss Voigt Hill
#
# Bulk Modulus (GPa) = 28.11682 38.69940 33.40811
# Shear Modulus (GPa) = 25.69524 31.16413 28.42969
#
# Velocity S-wave (km/s) = 3.36667 3.70768 3.54128
# Velocity P-wave (km/s) = 5.24550 5.94978 5.60871
#
# Compressibility (1/GPa) = 0.03556590
#
# Stress axis : x y z
#
# Youngs Moduli (GPa) = 54.94261 78.72953 36.34375
#
# Poissons Ratio (x) = 0.32848 -0.02058
# Poissons Ratio (y) = 0.22923 0.28420
# Poissons Ratio (z) = -0.03111 0.61565
#
# Static dielectric constant tensor:
#      x y z
#    x 4.417970 0.000000 0.134530 
#    y 0.000000 4.212310 0.000000 
#    z 0.134530 0.000000 3.854900 
# 
# 
# High freq. dielectric constant tensor:
#      x y z
#    x 1.888780 0.000000 0.019810 
#    y 0.000000 1.905970 0.000000 
#    z 0.019810 0.000000 1.872970 
# 
# From -- ./inp_files/31708.got.cif
#   From: 2010.03.12/outbox.cif.g09.slc.cpg/sg14_16_cif.got.tgz:31708.got - 2010.03.31 13:35:05.
