data_PCOD8125376
_publ_section_title
;
Structure prediction by ZEFSAII (Michael W. Deem and Ramdas Pophale) SiO2 
 PCOD8125376
Probable space group: P 21/C
;
_chemical_formula_sum "Si O2"
_cell_formula_units_Z 24
_cell_length_a 21.502066
_cell_length_b 13.267416
_cell_length_c 14.707562
_cell_angle_alpha 90.000000
_cell_angle_beta 162.007382
_cell_angle_gamma 90.000000
_cell_volume 1296.036823
_symmetry_space_group_name_H-M "P 21/C"
_symmetry_group_IT_number 14
_symmetry_cell_setting 'monoclinic'
loop_
_space_group_symop_operation_xyz
x,y,z
-x,1/2+y,1/2-z
-x,-y,-z
x,1/2-y,1/2+z
loop_
_atom_site_type_symbol
_atom_site_label
_atom_site_fract_x
_atom_site_fract_y
_atom_site_fract_z
Si Si1 0.527891 0.588070 0.110071
Si Si2 0.836214 0.737607 0.003963
Si Si3 0.979333 0.659796 0.013703
Si Si4 0.309987 0.005156 0.979977
Si Si5 0.818167 0.253248 0.370674
Si Si6 0.499565 0.584431 0.574572
O O1 0.713872 0.658388 0.339451
O O2 0.570355 0.538232 0.265537
O O3 0.500000 0.500000 0.000000
O O4 0.320349 0.648776 0.828104
O O5 0.896621 0.721689 0.983701
O O6 0.034487 0.739736 0.339674
O O7 0.706618 0.644882 0.861173
O O8 0.147943 0.580431 0.280837
O O9 0.065222 0.741439 0.062411
O O10 0.796218 0.601715 0.711791
O O11 0.476088 0.962732 0.141678
O O12 0.689315 0.154098 0.211045
O O13 0.500000 0.500000 0.500000
#
# Coordination Sequence:
#
# PCOD8125376 Si02
#       6
#     4   4   4   4   4   4
#     4  11  24  41  59  89 126 161 199 249 302 354
#     4  11  22  39  62  88 123 154 202 250 296 359
#     4  10  20  38  64  86 114 162 198 245 304 347
#     4  10  20  39  62  85 121 155 199 248 295 359
#     4  10  23  39  58  90 122 155 198 249 300 355
#     4  10  21  37  62  90 114 156 204 241 297 362
#
# _framework density 18.517993000000001
#
# number of rings (size 3 to 8) (size 9 to 14) (size 15 to 20)
#    0.000    1.667    3.333    1.000    0.000    4.000 
#    3.000    1.667    0.000    0.000    0.000    0.000 
#    0.000    0.000    0.000    0.000    0.000    0.000 
#
# Total GULP energy -297716.303928 kJ/mol
# GULP energy per Si atom -12404.845997 kJ/mol
# Density = 1.847584 g / cm^3
# Si number density = 18.517993 Si / 1000 Ang^3
#
#
#
# Elastic Constant Matrix: (Units=GPa)
#
#
# Indices 1 2 3 4 5 6 
#
# 1 158.6588 77.8498 71.2042 0.0000 -6.8776 0.0000
# 2 77.8498 109.4454 46.9118 0.0000 -12.4760 0.0000
# 3 71.2042 46.9118 97.4443 0.0000 -18.1390 0.0000
# 4 0.0000 0.0000 0.0000 20.1683 0.0000 0.9758
# 5 -6.8776 -12.4760 -18.1390 0.0000 32.8277 0.0000
# 6 0.0000 0.0000 0.0000 0.9758 0.0000 37.6274
#
#
#
# Elastic Compliance Matrix: (Units=1/GPa)
#
#
# Indices 1 2 3 4 5 6 
#
# 1 0.012129 -0.006231 -0.006499 0.000000 -0.003418 0.000000
# 2 -0.006231 0.014778 -0.001960 0.000000 0.003228 0.000000
# 3 -0.006499 -0.001960 0.017347 0.000000 0.007479 0.000000
# 4 0.000000 0.000000 0.000000 0.049645 0.000000 -0.001287
# 5 -0.003418 0.003228 0.007479 0.000000 0.035105 0.000000
# 6 0.000000 0.000000 0.000000 -0.001287 0.000000 0.026610
#
#
# Mechanical properties :
#
#
# Convention : Reuss Voigt Hill
#
# Bulk Modulus (GPa) = 67.23904 84.16444 75.70174
# Shear Modulus (GPa) = 26.32242 29.43020 27.87631
#
# Velocity S-wave (km/s) = 3.77430 3.99090 3.88411
# Velocity P-wave (km/s) = 7.44196 8.17222 7.81562
#
# Compressibility (1/GPa) = 0.01487231
#
# Stress axis : x y z
#
# Youngs Moduli (GPa) = 82.44666 67.67044 57.64642
#
# Poissons Ratio (x) = 0.42168 0.37466
# Poissons Ratio (y) = 0.51376 0.11299
# Poissons Ratio (z) = 0.53584 0.13263
#
# Static dielectric constant tensor:
#      x y z
#    x 3.494540 0.000000 0.168490 
#    y 0.000000 3.479920 0.000000 
#    z 0.168490 0.000000 3.456200 
# 
# 
# High freq. dielectric constant tensor:
#      x y z
#    x 1.730400 0.000000 0.004150 
#    y 0.000000 1.724310 0.000000 
#    z 0.004150 0.000000 1.722210 
# 
# From -- ./inp_files/35363.got.cif
#   From: 2010.03.12/outbox.cif.g09.slc.cpg/sg14_18_cif.got.tgz:35363.got - 2010.03.31 13:35:05.
