data_PCOD8125817
_publ_section_title
;
Structure prediction by ZEFSAII (Michael W. Deem and Ramdas Pophale) SiO2 
 PCOD8125817
Probable space group: P 21/C
;
_chemical_formula_sum "Si O2"
_cell_formula_units_Z 28
_cell_length_a 23.266606
_cell_length_b 5.179068
_cell_length_c 20.165904
_cell_angle_alpha 90.000000
_cell_angle_beta 34.652444
_cell_angle_gamma 90.000000
_cell_volume 1381.678064
_symmetry_space_group_name_H-M "P 21/C"
_symmetry_group_IT_number 14
_symmetry_cell_setting 'monoclinic'
loop_
_space_group_symop_operation_xyz
x,y,z
-x,1/2+y,1/2-z
-x,-y,-z
x,1/2-y,1/2+z
loop_
_atom_site_type_symbol
_atom_site_label
_atom_site_fract_x
_atom_site_fract_y
_atom_site_fract_z
Si Si1 0.130174 0.819678 0.567435
Si Si2 0.698572 0.173133 0.690988
Si Si3 0.909854 0.489893 0.274364
Si Si4 0.614073 0.831548 0.336375
Si Si5 0.518954 0.276573 0.272933
Si Si6 0.799716 0.999953 0.368714
Si Si7 0.411434 0.436826 0.991188
O O1 0.186793 0.786910 0.443368
O O2 0.105068 0.550902 0.630978
O O3 0.200411 0.990840 0.550536
O O4 0.026705 0.965601 0.648542
O O5 0.671492 0.400803 0.767349
O O6 0.633690 0.181135 0.685420
O O7 0.679360 0.901357 0.745175
O O8 0.874182 0.226890 0.271277
O O9 0.842144 0.720276 0.308421
O O10 0.500046 0.845597 0.414322
O O11 0.607873 0.794606 0.421061
O O12 0.484268 0.492346 0.255209
O O13 0.447949 0.283894 0.405395
O O14 0.690200 0.060217 0.441898
#
# Coordination Sequence:
#
# PCOD8125817 Si02
#       7
#     4   4   4   4   4   4   4
#     4  10  21  37  61  89 121 151 186 256 303 369
#     4  11  24  37  62  84 123 154 207 243 295 355
#     4  10  21  35  58  93 117 150 196 228 329 362
#     4  10  25  42  58  89 111 179 206 235 284 345
#     4  11  23  36  57  94 123 150 188 250 309 355
#     4  10  21  33  60  92 112 155 191 249 295 361
#     4  10  23  42  64  80 131 158 209 241 281 362
#
# _framework density 20.265211000000001
#
# number of rings (size 3 to 8) (size 9 to 14) (size 15 to 20)
#    0.857    0.857    1.429    2.571    4.000    9.714 
#    0.000    0.000    0.000    5.143    0.000    0.000 
#    0.000    0.000    0.000    0.000    0.000    0.000 
#
# Total GULP energy -347010.370591 kJ/mol
# GULP energy per Si atom -12393.227521 kJ/mol
# Density = 2.021909 g / cm^3
# Si number density = 20.265211 Si / 1000 Ang^3
#
#
#
# Elastic Constant Matrix: (Units=GPa)
#
#
# Indices 1 2 3 4 5 6 
#
# 1 62.4072 24.8261 55.2828 0.0000 -8.1662 0.0000
# 2 24.8261 121.5943 47.9758 0.0000 -3.7711 0.0000
# 3 55.2828 47.9758 149.2364 0.0000 -4.9769 0.0000
# 4 0.0000 0.0000 0.0000 22.4492 0.0000 -4.0588
# 5 -8.1662 -3.7711 -4.9769 0.0000 31.3968 0.0000
# 6 0.0000 0.0000 0.0000 -4.0588 0.0000 12.8012
#
#
#
# Elastic Compliance Matrix: (Units=1/GPa)
#
#
# Indices 1 2 3 4 5 6 
#
# 1 0.024854 -0.001551 -0.008544 0.000000 0.004924 0.000000
# 2 -0.001551 0.009529 -0.002477 0.000000 0.000349 0.000000
# 3 -0.008544 -0.002477 0.010634 0.000000 -0.000834 0.000000
# 4 0.000000 0.000000 0.000000 0.047254 0.000000 0.014983
# 5 0.004924 0.000349 -0.000834 0.000000 0.033041 0.000000
# 6 0.000000 0.000000 0.000000 0.014983 0.000000 0.082868
#
#
# Mechanical properties :
#
#
# Convention : Reuss Voigt Hill
#
# Bulk Modulus (GPa) = 50.31942 65.48970 57.90456
# Shear Modulus (GPa) = 20.83786 27.00630 23.92208
#
# Velocity S-wave (km/s) = 3.21012 3.65450 3.43950
# Velocity P-wave (km/s) = 6.21484 7.08475 6.66400
#
# Compressibility (1/GPa) = 0.01987304
#
# Stress axis : x y z
#
# Youngs Moduli (GPa) = 40.23571 104.94400 94.03464
#
# Poissons Ratio (x) = 0.16272 0.80343
# Poissons Ratio (y) = 0.06239 0.23295
# Poissons Ratio (z) = 0.34377 0.25998
#
# Static dielectric constant tensor:
#      x y z
#    x 3.528710 0.000000 -0.029170 
#    y 0.000000 3.572830 0.000000 
#    z -0.029170 0.000000 3.578960 
# 
# 
# High freq. dielectric constant tensor:
#      x y z
#    x 1.767580 0.000000 -0.010090 
#    y 0.000000 1.790140 0.000000 
#    z -0.010090 0.000000 1.783600 
# 
# From -- ./inp_files/70054.got.cif
#   From: 2010.03.12/outbox.cif.g09.slc.cpg/sg14_36_cif.got.tgz:70054.got - 2010.03.31 13:35:05.
