data_PCOD8125596
_publ_section_title
;
Structure prediction by ZEFSAII (Michael W. Deem and Ramdas Pophale) SiO2 
 PCOD8125596
Probable space group: P 21/C
;
_chemical_formula_sum "Si O2"
_cell_formula_units_Z 32
_cell_length_a 11.025550
_cell_length_b 8.923492
_cell_length_c 24.112852
_cell_angle_alpha 90.000000
_cell_angle_beta 41.334231
_cell_angle_gamma 90.000000
_cell_volume 1566.837229
_symmetry_space_group_name_H-M "P 21/C"
_symmetry_group_IT_number 14
_symmetry_cell_setting 'monoclinic'
loop_
_space_group_symop_operation_xyz
x,y,z
-x,1/2+y,1/2-z
-x,-y,-z
x,1/2-y,1/2+z
loop_
_atom_site_type_symbol
_atom_site_label
_atom_site_fract_x
_atom_site_fract_y
_atom_site_fract_z
Si Si1 0.977844 0.272331 0.223584
Si Si2 0.135952 0.180482 0.552505
Si Si3 0.450486 0.066491 0.376122
Si Si4 0.798419 0.505928 0.137758
Si Si5 0.765693 0.526559 0.540678
Si Si6 0.837109 0.948490 0.248967
Si Si7 0.085022 0.346425 0.399977
Si Si8 0.611033 0.384178 0.309029
O O1 0.784065 0.361164 0.290195
O O2 0.100671 0.329460 0.130040
O O3 0.085015 0.307851 0.243369
O O4 0.944569 0.095592 0.232476
O O5 0.328630 0.099230 0.472637
O O6 0.141751 0.351334 0.531104
O O7 0.969820 0.106236 0.575068
O O8 0.323472 0.983968 0.374924
O O9 0.525448 0.221415 0.323634
O O10 0.619643 0.961498 0.335438
O O11 0.877865 0.671852 0.116050
O O12 0.669499 0.468335 0.233613
O O13 0.791423 0.572612 0.596090
O O14 0.545654 0.515442 0.606552
O O15 0.869155 0.372086 0.489853
O O16 0.867018 0.924668 0.174080
#
# Coordination Sequence:
#
# PCOD8125596 Si02
#       8
#     4   4   4   4   4   4   4   4
#     4  10  23  41  64  81 123 168 213 254 301 361
#     4  10  20  40  64  89 129 163 198 258 316 360
#     4  10  21  38  62  91 121 161 206 253 316 369
#     4  11  21  36  61  98 127 154 202 258 315 378
#     4  10  20  41  64  91 125 165 201 253 326 373
#     4  11  24  42  62  88 120 172 212 253 307 364
#     4  11  22  37  63  92 126 158 203 252 317 381
#     4   9  20  39  59  86 124 162 200 255 306 365
#
# _framework density 20.423307999999999
#
# number of rings (size 3 to 8) (size 9 to 14) (size 15 to 20)
#    0.000    1.750    3.750    1.125    3.500    0.500 
#    2.250    0.625    0.000    0.000    0.000    0.000 
#    0.000    0.000    0.000    0.000    0.000    0.000 
#
# Total GULP energy -396816.166783 kJ/mol
# GULP energy per Si atom -12400.505212 kJ/mol
# Density = 2.037682 g / cm^3
# Si number density = 20.423308 Si / 1000 Ang^3
#
#
#
# Elastic Constant Matrix: (Units=GPa)
#
#
# Indices 1 2 3 4 5 6 
#
# 1 70.6384 15.3132 41.6794 0.0000 -6.2025 0.0000
# 2 15.3132 46.4255 32.0575 0.0000 -13.1267 0.0000
# 3 41.6794 32.0575 113.5182 0.0000 -20.4789 0.0000
# 4 0.0000 0.0000 0.0000 32.8106 0.0000 -4.0086
# 5 -6.2025 -13.1267 -20.4789 0.0000 28.6901 0.0000
# 6 0.0000 0.0000 0.0000 -4.0086 0.0000 30.7479
#
#
#
# Elastic Compliance Matrix: (Units=1/GPa)
#
#
# Indices 1 2 3 4 5 6 
#
# 1 0.018239 -0.002035 -0.006403 0.000000 -0.001559 0.000000
# 2 -0.002035 0.028624 -0.005800 0.000000 0.008517 0.000000
# 3 -0.006403 -0.005800 0.013853 0.000000 0.005851 0.000000
# 4 0.000000 0.000000 0.000000 0.030971 0.000000 0.004038
# 5 -0.001559 0.008517 0.005851 0.000000 0.042591 0.000000
# 6 0.000000 0.000000 0.000000 0.004038 0.000000 0.033049
#
#
# Mechanical properties :
#
#
# Convention : Reuss Voigt Hill
#
# Bulk Modulus (GPa) = 31.01699 45.40913 38.21306
# Shear Modulus (GPa) = 24.20710 27.88518 26.04614
#
# Velocity S-wave (km/s) = 3.44651 3.69909 3.57503
# Velocity P-wave (km/s) = 5.57296 6.36605 5.98266
#
# Compressibility (1/GPa) = 0.03224040
#
# Stress axis : x y z
#
# Youngs Moduli (GPa) = 54.82754 34.93554 72.18442
#
# Poissons Ratio (x) = 0.07110 0.46220
# Poissons Ratio (y) = 0.11159 0.41865
# Poissons Ratio (z) = 0.35106 0.20262
#
# Static dielectric constant tensor:
#      x y z
#    x 3.594040 0.000000 -0.264250 
#    y 0.000000 3.589050 0.000000 
#    z -0.264250 0.000000 3.913580 
# 
# 
# High freq. dielectric constant tensor:
#      x y z
#    x 1.782020 0.000000 -0.015190 
#    y 0.000000 1.787770 0.000000 
#    z -0.015190 0.000000 1.810970 
# 
# From -- ./inp_files/73109.got.cif
#   From: 2010.03.12/outbox.cif.g09.slc.cpg/sg14_37_cif.got.tgz:73109.got - 2010.03.31 13:35:05.
