data_PCOD8125334
_publ_section_title
;
Structure prediction by ZEFSAII (Michael W. Deem and Ramdas Pophale) SiO2 
 PCOD8125334
Probable space group: P 21/C
;
_chemical_formula_sum "Si O2"
_cell_formula_units_Z 32
_cell_length_a 14.077636
_cell_length_b 9.052321
_cell_length_c 13.769038
_cell_angle_alpha 90.000000
_cell_angle_beta 55.245094
_cell_angle_gamma 90.000000
_cell_volume 1441.626369
_symmetry_space_group_name_H-M "P 21/C"
_symmetry_group_IT_number 14
_symmetry_cell_setting 'monoclinic'
loop_
_space_group_symop_operation_xyz
x,y,z
-x,1/2+y,1/2-z
-x,-y,-z
x,1/2-y,1/2+z
loop_
_atom_site_type_symbol
_atom_site_label
_atom_site_fract_x
_atom_site_fract_y
_atom_site_fract_z
Si Si1 0.502793 0.418539 0.145493
Si Si2 0.759141 0.360810 0.997992
Si Si3 0.750110 0.584377 0.157142
Si Si4 0.063188 0.280350 0.519378
Si Si5 0.434749 0.262811 0.863766
Si Si6 0.667496 0.768440 0.880956
Si Si7 0.904948 0.097002 0.957650
Si Si8 0.103539 0.389271 0.184497
O O1 0.484027 0.594844 0.162645
O O2 0.497287 0.353045 0.257734
O O3 0.404316 0.357708 0.132956
O O4 0.629792 0.375672 0.029996
O O5 0.799166 0.190275 0.974279
O O6 0.848825 0.453796 0.880938
O O7 0.762180 0.418985 0.108943
O O8 0.871561 0.670334 0.093219
O O9 0.683257 0.675297 0.112554
O O10 0.684951 0.590541 0.298984
O O11 0.137917 0.430704 0.494966
O O12 0.039274 0.196851 0.634456
O O13 0.944426 0.325010 0.535166
O O14 0.402787 0.180431 0.983142
O O15 0.791918 0.706501 0.835172
O O16 0.011766 0.081864 0.821723
#
# Coordination Sequence:
#
# PCOD8125334 Si02
#       8
#     4   4   4   4   4   4   4   4
#     4  10  22  39  62  92 119 163 197 249 304 352
#     4  10  22  41  59  90 130 150 204 255 294 353
#     4   9  19  37  60  86 119 160 200 240 294 364
#     4  10  21  39  58  87 116 158 206 239 310 353
#     4  10  20  38  61  88 120 157 204 243 297 357
#     4  11  19  37  68  87 119 164 203 235 298 373
#     4  11  23  39  62  88 122 158 199 259 298 355
#     4  11  21  39  64  87 120 159 207 243 298 368
#
# _framework density 22.197151000000002
#
# number of rings (size 3 to 8) (size 9 to 14) (size 15 to 20)
#    0.000    1.750    5.000    1.125    0.000    4.000 
#    2.250    6.875    0.000    0.000    0.000    0.000 
#    0.000    0.000    0.000    0.000    0.000    0.000 
#
# Total GULP energy -396701.234118 kJ/mol
# GULP energy per Si atom -12396.913566 kJ/mol
# Density = 2.214663 g / cm^3
# Si number density = 22.197151 Si / 1000 Ang^3
#
#
#
# Elastic Constant Matrix: (Units=GPa)
#
#
# Indices 1 2 3 4 5 6 
#
# 1 39.0402 -8.5363 25.7107 0.0000 7.7284 0.0000
# 2 -8.5363 31.9636 16.7613 0.0000 -5.6446 0.0000
# 3 25.7107 16.7613 116.6391 0.0000 12.5711 0.0000
# 4 0.0000 0.0000 0.0000 21.7370 0.0000 -2.6227
# 5 7.7284 -5.6446 12.5711 0.0000 28.4408 0.0000
# 6 0.0000 0.0000 0.0000 -2.6227 0.0000 26.4127
#
#
#
# Elastic Compliance Matrix: (Units=1/GPa)
#
#
# Indices 1 2 3 4 5 6 
#
# 1 0.035496 0.014025 -0.009555 0.000000 -0.002639 0.000000
# 2 0.014025 0.041898 -0.010078 0.000000 0.008959 0.000000
# 3 -0.009555 -0.010078 0.012667 0.000000 -0.005002 0.000000
# 4 0.000000 0.000000 0.000000 0.046562 0.000000 0.004624
# 5 -0.002639 0.008959 -0.005002 0.000000 0.039867 0.000000
# 6 0.000000 0.000000 0.000000 0.004624 0.000000 0.038320
#
#
# Mechanical properties :
#
#
# Convention : Reuss Voigt Hill
#
# Bulk Modulus (GPa) = 12.68330 28.39048 20.53689
# Shear Modulus (GPa) = 19.81700 25.56527 22.69113
#
# Velocity S-wave (km/s) = 2.99117 3.39741 3.20074
# Velocity P-wave (km/s) = 4.20188 5.31110 4.78871
#
# Compressibility (1/GPa) = 0.07884385
#
# Stress axis : x y z
#
# Youngs Moduli (GPa) = 28.17188 23.86767 78.94465
#
# Poissons Ratio (x) = -0.33473 0.75435
# Poissons Ratio (y) = -0.39510 0.79558
# Poissons Ratio (z) = 0.26919 0.24053
#
# Static dielectric constant tensor:
#      x y z
#    x 3.826960 0.000000 0.145700 
#    y 0.000000 3.907940 0.000000 
#    z 0.145700 0.000000 4.142770 
# 
# 
# High freq. dielectric constant tensor:
#      x y z
#    x 1.862780 0.000000 0.008730 
#    y 0.000000 1.856870 0.000000 
#    z 0.008730 0.000000 1.874910 
# 
# From -- ./inp_files/46489.got.cif
#   From: 2010.03.12/outbox.cif.g09.slc.cpg/sg14_24_cif.got.tgz:46489.got - 2010.03.31 13:35:05.
