data_PCOD8125490
_publ_section_title
;
Structure prediction by ZEFSAII (Michael W. Deem and Ramdas Pophale) SiO2 
 PCOD8125490
Probable space group: P 21/C
;
_chemical_formula_sum "Si O2"
_cell_formula_units_Z 32
_cell_length_a 11.930175
_cell_length_b 19.151993
_cell_length_c 9.416733
_cell_angle_alpha 90.000000
_cell_angle_beta 49.414421
_cell_angle_gamma 90.000000
_cell_volume 1633.998672
_symmetry_space_group_name_H-M "P 21/C"
_symmetry_group_IT_number 14
_symmetry_cell_setting 'monoclinic'
loop_
_space_group_symop_operation_xyz
x,y,z
-x,1/2+y,1/2-z
-x,-y,-z
x,1/2-y,1/2+z
loop_
_atom_site_type_symbol
_atom_site_label
_atom_site_fract_x
_atom_site_fract_y
_atom_site_fract_z
Si Si1 0.912130 0.582039 0.937271
Si Si2 0.100099 0.088584 0.882577
Si Si3 0.217371 0.553223 0.804624
Si Si4 0.579529 0.445400 0.624429
Si Si5 0.209848 0.942468 0.814803
Si Si6 0.368577 0.314707 0.155859
Si Si7 0.355425 0.326406 0.834305
Si Si8 0.589089 0.077034 0.612392
O O1 0.921984 0.567118 0.762814
O O2 0.076390 0.595594 0.862607
O O3 0.834520 0.517395 0.077679
O O4 0.815564 0.651554 0.041110
O O5 0.206036 0.154348 0.820536
O O6 0.166795 0.020378 0.904029
O O7 0.938428 0.104435 0.082938
O O8 0.332867 0.531556 0.587682
O O9 0.307414 0.601868 0.841713
O O10 0.691277 0.408650 0.643015
O O11 0.454663 0.389028 0.691469
O O12 0.511406 0.512950 0.755832
O O13 0.300668 0.950849 0.597112
O O14 0.381904 0.239054 0.212267
O O15 0.492203 0.360727 0.130735
O O16 0.396479 0.310492 0.964343
#
# Coordination Sequence:
#
# PCOD8125490 Si02
#       8
#     4   4   4   4   4   4   4   4
#     4  10  21  40  60  92 131 161 203 260 312 370
#     4  10  20  39  63  93 123 163 210 255 311 377
#     4  11  23  37  64  98 129 159 205 264 314 362
#     4  12  22  39  65  97 128 165 208 263 314 369
#     4  11  20  37  66  95 121 157 212 262 309 365
#     4  11  25  43  64  89 126 168 210 258 315 383
#     4  11  25  44  63  89 127 169 211 256 315 379
#     4  12  22  40  63  98 126 162 209 261 317 371
#
# _framework density 19.583859
#
# number of rings (size 3 to 8) (size 9 to 14) (size 15 to 20)
#    0.000    1.000    6.250    1.500    1.750    0.000 
#    2.250    2.500    0.000    0.000    0.000    0.000 
#    0.000    0.000    0.000    0.000    0.000    0.000 
#
# Total GULP energy -396766.156715 kJ/mol
# GULP energy per Si atom -12398.942397 kJ/mol
# Density = 1.953929 g / cm^3
# Si number density = 19.583859 Si / 1000 Ang^3
#
#
#
# Elastic Constant Matrix: (Units=GPa)
#
#
# Indices 1 2 3 4 5 6 
#
# 1 131.3457 33.4869 38.6592 0.0000 -6.1710 0.0000
# 2 33.4869 76.1708 27.6697 0.0000 -4.7313 0.0000
# 3 38.6592 27.6697 98.1662 0.0000 -4.0934 0.0000
# 4 0.0000 0.0000 0.0000 21.1816 0.0000 5.9862
# 5 -6.1710 -4.7313 -4.0934 0.0000 31.4114 0.0000
# 6 0.0000 0.0000 0.0000 5.9862 0.0000 25.7727
#
#
#
# Elastic Compliance Matrix: (Units=1/GPa)
#
#
# Indices 1 2 3 4 5 6 
#
# 1 0.009234 -0.002999 -0.002750 0.000000 0.001004 0.000000
# 2 -0.002999 0.015688 -0.003184 0.000000 0.001359 0.000000
# 3 -0.002750 -0.003184 0.012191 0.000000 0.000569 0.000000
# 4 0.000000 0.000000 0.000000 0.050527 0.000000 -0.011736
# 5 0.001004 0.001359 0.000569 0.000000 0.032312 0.000000
# 6 0.000000 0.000000 0.000000 -0.011736 0.000000 0.041527
#
#
# Mechanical properties :
#
#
# Convention : Reuss Voigt Hill
#
# Bulk Modulus (GPa) = 51.95284 56.14605 54.04945
# Shear Modulus (GPa) = 26.91646 29.39760 28.15703
#
# Velocity S-wave (km/s) = 3.71134 3.87862 3.79590
# Velocity P-wave (km/s) = 6.70458 6.98499 6.84622
#
# Compressibility (1/GPa) = 0.01924822
#
# Stress axis : x y z
#
# Youngs Moduli (GPa) = 108.29003 63.74386 82.02840
#
# Poissons Ratio (x) = 0.19114 0.22555
# Poissons Ratio (y) = 0.32471 0.26120
# Poissons Ratio (z) = 0.29775 0.20298
#
# Static dielectric constant tensor:
#      x y z
#    x 4.088670 0.000000 -0.135710 
#    y 0.000000 3.134630 0.000000 
#    z -0.135710 0.000000 3.753480 
# 
# 
# High freq. dielectric constant tensor:
#      x y z
#    x 1.786800 0.000000 -0.007130 
#    y 0.000000 1.715450 0.000000 
#    z -0.007130 0.000000 1.777670 
# 
# From -- ./inp_files/14293.got.cif
#   From: 2010.03.12/outbox.cif.g09.slc.cpg/sg14_8_cif.got.tgz:14293.got - 2010.03.31 13:35:05.
