data_PCOD8125489
_publ_section_title
;
Structure prediction by ZEFSAII (Michael W. Deem and Ramdas Pophale) SiO2 
 PCOD8125489
Probable space group: P 21/C
;
_chemical_formula_sum "Si O2"
_cell_formula_units_Z 32
_cell_length_a 13.533182
_cell_length_b 12.244605
_cell_length_c 25.283339
_cell_angle_alpha 90.000000
_cell_angle_beta 159.249415
_cell_angle_gamma 90.000000
_cell_volume 1484.400187
_symmetry_space_group_name_H-M "P 21/C"
_symmetry_group_IT_number 14
_symmetry_cell_setting 'monoclinic'
loop_
_space_group_symop_operation_xyz
x,y,z
-x,1/2+y,1/2-z
-x,-y,-z
x,1/2-y,1/2+z
loop_
_atom_site_type_symbol
_atom_site_label
_atom_site_fract_x
_atom_site_fract_y
_atom_site_fract_z
Si Si1 0.588428 0.371490 0.878866
Si Si2 0.295642 0.968261 0.669458
Si Si3 0.304862 0.494105 0.828499
Si Si4 0.213836 0.376871 0.881357
Si Si5 0.674242 0.002157 0.141431
Si Si6 0.579410 0.181295 0.177549
Si Si7 0.254147 0.349870 0.228027
Si Si8 0.959458 0.682822 0.634869
O O1 0.520370 0.429567 0.788294
O O2 0.480885 0.461088 0.865797
O O3 0.395995 0.265719 0.789029
O O4 0.917399 0.344595 0.051064
O O5 0.273652 0.864340 0.697022
O O6 0.401058 0.069866 0.757950
O O7 0.000000 0.000000 0.500000
O O8 0.232320 0.385518 0.826620
O O9 0.004444 0.553637 0.668421
O O10 0.481818 0.587044 0.947145
O O11 0.995156 0.467344 0.791888
O O12 0.129128 0.254732 0.857626
O O13 0.676101 0.890352 0.177184
O O14 0.543281 0.096621 0.111169
O O15 0.500000 0.000000 0.000000
O O16 0.742782 0.285352 0.239636
O O17 0.252791 0.210582 0.019997
#
# Coordination Sequence:
#
# PCOD8125489 Si02
#       8
#     4   4   4   4   4   4   4   4
#     4  11  24  43  68  98 130 180 217 283 335 394
#     4   9  22  43  68  91 130 172 217 274 338 391
#     4  11  23  41  65  93 134 173 225 271 331 399
#     4  10  22  41  61  92 132 176 214 270 333 388
#     4  10  20  39  63  89 130 174 218 269 327 397
#     4  10  22  37  63  96 125 168 221 272 328 399
#     4  10  23  44  66  98 135 172 227 271 340 400
#     4  11  22  40  65  97 129 171 226 272 329 402
#
# _framework density 21.55753
#
# number of rings (size 3 to 8) (size 9 to 14) (size 15 to 20)
#    0.000    1.750    2.500    0.750    1.750    8.000 
#    2.250    1.250    0.000    0.000    0.000    0.000 
#    0.000    0.000    0.000    0.000    0.000    0.000 
#
# Total GULP energy -396420.143180 kJ/mol
# GULP energy per Si atom -12388.129474 kJ/mol
# Density = 2.150846 g / cm^3
# Si number density = 21.557530 Si / 1000 Ang^3
#
#
#
# Elastic Constant Matrix: (Units=GPa)
#
#
# Indices 1 2 3 4 5 6 
#
# 1 128.2516 47.9695 38.1518 0.0000 -17.9120 0.0000
# 2 47.9695 82.7617 28.9868 0.0000 -2.5523 0.0000
# 3 38.1518 28.9868 105.5403 0.0000 -7.0292 0.0000
# 4 0.0000 0.0000 0.0000 34.8574 0.0000 4.8046
# 5 -17.9120 -2.5523 -7.0292 0.0000 34.6997 0.0000
# 6 0.0000 0.0000 0.0000 4.8046 0.0000 36.6567
#
#
#
# Elastic Compliance Matrix: (Units=1/GPa)
#
#
# Indices 1 2 3 4 5 6 
#
# 1 0.011231 -0.005588 -0.002196 0.000000 0.004941 0.000000
# 2 -0.005588 0.016151 -0.002564 0.000000 -0.002216 0.000000
# 3 -0.002196 -0.002564 0.011034 0.000000 0.000913 0.000000
# 4 0.000000 0.000000 0.000000 0.029216 0.000000 -0.003829
# 5 0.004941 -0.002216 0.000913 0.000000 0.031391 0.000000
# 6 0.000000 0.000000 0.000000 -0.003829 0.000000 0.027782
#
#
# Mechanical properties :
#
#
# Convention : Reuss Voigt Hill
#
# Bulk Modulus (GPa) = 56.43076 60.75221 58.59148
# Shear Modulus (GPa) = 32.59311 34.67246 33.63278
#
# Velocity S-wave (km/s) = 3.89255 4.01480 3.95415
# Velocity P-wave (km/s) = 6.81441 7.05224 6.93435
#
# Compressibility (1/GPa) = 0.01772083
#
# Stress axis : x y z
#
# Youngs Moduli (GPa) = 89.04303 61.91492 90.63096
#
# Poissons Ratio (x) = 0.34597 0.19902
# Poissons Ratio (y) = 0.49756 0.23234
# Poissons Ratio (z) = 0.19553 0.15872
#
# Static dielectric constant tensor:
#      x y z
#    x 4.202280 0.000000 -0.047300 
#    y 0.000000 3.788770 0.000000 
#    z -0.047300 0.000000 3.980750 
# 
# 
# High freq. dielectric constant tensor:
#      x y z
#    x 1.844200 0.000000 0.001620 
#    y 0.000000 1.838950 0.000000 
#    z 0.001620 0.000000 1.851910 
# 
# From -- ./inp_files/77591.got.cif
#   From: 2010.03.12/outbox.cif.g09.slc.cpg/sg14_39_cif.got.tgz:77591.got - 2010.03.31 13:35:05.
