data_PCOD8125037
_publ_section_title
;
Structure prediction by ZEFSAII (Michael W. Deem and Ramdas Pophale) SiO2 
 PCOD8125037
Probable space group: P 21/C
;
_chemical_formula_sum "Si O2"
_cell_formula_units_Z 24
_cell_length_a 7.851246
_cell_length_b 15.563398
_cell_length_c 12.373506
_cell_angle_alpha 90.000000
_cell_angle_beta 138.756032
_cell_angle_gamma 90.000000
_cell_volume 996.774445
_symmetry_space_group_name_H-M "P 21/C"
_symmetry_group_IT_number 14
_symmetry_cell_setting 'monoclinic'
loop_
_space_group_symop_operation_xyz
x,y,z
-x,1/2+y,1/2-z
-x,-y,-z
x,1/2-y,1/2+z
loop_
_atom_site_type_symbol
_atom_site_label
_atom_site_fract_x
_atom_site_fract_y
_atom_site_fract_z
Si Si1 0.056562 0.605515 0.169828
Si Si2 0.642299 0.723308 0.222443
Si Si3 0.867537 0.937362 0.187256
Si Si4 0.575559 0.563780 0.328177
Si Si5 0.849933 0.225871 0.655256
Si Si6 0.607466 0.606273 0.792276
O O1 0.037142 0.536383 0.259085
O O2 0.267528 0.580016 0.180444
O O3 0.130815 0.700183 0.246146
O O4 0.785245 0.601924 0.981469
O O5 0.698953 0.633048 0.307532
O O6 0.513366 0.794628 0.241351
O O7 0.928731 0.753906 0.327080
O O8 0.442302 0.717725 0.028002
O O9 0.736426 0.914020 0.238050
O O10 0.095241 0.869119 0.269750
O O11 0.663830 0.928324 0.993654
O O12 0.619386 0.466168 0.302956
#
# Coordination Sequence:
#
# PCOD8125037 Si02
#       6
#     4   4   4   4   4   4
#     4  11  20  37  62  88 117 159 204 246 292 354
#     4  11  23  41  61  89 123 157 197 248 300 355
#     4  10  20  36  59  87 118 158 200 242 295 361
#     4  11  20  37  62  88 117 159 204 246 292 354
#     4  11  23  41  61  89 123 157 197 248 300 355
#     4  10  20  36  59  87 118 158 200 242 295 361
#
# _framework density 24.077663999999999
#
# number of rings (size 3 to 8) (size 9 to 14) (size 15 to 20)
#    0.000    1.333    0.000   11.000    0.000    0.000 
#    0.000    8.333    0.000    0.000    0.000    0.000 
#    0.000    0.000    0.000    0.000    0.000    0.000 
#
# Total GULP energy -297391.241290 kJ/mol
# GULP energy per Si atom -12391.301720 kJ/mol
# Density = 2.402286 g / cm^3
# Si number density = 24.077664 Si / 1000 Ang^3
#
#
#
# Elastic Constant Matrix: (Units=GPa)
#
#
# Indices 1 2 3 4 5 6 
#
# 1 17.2941 5.4593 1.3127 0.0000 -3.1621 0.0000
# 2 5.4593 79.4550 6.0863 0.0000 -15.7159 0.0000
# 3 1.3127 6.0863 123.2713 0.0000 -15.3574 0.0000
# 4 0.0000 0.0000 0.0000 47.1985 0.0000 -5.4672
# 5 -3.1621 -15.7159 -15.3574 0.0000 21.5500 0.0000
# 6 0.0000 0.0000 0.0000 -5.4672 0.0000 28.9436
#
#
#
# Elastic Compliance Matrix: (Units=1/GPa)
#
#
# Indices 1 2 3 4 5 6 
#
# 1 0.059954 -0.002752 0.000377 0.000000 0.007059 0.000000
# 2 -0.002752 0.014884 0.000655 0.000000 0.010917 0.000000
# 3 0.000377 0.000655 0.008936 0.000000 0.006900 0.000000
# 4 0.000000 0.000000 0.000000 0.021661 0.000000 0.004092
# 5 0.007059 0.010917 0.006900 0.000000 0.060319 0.000000
# 6 0.000000 0.000000 0.000000 0.004092 0.000000 0.035323
#
#
# Mechanical properties :
#
#
# Convention : Reuss Voigt Hill
#
# Bulk Modulus (GPa) = 12.44827 27.30411 19.87619
# Shear Modulus (GPa) = 21.61738 33.34922 27.48330
#
# Velocity S-wave (km/s) = 2.99961 3.72569 3.38219
# Velocity P-wave (km/s) = 4.14466 5.46556 4.85028
#
# Compressibility (1/GPa) = 0.08033244
#
# Stress axis : x y z
#
# Youngs Moduli (GPa) = 16.67940 67.18577 111.91280
#
# Poissons Ratio (x) = 0.18490 -0.04218
# Poissons Ratio (y) = 0.04590 -0.07325
# Poissons Ratio (z) = -0.00629 -0.04397
#
# Static dielectric constant tensor:
#      x y z
#    x 3.702460 0.000000 0.022380 
#    y 0.000000 5.905690 0.000000 
#    z 0.022380 0.000000 4.175750 
# 
# 
# High freq. dielectric constant tensor:
#      x y z
#    x 1.901280 0.000000 -0.004770 
#    y 0.000000 1.994880 0.000000 
#    z -0.004770 0.000000 1.960030 
# 
# From -- ./inp_files/45147.got.cif
#   From: 2010.03.12/outbox.cif.g09.slc.cpg/sg14_23_cif.got.tgz:45147.got - 2010.03.31 13:35:05.
