data_PCOD8125901
_publ_section_title
;
Structure prediction by ZEFSAII (Michael W. Deem and Ramdas Pophale) SiO2 
 PCOD8125901
Probable space group: P 21/C
;
_chemical_formula_sum "Si O2"
_cell_formula_units_Z 32
_cell_length_a 12.928266
_cell_length_b 17.256974
_cell_length_c 9.838606
_cell_angle_alpha 90.000000
_cell_angle_beta 125.741013
_cell_angle_gamma 90.000000
_cell_volume 1781.622300
_symmetry_space_group_name_H-M "P 21/C"
_symmetry_group_IT_number 14
_symmetry_cell_setting 'monoclinic'
loop_
_space_group_symop_operation_xyz
x,y,z
-x,1/2+y,1/2-z
-x,-y,-z
x,1/2-y,1/2+z
loop_
_atom_site_type_symbol
_atom_site_label
_atom_site_fract_x
_atom_site_fract_y
_atom_site_fract_z
Si Si1 0.165287 0.056394 0.526335
Si Si2 0.402349 0.976115 0.313097
Si Si3 0.707349 0.315365 0.181186
Si Si4 0.157531 0.446449 0.715460
Si Si5 0.969437 0.386971 0.371664
Si Si6 0.698101 0.172741 0.355513
Si Si7 0.967720 0.391973 0.071562
Si Si8 0.572010 0.489655 0.694928
O O1 0.184998 0.087300 0.387429
O O2 0.082458 0.117719 0.550995
O O3 0.083805 0.978786 0.459858
O O4 0.302715 0.043732 0.701187
O O5 0.362398 0.888735 0.309836
O O6 0.500000 0.000000 0.500000
O O7 0.285974 0.036424 0.231681
O O8 0.465957 0.981311 0.216778
O O9 0.858357 0.326264 0.322471
O O10 0.654411 0.241766 0.223011
O O11 0.677327 0.306406 0.997971
O O12 0.081840 0.525908 0.672140
O O13 0.079278 0.381925 0.570105
O O14 0.022639 0.367792 0.261793
O O15 0.847440 0.160443 0.438190
O O16 0.612464 0.098606 0.254157
O O17 0.500000 0.500000 0.500000
#
# Coordination Sequence:
#
# PCOD8125901 Si02
#       8
#     4   4   4   4   4   4   4   4
#     4   9  16  30  48  76 104 133 167 222 271 310
#     4  11  19  37  56  79 113 153 186 236 281 330
#     4  10  21  36  58  80 112 146 185 231 291 341
#     4   9  16  28  51  76 102 131 174 215 267 321
#     4   8  16  30  47  76 101 130 170 216 265 326
#     4  10  21  38  55  82 111 146 185 234 287 343
#     4   8  16  30  49  71 106 131 163 218 274 314
#     4  11  23  35  54  85 115 146 198 238 274 334
#
# _framework density 17.961158000000001
#
# number of rings (size 3 to 8) (size 9 to 14) (size 15 to 20)
#    0.000    2.500    2.500    1.500    3.500    1.000 
#    4.500    0.000    0.000    3.000    0.000    0.000 
#    0.000    0.000    0.000    0.000    0.000    0.000 
#
# Total GULP energy -396612.594923 kJ/mol
# GULP energy per Si atom -12394.143591 kJ/mol
# Density = 1.792028 g / cm^3
# Si number density = 17.961158 Si / 1000 Ang^3
#
#
#
# Elastic Constant Matrix: (Units=GPa)
#
#
# Indices 1 2 3 4 5 6 
#
# 1 133.0554 37.1583 57.1366 0.0000 -17.7544 0.0000
# 2 37.1583 57.6737 37.8480 0.0000 -9.4123 0.0000
# 3 57.1366 37.8480 143.3439 0.0000 -8.8912 0.0000
# 4 0.0000 0.0000 0.0000 22.2849 0.0000 -4.2054
# 5 -17.7544 -9.4123 -8.8912 0.0000 28.5145 0.0000
# 6 0.0000 0.0000 0.0000 -4.2054 0.0000 19.2095
#
#
#
# Elastic Compliance Matrix: (Units=1/GPa)
#
#
# Indices 1 2 3 4 5 6 
#
# 1 0.010458 -0.004212 -0.002793 0.000000 0.004251 0.000000
# 2 -0.004212 0.023485 -0.004287 0.000000 0.003793 0.000000
# 3 -0.002793 -0.004287 0.009204 0.000000 -0.000284 0.000000
# 4 0.000000 0.000000 0.000000 0.046807 0.000000 0.010247
# 5 0.004251 0.003793 -0.000284 0.000000 0.038880 0.000000
# 6 0.000000 0.000000 0.000000 0.010247 0.000000 0.054301
#
#
# Mechanical properties :
#
#
# Convention : Reuss Voigt Hill
#
# Bulk Modulus (GPa) = 48.62870 66.48430 57.55650
# Shear Modulus (GPa) = 23.52139 27.46378 25.49259
#
# Velocity S-wave (km/s) = 3.62272 3.91457 3.77147
# Velocity P-wave (km/s) = 6.68072 7.58471 7.14702
#
# Compressibility (1/GPa) = 0.02056399
#
# Stress axis : x y z
#
# Youngs Moduli (GPa) = 95.61679 42.58113 108.65113
#
# Poissons Ratio (x) = 0.17933 0.30347
# Poissons Ratio (y) = 0.40270 0.46577
# Poissons Ratio (z) = 0.26706 0.18254
#
# Static dielectric constant tensor:
#      x y z
#    x 3.411000 0.000000 -0.112460 
#    y 0.000000 2.951000 0.000000 
#    z -0.112460 0.000000 3.514780 
# 
# 
# High freq. dielectric constant tensor:
#      x y z
#    x 1.697940 0.000000 -0.010570 
#    y 0.000000 1.652800 0.000000 
#    z -0.010570 0.000000 1.701920 
# 
# From -- ./inp_files/13898.got.cif
#   From: 2010.03.12/outbox.cif.g09.slc.cpg/sg14_7_cif.got.tgz:13898.got - 2010.03.31 13:35:05.
