data_PCOD8125957
_publ_section_title
;
Structure prediction by ZEFSAII (Michael W. Deem and Ramdas Pophale) SiO2 
 PCOD8125957
Probable space group: P 21/C
;
_chemical_formula_sum "Si O2"
_cell_formula_units_Z 32
_cell_length_a 38.105814
_cell_length_b 7.026446
_cell_length_c 5.249067
_cell_angle_alpha 90.000000
_cell_angle_beta 90.234337
_cell_angle_gamma 90.000000
_cell_volume 1405.417769
_symmetry_space_group_name_H-M "P 21/C"
_symmetry_group_IT_number 14
_symmetry_cell_setting 'monoclinic'
loop_
_space_group_symop_operation_xyz
x,y,z
-x,1/2+y,1/2-z
-x,-y,-z
x,1/2-y,1/2+z
loop_
_atom_site_type_symbol
_atom_site_label
_atom_site_fract_x
_atom_site_fract_y
_atom_site_fract_z
Si Si1 0.219137 0.871565 0.012476
Si Si2 0.680064 0.961624 0.569303
Si Si3 0.070865 0.454531 0.531119
Si Si4 0.290144 0.461119 0.429845
Si Si5 0.141391 0.872869 0.958831
Si Si6 0.467833 0.865660 0.446556
Si Si7 0.391240 0.627512 0.015970
Si Si8 0.958963 0.527662 0.969068
O O1 0.224007 0.710649 0.796588
O O2 0.248170 0.035883 0.971016
O O3 0.180336 0.963192 0.984070
O O4 0.699705 0.066874 0.334555
O O5 0.694941 0.750173 0.612390
O O6 0.638110 0.964848 0.526031
O O7 0.690240 0.066954 0.834525
O O8 0.113017 0.457879 0.496412
O O9 0.054507 0.245197 0.560967
O O10 0.052803 0.569109 0.296554
O O11 0.060498 0.566900 0.789730
O O12 0.136212 0.714412 0.177602
O O13 0.470310 0.695974 0.652120
O O14 0.429933 0.967206 0.487979
O O15 0.500000 0.000000 0.500000
O O16 0.386766 0.789338 0.799944
O O17 0.000000 0.500000 0.000000
#
# Coordination Sequence:
#
# PCOD8125957 Si02
#       8
#     4   4   4   4   4   4   4   4
#     4  10  21  37  61  86 115 157 199 239 293 347
#     4  10  21  37  53  82 121 153 194 240 299 348
#     4  10  21  40  60  84 112 155 191 233 286 331
#     4  10  21  37  55  83 122 150 197 248 293 353
#     4  10  21  40  60  88 119 151 196 241 286 347
#     4  10  21  40  61  91 122 158 211 262 318 377
#     4  10  21  37  59  83 117 158 199 246 299 368
#     4  10  21  40  59  82 118 146 193 235 280 345
#
# _framework density 22.769030000000001
#
# number of rings (size 3 to 8) (size 9 to 14) (size 15 to 20)
#    0.000    2.000    0.000    3.000    0.000    3.000 
#   18.000    5.000    0.000    0.000    0.000    0.000 
#    0.000    0.000    0.000    0.000    0.000    0.000 
#
# Total GULP energy -396465.803121 kJ/mol
# GULP energy per Si atom -12389.556348 kJ/mol
# Density = 2.271721 g / cm^3
# Si number density = 22.769030 Si / 1000 Ang^3
#
#
#
# Elastic Constant Matrix: (Units=GPa)
#
#
# Indices 1 2 3 4 5 6 
#
# 1 176.5691 29.9204 5.1972 0.0000 -4.6449 0.0000
# 2 29.9204 38.9764 -19.0194 0.0000 -2.3781 0.0000
# 3 5.1972 -19.0194 177.9378 0.0000 -1.9071 0.0000
# 4 0.0000 0.0000 0.0000 -1.2596 0.0000 -2.0837
# 5 -4.6449 -2.3781 -1.9071 0.0000 36.3358 0.0000
# 6 0.0000 0.0000 0.0000 -2.0837 0.0000 44.8850
#
#
#
# Elastic Compliance Matrix: (Units=1/GPa)
#
#
# Indices 1 2 3 4 5 6 
#
# 1 0.006618 -0.005428 -0.000769 0.000000 0.000450 0.000000
# 2 -0.005428 0.031655 0.003559 0.000000 0.001565 0.000000
# 3 -0.000769 0.003559 0.006028 0.000000 0.000451 0.000000
# 4 0.000000 0.000000 0.000000 -0.737270 0.000000 -0.034226
# 5 0.000450 0.001565 0.000451 0.000000 0.027705 0.000000
# 6 0.000000 0.000000 0.000000 -0.034226 0.000000 0.020690
#
#
# Mechanical properties :
#
#
# Convention : Reuss Voigt Hill
#
# Bulk Modulus (GPa) = 25.62420 47.29778 36.46099
# Shear Modulus (GPa) = -7.98351 41.15124 16.58387
#
# Velocity S-wave (km/s) = -1.87454 4.25589 2.70173
# Velocity P-wave (km/s) = 2.56772 6.70582 5.07746
#
# Compressibility (1/GPa) = 0.03902561
#
# Stress axis : x y z
#
# Youngs Moduli (GPa) = 151.10925 31.59037 165.90290
#
# Poissons Ratio (x) = 0.17146 0.12752
# Poissons Ratio (y) = 0.82018 -0.59042
# Poissons Ratio (z) = 0.11615 -0.11243
#
# Static dielectric constant tensor:
#      x y z
#    x 4.423140 0.000000 -0.020980 
#    y 0.000000 3.432350 0.000000 
#    z -0.020980 0.000000 6.029840 
# 
# 
# High freq. dielectric constant tensor:
#      x y z
#    x 1.914740 0.000000 -0.000010 
#    y 0.000000 1.837950 0.000000 
#    z -0.000010 0.000000 1.946470 
# 
# From -- ./inp_files/4568.got.cif
#   From: 2010.03.12/outbox.cif.g09.slc.cpg/sg14_3_cif.got.tgz:4568.got - 2010.03.31 13:35:05.
