data_PCOD8125187
_publ_section_title
;
Structure prediction by ZEFSAII (Michael W. Deem and Ramdas Pophale) SiO2 
 PCOD8125187
Probable space group: P 21/C
;
_chemical_formula_sum "Si O2"
_cell_formula_units_Z 32
_cell_length_a 14.938969
_cell_length_b 11.786005
_cell_length_c 17.987232
_cell_angle_alpha 90.000000
_cell_angle_beta 32.013586
_cell_angle_gamma 90.000000
_cell_volume 1678.904721
_symmetry_space_group_name_H-M "P 21/C"
_symmetry_group_IT_number 14
_symmetry_cell_setting 'monoclinic'
loop_
_space_group_symop_operation_xyz
x,y,z
-x,1/2+y,1/2-z
-x,-y,-z
x,1/2-y,1/2+z
loop_
_atom_site_type_symbol
_atom_site_label
_atom_site_fract_x
_atom_site_fract_y
_atom_site_fract_z
Si Si1 0.675632 0.758458 0.660586
Si Si2 0.659565 0.880805 0.825588
Si Si3 0.722949 0.978639 0.177962
Si Si4 0.164540 0.224768 0.684539
Si Si5 0.500572 0.814706 0.634264
Si Si6 0.989175 0.280509 0.661315
Si Si7 0.023945 0.030726 0.873310
Si Si8 0.329999 0.860454 0.153138
O O1 0.658533 0.844338 0.740778
O O2 0.620180 0.631062 0.722499
O O3 0.547620 0.795909 0.686672
O O4 0.868997 0.759489 0.496862
O O5 0.799509 0.811656 0.773730
O O6 0.709459 0.012511 0.792851
O O7 0.474162 0.859458 0.989102
O O8 0.855691 0.930902 0.144395
O O9 0.597460 0.067286 0.303539
O O10 0.827693 0.034788 0.036200
O O11 0.337619 0.172225 0.531983
O O12 0.046269 0.120796 0.792120
O O13 0.066812 0.290836 0.688803
O O14 0.385251 0.711155 0.686690
O O15 0.921136 0.405096 0.690052
O O16 0.836901 0.191800 0.765950
#
# Coordination Sequence:
#
# PCOD8125187 Si02
#       8
#     4   4   4   4   4   4   4   4
#     4  10  22  39  58  84 116 149 188 235 282 332
#     4  10  22  39  59  83 114 152 190 231 281 336
#     4  10  20  37  61  84 110 147 190 235 282 333
#     4  10  22  38  57  84 116 148 187 235 281 331
#     4  10  22  38  57  84 116 148 187 235 281 331
#     4  10  22  39  58  84 116 149 188 235 282 332
#     4  10  20  37  61  84 110 147 190 235 282 333
#     4  10  22  39  59  83 114 152 190 231 281 336
#
# _framework density 19.060044999999999
#
# number of rings (size 3 to 8) (size 9 to 14) (size 15 to 20)
#    0.000    2.000    2.500    0.000    3.500    3.000 
#    0.000    0.000    0.000    0.000    0.000    0.000 
#    0.000    0.000    0.000    0.000    0.000    0.000 
#
# Total GULP energy -396919.899159 kJ/mol
# GULP energy per Si atom -12403.746849 kJ/mol
# Density = 1.901666 g / cm^3
# Si number density = 19.060045 Si / 1000 Ang^3
#
#
#
# Elastic Constant Matrix: (Units=GPa)
#
#
# Indices 1 2 3 4 5 6 
#
# 1 82.0130 17.6368 22.2255 0.0000 10.5700 0.0000
# 2 17.6368 80.3357 29.6984 0.0000 5.0737 0.0000
# 3 22.2255 29.6984 44.1291 0.0000 2.7664 0.0000
# 4 0.0000 0.0000 0.0000 33.0756 0.0000 5.4622
# 5 10.5700 5.0737 2.7664 0.0000 29.6369 0.0000
# 6 0.0000 0.0000 0.0000 5.4622 0.0000 21.9529
#
#
#
# Elastic Compliance Matrix: (Units=1/GPa)
#
#
# Indices 1 2 3 4 5 6 
#
# 1 0.014725 -0.000412 -0.006854 0.000000 -0.004541 0.000000
# 2 -0.000412 0.016679 -0.010911 0.000000 -0.001690 0.000000
# 3 -0.006854 -0.010911 0.033381 0.000000 0.001196 0.000000
# 4 0.000000 0.000000 0.000000 0.031529 0.000000 -0.007845
# 5 -0.004541 -0.001690 0.001196 0.000000 0.035539 0.000000
# 6 0.000000 0.000000 0.000000 -0.007845 0.000000 0.047504
#
#
# Mechanical properties :
#
#
# Convention : Reuss Voigt Hill
#
# Bulk Modulus (GPa) = 35.17440 38.39989 36.78715
# Shear Modulus (GPa) = 22.20379 26.06087 24.13233
#
# Velocity S-wave (km/s) = 3.41682 3.70172 3.56212
# Velocity P-wave (km/s) = 5.83617 6.20168 6.02170
#
# Compressibility (1/GPa) = 0.02842976
#
# Stress axis : x y z
#
# Youngs Moduli (GPa) = 67.91401 59.95740 29.95738
#
# Poissons Ratio (x) = 0.02470 0.20533
# Poissons Ratio (y) = 0.02798 0.32686
# Poissons Ratio (z) = 0.46548 0.65420
#
# Static dielectric constant tensor:
#      x y z
#    x 3.465910 0.000000 0.062870 
#    y 0.000000 3.439600 0.000000 
#    z 0.062870 0.000000 3.448700 
# 
# 
# High freq. dielectric constant tensor:
#      x y z
#    x 1.745060 0.000000 0.005120 
#    y 0.000000 1.744460 0.000000 
#    z 0.005120 0.000000 1.733370 
# 
# From -- ./inp_files/51586.got.cif
#   From: 2010.03.12/outbox.cif.g09.slc.cpg/sg14_26_cif.got.tgz:51586.got - 2010.03.31 13:35:05.
