data_PCOD8125007
_publ_section_title
;
Structure prediction by ZEFSAII (Michael W. Deem and Ramdas Pophale) SiO2 
 PCOD8125007
Probable space group: P 21/C
;
_chemical_formula_sum "Si O2"
_cell_formula_units_Z 32
_cell_length_a 21.247084
_cell_length_b 8.481048
_cell_length_c 12.607372
_cell_angle_alpha 90.000000
_cell_angle_beta 135.427408
_cell_angle_gamma 90.000000
_cell_volume 1594.389557
_symmetry_space_group_name_H-M "P 21/C"
_symmetry_group_IT_number 14
_symmetry_cell_setting 'monoclinic'
loop_
_space_group_symop_operation_xyz
x,y,z
-x,1/2+y,1/2-z
-x,-y,-z
x,1/2-y,1/2+z
loop_
_atom_site_type_symbol
_atom_site_label
_atom_site_fract_x
_atom_site_fract_y
_atom_site_fract_z
Si Si1 0.089734 0.999342 0.465208
Si Si2 0.401045 0.455946 0.852764
Si Si3 0.991936 0.748536 0.487440
Si Si4 0.703501 0.123862 0.591110
Si Si5 0.716788 0.418231 0.738227
Si Si6 0.400067 0.749898 0.725156
Si Si7 0.887657 0.002808 0.750282
Si Si8 0.435168 0.131960 0.968206
O O1 0.195257 0.004265 0.614481
O O2 0.072228 0.992264 0.319170
O O3 0.041352 0.851606 0.459041
O O4 0.046562 0.157115 0.459308
O O5 0.336126 0.502202 0.871871
O O6 0.376978 0.563006 0.719644
O O7 0.401613 0.264892 0.840983
O O8 0.500000 0.500000 0.000000
O O9 0.908485 0.665812 0.327968
O O10 0.065159 0.630130 0.619423
O O11 0.747004 0.275728 0.699473
O O12 0.624941 0.193971 0.422253
O O13 0.781049 0.034561 0.619237
O O14 0.657923 0.354370 0.764384
O O15 0.655144 0.545063 0.599883
O O16 0.507317 0.781584 0.869941
O O17 0.500000 0.000000 0.000000
#
# Coordination Sequence:
#
# PCOD8125007 Si02
#       8
#     4   4   4   4   4   4   4   4
#     4  11  21  41  64  89 128 161 203 259 318 372
#     4   9  20  38  59  84 120 160 208 250 301 366
#     4  10  24  40  64  91 122 163 203 260 314 382
#     4  11  21  36  62  91 121 164 204 255 307 373
#     4  10  20  36  58  86 123 155 197 257 308 361
#     4   9  19  38  58  84 118 160 202 251 308 363
#     4  11  22  41  64  93 122 161 211 251 317 380
#     4   9  19  36  59  83 119 163 200 254 307 352
#
# _framework density 20.070377000000001
#
# number of rings (size 3 to 8) (size 9 to 14) (size 15 to 20)
#    0.000    2.000    2.500    1.500    1.750    2.000 
#    0.000    3.750    0.000    0.000    0.000    0.000 
#    0.000    0.000    0.000    0.000    0.000    0.000 
#
# Total GULP energy -396548.899574 kJ/mol
# GULP energy per Si atom -12392.153112 kJ/mol
# Density = 2.002470 g / cm^3
# Si number density = 20.070377 Si / 1000 Ang^3
#
#
#
# Elastic Constant Matrix: (Units=GPa)
#
#
# Indices 1 2 3 4 5 6 
#
# 1 64.3612 33.4901 8.0488 0.0000 2.6973 0.0000
# 2 33.4901 116.9537 26.4676 0.0000 2.9249 0.0000
# 3 8.0488 26.4676 66.0843 0.0000 2.7039 0.0000
# 4 0.0000 0.0000 0.0000 -29.3376 0.0000 -10.0926
# 5 2.6973 2.9249 2.7039 0.0000 34.5635 0.0000
# 6 0.0000 0.0000 0.0000 -10.0926 0.0000 9.5205
#
#
#
# Elastic Compliance Matrix: (Units=1/GPa)
#
#
# Indices 1 2 3 4 5 6 
#
# 1 0.018292 -0.005189 -0.000110 0.000000 -0.000980 0.000000
# 2 -0.005189 0.010883 -0.003718 0.000000 -0.000225 0.000000
# 3 -0.000110 -0.003718 0.016675 0.000000 -0.000981 0.000000
# 4 0.000000 0.000000 0.000000 -0.024977 0.000000 -0.026478
# 5 -0.000980 -0.000225 -0.000981 0.000000 0.029105 0.000000
# 6 0.000000 0.000000 0.000000 -0.026478 0.000000 0.076967
#
#
# Mechanical properties :
#
#
# Convention : Reuss Voigt Hill
#
# Bulk Modulus (GPa) = 35.94820 42.60136 39.27478
# Shear Modulus (GPa) = 32.41514 14.90880 23.66197
#
# Velocity S-wave (km/s) = 4.02316 2.72844 3.43731
# Velocity P-wave (km/s) = 6.28737 5.58551 5.94680
#
# Compressibility (1/GPa) = 0.02781780
#
# Stress axis : x y z
#
# Youngs Moduli (GPa) = 54.66883 91.88523 59.97119
#
# Poissons Ratio (x) = 0.47676 0.00658
# Poissons Ratio (y) = 0.28366 0.22295
# Poissons Ratio (z) = 0.00600 0.34160
#
# Static dielectric constant tensor:
#      x y z
#    x 3.478070 0.000000 0.131250 
#    y 0.000000 4.065680 0.000000 
#    z 0.131250 0.000000 3.618040 
# 
# 
# High freq. dielectric constant tensor:
#      x y z
#    x 1.774270 0.000000 0.012580 
#    y 0.000000 1.793020 0.000000 
#    z 0.012580 0.000000 1.769930 
# 
# From -- ./inp_files/34976.got.cif
#   From: 2010.03.12/outbox.cif.g09.slc.cpg/sg14_18_cif.got.tgz:34976.got - 2010.03.31 13:35:05.
