data_PCOD8125879
_publ_section_title
;
Structure prediction by ZEFSAII (Michael W. Deem and Ramdas Pophale) SiO2 
 PCOD8125879
Probable space group: P 21/C
;
_chemical_formula_sum "Si O2"
_cell_formula_units_Z 28
_cell_length_a 20.753926
_cell_length_b 12.236469
_cell_length_c 4.993526
_cell_angle_alpha 90.000000
_cell_angle_beta 76.123949
_cell_angle_gamma 90.000000
_cell_volume 1231.121685
_symmetry_space_group_name_H-M "P 21/C"
_symmetry_group_IT_number 14
_symmetry_cell_setting 'monoclinic'
loop_
_space_group_symop_operation_xyz
x,y,z
-x,1/2+y,1/2-z
-x,-y,-z
x,1/2-y,1/2+z
loop_
_atom_site_type_symbol
_atom_site_label
_atom_site_fract_x
_atom_site_fract_y
_atom_site_fract_z
Si Si1 0.189703 0.462546 0.849965
Si Si2 0.595145 0.178385 0.984870
Si Si3 0.318264 0.177296 0.226388
Si Si4 0.895655 0.543117 0.562590
Si Si5 0.972620 0.176255 0.042075
Si Si6 0.260051 0.677356 0.687856
Si Si7 0.459351 0.323133 0.477219
O O1 0.257730 0.401290 0.720885
O O2 0.132333 0.427370 0.701154
O O3 0.203011 0.590761 0.803093
O O4 0.163639 0.435724 0.170566
O O5 0.592205 0.213778 0.297353
O O6 0.527797 0.391284 0.478875
O O7 0.666368 0.121363 0.854860
O O8 0.314367 0.217755 0.535344
O O9 0.389343 0.114593 0.105332
O O10 0.918297 0.417489 0.553258
O O11 0.954867 0.625221 0.569862
O O12 0.962660 0.275383 0.846906
O O13 0.251022 0.721360 0.397203
O O14 0.460342 0.215471 0.668897
#
# Coordination Sequence:
#
# PCOD8125879 Si02
#       7
#     4   4   4   4   4   4   4
#     4  12  24  39  59  88 124 154 188 232 280 340
#     4   8  14  27  48  72 101 141 189 240 287 328
#     4  10  21  36  55  81 114 154 196 237 287 342
#     4  11  26  42  62  94 121 148 190 232 275 336
#     4  11  24  45  70  92 118 151 188 231 278 330
#     4  10  21  36  55  81 114 154 196 237 287 342
#     4   8  14  27  48  72 101 141 189 240 287 328
#
# _framework density 22.743485
#
# number of rings (size 3 to 8) (size 9 to 14) (size 15 to 20)
#    0.000    2.000    0.000    3.429    0.000    9.143 
#    0.000    0.714    0.000    0.000    0.000   22.000 
#    0.000    0.000    0.000    0.000    0.000    0.000 
#
# Total GULP energy -347044.079767 kJ/mol
# GULP energy per Si atom -12394.431420 kJ/mol
# Density = 2.269172 g / cm^3
# Si number density = 22.743485 Si / 1000 Ang^3
#
#
#
# Elastic Constant Matrix: (Units=GPa)
#
#
# Indices 1 2 3 4 5 6 
#
# 1 82.9434 -2.8567 18.9283 0.0000 0.0372 0.0000
# 2 -2.8567 17.1648 6.4969 0.0000 4.6297 0.0000
# 3 18.9283 6.4969 90.7583 0.0000 1.7504 0.0000
# 4 0.0000 0.0000 0.0000 25.3025 0.0000 -12.7985
# 5 0.0372 4.6297 1.7504 0.0000 24.4173 0.0000
# 6 0.0000 0.0000 0.0000 -12.7985 0.0000 56.5708
#
#
#
# Elastic Compliance Matrix: (Units=1/GPa)
#
#
# Indices 1 2 3 4 5 6 
#
# 1 0.012836 0.003358 -0.002909 0.000000 -0.000448 0.000000
# 2 0.003358 0.063900 -0.005048 0.000000 -0.011759 0.000000
# 3 -0.002909 -0.005048 0.011984 0.000000 0.000102 0.000000
# 4 0.000000 0.000000 0.000000 0.044629 0.000000 0.010097
# 5 -0.000448 -0.011759 0.000102 0.000000 0.043177 0.000000
# 6 0.000000 0.000000 0.000000 0.010097 0.000000 0.019961
#
#
# Mechanical properties :
#
#
# Convention : Reuss Voigt Hill
#
# Bulk Modulus (GPa) = 12.57493 26.22259 19.39876
# Shear Modulus (GPa) = 21.53380 32.47799 27.00589
#
# Velocity S-wave (km/s) = 3.08037 3.78301 3.44962
# Velocity P-wave (km/s) = 4.26528 5.53500 4.94110
#
# Compressibility (1/GPa) = 0.07952333
#
# Stress axis : x y z
#
# Youngs Moduli (GPa) = 77.90541 15.64943 83.44249
#
# Poissons Ratio (x) = -0.05255 0.24272
# Poissons Ratio (y) = -0.26161 0.42120
# Poissons Ratio (z) = 0.22661 0.07900
#
# Static dielectric constant tensor:
#      x y z
#    x 4.540800 0.000000 -0.117920 
#    y 0.000000 3.436180 0.000000 
#    z -0.117920 0.000000 4.063690 
# 
# 
# High freq. dielectric constant tensor:
#      x y z
#    x 1.928400 0.000000 -0.006210 
#    y 0.000000 1.837390 0.000000 
#    z -0.006210 0.000000 1.911930 
# 
# From -- ./inp_files/4358.got.cif
#   From: 2010.03.12/outbox.cif.g09.slc.cpg/sg14_3_cif.got.tgz:4358.got - 2010.03.31 13:35:05.
