data_PCOD8125782
_publ_section_title
;
Structure prediction by ZEFSAII (Michael W. Deem and Ramdas Pophale) SiO2 
 PCOD8125782
Probable space group: P 21/C
;
_chemical_formula_sum "Si O2"
_cell_formula_units_Z 20
_cell_length_a 6.821413
_cell_length_b 6.311263
_cell_length_c 21.523438
_cell_angle_alpha 90.000000
_cell_angle_beta 59.618970
_cell_angle_gamma 90.000000
_cell_volume 799.378719
_symmetry_space_group_name_H-M "P 21/C"
_symmetry_group_IT_number 14
_symmetry_cell_setting 'monoclinic'
loop_
_space_group_symop_operation_xyz
x,y,z
-x,1/2+y,1/2-z
-x,-y,-z
x,1/2-y,1/2+z
loop_
_atom_site_type_symbol
_atom_site_label
_atom_site_fract_x
_atom_site_fract_y
_atom_site_fract_z
Si Si1 0.554756 0.991360 0.656911
Si Si2 0.038239 0.569504 0.826855
Si Si3 0.442857 0.290106 0.061177
Si Si4 0.904684 0.534531 0.713419
Si Si5 0.339171 0.695990 0.599835
O O1 0.776585 0.944253 0.661620
O O2 0.616371 0.144802 0.588544
O O3 0.354217 0.103850 0.730302
O O4 0.464090 0.766833 0.643472
O O5 0.776101 0.549188 0.894151
O O6 0.048278 0.491285 0.753803
O O7 0.102656 0.817285 0.823805
O O8 0.370610 0.050960 0.083458
O O9 0.552873 0.323077 0.975934
O O10 0.057752 0.715585 0.651819
#
# Coordination Sequence:
#
# PCOD8125782 Si02
#       5
#     4   4   4   4   4
#     4  11  22  40  66  96 127 171 225 270 324 391
#     4  10  22  41  62  95 128 169 223 270 321 395
#     4   9  22  42  65  93 136 167 220 264 332 393
#     4  10  21  42  60  91 133 173 218 270 328 386
#     4  10  20  43  66  92 133 178 206 274 330 385
#
# _framework density 25.019428000000001
#
# number of rings (size 3 to 8) (size 9 to 14) (size 15 to 20)
#    0.000    2.000    2.000    0.600    0.000    5.600 
#    3.600   11.000    0.000    0.000    0.000    0.000 
#    0.000    0.000    0.000    0.000    0.000    0.000 
#
# Total GULP energy -247988.938996 kJ/mol
# GULP energy per Si atom -12399.446950 kJ/mol
# Density = 2.496248 g / cm^3
# Si number density = 25.019428 Si / 1000 Ang^3
#
#
#
# Elastic Constant Matrix: (Units=GPa)
#
#
# Indices 1 2 3 4 5 6 
#
# 1 169.7288 36.7419 62.0020 0.0000 3.3672 0.0000
# 2 36.7419 76.2113 47.4557 0.0000 -16.4681 0.0000
# 3 62.0020 47.4557 139.5569 0.0000 -20.9382 0.0000
# 4 0.0000 0.0000 0.0000 58.2539 0.0000 -7.7915
# 5 3.3672 -16.4681 -20.9382 0.0000 21.8747 0.0000
# 6 0.0000 0.0000 0.0000 -7.7915 0.0000 33.9802
#
#
#
# Elastic Compliance Matrix: (Units=1/GPa)
#
#
# Indices 1 2 3 4 5 6 
#
# 1 0.008007 -0.003176 -0.003527 0.000000 -0.007000 0.000000
# 2 -0.003176 0.019308 -0.003386 0.000000 0.011783 0.000000
# 3 -0.003527 -0.003386 0.011190 0.000000 0.008705 0.000000
# 4 0.000000 0.000000 0.000000 0.017709 0.000000 0.004061
# 5 -0.007000 0.011783 0.008705 0.000000 0.063995 0.000000
# 6 0.000000 0.000000 0.000000 0.004061 0.000000 0.030360
#
#
# Mechanical properties :
#
#
# Convention : Reuss Voigt Hill
#
# Bulk Modulus (GPa) = 54.57254 75.32180 64.94717
# Shear Modulus (GPa) = 28.27139 38.77491 33.52315
#
# Velocity S-wave (km/s) = 3.36516 3.94101 3.66441
# Velocity P-wave (km/s) = 6.07935 7.13298 6.62714
#
# Compressibility (1/GPa) = 0.01832423
#
# Stress axis : x y z
#
# Youngs Moduli (GPa) = 124.89443 51.79332 89.36369
#
# Poissons Ratio (x) = 0.16451 0.31522
# Poissons Ratio (y) = 0.39670 0.30263
# Poissons Ratio (z) = 0.44055 0.17540
#
# Static dielectric constant tensor:
#      x y z
#    x 4.032080 0.000000 -0.375230 
#    y 0.000000 4.883520 0.000000 
#    z -0.375230 0.000000 4.945980 
# 
# 
# High freq. dielectric constant tensor:
#      x y z
#    x 1.960870 0.000000 -0.019360 
#    y 0.000000 2.058030 0.000000 
#    z -0.019360 0.000000 2.006960 
# 
# From -- ./inp_files/63012.got.cif
#   From: 2010.03.12/outbox.cif.g09.slc.cpg/sg14_32_cif.got.tgz:63012.got - 2010.03.31 13:35:05.
