data_PCOD8125302
_publ_section_title
;
Structure prediction by ZEFSAII (Michael W. Deem and Ramdas Pophale) SiO2 
 PCOD8125302
Probable space group: P 21/C
;
_chemical_formula_sum "Si O2"
_cell_formula_units_Z 28
_cell_length_a 21.071058
_cell_length_b 9.025377
_cell_length_c 14.142951
_cell_angle_alpha 90.000000
_cell_angle_beta 30.319322
_cell_angle_gamma 90.000000
_cell_volume 1357.773153
_symmetry_space_group_name_H-M "P 21/C"
_symmetry_group_IT_number 14
_symmetry_cell_setting 'monoclinic'
loop_
_space_group_symop_operation_xyz
x,y,z
-x,1/2+y,1/2-z
-x,-y,-z
x,1/2-y,1/2+z
loop_
_atom_site_type_symbol
_atom_site_label
_atom_site_fract_x
_atom_site_fract_y
_atom_site_fract_z
Si Si1 0.790028 0.585613 0.429731
Si Si2 0.283795 0.178443 0.167698
Si Si3 0.250309 0.106548 0.428569
Si Si4 0.036520 0.891815 0.709291
Si Si5 0.240758 0.839489 0.887226
Si Si6 0.887623 0.943515 0.079413
Si Si7 0.552773 0.112619 0.856137
O O1 0.761599 0.564327 0.355191
O O2 0.728669 0.738619 0.546852
O O3 0.724813 0.456073 0.574540
O O4 0.941157 0.583600 0.245004
O O5 0.255699 0.116085 0.307540
O O6 0.209588 0.332633 0.243756
O O7 0.434964 0.193517 0.957258
O O8 0.113349 0.042473 0.631039
O O9 0.357239 0.988828 0.326717
O O10 0.126318 0.756169 0.573917
O O11 0.948331 0.856232 0.912797
O O12 0.362154 0.741481 0.706323
O O13 0.195625 0.918460 0.849399
O O14 0.000000 0.000000 0.000000
O O15 0.500000 0.000000 0.000000
#
# Coordination Sequence:
#
# PCOD8125302 Si02
#       7
#     4   4   4   4   4   4   4
#     4  11  21  36  62  91 120 159 206 250 318 357
#     4  11  22  38  61  89 120 162 207 252 303 366
#     4  10  20  41  60  83 123 166 193 262 302 363
#     4  10  20  38  60  84 129 156 196 255 316 360
#     4  10  21  40  62  88 122 165 203 254 307 366
#     4  11  22  37  61  96 124 157 204 253 316 372
#     4   9  22  42  62  85 122 164 210 246 310 356
#
# _framework density 20.622001999999998
#
# number of rings (size 3 to 8) (size 9 to 14) (size 15 to 20)
#    0.000    1.714    2.857    3.429    0.000    2.286 
#    7.714    0.000    0.000    0.000    0.000    0.000 
#    0.000    0.000    0.000    0.000    0.000    0.000 
#
# Total GULP energy -347052.646258 kJ/mol
# GULP energy per Si atom -12394.737366 kJ/mol
# Density = 2.057507 g / cm^3
# Si number density = 20.622002 Si / 1000 Ang^3
#
#
#
# Elastic Constant Matrix: (Units=GPa)
#
#
# Indices 1 2 3 4 5 6 
#
# 1 89.2796 22.6303 37.3904 0.0000 -13.7868 0.0000
# 2 22.6303 105.0154 44.8642 0.0000 -17.7533 0.0000
# 3 37.3904 44.8642 104.6197 0.0000 -32.6289 0.0000
# 4 0.0000 0.0000 0.0000 44.7372 0.0000 -6.8472
# 5 -13.7868 -17.7533 -32.6289 0.0000 36.5847 0.0000
# 6 0.0000 0.0000 0.0000 -6.8472 0.0000 24.3693
#
#
#
# Elastic Compliance Matrix: (Units=1/GPa)
#
#
# Indices 1 2 3 4 5 6 
#
# 1 0.013284 -0.000981 -0.004037 0.000000 0.000929 0.000000
# 2 -0.000981 0.011804 -0.004212 0.000000 0.001602 0.000000
# 3 -0.004037 -0.004212 0.016202 0.000000 0.010885 0.000000
# 4 0.000000 0.000000 0.000000 0.023357 0.000000 0.006563
# 5 0.000929 0.001602 0.010885 0.000000 0.038170 0.000000
# 6 0.000000 0.000000 0.000000 0.006563 0.000000 0.042879
#
#
# Mechanical properties :
#
#
# Convention : Reuss Voigt Hill
#
# Bulk Modulus (GPa) = 43.80040 56.52048 50.16044
# Shear Modulus (GPa) = 29.10950 34.07354 31.59152
#
# Velocity S-wave (km/s) = 3.76117 4.06925 3.91824
# Velocity P-wave (km/s) = 6.33621 7.03887 6.69677
#
# Compressibility (1/GPa) = 0.02283084
#
# Stress axis : x y z
#
# Youngs Moduli (GPa) = 75.28082 84.71765 61.71992
#
# Poissons Ratio (x) = 0.08309 0.24916
# Poissons Ratio (y) = 0.07383 0.25995
# Poissons Ratio (z) = 0.30391 0.35680
#
# Static dielectric constant tensor:
#      x y z
#    x 3.767660 0.000000 -0.384990 
#    y 0.000000 3.884860 0.000000 
#    z -0.384990 0.000000 4.053960 
# 
# 
# High freq. dielectric constant tensor:
#      x y z
#    x 1.789580 0.000000 -0.017720 
#    y 0.000000 1.811850 0.000000 
#    z -0.017720 0.000000 1.807600 
# 
# From -- ./inp_files/50045.got.cif
#   From: 2010.03.12/outbox.cif.g09.slc.cpg/sg14_26_cif.got.tgz:50045.got - 2010.03.31 13:35:05.
