data_PCOD8125108
_publ_section_title
;
Structure prediction by ZEFSAII (Michael W. Deem and Ramdas Pophale) SiO2 
 PCOD8125108
Probable space group: P 21/C
;
_chemical_formula_sum "Si O2"
_cell_formula_units_Z 32
_cell_length_a 18.383454
_cell_length_b 10.700313
_cell_length_c 14.765004
_cell_angle_alpha 90.000000
_cell_angle_beta 150.254030
_cell_angle_gamma 90.000000
_cell_volume 1441.036288
_symmetry_space_group_name_H-M "P 21/C"
_symmetry_group_IT_number 14
_symmetry_cell_setting 'monoclinic'
loop_
_space_group_symop_operation_xyz
x,y,z
-x,1/2+y,1/2-z
-x,-y,-z
x,1/2-y,1/2+z
loop_
_atom_site_type_symbol
_atom_site_label
_atom_site_fract_x
_atom_site_fract_y
_atom_site_fract_z
Si Si1 0.885732 0.136063 0.956361
Si Si2 0.231960 0.304344 0.072972
Si Si3 0.810241 0.865166 0.803656
Si Si4 0.711950 0.266023 0.110686
Si Si5 0.451959 0.011651 0.551312
Si Si6 0.500998 0.464070 0.396850
Si Si7 0.324843 0.439081 0.568149
Si Si8 0.096423 0.642109 0.320314
O O1 0.864103 0.178798 0.035058
O O2 0.051932 0.166531 0.108925
O O3 0.779045 0.222873 0.783040
O O4 0.843635 0.990693 0.897283
O O5 0.225375 0.246268 0.166310
O O6 0.340021 0.423072 0.190129
O O7 0.288559 0.198909 0.064457
O O8 0.077722 0.364541 0.878905
O O9 0.672497 0.880447 0.585061
O O10 0.620614 0.387510 0.986343
O O11 0.842312 0.250672 0.178796
O O12 0.604954 0.151808 0.992620
O O13 0.592444 0.030168 0.768139
O O14 0.500000 0.000000 0.500000
O O15 0.500000 0.500000 0.500000
O O16 0.569591 0.572650 0.406651
O O17 0.171365 0.508238 0.377911
#
# Coordination Sequence:
#
# PCOD8125108 Si02
#       8
#     4   4   4   4   4   4   4   4
#     4  10  20  38  63 103 130 172 221 278 339 399
#     4  12  23  48  69  97 142 185 220 291 346 404
#     4  10  20  36  69  98 131 164 229 280 340 391
#     4  10  21  42  65  97 134 174 221 285 334 405
#     4  11  19  37  71  98 129 168 222 294 340 388
#     4  11  27  48  66  97 141 184 234 274 344 420
#     4  11  24  46  66 103 135 177 237 282 334 423
#     4  11  24  40  67  98 139 177 226 279 343 410
#
# _framework density 22.206242
#
# number of rings (size 3 to 8) (size 9 to 14) (size 15 to 20)
#    0.000    1.250    5.000    0.750    1.750    2.000 
#    4.500    1.250    0.000    0.000    0.000    0.000 
#    0.000    0.000    0.000    0.000    0.000    0.000 
#
# Total GULP energy -396760.434090 kJ/mol
# GULP energy per Si atom -12398.763565 kJ/mol
# Density = 2.215570 g / cm^3
# Si number density = 22.206242 Si / 1000 Ang^3
#
#
#
# Elastic Constant Matrix: (Units=GPa)
#
#
# Indices 1 2 3 4 5 6 
#
# 1 134.0705 23.5768 38.6810 0.0000 -2.5224 0.0000
# 2 23.5768 40.8647 29.8976 0.0000 1.2891 0.0000
# 3 38.6810 29.8976 133.4089 0.0000 16.9155 0.0000
# 4 0.0000 0.0000 0.0000 25.3586 0.0000 -4.6681
# 5 -2.5224 1.2891 16.9155 0.0000 37.4053 0.0000
# 6 0.0000 0.0000 0.0000 -4.6681 0.0000 24.1763
#
#
#
# Elastic Compliance Matrix: (Units=1/GPa)
#
#
# Indices 1 2 3 4 5 6 
#
# 1 0.008680 -0.003673 -0.001892 0.000000 0.001568 0.000000
# 2 -0.003673 0.030977 -0.006058 0.000000 0.001424 0.000000
# 3 -0.001892 -0.006058 0.009963 0.000000 -0.004424 0.000000
# 4 0.000000 0.000000 0.000000 0.040888 0.000000 0.007895
# 5 0.001568 0.001424 -0.004424 0.000000 0.028792 0.000000
# 6 0.000000 0.000000 0.000000 0.007895 0.000000 0.042887
#
#
# Mechanical properties :
#
#
# Convention : Reuss Voigt Hill
#
# Bulk Modulus (GPa) = 37.91598 54.73942 46.32770
# Shear Modulus (GPa) = 25.74341 31.80061 28.77201
#
# Velocity S-wave (km/s) = 3.40852 3.78836 3.60345
# Velocity P-wave (km/s) = 5.70984 6.62114 6.18230
#
# Compressibility (1/GPa) = 0.02637410
#
# Stress axis : x y z
#
# Youngs Moduli (GPa) = 115.20563 32.28184 100.37137
#
# Poissons Ratio (x) = 0.11857 0.18994
# Poissons Ratio (y) = 0.42314 0.60803
# Poissons Ratio (z) = 0.21802 0.19556
#
# Static dielectric constant tensor:
#      x y z
#    x 4.444830 0.000000 0.200080 
#    y 0.000000 3.637710 0.000000 
#    z 0.200080 0.000000 4.360290 
# 
# 
# High freq. dielectric constant tensor:
#      x y z
#    x 1.890200 0.000000 0.014270 
#    y 0.000000 1.836800 0.000000 
#    z 0.014270 0.000000 1.888900 
# 
# From -- ./inp_files/49013.got.cif
#   From: 2010.03.12/outbox.cif.g09.slc.cpg/sg14_25_cif.got.tgz:49013.got - 2010.03.31 13:35:05.
