data_PCOD8125053
_publ_section_title
;
Structure prediction by ZEFSAII (Michael W. Deem and Ramdas Pophale) SiO2 
 PCOD8125053
Probable space group: P 21/C
;
_chemical_formula_sum "Si O2"
_cell_formula_units_Z 24
_cell_length_a 7.618068
_cell_length_b 27.323929
_cell_length_c 8.378780
_cell_angle_alpha 90.000000
_cell_angle_beta 142.948242
_cell_angle_gamma 90.000000
_cell_volume 1050.877131
_symmetry_space_group_name_H-M "P 21/C"
_symmetry_group_IT_number 14
_symmetry_cell_setting 'monoclinic'
loop_
_space_group_symop_operation_xyz
x,y,z
-x,1/2+y,1/2-z
-x,-y,-z
x,1/2-y,1/2+z
loop_
_atom_site_type_symbol
_atom_site_label
_atom_site_fract_x
_atom_site_fract_y
_atom_site_fract_z
Si Si1 0.209250 0.296466 0.263753
Si Si2 0.629315 0.563635 0.955209
Si Si3 0.799470 0.602120 0.579858
Si Si4 0.104458 0.621341 0.467186
Si Si5 0.322744 0.955775 0.567117
Si Si6 0.861474 0.218265 0.193790
O O1 0.282557 0.350384 0.379208
O O2 0.520585 0.269313 0.473246
O O3 0.013469 0.268077 0.249466
O O4 0.025560 0.300847 0.968993
O O5 0.430527 0.599699 0.705574
O O6 0.692816 0.513557 0.905118
O O7 0.465547 0.551196 0.998894
O O8 0.932303 0.590173 0.210618
O O9 0.954831 0.618345 0.530084
O O10 0.505837 0.572260 0.334049
O O11 0.001576 0.567040 0.832868
O O12 0.114061 0.678107 0.427846
#
# Coordination Sequence:
#
# PCOD8125053 Si02
#       6
#     4   4   4   4   4   4
#     4  12  26  44  66  91 123 160 204 254 310 371
#     4   9  17  31  56  89 121 156 201 248 290 344
#     4  10  20  36  60  89 121 157 201 250 299 352
#     4  10  20  36  60  89 121 157 201 250 299 352
#     4   9  17  31  56  89 121 156 201 248 290 344
#     4  12  26  44  66  91 123 160 204 254 310 371
#
# _framework density 22.838065
#
# number of rings (size 3 to 8) (size 9 to 14) (size 15 to 20)
#    0.000    1.667    0.000    5.000    0.000    8.000 
#    0.000    0.000    0.000   20.000    0.000    0.000 
#    0.000    0.000    0.000    0.000    0.000    0.000 
#
# Total GULP energy -297732.205280 kJ/mol
# GULP energy per Si atom -12405.508553 kJ/mol
# Density = 2.278608 g / cm^3
# Si number density = 22.838065 Si / 1000 Ang^3
#
#
#
# Elastic Constant Matrix: (Units=GPa)
#
#
# Indices 1 2 3 4 5 6 
#
# 1 42.3108 6.2237 26.0213 0.0000 8.2035 0.0000
# 2 6.2237 60.6814 19.8531 0.0000 -9.4118 0.0000
# 3 26.0213 19.8531 174.2101 0.0000 11.1850 0.0000
# 4 0.0000 0.0000 0.0000 39.3421 0.0000 4.2985
# 5 8.2035 -9.4118 11.1850 0.0000 29.0800 0.0000
# 6 0.0000 0.0000 0.0000 4.2985 0.0000 21.2447
#
#
#
# Elastic Compliance Matrix: (Units=1/GPa)
#
#
# Indices 1 2 3 4 5 6 
#
# 1 0.027535 -0.002895 -0.003306 0.000000 -0.007433 0.000000
# 2 -0.002895 0.018689 -0.002192 0.000000 0.007709 0.000000
# 3 -0.003306 -0.002192 0.006633 0.000000 -0.002328 0.000000
# 4 0.000000 0.000000 0.000000 0.025993 0.000000 -0.005259
# 5 -0.007433 0.007709 -0.002328 0.000000 0.039875 0.000000
# 6 0.000000 0.000000 0.000000 -0.005259 0.000000 0.048135
#
#
# Mechanical properties :
#
#
# Convention : Reuss Voigt Hill
#
# Bulk Modulus (GPa) = 27.72338 42.37762 35.05050
# Shear Modulus (GPa) = 25.55317 32.94031 29.24674
#
# Velocity S-wave (km/s) = 3.34860 3.80194 3.58245
# Velocity P-wave (km/s) = 5.20733 6.15378 5.70023
#
# Compressibility (1/GPa) = 0.03607064
#
# Stress axis : x y z
#
# Youngs Moduli (GPa) = 36.31783 53.50621 150.75526
#
# Poissons Ratio (x) = 0.15493 0.49833
# Poissons Ratio (y) = 0.10516 0.33050
# Poissons Ratio (z) = 0.12005 0.11730
#
# Static dielectric constant tensor:
#      x y z
#    x 3.836690 0.000000 0.062250 
#    y 0.000000 4.076900 0.000000 
#    z 0.062250 0.000000 4.342790 
# 
# 
# High freq. dielectric constant tensor:
#      x y z
#    x 1.886220 0.000000 0.004030 
#    y 0.000000 1.907350 0.000000 
#    z 0.004030 0.000000 1.918630 
# 
# From -- ./inp_files/11293.got.cif
#   From: 2010.03.12/outbox.cif.g09.slc.cpg/sg14_6_cif.got.tgz:11293.got - 2010.03.31 13:35:05.
