data_PCOD8125937
_publ_section_title
;
Structure prediction by ZEFSAII (Michael W. Deem and Ramdas Pophale) SiO2 
 PCOD8125937
Probable space group: P 21/C
;
_chemical_formula_sum "Si O2"
_cell_formula_units_Z 24
_cell_length_a 17.958049
_cell_length_b 11.092597
_cell_length_c 11.976549
_cell_angle_alpha 90.000000
_cell_angle_beta 150.777143
_cell_angle_gamma 90.000000
_cell_volume 1164.739612
_symmetry_space_group_name_H-M "P 21/C"
_symmetry_group_IT_number 14
_symmetry_cell_setting 'monoclinic'
loop_
_space_group_symop_operation_xyz
x,y,z
-x,1/2+y,1/2-z
-x,-y,-z
x,1/2-y,1/2+z
loop_
_atom_site_type_symbol
_atom_site_label
_atom_site_fract_x
_atom_site_fract_y
_atom_site_fract_z
Si Si1 0.399737 0.851111 0.278298
Si Si2 0.246695 0.889607 0.518994
Si Si3 0.819843 0.990351 0.144684
Si Si4 0.841962 0.578241 0.914753
Si Si5 0.303970 0.496744 0.856122
Si Si6 0.900657 0.660101 0.547260
O O1 0.344121 0.890741 0.328554
O O2 0.575991 0.886935 0.496001
O O3 0.370736 0.708641 0.222482
O O4 0.310235 0.919919 0.064520
O O5 0.297979 0.952236 0.472198
O O6 0.083043 0.826016 0.287873
O O7 0.238486 0.991861 0.601943
O O8 0.767479 0.943318 0.196721
O O9 0.836043 0.877883 0.082958
O O10 0.977667 0.061049 0.356571
O O11 0.814854 0.715456 0.912953
O O12 0.143697 0.439019 0.605234
#
# Coordination Sequence:
#
# PCOD8125937 Si02
#       6
#     4   4   4   4   4   4
#     4  10  22  44  62  86 129 167 200 261 312 365
#     4  11  23  39  68  94 119 167 211 253 311 372
#     4   9  20  38  59  88 126 160 199 256 313 357
#     4  10  21  36  62  97 116 160 211 254 308 365
#     4  10  24  42  63  93 125 166 207 254 319 367
#     4  10  21  39  63  92 128 156 207 262 304 372
#
# _framework density 20.605464000000001
#
# number of rings (size 3 to 8) (size 9 to 14) (size 15 to 20)
#    0.000    2.000    1.667    0.500    4.667    2.667 
#    6.000    1.667    0.000    0.000    0.000    0.000 
#    0.000    0.000    0.000    0.000    0.000    0.000 
#
# Total GULP energy -297638.026708 kJ/mol
# GULP energy per Si atom -12401.584446 kJ/mol
# Density = 2.055857 g / cm^3
# Si number density = 20.605464 Si / 1000 Ang^3
#
#
#
# Elastic Constant Matrix: (Units=GPa)
#
#
# Indices 1 2 3 4 5 6 
#
# 1 125.3547 69.0039 34.2444 0.0000 -35.6255 0.0000
# 2 69.0039 115.6861 22.3390 0.0000 -12.9477 0.0000
# 3 34.2444 22.3390 52.1310 0.0000 -15.6914 0.0000
# 4 0.0000 0.0000 0.0000 35.1447 0.0000 -8.3860
# 5 -35.6255 -12.9477 -15.6914 0.0000 27.8437 0.0000
# 6 0.0000 0.0000 0.0000 -8.3860 0.0000 14.8216
#
#
#
# Elastic Compliance Matrix: (Units=1/GPa)
#
#
# Indices 1 2 3 4 5 6 
#
# 1 0.018685 -0.008501 -0.003161 0.000000 0.018173 0.000000
# 2 -0.008501 0.013443 -0.001889 0.000000 -0.005690 0.000000
# 3 -0.003161 -0.001889 0.024792 0.000000 0.009048 0.000000
# 4 0.000000 0.000000 0.000000 0.032895 0.000000 0.018612
# 5 0.018173 -0.005690 0.009048 0.000000 0.061619 0.000000
# 6 0.000000 0.000000 0.000000 0.018612 0.000000 0.077999
#
#
# Mechanical properties :
#
#
# Convention : Reuss Voigt Hill
#
# Bulk Modulus (GPa) = 33.53756 60.48294 47.01025
# Shear Modulus (GPa) = 18.76349 26.73429 22.74889
#
# Velocity S-wave (km/s) = 3.02090 3.60590 3.32629
# Velocity P-wave (km/s) = 5.33659 6.83764 6.13321
#
# Compressibility (1/GPa) = 0.02981732
#
# Stress axis : x y z
#
# Youngs Moduli (GPa) = 53.51882 74.39089 40.33536
#
# Poissons Ratio (x) = 0.63238 0.12752
# Poissons Ratio (y) = 0.45495 0.07619
# Poissons Ratio (z) = 0.16919 0.14052
#
# Static dielectric constant tensor:
#      x y z
#    x 3.612730 0.000000 -0.199360 
#    y 0.000000 3.608640 0.000000 
#    z -0.199360 0.000000 3.830220 
# 
# 
# High freq. dielectric constant tensor:
#      x y z
#    x 1.798690 0.000000 -0.015120 
#    y 0.000000 1.805110 0.000000 
#    z -0.015120 0.000000 1.810280 
# 
# From -- ./inp_files/24055.got.cif
#   From: 2010.03.12/outbox.cif.g09.slc.cpg/sg14_13_cif.got.tgz:24055.got - 2010.03.31 13:35:05.
