data_PCOD8125988
_publ_section_title
;
Structure prediction by ZEFSAII (Michael W. Deem and Ramdas Pophale) SiO2 
 PCOD8125988
Probable space group: P 21/C
;
_chemical_formula_sum "Si O2"
_cell_formula_units_Z 32
_cell_length_a 16.051156
_cell_length_b 5.173805
_cell_length_c 20.743606
_cell_angle_alpha 90.000000
_cell_angle_beta 123.344172
_cell_angle_gamma 90.000000
_cell_volume 1439.085839
_symmetry_space_group_name_H-M "P 21/C"
_symmetry_group_IT_number 14
_symmetry_cell_setting 'monoclinic'
loop_
_space_group_symop_operation_xyz
x,y,z
-x,1/2+y,1/2-z
-x,-y,-z
x,1/2-y,1/2+z
loop_
_atom_site_type_symbol
_atom_site_label
_atom_site_fract_x
_atom_site_fract_y
_atom_site_fract_z
Si Si1 0.491764 0.064814 0.601978
Si Si2 0.270034 0.718015 0.418905
Si Si3 0.390286 0.259866 0.941910
Si Si4 0.945006 0.715585 0.400334
Si Si5 0.692333 0.219021 0.423400
Si Si6 0.556037 0.323667 0.259079
Si Si7 0.038745 0.821437 0.801581
Si Si8 0.118638 0.711401 0.074412
O O1 0.466882 0.274560 0.535371
O O2 0.573375 0.164448 0.688988
O O3 0.540470 0.808818 0.590935
O O4 0.387053 0.003014 0.592695
O O5 0.324727 0.493575 0.401530
O O6 0.280883 0.632765 0.498826
O O7 0.155956 0.736431 0.349543
O O8 0.319888 0.992750 0.425365
O O9 0.866286 0.483596 0.381551
O O10 0.002832 0.656853 0.359515
O O11 0.018728 0.750179 0.491545
O O12 0.887559 0.989659 0.373085
O O13 0.647657 0.396573 0.345927
O O14 0.795286 0.116132 0.437764
O O15 0.470431 0.527611 0.238688
O O16 0.980774 0.593806 0.740881
#
# Coordination Sequence:
#
# PCOD8125988 Si02
#       8
#     4   4   4   4   4   4   4   4
#     4   9  21  40  62  93 131 167 208 258 318 368
#     4  11  23  42  65  94 122 165 224 254 312 388
#     4  10  22  39  65  93 128 169 210 264 304 371
#     4  10  22  42  63  94 128 156 205 264 324 370
#     4  10  21  40  67  92 121 170 210 258 308 382
#     4  10  21  37  58  88 123 158 202 253 313 365
#     4  12  25  45  69  92 132 170 209 266 329 382
#     4  10  21  39  67  95 122 161 207 263 310 382
#
# _framework density 22.236338
#
# number of rings (size 3 to 8) (size 9 to 14) (size 15 to 20)
#    0.000    1.750    1.250    2.250    0.000   10.500 
#    6.750    0.000    0.000    0.000    0.000    0.000 
#    0.000    0.000    0.000    0.000    0.000    0.000 
#
# Total GULP energy -396468.584144 kJ/mol
# GULP energy per Si atom -12389.643255 kJ/mol
# Density = 2.218573 g / cm^3
# Si number density = 22.236338 Si / 1000 Ang^3
#
#
#
# Elastic Constant Matrix: (Units=GPa)
#
#
# Indices 1 2 3 4 5 6 
#
# 1 63.8051 5.8329 -14.7315 0.0000 7.4135 0.0000
# 2 5.8329 87.6304 5.0275 0.0000 -2.2190 0.0000
# 3 -14.7315 5.0275 70.5214 0.0000 2.1738 0.0000
# 4 0.0000 0.0000 0.0000 17.9673 0.0000 0.9125
# 5 7.4135 -2.2190 2.1738 0.0000 29.5821 0.0000
# 6 0.0000 0.0000 0.0000 0.9125 0.0000 27.4208
#
#
#
# Elastic Compliance Matrix: (Units=1/GPa)
#
#
# Indices 1 2 3 4 5 6 
#
# 1 0.017247 -0.001489 0.003854 0.000000 -0.004717 0.000000
# 2 -0.001489 0.011612 -0.001180 0.000000 0.001331 0.000000
# 3 0.003854 -0.001180 0.015136 0.000000 -0.002167 0.000000
# 4 0.000000 0.000000 0.000000 0.055751 0.000000 -0.001855
# 5 -0.004717 0.001331 -0.002167 0.000000 0.035245 0.000000
# 6 0.000000 0.000000 0.000000 -0.001855 0.000000 0.036530
#
#
# Mechanical properties :
#
#
# Convention : Reuss Voigt Hill
#
# Bulk Modulus (GPa) = 21.56721 23.80166 22.68443
# Shear Modulus (GPa) = 27.08477 30.04921 28.56699
#
# Velocity S-wave (km/s) = 3.49383 3.68007 3.58816
# Velocity P-wave (km/s) = 5.09862 5.36511 5.23356
#
# Compressibility (1/GPa) = 0.04636669
#
# Stress axis : x y z
#
# Youngs Moduli (GPa) = 57.98189 86.11754 66.06715
#
# Poissons Ratio (x) = 0.12819 -0.25464
# Poissons Ratio (y) = 0.08631 0.07795
# Poissons Ratio (z) = -0.22348 0.10160
#
# Static dielectric constant tensor:
#      x y z
#    x 3.943000 0.000000 -0.154470 
#    y 0.000000 3.972350 0.000000 
#    z -0.154470 0.000000 4.418960 
# 
# 
# High freq. dielectric constant tensor:
#      x y z
#    x 1.870740 0.000000 -0.011360 
#    y 0.000000 1.867510 0.000000 
#    z -0.011360 0.000000 1.876130 
# 
# From -- ./inp_files/67881.got.cif
#   From: 2010.03.12/outbox.cif.g09.slc.cpg/sg14_34_cif.got.tgz:67881.got - 2010.03.31 13:35:05.
