data_PCOD8125875
_publ_section_title
;
Structure prediction by ZEFSAII (Michael W. Deem and Ramdas Pophale) SiO2 
 PCOD8125875
Probable space group: P 21/C
;
_chemical_formula_sum "Si O2"
_cell_formula_units_Z 32
_cell_length_a 30.565162
_cell_length_b 9.438242
_cell_length_c 9.877573
_cell_angle_alpha 90.000000
_cell_angle_beta 145.063765
_cell_angle_gamma 90.000000
_cell_volume 1631.805056
_symmetry_space_group_name_H-M "P 21/C"
_symmetry_group_IT_number 14
_symmetry_cell_setting 'monoclinic'
loop_
_space_group_symop_operation_xyz
x,y,z
-x,1/2+y,1/2-z
-x,-y,-z
x,1/2-y,1/2+z
loop_
_atom_site_type_symbol
_atom_site_label
_atom_site_fract_x
_atom_site_fract_y
_atom_site_fract_z
Si Si1 0.301185 0.179531 0.881487
Si Si2 0.225435 0.141382 0.967156
Si Si3 0.949251 0.678733 0.986881
Si Si4 0.475109 0.143886 0.278743
Si Si5 0.800251 0.320898 0.645286
Si Si6 0.974980 0.358286 0.099012
Si Si7 0.449473 0.822022 0.253255
Si Si8 0.275543 0.641537 0.269162
O O1 0.279637 0.194220 0.983927
O O2 0.258038 0.301302 0.690301
O O3 0.275563 0.027932 0.758385
O O4 0.391349 0.202485 0.099038
O O5 0.140936 0.200326 0.726364
O O6 0.225989 0.971906 0.980239
O O7 0.975302 0.527712 0.111927
O O8 0.991778 0.801088 0.176673
O O9 0.971132 0.693994 0.885548
O O10 0.504564 0.203706 0.211843
O O11 0.531969 0.194507 0.541243
O O12 0.475812 0.974857 0.266457
O O13 0.757357 0.198633 0.454670
O O14 0.778910 0.306274 0.748285
O O15 0.890443 0.299182 0.858284
O O16 0.359734 0.797680 0.007941
#
# Coordination Sequence:
#
# PCOD8125875 Si02
#       8
#     4   4   4   4   4   4   4   4
#     4  10  21  36  55  80 107 139 180 220 263 317
#     4  10  21  37  56  79 109 143 178 219 266 314
#     4  10  21  36  55  81 110 141 179 220 264 315
#     4  10  21  37  56  79 108 140 176 220 267 316
#     4  10  21  37  56  79 109 143 178 219 266 314
#     4  10  21  36  55  81 110 141 179 220 264 315
#     4  10  21  37  56  79 108 140 176 220 267 316
#     4  10  21  36  55  80 107 139 180 220 263 317
#
# _framework density 19.610185999999999
#
# number of rings (size 3 to 8) (size 9 to 14) (size 15 to 20)
#    0.000    2.000    0.000    3.000    0.000    6.000 
#    0.000    0.000    0.000    0.000    0.000    0.000 
#    0.000    0.000    0.000    0.000    0.000    0.000 
#
# Total GULP energy -397028.657986 kJ/mol
# GULP energy per Si atom -12407.145562 kJ/mol
# Density = 1.956555 g / cm^3
# Si number density = 19.610186 Si / 1000 Ang^3
#
#
#
# Elastic Constant Matrix: (Units=GPa)
#
#
# Indices 1 2 3 4 5 6 
#
# 1 63.8164 14.9585 1.5289 0.0000 14.3983 0.0000
# 2 14.9585 33.0483 13.0443 0.0000 -1.2922 0.0000
# 3 1.5289 13.0443 46.7295 0.0000 1.9240 0.0000
# 4 0.0000 0.0000 0.0000 33.9760 0.0000 -4.6285
# 5 14.3983 -1.2922 1.9240 0.0000 26.7582 0.0000
# 6 0.0000 0.0000 0.0000 -4.6285 0.0000 30.1972
#
#
#
# Elastic Compliance Matrix: (Units=1/GPa)
#
#
# Indices 1 2 3 4 5 6 
#
# 1 0.020902 -0.011075 0.002901 0.000000 -0.011990 0.000000
# 2 -0.011075 0.040019 -0.011167 0.000000 0.008695 0.000000
# 3 0.002901 -0.011167 0.024581 0.000000 -0.003868 0.000000
# 4 0.000000 0.000000 0.000000 0.030060 0.000000 0.004607
# 5 -0.011990 0.008695 -0.003868 0.000000 0.044522 0.000000
# 6 0.000000 0.000000 0.000000 0.004607 0.000000 0.033822
#
#
# Mechanical properties :
#
#
# Convention : Reuss Voigt Hill
#
# Bulk Modulus (GPa) = 21.35767 22.51752 21.93759
# Shear Modulus (GPa) = 20.14563 25.79044 22.96803
#
# Velocity S-wave (km/s) = 3.20864 3.63044 3.42604
# Velocity P-wave (km/s) = 4.96406 5.39268 5.18280
#
# Compressibility (1/GPa) = 0.04682159
#
# Stress axis : x y z
#
# Youngs Moduli (GPa) = 47.84324 24.98817 40.68147
#
# Poissons Ratio (x) = 0.27673 -0.11803
# Poissons Ratio (y) = 0.52984 0.45428
# Poissons Ratio (z) = -0.13881 0.27904
#
# Static dielectric constant tensor:
#      x y z
#    x 3.622190 0.000000 0.163830 
#    y 0.000000 3.451820 0.000000 
#    z 0.163830 0.000000 3.498400 
# 
# 
# High freq. dielectric constant tensor:
#      x y z
#    x 1.775920 0.000000 0.009330 
#    y 0.000000 1.754450 0.000000 
#    z 0.009330 0.000000 1.768810 
# 
# From -- ./inp_files/19987.got.cif
#   From: 2010.03.12/outbox.cif.g09.slc.cpg/sg14_10_cif.got.tgz:19987.got - 2010.03.31 13:35:05.
