data_PCOD8125711
_publ_section_title
;
Structure prediction by ZEFSAII (Michael W. Deem and Ramdas Pophale) SiO2 
 PCOD8125711
Probable space group: P 21/C
;
_chemical_formula_sum "Si O2"
_cell_formula_units_Z 20
_cell_length_a 18.027584
_cell_length_b 9.085041
_cell_length_c 14.756555
_cell_angle_alpha 90.000000
_cell_angle_beta 157.154616
_cell_angle_gamma 90.000000
_cell_volume 938.330913
_symmetry_space_group_name_H-M "P 21/C"
_symmetry_group_IT_number 14
_symmetry_cell_setting 'monoclinic'
loop_
_space_group_symop_operation_xyz
x,y,z
-x,1/2+y,1/2-z
-x,-y,-z
x,1/2-y,1/2+z
loop_
_atom_site_type_symbol
_atom_site_label
_atom_site_fract_x
_atom_site_fract_y
_atom_site_fract_z
Si Si1 0.388097 0.146550 0.900940
Si Si2 0.816695 0.652208 0.468081
Si Si3 0.148284 0.264158 0.290912
Si Si4 0.845852 0.449352 0.251141
Si Si5 0.271430 0.840362 0.208921
O O1 0.283763 0.211883 0.695281
O O2 0.231470 0.130236 0.805008
O O3 0.545507 0.255118 0.120720
O O4 0.500000 0.000000 0.000000
O O5 0.790190 0.667084 0.544986
O O6 0.726529 0.496983 0.338295
O O7 0.044424 0.650949 0.699410
O O8 0.238670 0.098845 0.387052
O O9 0.918709 0.254692 0.025323
O O10 0.696003 0.358490 0.143939
O O11 0.000000 0.500000 0.500000
#
# Coordination Sequence:
#
# PCOD8125711 Si02
#       5
#     4   4   4   4   4
#     4  12  25  40  59  96 131 164 207 266 315 366
#     4  10  20  41  67  91 122 164 214 257 312 383
#     4  10  21  41  64  96 124 154 218 262 303 377
#     4   8  16  39  67  82 115 171 202 244 309 374
#     4  10  21  44  69  80 124 183 204 248 326 373
#
# _framework density 21.314442
#
# number of rings (size 3 to 8) (size 9 to 14) (size 15 to 20)
#    0.000    2.400    6.000    0.600    0.000    5.600 
#   10.800    0.000    0.000    0.000    0.000    0.000 
#    0.000    0.000    0.000    0.000    0.000    0.000 
#
# Total GULP energy -247806.194853 kJ/mol
# GULP energy per Si atom -12390.309743 kJ/mol
# Density = 2.126593 g / cm^3
# Si number density = 21.314442 Si / 1000 Ang^3
#
#
#
# Elastic Constant Matrix: (Units=GPa)
#
#
# Indices 1 2 3 4 5 6 
#
# 1 129.3960 46.5117 36.9969 0.0000 -19.8474 0.0000
# 2 46.5117 96.6931 24.7495 0.0000 -3.4470 0.0000
# 3 36.9969 24.7495 36.1505 0.0000 -1.3042 0.0000
# 4 0.0000 0.0000 0.0000 33.6345 0.0000 9.7713
# 5 -19.8474 -3.4470 -1.3042 0.0000 25.4422 0.0000
# 6 0.0000 0.0000 0.0000 9.7713 0.0000 30.9253
#
#
#
# Elastic Compliance Matrix: (Units=1/GPa)
#
#
# Indices 1 2 3 4 5 6 
#
# 1 0.013635 -0.003314 -0.011339 0.000000 0.009606 0.000000
# 2 -0.003314 0.013385 -0.005811 0.000000 -0.001070 0.000000
# 3 -0.011339 -0.005811 0.042977 0.000000 -0.007429 0.000000
# 4 0.000000 0.000000 0.000000 0.032736 0.000000 -0.010344
# 5 0.009606 -0.001070 -0.007429 0.000000 0.046273 0.000000
# 6 0.000000 0.000000 0.000000 -0.010344 0.000000 0.035604
#
#
# Mechanical properties :
#
#
# Convention : Reuss Voigt Hill
#
# Bulk Modulus (GPa) = 34.40023 53.19507 43.79765
# Shear Modulus (GPa) = 21.25604 28.26584 24.76094
#
# Velocity S-wave (km/s) = 3.16137 3.64556 3.41207
# Velocity P-wave (km/s) = 5.43140 6.53695 6.00965
#
# Compressibility (1/GPa) = 0.02906958
#
# Stress axis : x y z
#
# Youngs Moduli (GPa) = 73.34140 74.70865 23.26848
#
# Poissons Ratio (x) = 0.24758 0.26383
# Poissons Ratio (y) = 0.24305 0.13521
# Poissons Ratio (z) = 0.83160 0.43413
#
# Static dielectric constant tensor:
#      x y z
#    x 4.603320 0.000000 0.380050 
#    y 0.000000 3.811780 0.000000 
#    z 0.380050 0.000000 3.605080 
# 
# 
# High freq. dielectric constant tensor:
#      x y z
#    x 1.847660 0.000000 0.017270 
#    y 0.000000 1.818750 0.000000 
#    z 0.017270 0.000000 1.807460 
# 
# From -- ./inp_files/48324.got.cif
#   From: 2010.03.12/outbox.cif.g09.slc.cpg/sg14_25_cif.got.tgz:48324.got - 2010.03.31 13:35:05.
