data_PCOD8125595
_publ_section_title
;
Structure prediction by ZEFSAII (Michael W. Deem and Ramdas Pophale) SiO2 
 PCOD8125595
Probable space group: P 21/C
;
_chemical_formula_sum "Si O2"
_cell_formula_units_Z 28
_cell_length_a 13.316413
_cell_length_b 11.530461
_cell_length_c 14.173185
_cell_angle_alpha 90.000000
_cell_angle_beta 139.754403
_cell_angle_gamma 90.000000
_cell_volume 1405.975705
_symmetry_space_group_name_H-M "P 21/C"
_symmetry_group_IT_number 14
_symmetry_cell_setting 'monoclinic'
loop_
_space_group_symop_operation_xyz
x,y,z
-x,1/2+y,1/2-z
-x,-y,-z
x,1/2-y,1/2+z
loop_
_atom_site_type_symbol
_atom_site_label
_atom_site_fract_x
_atom_site_fract_y
_atom_site_fract_z
Si Si1 0.637818 0.989361 0.171837
Si Si2 0.595120 0.740780 0.218499
Si Si3 0.050311 0.582993 0.667638
Si Si4 0.482031 0.294521 0.622294
Si Si5 0.844934 0.637212 0.700794
Si Si6 0.080794 0.165363 0.110185
Si Si7 0.594880 0.382677 0.065635
O O1 0.624667 0.877381 0.229336
O O2 0.803654 0.977593 0.234585
O O3 0.615778 0.105382 0.217331
O O4 0.500000 0.000000 0.000000
O O5 0.568902 0.717976 0.308138
O O6 0.737690 0.660765 0.286105
O O7 0.449017 0.702348 0.051627
O O8 0.019852 0.450842 0.615989
O O9 0.226098 0.594106 0.825013
O O10 0.939686 0.606841 0.676604
O O11 0.012722 0.826019 0.056152
O O12 0.327050 0.312457 0.447242
O O13 0.565766 0.179049 0.645084
O O14 0.944912 0.727291 0.836343
O O15 0.500000 0.500000 0.000000
#
# Coordination Sequence:
#
# PCOD8125595 Si02
#       7
#     4   4   4   4   4   4   4
#     4   9  19  39  61  90 120 163 206 249 303 378
#     4  11  21  39  66  87 125 166 204 253 317 368
#     4  11  23  38  66  88 122 166 208 254 314 374
#     4  11  22  39  65  94 124 165 206 261 314 372
#     4  10  20  40  64  89 127 164 204 259 322 361
#     4  10  21  42  61  90 121 165 210 255 307 386
#     4  12  24  41  60  96 129 156 210 266 300 373
#
# _framework density 19.914995999999999
#
# number of rings (size 3 to 8) (size 9 to 14) (size 15 to 20)
#    0.000    1.429    7.143    0.000    2.000    2.286 
#    2.571    0.000    0.000    3.429    0.000    0.000 
#    0.000    0.000    0.000    0.000    0.000    0.000 
#
# Total GULP energy -347027.401905 kJ/mol
# GULP energy per Si atom -12393.835782 kJ/mol
# Density = 1.986967 g / cm^3
# Si number density = 19.914996 Si / 1000 Ang^3
#
#
#
# Elastic Constant Matrix: (Units=GPa)
#
#
# Indices 1 2 3 4 5 6 
#
# 1 122.3278 67.4220 33.0376 0.0000 -13.1481 0.0000
# 2 67.4220 111.4936 30.0343 0.0000 -12.2542 0.0000
# 3 33.0376 30.0343 71.7338 0.0000 -4.4796 0.0000
# 4 0.0000 0.0000 0.0000 25.0000 0.0000 -1.6785
# 5 -13.1481 -12.2542 -4.4796 0.0000 37.0249 0.0000
# 6 0.0000 0.0000 0.0000 -1.6785 0.0000 28.7973
#
#
#
# Elastic Compliance Matrix: (Units=1/GPa)
#
#
# Indices 1 2 3 4 5 6 
#
# 1 0.012946 -0.006806 -0.002989 0.000000 0.001983 0.000000
# 2 -0.006806 0.013996 -0.002607 0.000000 0.001900 0.000000
# 3 -0.002989 -0.002607 0.016412 0.000000 0.000061 0.000000
# 4 0.000000 0.000000 0.000000 0.040157 0.000000 0.002341
# 5 0.001983 0.001900 0.000061 0.000000 0.028349 0.000000
# 6 0.000000 0.000000 0.000000 0.002341 0.000000 0.034862
#
#
# Mechanical properties :
#
#
# Convention : Reuss Voigt Hill
#
# Bulk Modulus (GPa) = 53.90530 62.94923 58.42727
# Shear Modulus (GPa) = 28.13582 29.83521 28.98552
#
# Velocity S-wave (km/s) = 3.76280 3.87476 3.81919
# Velocity P-wave (km/s) = 6.78267 7.18999 6.98930
#
# Compressibility (1/GPa) = 0.01855105
#
# Stress axis : x y z
#
# Youngs Moduli (GPa) = 77.24297 71.45103 60.92942
#
# Poissons Ratio (x) = 0.48626 0.18213
# Poissons Ratio (y) = 0.52568 0.15883
# Poissons Ratio (z) = 0.23089 0.18626
#
# Static dielectric constant tensor:
#      x y z
#    x 3.807460 0.000000 -0.053650 
#    y 0.000000 3.666110 0.000000 
#    z -0.053650 0.000000 3.632580 
# 
# 
# High freq. dielectric constant tensor:
#      x y z
#    x 1.782660 0.000000 -0.011780 
#    y 0.000000 1.773600 0.000000 
#    z -0.011780 0.000000 1.767900 
# 
# From -- ./inp_files/44098.got.cif
#   From: 2010.03.12/outbox.cif.g09.slc.cpg/sg14_23_cif.got.tgz:44098.got - 2010.03.31 13:35:05.
