data_PCOD8125016
_publ_section_title
;
Structure prediction by ZEFSAII (Michael W. Deem and Ramdas Pophale) SiO2 
 PCOD8125016
Probable space group: P 21/C
;
_chemical_formula_sum "Si O2"
_cell_formula_units_Z 32
_cell_length_a 13.896002
_cell_length_b 14.819814
_cell_length_c 9.022404
_cell_angle_alpha 90.000000
_cell_angle_beta 118.496841
_cell_angle_gamma 90.000000
_cell_volume 1632.925593
_symmetry_space_group_name_H-M "P 21/C"
_symmetry_group_IT_number 14
_symmetry_cell_setting 'monoclinic'
loop_
_space_group_symop_operation_xyz
x,y,z
-x,1/2+y,1/2-z
-x,-y,-z
x,1/2-y,1/2+z
loop_
_atom_site_type_symbol
_atom_site_label
_atom_site_fract_x
_atom_site_fract_y
_atom_site_fract_z
Si Si1 0.127386 0.256641 0.195843
Si Si2 0.647398 0.201578 0.448566
Si Si3 0.982208 0.178623 0.344111
Si Si4 0.790875 0.210935 0.829657
Si Si5 0.476645 0.421493 0.688541
Si Si6 0.765919 0.863524 0.973487
Si Si7 0.817062 0.059513 0.084081
Si Si8 0.422661 0.893981 0.048196
O O1 0.216353 0.306082 0.363645
O O2 0.039927 0.206002 0.233733
O O3 0.186881 0.183561 0.137281
O O4 0.066805 0.329410 0.043440
O O5 0.692915 0.187553 0.645813
O O6 0.747467 0.208952 0.405380
O O7 0.570920 0.115476 0.364613
O O8 0.577212 0.294622 0.380045
O O9 0.896456 0.257836 0.317041
O O10 0.916692 0.085325 0.268246
O O11 0.821459 0.121665 0.941831
O O12 0.361807 0.377634 0.649028
O O13 0.502141 0.391818 0.540361
O O14 0.471209 0.530793 0.697356
O O15 0.830724 0.957007 0.043508
O O16 0.702056 0.076801 0.084808
#
# Coordination Sequence:
#
# PCOD8125016 Si02
#       8
#     4   4   4   4   4   4   4   4
#     4  10  23  39  57  84 111 156 203 235 288 357
#     4  11  19  33  58  90 114 151 188 232 292 356
#     4  11  18  37  63  83 115 146 187 252 299 338
#     4  11  19  34  61  91 117 140 188 241 304 347
#     4  10  20  36  59  80 120 160 187 232 286 341
#     4  10  24  41  58  79 121 158 198 238 282 347
#     4  10  20  37  63  88 118 147 188 248 301 340
#     4   9  19  35  56  89 114 146 194 232 284 352
#
# _framework density 19.596727999999999
#
# number of rings (size 3 to 8) (size 9 to 14) (size 15 to 20)
#    0.000    1.750    5.000    0.000    1.750    1.000 
#    0.000    6.875   11.000    0.000    0.000    0.000 
#    0.000    0.000    0.000    0.000    0.000    0.000 
#
# Total GULP energy -396745.159171 kJ/mol
# GULP energy per Si atom -12398.286224 kJ/mol
# Density = 1.955212 g / cm^3
# Si number density = 19.596728 Si / 1000 Ang^3
#
#
#
# Elastic Constant Matrix: (Units=GPa)
#
#
# Indices 1 2 3 4 5 6 
#
# 1 89.0319 18.3912 16.2262 0.0000 -16.5474 0.0000
# 2 18.3912 63.4789 5.4609 0.0000 -4.5160 0.0000
# 3 16.2262 5.4609 61.0134 0.0000 -11.1653 0.0000
# 4 0.0000 0.0000 0.0000 29.0432 0.0000 5.5365
# 5 -16.5474 -4.5160 -11.1653 0.0000 22.6978 0.0000
# 6 0.0000 0.0000 0.0000 5.5365 0.0000 26.0094
#
#
#
# Elastic Compliance Matrix: (Units=1/GPa)
#
#
# Indices 1 2 3 4 5 6 
#
# 1 0.013820 -0.003240 -0.001824 0.000000 0.008533 0.000000
# 2 -0.003240 0.016787 -0.000508 0.000000 0.000728 0.000000
# 3 -0.001824 -0.000508 0.018306 0.000000 0.007575 0.000000
# 4 0.000000 0.000000 0.000000 0.035888 0.000000 -0.007639
# 5 0.008533 0.000728 0.007575 0.000000 0.054149 0.000000
# 6 0.000000 0.000000 0.000000 -0.007639 0.000000 0.040074
#
#
# Mechanical properties :
#
#
# Convention : Reuss Voigt Hill
#
# Bulk Modulus (GPa) = 26.47532 32.63119 29.55325
# Shear Modulus (GPa) = 24.66011 27.11313 25.88662
#
# Velocity S-wave (km/s) = 3.55121 3.72365 3.63845
# Velocity P-wave (km/s) = 5.50947 5.93085 5.72403
#
# Compressibility (1/GPa) = 0.03777103
#
# Stress axis : x y z
#
# Youngs Moduli (GPa) = 72.36137 59.56839 54.62567
#
# Poissons Ratio (x) = 0.19299 0.09962
# Poissons Ratio (y) = 0.23444 0.02773
# Poissons Ratio (z) = 0.13197 0.03024
#
# Static dielectric constant tensor:
#      x y z
#    x 3.642580 0.000000 0.014680 
#    y 0.000000 3.553890 0.000000 
#    z 0.014680 0.000000 3.523730 
# 
# 
# High freq. dielectric constant tensor:
#      x y z
#    x 1.772750 0.000000 -0.004540 
#    y 0.000000 1.747780 0.000000 
#    z -0.004540 0.000000 1.754620 
# 
# From -- ./inp_files/16242.got.cif
#   From: 2010.03.12/outbox.cif.g09.slc.cpg/sg14_9_cif.got.tgz:16242.got - 2010.03.31 13:35:05.
