data_PCOD8125149
_publ_section_title
;
Structure prediction by ZEFSAII (Michael W. Deem and Ramdas Pophale) SiO2 
 PCOD8125149
Probable space group: P 21/C
;
_chemical_formula_sum "Si O2"
_cell_formula_units_Z 32
_cell_length_a 20.588532
_cell_length_b 9.805320
_cell_length_c 26.459821
_cell_angle_alpha 90.000000
_cell_angle_beta 18.714979
_cell_angle_gamma 90.000000
_cell_volume 1713.919666
_symmetry_space_group_name_H-M "P 21/C"
_symmetry_group_IT_number 14
_symmetry_cell_setting 'monoclinic'
loop_
_space_group_symop_operation_xyz
x,y,z
-x,1/2+y,1/2-z
-x,-y,-z
x,1/2-y,1/2+z
loop_
_atom_site_type_symbol
_atom_site_label
_atom_site_fract_x
_atom_site_fract_y
_atom_site_fract_z
Si Si1 0.499260 0.294125 0.169951
Si Si2 0.787928 0.902285 0.776475
Si Si3 0.760667 0.487286 0.039168
Si Si4 0.530620 0.402246 0.405063
Si Si5 0.561039 0.512713 0.639042
Si Si6 0.822349 0.705874 0.508363
Si Si7 0.717571 0.143599 0.311442
Si Si8 0.398265 0.143615 0.630670
O O1 0.654214 0.414582 0.070016
O O2 0.605013 0.148389 0.102766
O O3 0.292779 0.307996 0.353643
O O4 0.444262 0.302619 0.152198
O O5 0.750151 0.746813 0.788655
O O6 0.715891 0.000033 0.784173
O O7 0.666630 0.941570 0.916729
O O8 0.022574 0.920440 0.613208
O O9 0.634373 0.456309 0.182775
O O10 0.773753 0.648401 0.018368
O O11 0.480041 0.420419 0.384324
O O12 0.595116 0.246761 0.366147
O O13 0.757084 0.585435 0.518578
O O14 0.058389 0.697386 0.345013
O O15 0.611079 0.130330 0.444490
O O16 0.718185 0.999983 0.281882
#
# Coordination Sequence:
#
# PCOD8125149 Si02
#       8
#     4   4   4   4   4   4   4   4
#     4  10  22  39  57  82 114 147 185 228 274 328
#     4  10  20  37  59  82 109 143 184 229 274 326
#     4  10  22  38  57  82 113 147 185 228 275 329
#     4  10  20  37  59  82 109 143 184 229 274 326
#     4  10  22  38  57  82 113 147 185 228 275 329
#     4  10  22  39  57  82 114 147 185 228 274 328
#     4  10  22  39  58  83 114 145 184 232 278 327
#     4  10  22  39  58  83 114 145 184 232 278 327
#
# _framework density 18.670653000000001
#
# number of rings (size 3 to 8) (size 9 to 14) (size 15 to 20)
#    0.000    2.000    2.500    0.000    3.500    3.000 
#    0.000    0.000    0.000    0.000    0.000    0.000 
#    0.000    0.000    0.000    0.000    0.000    0.000 
#
# Total GULP energy -396936.448758 kJ/mol
# GULP energy per Si atom -12404.264024 kJ/mol
# Density = 1.862816 g / cm^3
# Si number density = 18.670653 Si / 1000 Ang^3
#
#
#
# Elastic Constant Matrix: (Units=GPa)
#
#
# Indices 1 2 3 4 5 6 
#
# 1 82.7398 20.2587 22.6518 0.0000 9.8258 0.0000
# 2 20.2587 107.4996 21.3961 0.0000 0.8383 0.0000
# 3 22.6518 21.3961 75.6049 0.0000 -14.6592 0.0000
# 4 0.0000 0.0000 0.0000 26.5147 0.0000 -4.0904
# 5 9.8258 0.8383 -14.6592 0.0000 19.9743 0.0000
# 6 0.0000 0.0000 0.0000 -4.0904 0.0000 32.3835
#
#
#
# Elastic Compliance Matrix: (Units=1/GPa)
#
#
# Indices 1 2 3 4 5 6 
#
# 1 0.015820 -0.001536 -0.006764 0.000000 -0.012682 0.000000
# 2 -0.001536 0.010150 -0.002738 0.000000 -0.001680 0.000000
# 3 -0.006764 -0.002738 0.019465 0.000000 0.017728 0.000000
# 4 0.000000 0.000000 0.000000 0.038464 0.000000 0.004859
# 5 -0.012682 -0.001680 0.017728 0.000000 0.069384 0.000000
# 6 0.000000 0.000000 0.000000 0.004859 0.000000 0.031494
#
#
# Mechanical properties :
#
#
# Convention : Reuss Voigt Hill
#
# Bulk Modulus (GPa) = 42.80959 43.82863 43.31911
# Shear Modulus (GPa) = 23.29485 29.21034 26.25260
#
# Velocity S-wave (km/s) = 3.53607 3.95967 3.75385
# Velocity P-wave (km/s) = 6.29685 6.66565 6.48387
#
# Compressibility (1/GPa) = 0.02335925
#
# Stress axis : x y z
#
# Youngs Moduli (GPa) = 63.21092 98.52332 51.37346
#
# Poissons Ratio (x) = 0.15135 0.34749
# Poissons Ratio (y) = 0.09710 0.14065
# Poissons Ratio (z) = 0.42756 0.26974
#
# Static dielectric constant tensor:
#      x y z
#    x 3.260940 0.000000 0.068480 
#    y 0.000000 3.731510 0.000000 
#    z 0.068480 0.000000 3.358920 
# 
# 
# High freq. dielectric constant tensor:
#      x y z
#    x 1.716110 0.000000 0.002040 
#    y 0.000000 1.744170 0.000000 
#    z 0.002040 0.000000 1.719020 
# 
# From -- ./inp_files/77960.got.cif
#   From: 2010.03.12/outbox.cif.g09.slc.cpg/sg14_39_cif.got.tgz:77960.got - 2010.03.31 13:35:05.
