data_PCOD8125126
_publ_section_title
;
Structure prediction by ZEFSAII (Michael W. Deem and Ramdas Pophale) SiO2 
 PCOD8125126
Probable space group: P 21/C
;
_chemical_formula_sum "Si O2"
_cell_formula_units_Z 32
_cell_length_a 14.582624
_cell_length_b 16.473173
_cell_length_c 12.510917
_cell_angle_alpha 90.000000
_cell_angle_beta 29.710664
_cell_angle_gamma 90.000000
_cell_volume 1489.536651
_symmetry_space_group_name_H-M "P 21/C"
_symmetry_group_IT_number 14
_symmetry_cell_setting 'monoclinic'
loop_
_space_group_symop_operation_xyz
x,y,z
-x,1/2+y,1/2-z
-x,-y,-z
x,1/2-y,1/2+z
loop_
_atom_site_type_symbol
_atom_site_label
_atom_site_fract_x
_atom_site_fract_y
_atom_site_fract_z
Si Si1 0.494844 0.920891 0.137754
Si Si2 0.506404 0.772004 0.258692
Si Si3 0.527160 0.346831 0.882508
Si Si4 0.199762 0.767897 0.734945
Si Si5 0.793757 0.655960 0.622556
Si Si6 0.903311 0.091794 0.724645
Si Si7 0.282714 0.990414 0.904199
Si Si8 0.762410 0.530194 0.200278
O O1 0.494423 0.827242 0.165852
O O2 0.291796 0.959252 0.328375
O O3 0.586710 0.972503 0.138414
O O4 0.585975 0.923327 0.927309
O O5 0.506552 0.682453 0.206440
O O6 0.325253 0.797357 0.509192
O O7 0.694517 0.787932 0.133954
O O8 0.691485 0.292732 0.768273
O O9 0.597265 0.439746 0.803429
O O10 0.334217 0.343760 0.142280
O O11 0.193474 0.670447 0.727936
O O12 0.996603 0.807999 0.940337
O O13 0.820301 0.563541 0.553600
O O14 0.860054 0.008964 0.704634
O O15 0.857380 0.073671 0.895659
O O16 0.123350 0.098628 0.480792
#
# Coordination Sequence:
#
# PCOD8125126 Si02
#       8
#     4   4   4   4   4   4   4   4
#     4   9  19  36  59  86 117 158 202 253 308 360
#     4  10  22  41  62  89 123 162 202 257 310 360
#     4  11  23  43  65  89 127 167 204 259 309 366
#     4  11  24  41  61  92 126 161 206 257 309 373
#     4  10  25  42  65  91 125 164 214 255 304 378
#     4  10  20  37  57  89 123 154 206 258 310 369
#     4  10  21  42  60  87 124 163 205 255 307 366
#     4   9  19  34  59  87 118 157 199 257 307 365
#
# _framework density 21.48319
#
# number of rings (size 3 to 8) (size 9 to 14) (size 15 to 20)
#    0.000    2.000    1.250    1.125    3.500    2.500 
#    4.500    0.000    0.000    0.000    0.000    0.000 
#    0.000    0.000    0.000    0.000    0.000    0.000 
#
# Total GULP energy -396544.629287 kJ/mol
# GULP energy per Si atom -12392.019665 kJ/mol
# Density = 2.143429 g / cm^3
# Si number density = 21.483190 Si / 1000 Ang^3
#
#
#
# Elastic Constant Matrix: (Units=GPa)
#
#
# Indices 1 2 3 4 5 6 
#
# 1 54.3528 10.0252 32.2999 0.0000 -0.9077 0.0000
# 2 10.0252 74.9123 27.0019 0.0000 0.8831 0.0000
# 3 32.2999 27.0019 105.8114 0.0000 -6.2076 0.0000
# 4 0.0000 0.0000 0.0000 34.6439 0.0000 3.4534
# 5 -0.9077 0.8831 -6.2076 0.0000 26.4948 0.0000
# 6 0.0000 0.0000 0.0000 3.4534 0.0000 29.8197
#
#
#
# Elastic Compliance Matrix: (Units=1/GPa)
#
#
# Indices 1 2 3 4 5 6 
#
# 1 0.022516 -0.000561 -0.006777 0.000000 -0.000798 0.000000
# 2 -0.000561 0.014766 -0.003677 0.000000 -0.001373 0.000000
# 3 -0.006777 -0.003677 0.012625 0.000000 0.002848 0.000000
# 4 0.000000 0.000000 0.000000 0.029202 0.000000 -0.003382
# 5 -0.000798 -0.001373 0.002848 0.000000 0.038429 0.000000
# 6 0.000000 0.000000 0.000000 -0.003382 0.000000 0.033926
#
#
# Mechanical properties :
#
#
# Convention : Reuss Voigt Hill
#
# Bulk Modulus (GPa) = 35.87313 41.52561 38.69937
# Shear Modulus (GPa) = 27.35434 29.24166 28.29800
#
# Velocity S-wave (km/s) = 3.57219 3.69337 3.63328
# Velocity P-wave (km/s) = 5.80935 6.12856 5.97109
#
# Compressibility (1/GPa) = 0.02787602
#
# Stress axis : x y z
#
# Youngs Moduli (GPa) = 44.41353 67.72461 79.20829
#
# Poissons Ratio (x) = 0.03800 0.53677
# Poissons Ratio (y) = 0.02492 0.29127
# Poissons Ratio (z) = 0.30098 0.24904
#
# Static dielectric constant tensor:
#      x y z
#    x 3.623020 0.000000 0.053990 
#    y 0.000000 3.894930 0.000000 
#    z 0.053990 0.000000 4.325850 
# 
# 
# High freq. dielectric constant tensor:
#      x y z
#    x 1.828880 0.000000 0.006570 
#    y 0.000000 1.843430 0.000000 
#    z 0.006570 0.000000 1.848350 
# 
# From -- ./inp_files/33039.got.cif
#   From: 2010.03.12/outbox.cif.g09.slc.cpg/sg14_17_cif.got.tgz:33039.got - 2010.03.31 13:35:05.
