data_PCOD8125005
_publ_section_title
;
Structure prediction by ZEFSAII (Michael W. Deem and Ramdas Pophale) SiO2 
 PCOD8125005
Probable space group: P 21/C
;
_chemical_formula_sum "Si O2"
_cell_formula_units_Z 32
_cell_length_a 13.256745
_cell_length_b 11.749066
_cell_length_c 14.994723
_cell_angle_alpha 90.000000
_cell_angle_beta 144.207544
_cell_angle_gamma 90.000000
_cell_volume 1365.915522
_symmetry_space_group_name_H-M "P 21/C"
_symmetry_group_IT_number 14
_symmetry_cell_setting 'monoclinic'
loop_
_space_group_symop_operation_xyz
x,y,z
-x,1/2+y,1/2-z
-x,-y,-z
x,1/2-y,1/2+z
loop_
_atom_site_type_symbol
_atom_site_label
_atom_site_fract_x
_atom_site_fract_y
_atom_site_fract_z
Si Si1 0.115460 0.747276 0.800632
Si Si2 0.700006 0.038385 0.635128
Si Si3 0.017539 0.163138 0.470419
Si Si4 0.716964 0.031975 0.337974
Si Si5 0.743670 0.072471 0.860410
Si Si6 0.485937 0.387074 0.829920
Si Si7 0.075619 0.173101 0.167781
Si Si8 0.439677 0.641689 0.603606
O O1 0.192359 0.619267 0.857127
O O2 0.001567 0.763003 0.631569
O O3 0.988237 0.756815 0.793034
O O4 0.268558 0.844313 0.919236
O O5 0.713593 0.111423 0.736780
O O6 0.518558 0.040405 0.447421
O O7 0.764786 0.907670 0.691182
O O8 0.140008 0.059489 0.530331
O O9 0.110068 0.233955 0.615608
O O10 0.821176 0.125642 0.355912
O O11 0.561384 0.968206 0.170424
O O12 0.639789 0.093760 0.369559
O O13 0.614710 0.142217 0.831291
O O14 0.694188 0.938217 0.834779
O O15 0.938130 0.082980 0.031204
O O16 0.449629 0.256730 0.827199
#
# Coordination Sequence:
#
# PCOD8125005 Si02
#       8
#     4   4   4   4   4   4   4   4
#     4  10  22  38  61  84 120 164 198 252 306 363
#     4  11  21  36  60  90 122 158 209 253 308 371
#     4  11  22  39  63  86 121 161 201 247 310 368
#     4  10  22  39  62  88 119 161 203 249 305 366
#     4  10  20  36  58  86 116 161 200 252 306 361
#     4  10  21  38  61  86 124 157 203 258 305 366
#     4  11  23  39  60  90 125 158 206 254 308 367
#     4   9  21  39  59  85 122 156 203 248 306 360
#
# _framework density 23.427510000000002
#
# number of rings (size 3 to 8) (size 9 to 14) (size 15 to 20)
#    0.000    1.750    1.250    3.750    1.750    1.500 
#    0.000    0.000    0.000    1.500    0.000    0.000 
#    0.000    0.000    0.000    0.000    0.000    0.000 
#
# Total GULP energy -396540.904282 kJ/mol
# GULP energy per Si atom -12391.903259 kJ/mol
# Density = 2.337419 g / cm^3
# Si number density = 23.427510 Si / 1000 Ang^3
#
#
#
# Elastic Constant Matrix: (Units=GPa)
#
#
# Indices 1 2 3 4 5 6 
#
# 1 80.6127 13.5941 32.4551 0.0000 -6.5952 0.0000
# 2 13.5941 78.7096 28.0844 0.0000 -8.9434 0.0000
# 3 32.4551 28.0844 76.5429 0.0000 -8.4534 0.0000
# 4 0.0000 0.0000 0.0000 39.1956 0.0000 2.5902
# 5 -6.5952 -8.9434 -8.4534 0.0000 36.6100 0.0000
# 6 0.0000 0.0000 0.0000 2.5902 0.0000 28.4227
#
#
#
# Elastic Compliance Matrix: (Units=1/GPa)
#
#
# Indices 1 2 3 4 5 6 
#
# 1 0.015020 -0.000266 -0.006136 0.000000 0.001224 0.000000
# 2 -0.000266 0.014831 -0.005063 0.000000 0.002406 0.000000
# 3 -0.006136 -0.005063 0.017717 0.000000 0.001749 0.000000
# 4 0.000000 0.000000 0.000000 0.025668 0.000000 -0.002339
# 5 0.001224 0.002406 0.001749 0.000000 0.028527 0.000000
# 6 0.000000 0.000000 0.000000 -0.002339 0.000000 0.035396
#
#
# Mechanical properties :
#
#
# Convention : Reuss Voigt Hill
#
# Bulk Modulus (GPa) = 40.58710 42.68137 41.63423
# Shear Modulus (GPa) = 29.70845 31.62777 30.66811
#
# Velocity S-wave (km/s) = 3.56490 3.67826 3.62202
# Velocity P-wave (km/s) = 5.85721 6.02474 5.94156
#
# Compressibility (1/GPa) = 0.02463837
#
# Stress axis : x y z
#
# Youngs Moduli (GPa) = 66.57611 67.42723 56.44221
#
# Poissons Ratio (x) = 0.01791 0.34634
# Poissons Ratio (y) = 0.01769 0.28578
# Poissons Ratio (z) = 0.40852 0.34140
#
# Static dielectric constant tensor:
#      x y z
#    x 4.492260 0.000000 -0.054220 
#    y 0.000000 4.104710 0.000000 
#    z -0.054220 0.000000 4.212030 
# 
# 
# High freq. dielectric constant tensor:
#      x y z
#    x 1.944820 0.000000 0.005020 
#    y 0.000000 1.919680 0.000000 
#    z 0.005020 0.000000 1.919940 
# 
# From -- ./inp_files/47154.got.cif
#   From: 2010.03.12/outbox.cif.g09.slc.cpg/sg14_24_cif.got.tgz:47154.got - 2010.03.31 13:35:05.
