data_PCOD8125697
_publ_section_title
;
Structure prediction by ZEFSAII (Michael W. Deem and Ramdas Pophale) SiO2 
 PCOD8125697
Probable space group: P 21/C
;
_chemical_formula_sum "Si O2"
_cell_formula_units_Z 32
_cell_length_a 13.883203
_cell_length_b 9.393704
_cell_length_c 11.787288
_cell_angle_alpha 90.000000
_cell_angle_beta 79.694738
_cell_angle_gamma 90.000000
_cell_volume 1512.437880
_symmetry_space_group_name_H-M "P 21/C"
_symmetry_group_IT_number 14
_symmetry_cell_setting 'monoclinic'
loop_
_space_group_symop_operation_xyz
x,y,z
-x,1/2+y,1/2-z
-x,-y,-z
x,1/2-y,1/2+z
loop_
_atom_site_type_symbol
_atom_site_label
_atom_site_fract_x
_atom_site_fract_y
_atom_site_fract_z
Si Si1 0.165192 0.710217 0.651183
Si Si2 0.344477 0.079156 0.846796
Si Si3 0.329223 0.787172 0.959870
Si Si4 0.457302 0.901918 0.107307
Si Si5 0.035497 0.383717 0.401847
Si Si6 0.802767 0.534613 0.807670
Si Si7 0.200247 0.293517 0.963400
Si Si8 0.284989 0.955764 0.301435
O O1 0.223633 0.659187 0.527603
O O2 0.195668 0.623898 0.757213
O O3 0.051580 0.687991 0.650997
O O4 0.199896 0.872555 0.654520
O O5 0.452978 0.151392 0.831395
O O6 0.297378 0.086219 0.731915
O O7 0.273436 0.158087 0.952547
O O8 0.361496 0.912725 0.869269
O O9 0.403151 0.771655 0.052834
O O10 0.325392 0.638173 0.896619
O O11 0.375916 0.985967 0.198358
O O12 0.500000 0.000000 0.000000
O O13 0.106104 0.456033 0.296062
O O14 0.091393 0.256166 0.453311
O O15 0.000000 0.500000 0.500000
O O16 0.812787 0.636239 0.912581
O O17 0.243316 0.397414 0.858042
#
# Coordination Sequence:
#
# PCOD8125697 Si02
#       8
#     4   4   4   4   4   4   4   4
#     4  11  23  41  68  90 133 174 220 270 330 399
#     4  10  22  43  64  93 139 172 218 277 335 398
#     4  10  20  41  65  93 127 175 219 265 334 396
#     4   9  22  40  67  95 133 180 219 268 342 401
#     4  11  28  43  67  97 135 176 217 275 344 400
#     4  11  24  42  67  99 129 174 221 279 331 393
#     4  11  26  43  66 101 134 171 223 283 331 393
#     4  11  23  41  68 101 131 172 226 275 328 399
#
# _framework density 21.157893000000001
#
# number of rings (size 3 to 8) (size 9 to 14) (size 15 to 20)
#    0.000    1.500    2.500    1.500    3.500   10.500 
#    0.000    1.250    0.000    0.000    0.000    0.000 
#    0.000    0.000    0.000    0.000    0.000    0.000 
#
# Total GULP energy -396691.885315 kJ/mol
# GULP energy per Si atom -12396.621416 kJ/mol
# Density = 2.110974 g / cm^3
# Si number density = 21.157893 Si / 1000 Ang^3
#
#
#
# Elastic Constant Matrix: (Units=GPa)
#
#
# Indices 1 2 3 4 5 6 
#
# 1 170.0335 40.5803 62.5603 0.0000 27.4098 0.0000
# 2 40.5803 88.6781 37.3953 0.0000 7.2393 0.0000
# 3 62.5603 37.3953 117.1648 0.0000 3.8102 0.0000
# 4 0.0000 0.0000 0.0000 29.8031 0.0000 -1.2607
# 5 27.4098 7.2393 3.8102 0.0000 30.1749 0.0000
# 6 0.0000 0.0000 0.0000 -1.2607 0.0000 24.7758
#
#
#
# Elastic Compliance Matrix: (Units=1/GPa)
#
#
# Indices 1 2 3 4 5 6 
#
# 1 0.008928 -0.001835 -0.003948 0.000000 -0.007171 0.000000
# 2 -0.001835 0.013616 -0.003328 0.000000 -0.001179 0.000000
# 3 -0.003948 -0.003328 0.011610 0.000000 0.002919 0.000000
# 4 0.000000 0.000000 0.000000 0.033626 0.000000 0.001711
# 5 -0.007171 -0.001179 0.002919 0.000000 0.039568 0.000000
# 6 0.000000 0.000000 0.000000 0.001711 0.000000 0.040449
#
#
# Mechanical properties :
#
#
# Convention : Reuss Voigt Hill
#
# Bulk Modulus (GPa) = 62.76515 72.99424 67.87969
# Shear Modulus (GPa) = 29.18349 32.64011 30.91180
#
# Velocity S-wave (km/s) = 3.71795 3.93197 3.82646
# Velocity P-wave (km/s) = 6.93977 7.42890 7.18849
#
# Compressibility (1/GPa) = 0.01593241
#
# Stress axis : x y z
#
# Youngs Moduli (GPa) = 112.01038 73.44269 86.13115
#
# Poissons Ratio (x) = 0.13478 0.34005
# Poissons Ratio (y) = 0.20556 0.28661
# Poissons Ratio (z) = 0.44222 0.24439
#
# Static dielectric constant tensor:
#      x y z
#    x 4.330400 0.000000 0.210980 
#    y 0.000000 3.661890 0.000000 
#    z 0.210980 0.000000 3.908200 
# 
# 
# High freq. dielectric constant tensor:
#      x y z
#    x 1.840640 0.000000 0.006850 
#    y 0.000000 1.818010 0.000000 
#    z 0.006850 0.000000 1.835970 
# 
# From -- ./inp_files/31817.got.cif
#   From: 2010.03.12/outbox.cif.g09.slc.cpg/sg14_16_cif.got.tgz:31817.got - 2010.03.31 13:35:05.
