data_PCOD8125919
_publ_section_title
;
Structure prediction by ZEFSAII (Michael W. Deem and Ramdas Pophale) SiO2 
 PCOD8125919
Probable space group: P 21/C
;
_chemical_formula_sum "Si O2"
_cell_formula_units_Z 28
_cell_length_a 11.523643
_cell_length_b 17.332898
_cell_length_c 14.279103
_cell_angle_alpha 90.000000
_cell_angle_beta 28.782265
_cell_angle_gamma 90.000000
_cell_volume 1373.226967
_symmetry_space_group_name_H-M "P 21/C"
_symmetry_group_IT_number 14
_symmetry_cell_setting 'monoclinic'
loop_
_space_group_symop_operation_xyz
x,y,z
-x,1/2+y,1/2-z
-x,-y,-z
x,1/2-y,1/2+z
loop_
_atom_site_type_symbol
_atom_site_label
_atom_site_fract_x
_atom_site_fract_y
_atom_site_fract_z
Si Si1 0.755109 0.321848 0.930869
Si Si2 0.307641 0.075920 0.761245
Si Si3 0.035300 0.808635 0.919938
Si Si4 0.861082 0.793003 0.704355
Si Si5 0.119709 0.130854 0.711536
Si Si6 0.442046 0.592296 0.221735
Si Si7 0.408857 0.658443 0.437719
O O1 0.610457 0.249062 0.075490
O O2 0.886676 0.293591 0.742084
O O3 0.949189 0.346035 0.873043
O O4 0.572366 0.392528 0.043073
O O5 0.132402 0.075661 0.794128
O O6 0.324262 0.990616 0.788652
O O7 0.186712 0.130548 0.925216
O O8 0.261312 0.841729 0.816610
O O9 0.954047 0.731177 0.033901
O O10 0.811574 0.716434 0.801086
O O11 0.615236 0.843983 0.871944
O O12 0.303899 0.098360 0.507481
O O13 0.857950 0.127725 0.846776
O O14 0.501456 0.605989 0.287700
#
# Coordination Sequence:
#
# PCOD8125919 Si02
#       7
#     4   4   4   4   4   4   4
#     4  11  22  39  59  89 124 160 200 250 304 360
#     4  11  22  38  58  96 125 150 205 253 301 360
#     4  11  21  37  65  89 122 157 195 256 313 340
#     4  10  22  41  58  90 125 154 204 248 293 369
#     4  10  21  36  60  89 119 153 197 251 305 349
#     4  12  22  36  65  92 122 159 196 255 310 347
#     4  11  22  39  56  90 124 152 206 247 292 366
#
# _framework density 20.389928999999999
#
# number of rings (size 3 to 8) (size 9 to 14) (size 15 to 20)
#    0.000    1.143    8.571    0.857    4.000    0.000 
#    2.571    0.714    0.000    1.714    0.000    0.000 
#    0.000    0.000    0.000    0.000    0.000    0.000 
#
# Total GULP energy -347046.391097 kJ/mol
# GULP energy per Si atom -12394.513968 kJ/mol
# Density = 2.034352 g / cm^3
# Si number density = 20.389929 Si / 1000 Ang^3
#
#
#
# Elastic Constant Matrix: (Units=GPa)
#
#
# Indices 1 2 3 4 5 6 
#
# 1 87.7782 2.3152 30.8563 0.0000 -27.0028 0.0000
# 2 2.3152 26.7232 13.8963 0.0000 -1.5015 0.0000
# 3 30.8563 13.8963 72.2462 0.0000 -2.8226 0.0000
# 4 0.0000 0.0000 0.0000 17.8615 0.0000 -1.5865
# 5 -27.0028 -1.5015 -2.8226 0.0000 37.8013 0.0000
# 6 0.0000 0.0000 0.0000 -1.5865 0.0000 17.3560
#
#
#
# Elastic Compliance Matrix: (Units=1/GPa)
#
#
# Indices 1 2 3 4 5 6 
#
# 1 0.017799 0.003168 -0.007732 0.000000 0.012263 0.000000
# 2 0.003168 0.042186 -0.009341 0.000000 0.003241 0.000000
# 3 -0.007732 -0.009341 0.018765 0.000000 -0.004493 0.000000
# 4 0.000000 0.000000 0.000000 0.056444 0.000000 0.005159
# 5 0.012263 0.003241 -0.004493 0.000000 0.035007 0.000000
# 6 0.000000 0.000000 0.000000 0.005159 0.000000 0.058089
#
#
# Mechanical properties :
#
#
# Convention : Reuss Voigt Hill
#
# Bulk Modulus (GPa) = 19.63099 31.20925 25.42012
# Shear Modulus (GPa) = 18.30961 23.91575 21.11268
#
# Velocity S-wave (km/s) = 2.99987 3.42851 3.22133
# Velocity P-wave (km/s) = 4.65270 5.56887 5.13128
#
# Compressibility (1/GPa) = 0.05093987
#
# Stress axis : x y z
#
# Youngs Moduli (GPa) = 56.18172 23.70480 53.29046
#
# Poissons Ratio (x) = -0.07509 0.41206
# Poissons Ratio (y) = -0.17797 0.49776
# Poissons Ratio (z) = 0.43441 0.22142
#
# Static dielectric constant tensor:
#      x y z
#    x 3.802660 0.000000 -0.229730 
#    y 0.000000 3.347910 0.000000 
#    z -0.229730 0.000000 4.097550 
# 
# 
# High freq. dielectric constant tensor:
#      x y z
#    x 1.783330 0.000000 -0.015110 
#    y 0.000000 1.753680 0.000000 
#    z -0.015110 0.000000 1.811860 
# 
# From -- ./inp_files/45273.got.cif
#   From: 2010.03.12/outbox.cif.g09.slc.cpg/sg14_23_cif.got.tgz:45273.got - 2010.03.31 13:35:05.
