data_PCOD8125125
_publ_section_title
;
Structure prediction by ZEFSAII (Michael W. Deem and Ramdas Pophale) SiO2 
 PCOD8125125
Probable space group: P 21/C
;
_chemical_formula_sum "Si O2"
_cell_formula_units_Z 32
_cell_length_a 27.358878
_cell_length_b 12.424948
_cell_length_c 13.681933
_cell_angle_alpha 90.000000
_cell_angle_beta 159.244236
_cell_angle_gamma 90.000000
_cell_volume 1648.222316
_symmetry_space_group_name_H-M "P 21/C"
_symmetry_group_IT_number 14
_symmetry_cell_setting 'monoclinic'
loop_
_space_group_symop_operation_xyz
x,y,z
-x,1/2+y,1/2-z
-x,-y,-z
x,1/2-y,1/2+z
loop_
_atom_site_type_symbol
_atom_site_label
_atom_site_fract_x
_atom_site_fract_y
_atom_site_fract_z
Si Si1 0.708995 0.794599 0.571573
Si Si2 0.871987 0.081224 0.468478
Si Si3 0.660711 0.934783 0.981265
Si Si4 0.371615 0.043876 0.428683
Si Si5 0.971383 0.277553 0.552579
Si Si6 0.034043 0.799065 0.177216
Si Si7 0.261208 0.320683 0.554513
Si Si8 0.096589 0.914755 0.896348
O O1 0.653013 0.683690 0.517740
O O2 0.631910 0.897985 0.471730
O O3 0.680654 0.781961 0.400685
O O4 0.872001 0.805739 0.898149
O O5 0.861257 0.189041 0.383073
O O6 0.885897 0.112540 0.608740
O O7 0.732367 0.015677 0.190531
O O8 0.003049 0.010844 0.680437
O O9 0.511562 0.979926 0.675431
O O10 0.748828 0.918871 0.044496
O O11 0.358885 0.139403 0.324559
O O12 0.251936 0.955942 0.196449
O O13 0.934529 0.322668 0.377136
O O14 0.966006 0.377895 0.616215
O O15 0.116540 0.215350 0.828899
O O16 0.091561 0.680952 0.308862
#
# Coordination Sequence:
#
# PCOD8125125 Si02
#       8
#     4   4   4   4   4   4   4   4
#     4   9  20  37  57  90 120 153 199 242 307 341
#     4  11  20  37  58  87 114 156 197 247 297 350
#     4  10  24  37  61  87 120 159 202 235 306 352
#     4  12  21  40  62  88 123 159 200 250 284 370
#     4  10  21  36  60  93 121 145 201 265 285 353
#     4  10  20  37  57  89 120 152 196 252 300 342
#     4   9  20  39  62  88 117 162 196 249 292 356
#     4  11  21  34  64  87 113 157 205 239 307 340
#
# _framework density 19.414857000000001
#
# number of rings (size 3 to 8) (size 9 to 14) (size 15 to 20)
#    0.750    1.000    3.750    1.125    1.750    3.500 
#    0.000    0.000    0.000    1.500    0.000    0.000 
#    0.000    0.000    0.000    0.000    0.000    0.000 
#
# Total GULP energy -396531.986354 kJ/mol
# GULP energy per Si atom -12391.624574 kJ/mol
# Density = 1.937067 g / cm^3
# Si number density = 19.414857 Si / 1000 Ang^3
#
#
#
# Elastic Constant Matrix: (Units=GPa)
#
#
# Indices 1 2 3 4 5 6 
#
# 1 72.8944 5.7025 19.5979 0.0000 -10.7077 0.0000
# 2 5.7025 39.4057 12.7696 0.0000 4.7223 0.0000
# 3 19.5979 12.7696 86.2280 0.0000 1.4996 0.0000
# 4 0.0000 0.0000 0.0000 27.7926 0.0000 -2.7841
# 5 -10.7077 4.7223 1.4996 0.0000 19.9550 0.0000
# 6 0.0000 0.0000 0.0000 -2.7841 0.0000 29.1084
#
#
#
# Elastic Compliance Matrix: (Units=1/GPa)
#
#
# Indices 1 2 3 4 5 6 
#
# 1 0.016248 -0.002357 -0.003510 0.000000 0.009540 0.000000
# 2 -0.002357 0.027740 -0.003441 0.000000 -0.007571 0.000000
# 3 -0.003510 -0.003441 0.012940 0.000000 -0.002041 0.000000
# 4 0.000000 0.000000 0.000000 0.036329 0.000000 0.003475
# 5 0.009540 -0.007571 -0.002041 0.000000 0.057177 0.000000
# 6 0.000000 0.000000 0.000000 0.003475 0.000000 0.034687
#
#
# Mechanical properties :
#
#
# Convention : Reuss Voigt Hill
#
# Bulk Modulus (GPa) = 26.10080 30.51870 28.30975
# Shear Modulus (GPa) = 23.09397 26.06839 24.58118
#
# Velocity S-wave (km/s) = 3.45265 3.66827 3.56209
# Velocity P-wave (km/s) = 5.41916 5.80474 5.61526
#
# Compressibility (1/GPa) = 0.03831301
#
# Stress axis : x y z
#
# Youngs Moduli (GPa) = 61.54678 36.04848 77.28056
#
# Poissons Ratio (x) = 0.08497 0.27123
# Poissons Ratio (y) = 0.14508 0.26590
# Poissons Ratio (z) = 0.21601 0.12403
#
# Static dielectric constant tensor:
#      x y z
#    x 3.479810 0.000000 -0.150360 
#    y 0.000000 3.549540 0.000000 
#    z -0.150360 0.000000 3.274930 
# 
# 
# High freq. dielectric constant tensor:
#      x y z
#    x 1.747830 0.000000 -0.014490 
#    y 0.000000 1.756210 0.000000 
#    z -0.014490 0.000000 1.726920 
# 
# From -- ./inp_files/52328.got.cif
#   From: 2010.03.12/outbox.cif.g09.slc.cpg/sg14_27_cif.got.tgz:52328.got - 2010.03.31 13:35:05.
