data_PCOD8125648
_publ_section_title
;
Structure prediction by ZEFSAII (Michael W. Deem and Ramdas Pophale) SiO2 
 PCOD8125648
Probable space group: P 21/C
;
_chemical_formula_sum "Si O2"
_cell_formula_units_Z 32
_cell_length_a 10.278021
_cell_length_b 9.319003
_cell_length_c 27.804954
_cell_angle_alpha 90.000000
_cell_angle_beta 144.608451
_cell_angle_gamma 90.000000
_cell_volume 1542.411998
_symmetry_space_group_name_H-M "P 21/C"
_symmetry_group_IT_number 14
_symmetry_cell_setting 'monoclinic'
loop_
_space_group_symop_operation_xyz
x,y,z
-x,1/2+y,1/2-z
-x,-y,-z
x,1/2-y,1/2+z
loop_
_atom_site_type_symbol
_atom_site_label
_atom_site_fract_x
_atom_site_fract_y
_atom_site_fract_z
Si Si1 0.201673 0.397047 0.834722
Si Si2 0.121211 0.132871 0.745173
Si Si3 0.805018 0.471607 0.335575
Si Si4 0.047178 0.217356 0.616985
Si Si5 0.420154 0.128525 0.658110
Si Si6 0.443962 0.934154 0.799119
Si Si7 0.001610 0.179200 0.374626
Si Si8 0.295810 0.975700 0.527483
O O1 0.173953 0.287072 0.782581
O O2 0.108093 0.316454 0.853509
O O3 0.456331 0.447709 0.917921
O O4 0.060200 0.540711 0.779494
O O5 0.019720 0.145045 0.660802
O O6 0.352321 0.041182 0.812571
O O7 0.957198 0.612493 0.377160
O O8 0.646797 0.454916 0.241055
O O9 0.650600 0.484621 0.336323
O O10 0.974184 0.337519 0.389043
O O11 0.278305 0.160830 0.663400
O O12 0.842182 0.172330 0.520289
O O13 0.478855 0.284340 0.652784
O O14 0.293312 0.026903 0.582088
O O15 0.244872 0.895306 0.700790
O O16 0.172613 0.097501 0.460205
#
# Coordination Sequence:
#
# PCOD8125648 Si02
#       8
#     4   4   4   4   4   4   4   4
#     4  11  26  42  66  89 127 169 222 252 312 369
#     4  11  23  43  65  95 120 165 217 269 296 382
#     4  10  20  40  68  94 121 166 212 262 310 372
#     4  11  22  40  63  99 129 158 210 266 321 375
#     4  10  21  38  69  95 124 169 211 255 321 384
#     4   9  19  40  65  94 124 160 216 262 309 365
#     4  10  22  42  64  91 132 170 207 260 315 376
#     4  12  23  43  62  94 134 172 199 260 326 379
#
# _framework density 20.746728000000001
#
# number of rings (size 3 to 8) (size 9 to 14) (size 15 to 20)
#    0.000    1.500    3.750    1.500    7.000    0.000 
#    6.750    1.875    0.000    0.000    0.000    0.000 
#    0.000    0.000    0.000    0.000    0.000    0.000 
#
# Total GULP energy -396774.723265 kJ/mol
# GULP energy per Si atom -12399.210102 kJ/mol
# Density = 2.069951 g / cm^3
# Si number density = 20.746728 Si / 1000 Ang^3
#
#
#
# Elastic Constant Matrix: (Units=GPa)
#
#
# Indices 1 2 3 4 5 6 
#
# 1 62.9931 47.5292 25.6975 0.0000 7.0761 0.0000
# 2 47.5292 148.4149 56.0841 0.0000 8.8600 0.0000
# 3 25.6975 56.0841 92.9823 0.0000 3.0089 0.0000
# 4 0.0000 0.0000 0.0000 38.3642 0.0000 3.9151
# 5 7.0761 8.8600 3.0089 0.0000 28.6257 0.0000
# 6 0.0000 0.0000 0.0000 3.9151 0.0000 42.1158
#
#
#
# Elastic Compliance Matrix: (Units=1/GPa)
#
#
# Indices 1 2 3 4 5 6 
#
# 1 0.021604 -0.005837 -0.002344 0.000000 -0.003287 0.000000
# 2 -0.005837 0.010438 -0.004641 0.000000 -0.001300 0.000000
# 3 -0.002344 -0.004641 0.014185 0.000000 0.000525 0.000000
# 4 0.000000 0.000000 0.000000 0.026316 0.000000 -0.002446
# 5 -0.003287 -0.001300 0.000525 0.000000 0.036094 0.000000
# 6 0.000000 0.000000 0.000000 -0.002446 0.000000 0.023971
#
#
# Mechanical properties :
#
#
# Convention : Reuss Voigt Hill
#
# Bulk Modulus (GPa) = 48.58065 62.55689 55.56877
# Shear Modulus (GPa) = 30.28245 33.49311 31.88778
#
# Velocity S-wave (km/s) = 3.82465 4.02229 3.92472
# Velocity P-wave (km/s) = 6.55521 7.19652 6.88334
#
# Compressibility (1/GPa) = 0.02058433
#
# Stress axis : x y z
#
# Youngs Moduli (GPa) = 46.28776 95.80006 70.49790
#
# Poissons Ratio (x) = 0.55915 0.16524
# Poissons Ratio (y) = 0.27016 0.32718
# Poissons Ratio (z) = 0.10849 0.44461
#
# Static dielectric constant tensor:
#      x y z
#    x 3.666060 0.000000 0.192900 
#    y 0.000000 4.001740 0.000000 
#    z 0.192900 0.000000 3.535600 
# 
# 
# High freq. dielectric constant tensor:
#      x y z
#    x 1.808100 0.000000 0.012150 
#    y 0.000000 1.828810 0.000000 
#    z 0.012150 0.000000 1.785490 
# 
# From -- ./inp_files/79975.got.cif
#   From: 2010.03.12/outbox.cif.g09.slc.cpg/sg14_40_cif.got.tgz:79975.got - 2010.03.31 13:35:05.
