data_PCOD8125948
_publ_section_title
;
Structure prediction by ZEFSAII (Michael W. Deem and Ramdas Pophale) SiO2 
 PCOD8125948
Probable space group: P 21/C
;
_chemical_formula_sum "Si O2"
_cell_formula_units_Z 28
_cell_length_a 8.630523
_cell_length_b 15.604620
_cell_length_c 19.730714
_cell_angle_alpha 90.000000
_cell_angle_beta 29.671914
_cell_angle_gamma 90.000000
_cell_volume 1315.428051
_symmetry_space_group_name_H-M "P 21/C"
_symmetry_group_IT_number 14
_symmetry_cell_setting 'monoclinic'
loop_
_space_group_symop_operation_xyz
x,y,z
-x,1/2+y,1/2-z
-x,-y,-z
x,1/2-y,1/2+z
loop_
_atom_site_type_symbol
_atom_site_label
_atom_site_fract_x
_atom_site_fract_y
_atom_site_fract_z
Si Si1 0.278527 0.935548 0.886669
Si Si2 0.936286 0.238209 0.847930
Si Si3 0.894650 0.241203 0.107435
Si Si4 0.628975 0.170148 0.586779
Si Si5 0.284655 0.554528 0.533520
Si Si6 0.408147 0.987367 0.698390
Si Si7 0.437910 0.805098 0.633026
O O1 0.117085 0.844283 0.933136
O O2 0.514564 0.963937 0.735859
O O3 0.443088 0.934520 0.898373
O O4 0.000000 0.000000 0.000000
O O5 0.756949 0.148477 0.919902
O O6 0.822674 0.285986 0.823923
O O7 0.307476 0.223445 0.703632
O O8 0.864943 0.299140 0.938937
O O9 0.786192 0.318155 0.100303
O O10 0.658292 0.235164 0.259168
O O11 0.233971 0.260903 0.010119
O O12 0.580167 0.068175 0.599861
O O13 0.500000 0.500000 0.500000
O O14 0.960141 0.503714 0.654146
O O15 0.474280 0.907733 0.623953
#
# Coordination Sequence:
#
# PCOD8125948 Si02
#       7
#     4   4   4   4   4   4   4
#     4   9  19  37  60  89 121 158 211 263 300 373
#     4  11  24  40  66  94 133 167 213 268 323 381
#     4  11  23  40  67  91 127 171 217 262 322 383
#     4  11  23  44  66  93 127 175 216 260 326 389
#     4  10  21  36  65  94 121 167 218 261 315 377
#     4   9  23  40  61  91 129 166 210 266 320 379
#     4  11  25  41  64  96 131 168 216 272 317 380
#
# _framework density 21.285847
#
# number of rings (size 3 to 8) (size 9 to 14) (size 15 to 20)
#    0.000    1.714    1.429    1.714   12.000    1.143 
#    0.000    0.000    0.000    0.000    0.000    0.000 
#    0.000    0.000    0.000    0.000    0.000    0.000 
#
# Total GULP energy -347185.792100 kJ/mol
# GULP energy per Si atom -12399.492575 kJ/mol
# Density = 2.123740 g / cm^3
# Si number density = 21.285847 Si / 1000 Ang^3
#
#
#
# Elastic Constant Matrix: (Units=GPa)
#
#
# Indices 1 2 3 4 5 6 
#
# 1 90.6951 20.8008 11.5478 0.0000 9.8585 0.0000
# 2 20.8008 95.8163 25.8739 0.0000 13.3535 0.0000
# 3 11.5478 25.8739 35.4705 0.0000 2.0837 0.0000
# 4 0.0000 0.0000 0.0000 21.6258 0.0000 3.5110
# 5 9.8585 13.3535 2.0837 0.0000 27.0629 0.0000
# 6 0.0000 0.0000 0.0000 3.5110 0.0000 35.4881
#
#
#
# Elastic Compliance Matrix: (Units=1/GPa)
#
#
# Indices 1 2 3 4 5 6 
#
# 1 0.012072 -0.001404 -0.002700 0.000000 -0.003497 0.000000
# 2 -0.001404 0.014102 -0.009494 0.000000 -0.005716 0.000000
# 3 -0.002700 -0.009494 0.035826 0.000000 0.002910 0.000000
# 4 0.000000 0.000000 0.000000 0.046996 0.000000 -0.004649
# 5 -0.003497 -0.005716 0.002910 0.000000 0.040821 0.000000
# 6 0.000000 0.000000 0.000000 -0.004649 0.000000 0.028638
#
#
# Mechanical properties :
#
#
# Convention : Reuss Voigt Hill
#
# Bulk Modulus (GPa) = 28.73315 37.60298 33.16806
# Shear Modulus (GPa) = 23.01476 27.75265 25.38370
#
# Velocity S-wave (km/s) = 3.29176 3.61474 3.45703
# Velocity P-wave (km/s) = 5.28920 5.92671 5.61701
#
# Compressibility (1/GPa) = 0.03480301
#
# Stress axis : x y z
#
# Youngs Moduli (GPa) = 82.83678 70.91378 27.91295
#
# Poissons Ratio (x) = 0.09957 0.07538
# Poissons Ratio (y) = 0.11631 0.26499
# Poissons Ratio (z) = 0.22370 0.67322
#
# Static dielectric constant tensor:
#      x y z
#    x 4.245740 0.000000 0.307390 
#    y 0.000000 3.954310 0.000000 
#    z 0.307390 0.000000 3.720160 
# 
# 
# High freq. dielectric constant tensor:
#      x y z
#    x 1.838410 0.000000 0.011440 
#    y 0.000000 1.848600 0.000000 
#    z 0.011440 0.000000 1.818080 
# 
# From -- ./inp_files/65900.got.cif
#   From: 2010.03.12/outbox.cif.g09.slc.cpg/sg14_33_cif.got.tgz:65900.got - 2010.03.31 13:35:05.
