data_PCOD8125825
_publ_section_title
;
Structure prediction by ZEFSAII (Michael W. Deem and Ramdas Pophale) SiO2 
 PCOD8125825
Probable space group: P 21/C
;
_chemical_formula_sum "Si O2"
_cell_formula_units_Z 20
_cell_length_a 11.512391
_cell_length_b 15.311636
_cell_length_c 8.884465
_cell_angle_alpha 90.000000
_cell_angle_beta 141.306283
_cell_angle_gamma 90.000000
_cell_volume 979.056052
_symmetry_space_group_name_H-M "P 21/C"
_symmetry_group_IT_number 14
_symmetry_cell_setting 'monoclinic'
loop_
_space_group_symop_operation_xyz
x,y,z
-x,1/2+y,1/2-z
-x,-y,-z
x,1/2-y,1/2+z
loop_
_atom_site_type_symbol
_atom_site_label
_atom_site_fract_x
_atom_site_fract_y
_atom_site_fract_z
Si Si1 0.736126 0.251860 0.226697
Si Si2 0.178346 0.496802 0.498113
Si Si3 0.895989 0.365414 0.135935
Si Si4 0.777740 0.537054 0.128578
Si Si5 0.557642 0.138270 0.808164
O O1 0.878603 0.299568 0.258871
O O2 0.858485 0.181746 0.441158
O O3 0.631191 0.318225 0.229378
O O4 0.577641 0.202501 0.969413
O O5 0.283182 0.472878 0.759174
O O6 0.322723 0.549793 0.540962
O O7 0.104548 0.407561 0.343461
O O8 0.998916 0.560240 0.349362
O O9 0.747648 0.444398 0.011509
O O10 0.658403 0.612838 0.928501
#
# Coordination Sequence:
#
# PCOD8125825 Si02
#       5
#     4   4   4   4   4
#     4  10  21  34  56  85 113 142 169 246 277 302
#     4   9  18  36  61  80 102 151 189 213 262 343
#     4   9  19  37  57  78 112 140 187 217 279 317
#     4   9  18  35  61  79 103 148 189 211 259 349
#     4  11  20  37  60  76 114 145 183 222 278 315
#
# _framework density 20.427838000000001
#
# number of rings (size 3 to 8) (size 9 to 14) (size 15 to 20)
#    1.200    1.200    2.000    0.600    0.000    1.600 
#    0.000    8.000    0.000    0.000    0.000    0.000 
#    0.000    0.000    0.000    0.000    0.000    0.000 
#
# Total GULP energy -247840.314479 kJ/mol
# GULP energy per Si atom -12392.015724 kJ/mol
# Density = 2.038134 g / cm^3
# Si number density = 20.427838 Si / 1000 Ang^3
#
#
#
# Elastic Constant Matrix: (Units=GPa)
#
#
# Indices 1 2 3 4 5 6 
#
# 1 28.9362 10.5374 27.3381 0.0000 -9.2881 0.0000
# 2 10.5374 77.4376 51.2976 0.0000 -5.4646 0.0000
# 3 27.3381 51.2976 103.8869 0.0000 -4.0054 0.0000
# 4 0.0000 0.0000 0.0000 46.2762 0.0000 -8.1433
# 5 -9.2881 -5.4646 -4.0054 0.0000 26.4106 0.0000
# 6 0.0000 0.0000 0.0000 -8.1433 0.0000 7.0754
#
#
#
# Elastic Compliance Matrix: (Units=1/GPa)
#
#
# Indices 1 2 3 4 5 6 
#
# 1 0.053075 0.004167 -0.015361 0.000000 0.017198 0.000000
# 2 0.004167 0.019690 -0.010668 0.000000 0.003922 0.000000
# 3 -0.015361 -0.010668 0.018752 0.000000 -0.004766 0.000000
# 4 0.000000 0.000000 0.000000 0.027098 0.000000 0.031188
# 5 0.017198 0.003922 -0.004766 0.000000 0.044001 0.000000
# 6 0.000000 0.000000 0.000000 0.031188 0.000000 0.177230
#
#
# Mechanical properties :
#
#
# Convention : Reuss Voigt Hill
#
# Bulk Modulus (GPa) = 20.92367 43.17854 32.05111
# Shear Modulus (GPa) = 12.51560 24.02492 18.27026
#
# Velocity S-wave (km/s) = 2.47791 3.43313 2.99386
# Velocity P-wave (km/s) = 4.29554 6.07439 5.26070
#
# Compressibility (1/GPa) = 0.04779276
#
# Stress axis : x y z
#
# Youngs Moduli (GPa) = 18.84139 50.78634 53.32675
#
# Poissons Ratio (x) = -0.21165 0.81918
# Poissons Ratio (y) = -0.07852 0.56890
# Poissons Ratio (z) = 0.28943 0.54180
#
# Static dielectric constant tensor:
#      x y z
#    x 3.207670 0.000000 -0.137490 
#    y 0.000000 3.735460 0.000000 
#    z -0.137490 0.000000 3.554300 
# 
# 
# High freq. dielectric constant tensor:
#      x y z
#    x 1.757210 0.000000 -0.011280 
#    y 0.000000 1.796990 0.000000 
#    z -0.011280 0.000000 1.793030 
# 
# From -- ./inp_files/8830.got.cif
#   From: 2010.03.12/outbox.cif.g09.slc.cpg/sg14_5_cif.got.tgz:8830.got - 2010.03.31 13:35:05.
