data_PCOD8125255
_publ_section_title
;
Structure prediction by ZEFSAII (Michael W. Deem and Ramdas Pophale) SiO2 
 PCOD8125255
Probable space group: P 21/C
;
_chemical_formula_sum "Si O2"
_cell_formula_units_Z 24
_cell_length_a 13.829472
_cell_length_b 9.676724
_cell_length_c 14.366550
_cell_angle_alpha 90.000000
_cell_angle_beta 39.452860
_cell_angle_gamma 90.000000
_cell_volume 1221.695984
_symmetry_space_group_name_H-M "P 21/C"
_symmetry_group_IT_number 14
_symmetry_cell_setting 'monoclinic'
loop_
_space_group_symop_operation_xyz
x,y,z
-x,1/2+y,1/2-z
-x,-y,-z
x,1/2-y,1/2+z
loop_
_atom_site_type_symbol
_atom_site_label
_atom_site_fract_x
_atom_site_fract_y
_atom_site_fract_z
Si Si1 0.693415 0.729859 0.893278
Si Si2 0.307172 0.736559 0.433269
Si Si3 0.371346 0.153155 0.754711
Si Si4 0.368952 0.850759 0.690147
Si Si5 0.185082 0.056658 0.063896
Si Si6 0.170920 0.557306 0.168801
O O1 0.717325 0.726976 0.764173
O O2 0.775023 0.866731 0.869827
O O3 0.768721 0.597635 0.886437
O O4 0.513663 0.735718 0.048530
O O5 0.484655 0.756562 0.323037
O O6 0.286305 0.726753 0.337234
O O7 0.252750 0.596013 0.522187
O O8 0.205979 0.862570 0.546706
O O9 0.426879 0.002575 0.678384
O O10 0.256988 0.142420 0.925492
O O11 0.249542 0.861103 0.695209
O O12 0.006730 0.051287 0.179258
#
# Coordination Sequence:
#
# PCOD8125255 Si02
#       6
#     4   4   4   4   4   4
#     4  11  20  39  64  83 116 162 194 235 290 353
#     4  11  21  38  62  88 115 154 199 243 288 343
#     4  10  20  38  61  85 113 155 203 232 282 355
#     4  10  20  37  66  85 110 161 203 231 281 358
#     4  11  25  36  59  94 121 147 194 253 295 332
#     4  11  22  41  60  87 121 154 197 240 291 349
#
# _framework density 19.644819999999999
#
# number of rings (size 3 to 8) (size 9 to 14) (size 15 to 20)
#    0.000    1.333    5.000    2.000    0.000    8.000 
#    0.000    0.000    0.000    4.000    0.000    0.000 
#    0.000    0.000    0.000    0.000    0.000    0.000 
#
# Total GULP energy -297714.991141 kJ/mol
# GULP energy per Si atom -12404.791298 kJ/mol
# Density = 1.960011 g / cm^3
# Si number density = 19.644820 Si / 1000 Ang^3
#
#
#
# Elastic Constant Matrix: (Units=GPa)
#
#
# Indices 1 2 3 4 5 6 
#
# 1 52.6212 10.0717 23.0312 0.0000 -18.5891 0.0000
# 2 10.0717 45.3141 23.5787 0.0000 -14.2236 0.0000
# 3 23.0312 23.5787 84.9619 0.0000 -22.0777 0.0000
# 4 0.0000 0.0000 0.0000 24.8461 0.0000 8.2027
# 5 -18.5891 -14.2236 -22.0777 0.0000 38.3399 0.0000
# 6 0.0000 0.0000 0.0000 8.2027 0.0000 24.9909
#
#
#
# Elastic Compliance Matrix: (Units=1/GPa)
#
#
# Indices 1 2 3 4 5 6 
#
# 1 0.024098 -0.000360 -0.004035 0.000000 0.009227 0.000000
# 2 -0.000360 0.027209 -0.005734 0.000000 0.006618 0.000000
# 3 -0.004035 -0.005734 0.015751 0.000000 0.004987 0.000000
# 4 0.000000 0.000000 0.000000 0.045139 0.000000 -0.014816
# 5 0.009227 0.006618 0.004987 0.000000 0.035883 0.000000
# 6 0.000000 0.000000 0.000000 -0.014816 0.000000 0.044878
#
#
# Mechanical properties :
#
#
# Convention : Reuss Voigt Hill
#
# Bulk Modulus (GPa) = 21.36752 32.91781 27.14266
# Shear Modulus (GPa) = 21.85168 26.04974 23.95071
#
# Velocity S-wave (km/s) = 3.33879 3.64543 3.49547
# Velocity P-wave (km/s) = 5.07582 5.87467 5.48979
#
# Compressibility (1/GPa) = 0.04680001
#
# Stress axis : x y z
#
# Youngs Moduli (GPa) = 41.49686 36.75251 63.48922
#
# Poissons Ratio (x) = 0.01325 0.25616
# Poissons Ratio (y) = 0.01496 0.36403
# Poissons Ratio (z) = 0.16743 0.21073
#
# Static dielectric constant tensor:
#      x y z
#    x 3.556090 0.000000 0.162160 
#    y 0.000000 3.501590 0.000000 
#    z 0.162160 0.000000 3.667080 
# 
# 
# High freq. dielectric constant tensor:
#      x y z
#    x 1.762280 0.000000 0.005570 
#    y 0.000000 1.752110 0.000000 
#    z 0.005570 0.000000 1.772390 
# 
# From -- ./inp_files/46362.got.cif
#   From: 2010.03.12/outbox.cif.g09.slc.cpg/sg14_24_cif.got.tgz:46362.got - 2010.03.31 13:35:05.
