data_PCOD8125902
_publ_section_title
;
Structure prediction by ZEFSAII (Michael W. Deem and Ramdas Pophale) SiO2 
 PCOD8125902
Probable space group: P 21/C
;
_chemical_formula_sum "Si O2"
_cell_formula_units_Z 32
_cell_length_a 11.099280
_cell_length_b 8.926809
_cell_length_c 33.021321
_cell_angle_alpha 90.000000
_cell_angle_beta 27.488842
_cell_angle_gamma 90.000000
_cell_volume 1510.179550
_symmetry_space_group_name_H-M "P 21/C"
_symmetry_group_IT_number 14
_symmetry_cell_setting 'monoclinic'
loop_
_space_group_symop_operation_xyz
x,y,z
-x,1/2+y,1/2-z
-x,-y,-z
x,1/2-y,1/2+z
loop_
_atom_site_type_symbol
_atom_site_label
_atom_site_fract_x
_atom_site_fract_y
_atom_site_fract_z
Si Si1 0.314789 0.193143 0.171339
Si Si2 0.624237 0.703929 0.624610
Si Si3 0.582252 0.667072 0.510720
Si Si4 0.447822 0.883294 0.821069
Si Si5 0.174007 0.125859 0.362670
Si Si6 0.817183 0.365261 0.300776
Si Si7 0.696320 0.166830 0.985666
Si Si8 0.026178 0.315107 0.051298
O O1 0.416125 0.226476 0.186464
O O2 0.115075 0.316106 0.214884
O O3 0.162573 0.036914 0.217990
O O4 0.565961 0.190340 0.067890
O O5 0.669241 0.527918 0.620736
O O6 0.629186 0.793672 0.664932
O O7 0.346325 0.725586 0.684749
O O8 0.854961 0.765827 0.527246
O O9 0.319445 0.649520 0.615084
O O10 0.497470 0.725670 0.491798
O O11 0.740753 0.509544 0.463137
O O12 0.769967 0.791555 0.473226
O O13 0.656012 0.936188 0.725328
O O14 0.225247 0.787291 0.865638
O O15 0.967982 0.244858 0.405962
O O16 0.038569 0.990655 0.427375
#
# Coordination Sequence:
#
# PCOD8125902 Si02
#       8
#     4   4   4   4   4   4   4   4
#     4  10  21  36  58  83 114 154 194 236 291 349
#     4  10  22  42  61  82 119 158 196 239 293 363
#     4   9  20  39  60  83 115 159 199 233 288 356
#     4  11  23  40  60  84 119 158 195 238 296 362
#     4  12  24  37  59  92 120 148 197 256 298 337
#     4   9  20  37  58  84 112 150 193 238 288 345
#     4  10  21  38  60  86 119 157 196 239 291 353
#     4  11  23  39  62  88 115 156 200 242 298 352
#
# _framework density 21.189533000000001
#
# number of rings (size 3 to 8) (size 9 to 14) (size 15 to 20)
#    0.000    1.750    0.000    4.500    0.000    6.500 
#    0.000    1.250    0.000    0.000    0.000    0.000 
#    0.000    0.000    0.000    0.000    0.000    0.000 
#
# Total GULP energy -396862.602289 kJ/mol
# GULP energy per Si atom -12401.956322 kJ/mol
# Density = 2.114130 g / cm^3
# Si number density = 21.189533 Si / 1000 Ang^3
#
#
#
# Elastic Constant Matrix: (Units=GPa)
#
#
# Indices 1 2 3 4 5 6 
#
# 1 91.7061 14.4396 23.5907 0.0000 21.9274 0.0000
# 2 14.4396 46.2072 12.6605 0.0001 5.9830 0.0000
# 3 23.5907 12.6605 71.5463 0.0000 11.1232 -0.0001
# 4 0.0000 0.0001 0.0000 29.3387 0.0000 -1.7000
# 5 21.9274 5.9830 11.1232 0.0000 26.6451 0.0000
# 6 0.0000 0.0000 -0.0001 -1.7000 0.0000 32.5098
#
#
#
# Elastic Compliance Matrix: (Units=1/GPa)
#
#
# Indices 1 2 3 4 5 6 
#
# 1 0.014428 -0.002439 -0.002743 0.000000 -0.010181 0.000000
# 2 -0.002439 0.023496 -0.003043 0.000000 -0.001998 0.000000
# 3 -0.002743 -0.003043 0.016001 0.000000 -0.003739 0.000000
# 4 0.000000 0.000000 0.000000 0.034188 0.000000 0.001788
# 5 -0.010181 -0.001998 -0.003739 0.000000 0.047918 0.000000
# 6 0.000000 0.000000 0.000000 0.001788 0.000000 0.030853
#
#
# Mechanical properties :
#
#
# Convention : Reuss Voigt Hill
#
# Bulk Modulus (GPa) = 26.68369 34.53791 30.61080
# Shear Modulus (GPa) = 25.53264 28.28332 26.90798
#
# Velocity S-wave (km/s) = 3.47503 3.65742 3.56739
# Velocity P-wave (km/s) = 5.35922 5.84556 5.60767
#
# Compressibility (1/GPa) = 0.03747608
#
# Stress axis : x y z
#
# Youngs Moduli (GPa) = 69.30782 42.55987 62.49536
#
# Poissons Ratio (x) = 0.10380 0.17143
# Poissons Ratio (y) = 0.16904 0.19017
# Poissons Ratio (z) = 0.19011 0.12951
#
# Static dielectric constant tensor:
#      x y z
#    x 4.001080 0.000000 0.109070 
#    y 0.000000 3.652360 0.000000 
#    z 0.109070 0.000000 3.608520 
# 
# 
# High freq. dielectric constant tensor:
#      x y z
#    x 1.847840 0.000000 0.006920 
#    y 0.000000 1.817010 0.000000 
#    z 0.006920 0.000000 1.819640 
# 
# From -- ./inp_files/80000.got.cif
#   From: 2010.03.12/outbox.cif.g09.slc.cpg/sg14_40_cif.got.tgz:80000.got - 2010.03.31 13:35:05.
