data_PCOD8125869
_publ_section_title
;
Structure prediction by ZEFSAII (Michael W. Deem and Ramdas Pophale) SiO2 
 PCOD8125869
Probable space group: P 21/C
;
_chemical_formula_sum "Si O2"
_cell_formula_units_Z 24
_cell_length_a 4.973083
_cell_length_b 26.184694
_cell_length_c 9.481457
_cell_angle_alpha 90.000000
_cell_angle_beta 76.760329
_cell_angle_gamma 90.000000
_cell_volume 1201.845955
_symmetry_space_group_name_H-M "P 21/C"
_symmetry_group_IT_number 14
_symmetry_cell_setting 'monoclinic'
loop_
_space_group_symop_operation_xyz
x,y,z
-x,1/2+y,1/2-z
-x,-y,-z
x,1/2-y,1/2+z
loop_
_atom_site_type_symbol
_atom_site_label
_atom_site_fract_x
_atom_site_fract_y
_atom_site_fract_z
Si Si1 0.100464 0.695966 0.345425
Si Si2 0.579122 0.144971 0.802938
Si Si3 0.684406 0.551926 0.121770
Si Si4 0.941156 0.788832 0.172717
Si Si5 0.744959 0.061229 0.568257
Si Si6 0.402358 0.369279 0.634551
O O1 0.416371 0.675442 0.309966
O O2 0.019180 0.736167 0.236581
O O3 0.028792 0.721676 0.502362
O O4 0.914595 0.646855 0.337844
O O5 0.376924 0.192078 0.782855
O O6 0.584460 0.101425 0.684928
O O7 0.887092 0.166241 0.775375
O O8 0.505911 0.120400 0.963124
O O9 0.758015 0.493060 0.147863
O O10 0.597676 0.578665 0.277888
O O11 0.418178 0.555375 0.056561
O O12 0.945026 0.578611 0.011524
#
# Coordination Sequence:
#
# PCOD8125869 Si02
#       6
#     4   4   4   4   4   4
#     4  10  21  36  54  79 109 141 181 225 268 319
#     4  10  21  37  56  80 110 143 181 224 269 322
#     4  10  21  37  57  83 112 142 181 226 271 323
#     4  10  21  36  54  79 109 141 181 225 268 319
#     4  10  21  37  57  83 112 142 181 226 271 323
#     4  10  21  37  56  80 110 143 181 224 269 322
#
# _framework density 19.969282
#
# number of rings (size 3 to 8) (size 9 to 14) (size 15 to 20)
#    0.000    2.000    0.000    3.000    0.000    4.667 
#    0.000    0.000    0.000   12.000    0.000    0.000 
#    0.000    0.000    0.000    0.000    0.000    0.000 
#
# Total GULP energy -297552.639093 kJ/mol
# GULP energy per Si atom -12398.026629 kJ/mol
# Density = 1.992383 g / cm^3
# Si number density = 19.969282 Si / 1000 Ang^3
#
#
#
# Elastic Constant Matrix: (Units=GPa)
#
#
# Indices 1 2 3 4 5 6 
#
# 1 80.1219 -7.5926 4.3049 0.0000 1.8573 0.0000
# 2 -7.5926 27.0496 9.9624 0.0000 -0.8093 0.0000
# 3 4.3049 9.9624 33.4802 0.0000 2.5713 0.0000
# 4 0.0000 0.0000 0.0000 29.3252 0.0000 12.2988
# 5 1.8573 -0.8093 2.5713 0.0000 25.0861 0.0000
# 6 0.0000 0.0000 0.0000 12.2988 0.0000 16.5551
#
#
#
# Elastic Compliance Matrix: (Units=1/GPa)
#
#
# Indices 1 2 3 4 5 6 
#
# 1 0.013113 0.004798 -0.003075 0.000000 -0.000501 0.000000
# 2 0.004798 0.043448 -0.013734 0.000000 0.002454 0.000000
# 3 -0.003075 -0.013734 0.034640 0.000000 -0.003766 0.000000
# 4 0.000000 0.000000 0.000000 0.049533 0.000000 -0.036798
# 5 -0.000501 0.002454 -0.003766 0.000000 0.040365 0.000000
# 6 0.000000 0.000000 0.000000 -0.036798 0.000000 0.087741
#
#
# Mechanical properties :
#
#
# Convention : Reuss Voigt Hill
#
# Bulk Modulus (GPa) = 14.88580 17.11124 15.99852
# Shear Modulus (GPa) = 15.86024 23.12508 19.49266
#
# Velocity S-wave (km/s) = 2.82127 3.40668 3.12770
# Velocity P-wave (km/s) = 4.25244 4.90524 4.59046
#
# Compressibility (1/GPa) = 0.06717810
#
# Stress axis : x y z
#
# Youngs Moduli (GPa) = 76.26298 23.01625 28.86860
#
# Poissons Ratio (x) = -0.11044 0.08878
# Poissons Ratio (y) = -0.36593 0.39647
# Poissons Ratio (z) = 0.23453 0.31610
#
# Static dielectric constant tensor:
#      x y z
#    x 3.905790 0.000000 0.027330 
#    y 0.000000 3.400060 0.000000 
#    z 0.027330 0.000000 3.742200 
# 
# 
# High freq. dielectric constant tensor:
#      x y z
#    x 1.802220 0.000000 0.006540 
#    y 0.000000 1.763040 0.000000 
#    z 0.006540 0.000000 1.770270 
# 
# From -- ./inp_files/6236.got.cif
#   From: 2010.03.12/outbox.cif.g09.slc.cpg/sg14_4_cif.got.tgz:6236.got - 2010.03.31 13:35:05.
