data_PCOD8125781
_publ_section_title
;
Structure prediction by ZEFSAII (Michael W. Deem and Ramdas Pophale) SiO2 
 PCOD8125781
Probable space group: P 21/C
;
_chemical_formula_sum "Si O2"
_cell_formula_units_Z 28
_cell_length_a 12.599495
_cell_length_b 10.108681
_cell_length_c 21.885302
_cell_angle_alpha 90.000000
_cell_angle_beta 153.821391
_cell_angle_gamma 90.000000
_cell_volume 1229.722077
_symmetry_space_group_name_H-M "P 21/C"
_symmetry_group_IT_number 14
_symmetry_cell_setting 'monoclinic'
loop_
_space_group_symop_operation_xyz
x,y,z
-x,1/2+y,1/2-z
-x,-y,-z
x,1/2-y,1/2+z
loop_
_atom_site_type_symbol
_atom_site_label
_atom_site_fract_x
_atom_site_fract_y
_atom_site_fract_z
Si Si1 0.114688 0.125800 0.893504
Si Si2 0.138715 0.151784 0.768083
Si Si3 0.581701 0.881272 0.332955
Si Si4 0.953406 0.405334 0.864373
Si Si5 0.469945 0.402905 0.682182
Si Si6 0.393811 0.923611 0.363864
Si Si7 0.601496 0.190288 0.507491
O O1 0.213433 0.118408 0.875929
O O2 0.037333 0.275536 0.870815
O O3 0.882858 0.028983 0.776472
O O4 0.308358 0.066548 0.039663
O O5 0.375774 0.227142 0.863019
O O6 0.878408 0.232115 0.632502
O O7 0.115557 0.017925 0.718826
O O8 0.615397 0.730433 0.325650
O O9 0.433528 0.857391 0.318959
O O10 0.832106 0.951164 0.479722
O O11 0.440792 0.972369 0.212277
O O12 0.740148 0.379787 0.800834
O O13 0.430028 0.812051 0.435112
O O14 0.580283 0.041594 0.470666
#
# Coordination Sequence:
#
# PCOD8125781 Si02
#       7
#     4   4   4   4   4   4   4
#     4  10  24  41  66 101 129 177 218 275 337 410
#     4  11  24  39  69 101 136 175 217 276 342 416
#     4  11  23  46  67  94 128 184 227 278 339 392
#     4  11  23  45  67  94 137 177 216 278 350 395
#     4  11  25  44  68  94 134 179 233 283 330 401
#     4  10  20  43  66  89 134 174 215 267 347 398
#     4  10  22  40  66 101 136 176 215 277 340 412
#
# _framework density 22.769373000000002
#
# number of rings (size 3 to 8) (size 9 to 14) (size 15 to 20)
#    0.000    1.429    2.857    2.143    6.000    3.429 
#    2.571    0.000    0.000    0.000    0.000    0.000 
#    0.000    0.000    0.000    0.000    0.000    0.000 
#
# Total GULP energy -346989.133149 kJ/mol
# GULP energy per Si atom -12392.469041 kJ/mol
# Density = 2.271755 g / cm^3
# Si number density = 22.769373 Si / 1000 Ang^3
#
#
#
# Elastic Constant Matrix: (Units=GPa)
#
#
# Indices 1 2 3 4 5 6 
#
# 1 53.4090 25.8565 26.1032 0.0000 3.4357 0.0000
# 2 25.8565 64.6738 43.0151 0.0000 -12.9458 0.0000
# 3 26.1032 43.0151 128.1202 0.0000 2.5470 0.0000
# 4 0.0000 0.0000 0.0000 39.6529 0.0000 -0.8090
# 5 3.4357 -12.9458 2.5470 0.0000 25.6919 0.0000
# 6 0.0000 0.0000 0.0000 -0.8090 0.0000 22.7366
#
#
#
# Elastic Compliance Matrix: (Units=1/GPa)
#
#
# Indices 1 2 3 4 5 6 
#
# 1 0.025238 -0.011004 -0.001273 0.000000 -0.008794 0.000000
# 2 -0.011004 0.028160 -0.007539 0.000000 0.016408 0.000000
# 3 -0.001273 -0.007539 0.010689 0.000000 -0.004688 0.000000
# 4 0.000000 0.000000 0.000000 0.025237 0.000000 0.000898
# 5 -0.008794 0.016408 -0.004688 0.000000 0.048831 0.000000
# 6 0.000000 0.000000 0.000000 0.000898 0.000000 0.044014
#
#
# Mechanical properties :
#
#
# Convention : Reuss Voigt Hill
#
# Bulk Modulus (GPa) = 40.88923 48.46139 44.67531
# Shear Modulus (GPa) = 21.74359 27.69816 24.72087
#
# Velocity S-wave (km/s) = 3.09358 3.49157 3.29858
# Velocity P-wave (km/s) = 5.54592 6.13062 5.84559
#
# Compressibility (1/GPa) = 0.02445632
#
# Stress axis : x y z
#
# Youngs Moduli (GPa) = 39.62211 35.51123 93.55651
#
# Poissons Ratio (x) = 0.39076 0.11908
# Poissons Ratio (y) = 0.43600 0.70530
# Poissons Ratio (z) = 0.05043 0.26771
#
# Static dielectric constant tensor:
#      x y z
#    x 3.901360 0.000000 0.170030 
#    y 0.000000 3.790480 0.000000 
#    z 0.170030 0.000000 4.568610 
# 
# 
# High freq. dielectric constant tensor:
#      x y z
#    x 1.880940 0.000000 0.012260 
#    y 0.000000 1.876260 0.000000 
#    z 0.012260 0.000000 1.919270 
# 
# From -- ./inp_files/67360.got.cif
#   From: 2010.03.12/outbox.cif.g09.slc.cpg/sg14_34_cif.got.tgz:67360.got - 2010.03.31 13:35:05.
