data_PCOD8125093
_publ_section_title
;
Structure prediction by ZEFSAII (Michael W. Deem and Ramdas Pophale) SiO2 
 PCOD8125093
Probable space group: P 21/C
;
_chemical_formula_sum "Si O2"
_cell_formula_units_Z 24
_cell_length_a 8.638071
_cell_length_b 12.335944
_cell_length_c 10.955300
_cell_angle_alpha 90.000000
_cell_angle_beta 103.673972
_cell_angle_gamma 90.000000
_cell_volume 1134.295587
_symmetry_space_group_name_H-M "P 21/C"
_symmetry_group_IT_number 14
_symmetry_cell_setting 'monoclinic'
loop_
_space_group_symop_operation_xyz
x,y,z
-x,1/2+y,1/2-z
-x,-y,-z
x,1/2-y,1/2+z
loop_
_atom_site_type_symbol
_atom_site_label
_atom_site_fract_x
_atom_site_fract_y
_atom_site_fract_z
Si Si1 0.374677 0.919453 0.536271
Si Si2 0.665069 0.621003 0.364603
Si Si3 0.497753 0.285159 0.314538
Si Si4 0.648320 0.010309 0.196986
Si Si5 0.912340 0.937790 0.089248
Si Si6 0.228604 0.907970 0.262724
O O1 0.450180 0.800241 0.571593
O O2 0.232566 0.910018 0.411145
O O3 0.500000 0.000000 0.500000
O O4 0.316645 0.971559 0.652888
O O5 0.646962 0.733441 0.290667
O O6 0.484895 0.593552 0.376540
O O7 0.785615 0.641764 0.499251
O O8 0.722041 0.524301 0.284900
O O9 0.418382 0.392357 0.352161
O O10 0.653571 0.314600 0.263400
O O11 0.814027 0.023700 0.154541
O O12 0.046614 0.876006 0.193232
O O13 0.000000 0.000000 0.000000
#
# Coordination Sequence:
#
# PCOD8125093 Si02
#       6
#     4   4   4   4   4   4
#     4  11  20  41  65  90 127 156 211 266 301 373
#     4   9  19  39  65  87 118 162 208 255 297 375
#     4  10  20  36  64  91 117 165 209 248 303 378
#     4  10  21  37  65  94 111 171 212 241 318 373
#     4  10  22  40  58  89 128 158 204 262 308 365
#     4  10  21  41  60  92 125 161 200 261 321 350
#
# _framework density 21.158505999999999
#
# number of rings (size 3 to 8) (size 9 to 14) (size 15 to 20)
#    0.000    2.000    5.000    0.500    2.333    0.667 
#    9.000    3.333    0.000    0.000    0.000    0.000 
#    0.000    0.000    0.000    0.000    0.000    0.000 
#
# Total GULP energy -297360.332165 kJ/mol
# GULP energy per Si atom -12390.013840 kJ/mol
# Density = 2.111035 g / cm^3
# Si number density = 21.158506 Si / 1000 Ang^3
#
#
#
# Elastic Constant Matrix: (Units=GPa)
#
#
# Indices 1 2 3 4 5 6 
#
# 1 110.7831 2.3257 65.4906 0.0000 5.2676 0.0000
# 2 2.3257 56.5716 13.4711 0.0000 3.4206 0.0000
# 3 65.4906 13.4711 162.3710 0.0000 30.5614 0.0000
# 4 0.0000 0.0000 0.0000 27.9663 0.0000 2.0211
# 5 5.2676 3.4206 30.5614 0.0000 50.0207 0.0000
# 6 0.0000 0.0000 0.0000 2.0211 0.0000 10.8166
#
#
#
# Elastic Compliance Matrix: (Units=1/GPa)
#
#
# Indices 1 2 3 4 5 6 
#
# 1 0.012036 0.000644 -0.005267 0.000000 0.001906 0.000000
# 2 0.000644 0.018073 -0.001711 0.000000 -0.000259 0.000000
# 3 -0.005267 -0.001711 0.009377 0.000000 -0.005057 0.000000
# 4 0.000000 0.000000 0.000000 0.036247 0.000000 -0.006773
# 5 0.001906 -0.000259 -0.005057 0.000000 0.022899 0.000000
# 6 0.000000 0.000000 0.000000 -0.006773 0.000000 0.093716
#
#
# Mechanical properties :
#
#
# Convention : Reuss Voigt Hill
#
# Bulk Modulus (GPa) = 37.28632 54.70005 45.99319
# Shear Modulus (GPa) = 23.36953 34.32328 28.84640
#
# Velocity S-wave (km/s) = 3.32700 4.03202 3.69636
# Velocity P-wave (km/s) = 5.69379 6.89818 6.32472
#
# Compressibility (1/GPa) = 0.02681949
#
# Stress axis : x y z
#
# Youngs Moduli (GPa) = 83.08385 55.33053 106.64518
#
# Poissons Ratio (x) = -0.03564 0.56169
# Poissons Ratio (y) = -0.05351 0.18242
# Poissons Ratio (z) = 0.43759 0.09465
#
# Static dielectric constant tensor:
#      x y z
#    x 4.131540 0.000000 0.406020 
#    y 0.000000 3.934160 0.000000 
#    z 0.406020 0.000000 4.715810 
# 
# 
# High freq. dielectric constant tensor:
#      x y z
#    x 1.812390 0.000000 0.004560 
#    y 0.000000 1.806340 0.000000 
#    z 0.004560 0.000000 1.847570 
# 
# From -- ./inp_files/24157.got.cif
#   From: 2010.03.12/outbox.cif.g09.slc.cpg/sg14_13_cif.got.tgz:24157.got - 2010.03.31 13:35:05.
