data_PCOD8125332
_publ_section_title
;
Structure prediction by ZEFSAII (Michael W. Deem and Ramdas Pophale) SiO2 
 PCOD8125332
Probable space group: P 21/C
;
_chemical_formula_sum "Si O2"
_cell_formula_units_Z 32
_cell_length_a 8.737728
_cell_length_b 19.336539
_cell_length_c 14.022829
_cell_angle_alpha 90.000000
_cell_angle_beta 137.766916
_cell_angle_gamma 90.000000
_cell_volume 1592.494592
_symmetry_space_group_name_H-M "P 21/C"
_symmetry_group_IT_number 14
_symmetry_cell_setting 'monoclinic'
loop_
_space_group_symop_operation_xyz
x,y,z
-x,1/2+y,1/2-z
-x,-y,-z
x,1/2-y,1/2+z
loop_
_atom_site_type_symbol
_atom_site_label
_atom_site_fract_x
_atom_site_fract_y
_atom_site_fract_z
Si Si1 0.434244 0.155713 0.045837
Si Si2 0.195889 0.927279 0.342932
Si Si3 0.883555 0.770189 0.951416
Si Si4 0.941328 0.593781 0.384191
Si Si5 0.835895 0.534134 0.529343
Si Si6 0.059424 0.694162 0.202266
Si Si7 0.715862 0.917986 0.587032
Si Si8 0.891637 0.694902 0.766029
O O1 0.330786 0.199405 0.087720
O O2 0.702164 0.158184 0.170998
O O3 0.379481 0.073686 0.026290
O O4 0.336579 0.183247 0.900746
O O5 0.453267 0.902325 0.440766
O O6 0.064873 0.932291 0.181687
O O7 0.060035 0.871873 0.345759
O O8 0.211551 0.002552 0.401893
O O9 0.816541 0.713898 0.839625
O O10 0.014978 0.832387 0.958606
O O11 0.064810 0.739185 0.108824
O O12 0.161449 0.548922 0.448241
O O13 0.828007 0.546233 0.412733
O O14 0.753512 0.601105 0.215338
O O15 0.869693 0.634930 0.097739
O O16 0.020559 0.740565 0.277534
#
# Coordination Sequence:
#
# PCOD8125332 Si02
#       8
#     4   4   4   4   4   4   4   4
#     4   9  21  38  56  84 117 155 187 245 299 344
#     4   9  20  37  63  86 119 154 198 243 292 352
#     4  10  21  37  56  87 116 154 196 237 295 350
#     4   9  16  33  57  85 111 143 198 237 283 350
#     4   8  16  34  59  84 113 145 196 242 289 344
#     4  11  23  37  59  85 124 152 198 243 294 355
#     4  10  20  38  61  88 114 161 198 238 295 356
#     4  10  21  38  59  87 116 155 197 244 292 354
#
# _framework density 20.094262000000001
#
# number of rings (size 3 to 8) (size 9 to 14) (size 15 to 20)
#    0.000    2.500    1.250    0.750    3.500    3.000 
#    0.000    6.250    0.000    0.000    0.000    0.000 
#    0.000    0.000    0.000    0.000    0.000    0.000 
#
# Total GULP energy -396496.101155 kJ/mol
# GULP energy per Si atom -12390.503161 kJ/mol
# Density = 2.004853 g / cm^3
# Si number density = 20.094262 Si / 1000 Ang^3
#
#
#
# Elastic Constant Matrix: (Units=GPa)
#
#
# Indices 1 2 3 4 5 6 
#
# 1 36.9513 22.3449 36.0829 0.0000 -4.0469 0.0000
# 2 22.3449 94.0151 34.7839 0.0000 14.2578 0.0000
# 3 36.0829 34.7839 90.4610 0.0000 9.1740 0.0000
# 4 0.0000 0.0000 0.0000 26.2116 0.0000 -0.4785
# 5 -4.0469 14.2578 9.1740 0.0000 36.5900 0.0000
# 6 0.0000 0.0000 0.0000 -0.4785 0.0000 23.2782
#
#
#
# Elastic Compliance Matrix: (Units=1/GPa)
#
#
# Indices 1 2 3 4 5 6 
#
# 1 0.051574 -0.007188 -0.019158 0.000000 0.013308 0.000000
# 2 -0.007188 0.013920 -0.001903 0.000000 -0.005742 0.000000
# 3 -0.019158 -0.001903 0.020078 0.000000 -0.006411 0.000000
# 4 0.000000 0.000000 0.000000 0.038165 0.000000 0.000785
# 5 0.013308 -0.005742 -0.006411 0.000000 0.032647 0.000000
# 6 0.000000 0.000000 0.000000 0.000785 0.000000 0.042975
#
#
# Mechanical properties :
#
#
# Convention : Reuss Voigt Hill
#
# Bulk Modulus (GPa) = 34.39404 45.31676 39.85540
# Shear Modulus (GPa) = 18.82902 25.76369 22.29635
#
# Velocity S-wave (km/s) = 3.06442 3.58458 3.33466
# Velocity P-wave (km/s) = 5.44742 6.30344 5.89100
#
# Compressibility (1/GPa) = 0.02907480
#
# Stress axis : x y z
#
# Youngs Moduli (GPa) = 19.38953 71.83968 49.80598
#
# Poissons Ratio (x) = 0.51640 0.95416
# Poissons Ratio (y) = 0.13938 0.09478
# Poissons Ratio (z) = 0.37145 0.13671
#
# Static dielectric constant tensor:
#      x y z
#    x 3.317440 0.000000 -0.195910 
#    y 0.000000 4.111510 0.000000 
#    z -0.195910 0.000000 3.577560 
# 
# 
# High freq. dielectric constant tensor:
#      x y z
#    x 1.746340 0.000000 -0.016920 
#    y 0.000000 1.802620 0.000000 
#    z -0.016920 0.000000 1.778860 
# 
# From -- ./inp_files/42021.got.cif
#   From: 2010.03.12/outbox.cif.g09.slc.cpg/sg14_22_cif.got.tgz:42021.got - 2010.03.31 13:35:05.
