data_PCOD8125274
_publ_section_title
;
Structure prediction by ZEFSAII (Michael W. Deem and Ramdas Pophale) SiO2 
 PCOD8125274
Probable space group: P 21/C
;
_chemical_formula_sum "Si O2"
_cell_formula_units_Z 32
_cell_length_a 11.978260
_cell_length_b 9.335287
_cell_length_c 31.096826
_cell_angle_alpha 90.000000
_cell_angle_beta 152.446178
_cell_angle_gamma 90.000000
_cell_volume 1608.517783
_symmetry_space_group_name_H-M "P 21/C"
_symmetry_group_IT_number 14
_symmetry_cell_setting 'monoclinic'
loop_
_space_group_symop_operation_xyz
x,y,z
-x,1/2+y,1/2-z
-x,-y,-z
x,1/2-y,1/2+z
loop_
_atom_site_type_symbol
_atom_site_label
_atom_site_fract_x
_atom_site_fract_y
_atom_site_fract_z
Si Si1 0.551065 0.659689 0.392788
Si Si2 0.116075 0.950006 0.887061
Si Si3 0.705556 0.726137 0.205019
Si Si4 0.161722 0.549365 0.116121
Si Si5 0.390293 0.062240 0.902002
Si Si6 0.634912 0.980355 0.405581
Si Si7 0.921463 0.375109 0.397415
Si Si8 0.525124 0.952104 0.205515
O O1 0.415890 0.594842 0.388474
O O2 0.515602 0.827986 0.375399
O O3 0.440360 0.589234 0.312738
O O4 0.832653 0.620167 0.491846
O O5 0.959894 0.820167 0.813378
O O6 0.216312 0.050131 0.883275
O O7 0.341890 0.885308 0.991379
O O8 0.952370 0.054691 0.860740
O O9 0.736842 0.825379 0.173670
O O10 0.556362 0.588193 0.139132
O O11 0.539519 0.807416 0.182981
O O12 0.329540 0.513667 0.132569
O O13 0.180097 0.713302 0.138299
O O14 0.256812 0.448748 0.186404
O O15 0.888876 0.501462 0.015751
O O16 0.729963 0.469815 0.357870
#
# Coordination Sequence:
#
# PCOD8125274 Si02
#       8
#     4   4   4   4   4   4   4   4
#     4   9  21  38  62  83 120 159 196 254 301 358
#     4  10  22  41  69  84 122 167 204 249 311 349
#     4  11  23  38  63  93 117 157 201 254 303 360
#     4  10  22  35  54  83 129 153 196 245 299 367
#     4   9  22  45  63  91 119 157 214 255 291 369
#     4  10  21  38  56  86 120 160 192 249 305 353
#     4  10  20  38  58  88 118 162 201 241 302 368
#     4  11  22  35  56  91 121 154 198 242 301 377
#
# _framework density 19.894089999999998
#
# number of rings (size 3 to 8) (size 9 to 14) (size 15 to 20)
#    0.000    2.000    1.250    1.125    5.250    1.000 
#    2.250    0.000    0.000    3.750    0.000    0.000 
#    0.000    0.000    0.000    0.000    0.000    0.000 
#
# Total GULP energy -396777.546831 kJ/mol
# GULP energy per Si atom -12399.298338 kJ/mol
# Density = 1.984881 g / cm^3
# Si number density = 19.894090 Si / 1000 Ang^3
#
#
#
# Elastic Constant Matrix: (Units=GPa)
#
#
# Indices 1 2 3 4 5 6 
#
# 1 104.9824 37.2249 30.0217 0.0000 -9.5219 0.0000
# 2 37.2249 100.1940 39.2595 0.0000 -10.6811 0.0000
# 3 30.0217 39.2595 71.5895 0.0000 -18.9471 0.0000
# 4 0.0000 0.0000 0.0000 35.8708 0.0000 -2.8068
# 5 -9.5219 -10.6811 -18.9471 0.0000 27.0518 0.0000
# 6 0.0000 0.0000 0.0000 -2.8068 0.0000 22.4034
#
#
#
# Elastic Compliance Matrix: (Units=1/GPa)
#
#
# Indices 1 2 3 4 5 6 
#
# 1 0.011519 -0.003037 -0.002958 0.000000 0.000784 0.000000
# 2 -0.003037 0.013514 -0.006148 0.000000 -0.000039 0.000000
# 3 -0.002958 -0.006148 0.021681 0.000000 0.011717 0.000000
# 4 0.000000 0.000000 0.000000 0.028154 0.000000 0.003527
# 5 0.000784 -0.000039 0.011717 0.000000 0.045433 0.000000
# 6 0.000000 0.000000 0.000000 0.003527 0.000000 0.045078
#
#
# Mechanical properties :
#
#
# Convention : Reuss Voigt Hill
#
# Bulk Modulus (GPa) = 44.58435 54.41979 49.50207
# Shear Modulus (GPa) = 25.36260 28.41585 26.88922
#
# Velocity S-wave (km/s) = 3.57442 3.78346 3.68043
# Velocity P-wave (km/s) = 6.28449 6.81911 6.55725
#
# Compressibility (1/GPa) = 0.02242939
#
# Stress axis : x y z
#
# Youngs Moduli (GPa) = 86.81125 73.99881 46.12287
#
# Poissons Ratio (x) = 0.22475 0.13641
# Poissons Ratio (y) = 0.26367 0.28354
# Poissons Ratio (z) = 0.25675 0.45491
#
# Static dielectric constant tensor:
#      x y z
#    x 3.515050 0.000000 -0.101670 
#    y 0.000000 3.525440 0.000000 
#    z -0.101670 0.000000 3.661970 
# 
# 
# High freq. dielectric constant tensor:
#      x y z
#    x 1.768350 0.000000 -0.008110 
#    y 0.000000 1.766750 0.000000 
#    z -0.008110 0.000000 1.783730 
# 
# From -- ./inp_files/43755.got.cif
#   From: 2010.03.12/outbox.cif.g09.slc.cpg/sg14_22_cif.got.tgz:43755.got - 2010.03.31 13:35:05.
