data_PCOD8125400
_publ_section_title
;
Structure prediction by ZEFSAII (Michael W. Deem and Ramdas Pophale) SiO2 
 PCOD8125400
Probable space group: P 21/C
;
_chemical_formula_sum "Si O2"
_cell_formula_units_Z 32
_cell_length_a 9.065489
_cell_length_b 16.054089
_cell_length_c 14.844144
_cell_angle_alpha 90.000000
_cell_angle_beta 48.615910
_cell_angle_gamma 90.000000
_cell_volume 1620.928747
_symmetry_space_group_name_H-M "P 21/C"
_symmetry_group_IT_number 14
_symmetry_cell_setting 'monoclinic'
loop_
_space_group_symop_operation_xyz
x,y,z
-x,1/2+y,1/2-z
-x,-y,-z
x,1/2-y,1/2+z
loop_
_atom_site_type_symbol
_atom_site_label
_atom_site_fract_x
_atom_site_fract_y
_atom_site_fract_z
Si Si1 0.016573 0.315928 0.383025
Si Si2 0.981777 0.322833 0.753714
Si Si3 0.769322 0.053302 0.894799
Si Si4 0.617044 0.767793 0.167102
Si Si5 0.006502 0.477877 0.850342
Si Si6 0.367609 0.121860 0.012441
Si Si7 0.127208 0.114967 0.477831
Si Si8 0.174458 0.752986 0.866590
O O1 0.941043 0.244272 0.347074
O O2 0.248962 0.303711 0.305882
O O3 0.960749 0.404581 0.362771
O O4 0.912813 0.312054 0.521638
O O5 0.905249 0.412677 0.821646
O O6 0.215707 0.328015 0.637579
O O7 0.859124 0.297279 0.715662
O O8 0.583556 0.116527 0.970806
O O9 0.824276 0.029209 0.770129
O O10 0.714062 0.970999 0.973281
O O11 0.612753 0.834513 0.090325
O O12 0.403229 0.756241 0.294193
O O13 0.693412 0.679744 0.095686
O O14 0.846440 0.541631 0.958207
O O15 0.112889 0.425191 0.885240
O O16 0.927428 0.162813 0.586131
#
# Coordination Sequence:
#
# PCOD8125400 Si02
#       8
#     4   4   4   4   4   4   4   4
#     4  11  23  40  63  94 124 168 210 259 322 368
#     4  11  20  40  62  90 127 164 209 260 310 376
#     4  10  23  37  64  95 124 169 206 261 318 386
#     4  11  22  39  63  94 125 167 210 268 309 375
#     4  10  20  38  66  87 126 166 209 257 314 375
#     4  10  21  39  63  92 127 165 212 255 320 374
#     4  10  20  40  64  91 122 168 216 256 310 377
#     4  11  23  41  64  92 129 166 211 262 313 378
#
# _framework density 19.741769000000001
#
# number of rings (size 3 to 8) (size 9 to 14) (size 15 to 20)
#    0.000    1.500    5.000    2.250    1.750    1.500 
#    0.000    0.625    0.000    0.000    0.000    0.000 
#    0.000    0.000    0.000    0.000    0.000    0.000 
#
# Total GULP energy -396725.846131 kJ/mol
# GULP energy per Si atom -12397.682692 kJ/mol
# Density = 1.969684 g / cm^3
# Si number density = 19.741769 Si / 1000 Ang^3
#
#
#
# Elastic Constant Matrix: (Units=GPa)
#
#
# Indices 1 2 3 4 5 6 
#
# 1 87.9090 18.6775 38.4692 0.0000 -0.5003 0.0000
# 2 18.6775 39.8780 9.3210 0.0000 5.0846 0.0000
# 3 38.4692 9.3210 57.1337 0.0000 -3.0134 0.0000
# 4 0.0000 0.0000 0.0000 38.3699 0.0000 13.4251
# 5 -0.5003 5.0846 -3.0134 0.0000 30.9936 0.0000
# 6 0.0000 0.0000 0.0000 13.4251 0.0000 35.6514
#
#
#
# Elastic Compliance Matrix: (Units=1/GPa)
#
#
# Indices 1 2 3 4 5 6 
#
# 1 0.017243 -0.005598 -0.010688 0.000000 0.000157 0.000000
# 2 -0.005598 0.028592 -0.001154 0.000000 -0.004893 0.000000
# 3 -0.010688 -0.001154 0.025017 0.000000 0.002449 0.000000
# 4 0.000000 0.000000 0.000000 0.030017 0.000000 -0.011303
# 5 0.000157 -0.004893 0.002449 0.000000 0.033308 0.000000
# 6 0.000000 0.000000 0.000000 -0.011303 0.000000 0.032306
#
#
# Mechanical properties :
#
#
# Convention : Reuss Voigt Hill
#
# Bulk Modulus (GPa) = 27.79933 35.31735 31.55834
# Shear Modulus (GPa) = 23.43534 28.89983 26.16759
#
# Velocity S-wave (km/s) = 3.44916 3.83024 3.64468
# Velocity P-wave (km/s) = 5.47488 6.12286 5.80792
#
# Compressibility (1/GPa) = 0.03597209
#
# Stress axis : x y z
#
# Youngs Moduli (GPa) = 57.99480 34.97500 39.97296
#
# Poissons Ratio (x) = 0.19578 0.42725
# Poissons Ratio (y) = 0.32464 0.04611
# Poissons Ratio (z) = 0.61987 0.04035
#
# Static dielectric constant tensor:
#      x y z
#    x 3.551030 0.000000 0.024370 
#    y 0.000000 3.781230 0.000000 
#    z 0.024370 0.000000 3.717390 
# 
# 
# High freq. dielectric constant tensor:
#      x y z
#    x 1.741730 0.000000 0.013290 
#    y 0.000000 1.778550 0.000000 
#    z 0.013290 0.000000 1.776860 
# 
# From -- ./inp_files/41680.got.cif
#   From: 2010.03.12/outbox.cif.g09.slc.cpg/sg14_21_cif.got.tgz:41680.got - 2010.03.31 13:35:05.
