data_PCOD8125181
_publ_section_title
;
Structure prediction by ZEFSAII (Michael W. Deem and Ramdas Pophale) SiO2 
 PCOD8125181
Probable space group: P 21/C
;
_chemical_formula_sum "Si O2"
_cell_formula_units_Z 24
_cell_length_a 15.543803
_cell_length_b 8.726534
_cell_length_c 15.470650
_cell_angle_alpha 90.000000
_cell_angle_beta 34.411478
_cell_angle_gamma 90.000000
_cell_volume 1185.926432
_symmetry_space_group_name_H-M "P 21/C"
_symmetry_group_IT_number 14
_symmetry_cell_setting 'monoclinic'
loop_
_space_group_symop_operation_xyz
x,y,z
-x,1/2+y,1/2-z
-x,-y,-z
x,1/2-y,1/2+z
loop_
_atom_site_type_symbol
_atom_site_label
_atom_site_fract_x
_atom_site_fract_y
_atom_site_fract_z
Si Si1 0.697715 0.979116 0.142545
Si Si2 0.182290 0.602102 0.102772
Si Si3 0.330929 0.061828 0.641535
Si Si4 0.544151 0.208822 0.734177
Si Si5 0.121264 0.550626 0.665140
Si Si6 0.602248 0.608416 0.472226
O O1 0.580936 0.111452 0.206875
O O2 0.744507 0.986032 0.204155
O O3 0.606903 0.820416 0.198979
O O4 0.849063 0.998918 0.959346
O O5 0.235083 0.511714 0.144038
O O6 0.122004 0.768462 0.179263
O O7 0.045204 0.509631 0.171193
O O8 0.315808 0.613513 0.921949
O O9 0.335770 0.244808 0.630529
O O10 0.500000 0.000000 0.500000
O O11 0.511301 0.155434 0.857747
O O12 0.249675 0.481068 0.619575
O O13 0.500000 0.500000 0.500000
#
# Coordination Sequence:
#
# PCOD8125181 Si02
#       6
#     4   4   4   4   4   4
#     4  10  22  37  63  90 121 159 203 250 302 363
#     4  11  22  41  64  86 127 161 203 252 305 367
#     4  12  21  38  65  94 121 157 203 254 305 353
#     4  10  20  37  60  89 119 157 201 244 307 359
#     4  10  24  42  61  90 123 166 202 247 310 363
#     4  11  23  39  63  92 122 153 207 254 299 367
#
# _framework density 20.237342000000002
#
# number of rings (size 3 to 8) (size 9 to 14) (size 15 to 20)
#    0.000    1.333    3.333    2.000    4.667    2.000 
#    0.000    0.833    0.000    0.000    0.000    0.000 
#    0.000    0.000    0.000    0.000    0.000    0.000 
#
# Total GULP energy -297612.721045 kJ/mol
# GULP energy per Si atom -12400.530044 kJ/mol
# Density = 2.019128 g / cm^3
# Si number density = 20.237342 Si / 1000 Ang^3
#
#
#
# Elastic Constant Matrix: (Units=GPa)
#
#
# Indices 1 2 3 4 5 6 
#
# 1 96.9718 27.2894 26.6719 0.0000 1.4120 0.0000
# 2 27.2894 102.6609 13.4317 0.0000 -7.5014 0.0000
# 3 26.6719 13.4317 60.4480 0.0000 2.8494 0.0000
# 4 0.0000 0.0000 0.0000 26.7016 0.0000 -5.1049
# 5 1.4120 -7.5014 2.8494 0.0000 33.7701 0.0000
# 6 0.0000 0.0000 0.0000 -5.1049 0.0000 34.4685
#
#
#
# Elastic Compliance Matrix: (Units=1/GPa)
#
#
# Indices 1 2 3 4 5 6 
#
# 1 0.012420 -0.002720 -0.004842 0.000000 -0.000715 0.000000
# 2 -0.002720 0.010830 -0.001330 0.000000 0.002632 0.000000
# 3 -0.004842 -0.001330 0.019055 0.000000 -0.001701 0.000000
# 4 0.000000 0.000000 0.000000 0.038542 0.000000 0.005708
# 5 -0.000715 0.002632 -0.001701 0.000000 0.030370 0.000000
# 6 0.000000 0.000000 0.000000 0.005708 0.000000 0.029857
#
#
# Mechanical properties :
#
#
# Convention : Reuss Voigt Hill
#
# Bulk Modulus (GPa) = 40.78213 43.87408 42.32811
# Shear Modulus (GPa) = 29.93405 31.83389 30.88397
#
# Velocity S-wave (km/s) = 3.85014 3.97044 3.91076
# Velocity P-wave (km/s) = 6.32143 6.53805 6.43065
#
# Compressibility (1/GPa) = 0.02452054
#
# Stress axis : x y z
#
# Youngs Moduli (GPa) = 80.51539 92.33395 52.47863
#
# Poissons Ratio (x) = 0.25117 0.25410
# Poissons Ratio (y) = 0.21902 0.06981
# Poissons Ratio (z) = 0.38986 0.12283
#
# Static dielectric constant tensor:
#      x y z
#    x 3.756020 0.000000 0.113250 
#    y 0.000000 3.672140 0.000000 
#    z 0.113250 0.000000 3.867390 
# 
# 
# High freq. dielectric constant tensor:
#      x y z
#    x 1.781610 0.000000 0.004320 
#    y 0.000000 1.804830 0.000000 
#    z 0.004320 0.000000 1.788200 
# 
# From -- ./inp_files/39062.got.cif
#   From: 2010.03.12/outbox.cif.g09.slc.cpg/sg14_20_cif.got.tgz:39062.got - 2010.03.31 13:35:05.
