data_PCOD8125401
_publ_section_title
;
Structure prediction by ZEFSAII (Michael W. Deem and Ramdas Pophale) SiO2 
 PCOD8125401
Probable space group: P 21/C
;
_chemical_formula_sum "Si O2"
_cell_formula_units_Z 24
_cell_length_a 8.564696
_cell_length_b 13.804112
_cell_length_c 13.392073
_cell_angle_alpha 90.000000
_cell_angle_beta 127.813556
_cell_angle_gamma 90.000000
_cell_volume 1250.837266
_symmetry_space_group_name_H-M "P 21/C"
_symmetry_group_IT_number 14
_symmetry_cell_setting 'monoclinic'
loop_
_space_group_symop_operation_xyz
x,y,z
-x,1/2+y,1/2-z
-x,-y,-z
x,1/2-y,1/2+z
loop_
_atom_site_type_symbol
_atom_site_label
_atom_site_fract_x
_atom_site_fract_y
_atom_site_fract_z
Si Si1 0.890471 0.241152 0.584194
Si Si2 0.482547 0.150038 0.439016
Si Si3 0.902125 0.757557 0.636410
Si Si4 0.550463 0.046995 0.671358
Si Si5 0.118274 0.402375 0.048509
Si Si6 0.932980 0.103246 0.937471
O O1 0.669637 0.207851 0.470962
O O2 0.924436 0.337344 0.535515
O O3 0.922291 0.262883 0.713604
O O4 0.050718 0.159389 0.617436
O O5 0.308357 0.227476 0.391178
O O6 0.555179 0.096651 0.566195
O O7 0.419055 0.069008 0.332101
O O8 0.935066 0.845957 0.573809
O O9 0.915701 0.655513 0.581337
O O10 0.348234 0.072360 0.648803
O O11 0.720693 0.093647 0.803812
O O12 0.000000 0.500000 0.000000
O O13 0.000000 0.000000 0.000000
#
# Coordination Sequence:
#
# PCOD8125401 Si02
#       6
#     4   4   4   4   4   4
#     4  11  22  39  64  89 124 164 200 255 308 357
#     4  10  20  38  66  88 114 166 200 244 313 354
#     4  10  23  40  60  89 123 158 205 255 294 374
#     4  10  20  39  63  87 123 156 203 251 297 373
#     4  10  21  39  61  93 117 157 208 249 302 364
#     4  11  24  42  58  91 127 164 202 254 309 355
#
# _framework density 19.187149000000002
#
# number of rings (size 3 to 8) (size 9 to 14) (size 15 to 20)
#    0.000    1.667    3.333    1.000    2.333    1.333 
#    6.000    0.833    0.000    0.000    0.000    0.000 
#    0.000    0.000    0.000    0.000    0.000    0.000 
#
# Total GULP energy -297600.515808 kJ/mol
# GULP energy per Si atom -12400.021492 kJ/mol
# Density = 1.914348 g / cm^3
# Si number density = 19.187149 Si / 1000 Ang^3
#
#
#
# Elastic Constant Matrix: (Units=GPa)
#
#
# Indices 1 2 3 4 5 6 
#
# 1 101.3030 58.0006 26.1469 0.0000 17.2787 0.0000
# 2 58.0006 140.2822 43.9501 0.0000 10.4102 0.0000
# 3 26.1469 43.9501 77.1606 0.0000 0.6488 0.0000
# 4 0.0000 0.0000 0.0000 27.2051 0.0000 8.8417
# 5 17.2787 10.4102 0.6488 0.0000 29.3597 0.0000
# 6 0.0000 0.0000 0.0000 8.8417 0.0000 29.1441
#
#
#
# Elastic Compliance Matrix: (Units=1/GPa)
#
#
# Indices 1 2 3 4 5 6 
#
# 1 0.014264 -0.004755 -0.002069 0.000000 -0.006663 0.000000
# 2 -0.004755 0.010528 -0.004379 0.000000 -0.000838 0.000000
# 3 -0.002069 -0.004379 0.016135 0.000000 0.002414 0.000000
# 4 0.000000 0.000000 0.000000 0.040779 0.000000 -0.012371
# 5 -0.006663 -0.000838 0.002414 0.000000 0.038226 0.000000
# 6 0.000000 0.000000 0.000000 -0.012371 0.000000 0.038066
#
#
# Mechanical properties :
#
#
# Convention : Reuss Voigt Hill
#
# Bulk Modulus (GPa) = 53.98958 63.88235 58.93596
# Shear Modulus (GPa) = 26.79860 29.85165 28.32512
#
# Velocity S-wave (km/s) = 3.74129 3.94866 3.84637
# Velocity P-wave (km/s) = 6.84562 7.35907 7.10698
#
# Compressibility (1/GPa) = 0.01852209
#
# Stress axis : x y z
#
# Youngs Moduli (GPa) = 70.10476 94.98086 61.97740
#
# Poissons Ratio (x) = 0.45163 0.12825
# Poissons Ratio (y) = 0.33334 0.27137
# Poissons Ratio (z) = 0.14507 0.41588
#
# Static dielectric constant tensor:
#      x y z
#    x 3.619120 0.000000 0.130360 
#    y 0.000000 3.602360 0.000000 
#    z 0.130360 0.000000 3.688420 
# 
# 
# High freq. dielectric constant tensor:
#      x y z
#    x 1.750180 0.000000 0.000970 
#    y 0.000000 1.752330 0.000000 
#    z 0.000970 0.000000 1.740970 
# 
# From -- ./inp_files/40794.got.cif
#   From: 2010.03.12/outbox.cif.g09.slc.cpg/sg14_21_cif.got.tgz:40794.got - 2010.03.31 13:35:05.
