data_PCOD8125525
_publ_section_title
;
Structure prediction by ZEFSAII (Michael W. Deem and Ramdas Pophale) SiO2 
 PCOD8125525
Probable space group: P 21/C
;
_chemical_formula_sum "Si O2"
_cell_formula_units_Z 28
_cell_length_a 6.613882
_cell_length_b 10.479560
_cell_length_c 18.697374
_cell_angle_alpha 90.000000
_cell_angle_beta 89.486397
_cell_angle_gamma 90.000000
_cell_volume 1295.873644
_symmetry_space_group_name_H-M "P 21/C"
_symmetry_group_IT_number 14
_symmetry_cell_setting 'monoclinic'
loop_
_space_group_symop_operation_xyz
x,y,z
-x,1/2+y,1/2-z
-x,-y,-z
x,1/2-y,1/2+z
loop_
_atom_site_type_symbol
_atom_site_label
_atom_site_fract_x
_atom_site_fract_y
_atom_site_fract_z
Si Si1 0.148838 0.077470 0.403508
Si Si2 0.633914 0.422926 0.742340
Si Si3 0.459961 0.726504 0.118806
Si Si4 0.051509 0.668406 0.371879
Si Si5 0.740497 0.031855 0.827159
Si Si6 0.806718 0.164003 0.509234
Si Si7 0.958678 0.909694 0.289965
O O1 0.303599 0.190600 0.382176
O O2 0.005030 0.134133 0.463715
O O3 0.253283 0.949264 0.435385
O O4 0.029596 0.036617 0.332641
O O5 0.645794 0.341650 0.814432
O O6 0.402854 0.440325 0.719211
O O7 0.758548 0.356280 0.679331
O O8 0.737571 0.560259 0.758087
O O9 0.405660 0.877016 0.125326
O O10 0.381200 0.680269 0.042405
O O11 0.890338 0.552525 0.376745
O O12 0.142443 0.704555 0.448845
O O13 0.930478 0.789866 0.341409
O O14 0.880049 0.115609 0.773716
#
# Coordination Sequence:
#
# PCOD8125525 Si02
#       7
#     4   4   4   4   4   4   4
#     4  10  21  40  67  98 124 166 217 273 323 374
#     4  11  23  38  64  96 127 164 217 275 323 383
#     4  12  23  40  67  97 130 166 220 269 325 390
#     4  10  24  43  62  92 136 172 215 263 332 394
#     4  11  25  39  62  98 128 174 213 269 335 385
#     4  10  23  43  66  94 131 174 217 267 323 388
#     4  10  20  39  65  92 128 163 213 275 324 381
#
# _framework density 21.607046
#
# number of rings (size 3 to 8) (size 9 to 14) (size 15 to 20)
#    0.000    1.429    4.286    0.429    2.000    4.000 
#    0.000    1.429    0.000    0.000    0.000    0.000 
#    0.000    0.000    0.000    0.000    0.000    0.000 
#
# Total GULP energy -347157.030747 kJ/mol
# GULP energy per Si atom -12398.465384 kJ/mol
# Density = 2.155787 g / cm^3
# Si number density = 21.607046 Si / 1000 Ang^3
#
#
#
# Elastic Constant Matrix: (Units=GPa)
#
#
# Indices 1 2 3 4 5 6 
#
# 1 71.3884 15.3623 5.5993 0.0000 -4.6315 0.0000
# 2 15.3623 64.3764 6.5038 0.0000 -9.0004 0.0000
# 3 5.5993 6.5038 52.2100 0.0000 -1.2540 0.0000
# 4 0.0000 0.0000 0.0000 32.7928 0.0000 2.4679
# 5 -4.6315 -9.0004 -1.2540 0.0000 30.3931 0.0000
# 6 0.0000 0.0000 0.0000 2.4679 0.0000 20.7606
#
#
#
# Elastic Compliance Matrix: (Units=1/GPa)
#
#
# Indices 1 2 3 4 5 6 
#
# 1 0.014881 -0.003259 -0.001160 0.000000 0.001255 0.000000
# 2 -0.003259 0.017110 -0.001674 0.000000 0.004501 0.000000
# 3 -0.001160 -0.001674 0.019489 0.000000 0.000132 0.000000
# 4 0.000000 0.000000 0.000000 0.030770 0.000000 -0.003658
# 5 0.001255 0.004501 0.000132 0.000000 0.034432 0.000000
# 6 0.000000 0.000000 0.000000 -0.003658 0.000000 0.048603
#
#
# Mechanical properties :
#
#
# Convention : Reuss Voigt Hill
#
# Bulk Modulus (GPa) = 25.44782 26.98951 26.21867
# Shear Modulus (GPa) = 26.23730 27.48992 26.86361
#
# Velocity S-wave (km/s) = 3.48845 3.57075 3.52984
# Velocity P-wave (km/s) = 5.29423 5.43310 5.36411
#
# Compressibility (1/GPa) = 0.03929609
#
# Stress axis : x y z
#
# Youngs Moduli (GPa) = 67.19756 58.44661 51.30971
#
# Poissons Ratio (x) = 0.19045 0.05952
# Poissons Ratio (y) = 0.21897 0.08588
# Poissons Ratio (z) = 0.07794 0.09783
#
# Static dielectric constant tensor:
#      x y z
#    x 3.676710 0.000000 0.105390 
#    y 0.000000 3.800260 0.000000 
#    z 0.105390 0.000000 3.946610 
# 
# 
# High freq. dielectric constant tensor:
#      x y z
#    x 1.843830 0.000000 0.005240 
#    y 0.000000 1.837700 0.000000 
#    z 0.005240 0.000000 1.847480 
# 
# From -- ./inp_files/63322.got.cif
#   From: 2010.03.12/outbox.cif.g09.slc.cpg/sg14_32_cif.got.tgz:63322.got - 2010.03.31 13:35:05.
