data_PCOD8125158
_publ_section_title
;
Structure prediction by ZEFSAII (Michael W. Deem and Ramdas Pophale) SiO2 
 PCOD8125158
Probable space group: P 21/C
;
_chemical_formula_sum "Si O2"
_cell_formula_units_Z 32
_cell_length_a 16.793805
_cell_length_b 12.024942
_cell_length_c 24.858596
_cell_angle_alpha 90.000000
_cell_angle_beta 159.207065
_cell_angle_gamma 90.000000
_cell_volume 1782.078694
_symmetry_space_group_name_H-M "P 21/C"
_symmetry_group_IT_number 14
_symmetry_cell_setting 'monoclinic'
loop_
_space_group_symop_operation_xyz
x,y,z
-x,1/2+y,1/2-z
-x,-y,-z
x,1/2-y,1/2+z
loop_
_atom_site_type_symbol
_atom_site_label
_atom_site_fract_x
_atom_site_fract_y
_atom_site_fract_z
Si Si1 0.717726 0.666604 0.570443
Si Si2 0.265981 0.111085 0.091336
Si Si3 0.778736 0.812436 0.507671
Si Si4 0.194820 0.951455 0.228490
Si Si5 0.816371 0.027253 0.057054
Si Si6 0.456412 0.955932 0.630857
Si Si7 0.282443 0.736002 0.344912
Si Si8 0.817718 0.268820 0.097079
O O1 0.680937 0.751226 0.498065
O O2 0.786094 0.544291 0.592426
O O3 0.490144 0.655694 0.461450
O O4 0.914956 0.714807 0.732415
O O5 0.416805 0.092337 0.237859
O O6 0.290733 0.238939 0.087868
O O7 0.001409 0.089241 0.936776
O O8 0.337337 0.026847 0.087517
O O9 0.048087 0.824142 0.682736
O O10 0.669130 0.932108 0.431556
O O11 0.318251 0.846510 0.332463
O O12 0.370339 0.026948 0.308163
O O13 0.077803 0.019979 0.203487
O O14 0.751365 0.153643 0.026550
O O15 0.276273 0.867037 0.498583
O O16 0.290134 0.769913 0.412021
#
# Coordination Sequence:
#
# PCOD8125158 Si02
#       8
#     4   4   4   4   4   4   4   4
#     4  10  20  39  60  79 119 158 182 241 289 337
#     4   8  20  38  60  82 114 151 185 239 293 326
#     4   9  20  38  59  87 114 147 198 231 290 344
#     4   9  19  37  62  86 108 151 195 240 283 332
#     4   9  21  41  55  83 123 147 191 235 291 340
#     4  12  22  35  63  89 113 150 197 240 279 342
#     4  10  20  37  59  86 115 155 192 235 287 347
#     4  11  25  34  56  93 114 149 198 231 291 345
#
# _framework density 17.956558000000001
#
# number of rings (size 3 to 8) (size 9 to 14) (size 15 to 20)
#    0.750    1.500    3.750    0.375    7.000    1.000 
#    0.000    0.000    0.000    3.000    0.000    0.000 
#    0.000    0.000    0.000    0.000    0.000    0.000 
#
# Total GULP energy -396624.195119 kJ/mol
# GULP energy per Si atom -12394.506097 kJ/mol
# Density = 1.791569 g / cm^3
# Si number density = 17.956558 Si / 1000 Ang^3
#
#
#
# Elastic Constant Matrix: (Units=GPa)
#
#
# Indices 1 2 3 4 5 6 
#
# 1 63.0615 36.9717 48.3406 0.0000 6.0905 0.0000
# 2 36.9717 119.2054 37.3204 0.0000 -0.2864 0.0000
# 3 48.3406 37.3204 62.4612 0.0000 8.2082 0.0000
# 4 0.0000 0.0000 0.0000 18.4393 0.0000 -3.3405
# 5 6.0905 -0.2864 8.2082 0.0000 26.5194 0.0000
# 6 0.0000 0.0000 0.0000 -3.3405 0.0000 20.1382
#
#
#
# Elastic Compliance Matrix: (Units=1/GPa)
#
#
# Indices 1 2 3 4 5 6 
#
# 1 0.040043 -0.003357 -0.028949 0.000000 -0.000272 0.000000
# 2 -0.003357 0.010715 -0.004087 0.000000 0.002152 0.000000
# 3 -0.028949 -0.004087 0.041684 0.000000 -0.006298 0.000000
# 4 0.000000 0.000000 0.000000 0.055912 0.000000 0.009275
# 5 -0.000272 0.002152 -0.006298 0.000000 0.039743 0.000000
# 6 0.000000 0.000000 0.000000 0.009275 0.000000 0.051195
#
#
# Mechanical properties :
#
#
# Convention : Reuss Voigt Hill
#
# Bulk Modulus (GPa) = 50.87423 54.44376 52.65900
# Shear Modulus (GPa) = 15.69215 21.15908 18.42561
#
# Velocity S-wave (km/s) = 2.95938 3.43643 3.20679
# Velocity P-wave (km/s) = 6.33013 6.79198 6.56512
#
# Compressibility (1/GPa) = 0.01965632
#
# Stress axis : x y z
#
# Youngs Moduli (GPa) = 24.97291 93.33019 23.98997
#
# Poissons Ratio (x) = 0.31329 0.69449
# Poissons Ratio (y) = 0.08383 0.09804
# Poissons Ratio (z) = 0.72295 0.38142
#
# Static dielectric constant tensor:
#      x y z
#    x 3.186080 0.000000 0.044470 
#    y 0.000000 3.177850 0.000000 
#    z 0.044470 0.000000 3.135440 
# 
# 
# High freq. dielectric constant tensor:
#      x y z
#    x 1.685510 0.000000 0.003140 
#    y 0.000000 1.690020 0.000000 
#    z 0.003140 0.000000 1.683760 
# 
# From -- ./inp_files/77832.got.cif
#   From: 2010.03.12/outbox.cif.g09.slc.cpg/sg14_39_cif.got.tgz:77832.got - 2010.03.31 13:35:05.
