data_PCOD8125815
_publ_section_title
;
Structure prediction by ZEFSAII (Michael W. Deem and Ramdas Pophale) SiO2 
 PCOD8125815
Probable space group: P 21/C
;
_chemical_formula_sum "Si O2"
_cell_formula_units_Z 24
_cell_length_a 10.604050
_cell_length_b 18.616400
_cell_length_c 5.385262
_cell_angle_alpha 90.000000
_cell_angle_beta 104.710270
_cell_angle_gamma 90.000000
_cell_volume 1028.254421
_symmetry_space_group_name_H-M "P 21/C"
_symmetry_group_IT_number 14
_symmetry_cell_setting 'monoclinic'
loop_
_space_group_symop_operation_xyz
x,y,z
-x,1/2+y,1/2-z
-x,-y,-z
x,1/2-y,1/2+z
loop_
_atom_site_type_symbol
_atom_site_label
_atom_site_fract_x
_atom_site_fract_y
_atom_site_fract_z
Si Si1 0.109224 0.570139 0.804606
Si Si2 0.507862 0.727004 0.503993
Si Si3 0.401803 0.066644 0.950898
Si Si4 0.014349 0.091394 0.257181
Si Si5 0.652665 0.516351 0.076336
Si Si6 0.203294 0.214422 0.351530
O O1 0.067750 0.612062 0.532666
O O2 0.266012 0.557924 0.883000
O O3 0.043245 0.492277 0.771622
O O4 0.067745 0.612062 0.035066
O O5 0.429924 0.750011 0.215036
O O6 0.526400 0.642214 0.513216
O O7 0.639919 0.776148 0.570077
O O8 0.313115 0.061488 0.657925
O O9 0.313119 0.061492 0.155189
O O10 0.500000 0.000000 0.000000
O O11 0.152889 0.132511 0.326450
O O12 0.500000 0.500000 0.000000
O O13 0.145455 0.250031 0.572556
#
# Coordination Sequence:
#
# PCOD8125815 Si02
#       6
#     4   4   4   4   4   4
#     4  10  21  35  57  80 119 162 187 255 299 374
#     4  10  21  34  53  88 118 167 195 254 327 375
#     4  10  21  36  57  88 127 161 208 264 322 369
#     4  10  21  36  51  86 120 152 198 236 324 369
#     4  10  21  36  59  89 116 162 203 258 302 361
#     4  10  21  33  53  83 119 156 194 247 307 383
#
# _framework density 23.340525
#
# number of rings (size 3 to 8) (size 9 to 14) (size 15 to 20)
#    0.000    2.000    0.000    3.000    9.333    0.000 
#    0.000    0.000    0.000    0.000    0.000   93.333 
#    0.000    0.000    0.000    0.000    0.000    0.000 
#
# Total GULP energy -297331.915796 kJ/mol
# GULP energy per Si atom -12388.829825 kJ/mol
# Density = 2.328740 g / cm^3
# Si number density = 23.340525 Si / 1000 Ang^3
#
#
#
# Elastic Constant Matrix: (Units=GPa)
#
#
# Indices 1 2 3 4 5 6 
#
# 1 67.2638 -8.9528 35.1136 0.0000 2.2019 0.0000
# 2 -8.9528 46.7282 27.3621 0.0000 -12.4427 0.0000
# 3 35.1136 27.3621 236.5828 0.0000 -60.2405 0.0000
# 4 0.0000 0.0000 0.0000 30.4194 0.0000 0.0780
# 5 2.2019 -12.4427 -60.2405 0.0000 34.2671 0.0000
# 6 0.0000 0.0000 0.0000 0.0780 0.0000 30.6842
#
#
#
# Elastic Compliance Matrix: (Units=1/GPa)
#
#
# Indices 1 2 3 4 5 6 
#
# 1 0.018794 0.004383 -0.005791 0.000000 -0.009796 0.000000
# 2 0.004383 0.024843 -0.002351 0.000000 0.004606 0.000000
# 3 -0.005791 -0.002351 0.009478 0.000000 0.016181 0.000000
# 4 0.000000 0.000000 0.000000 0.032874 0.000000 -0.000084
# 5 -0.009796 0.004606 0.016181 0.000000 0.059931 0.000000
# 6 0.000000 0.000000 0.000000 -0.000084 0.000000 0.032590
#
#
# Mechanical properties :
#
#
# Convention : Reuss Voigt Hill
#
# Bulk Modulus (GPa) = 21.93049 50.84673 36.38861
# Shear Modulus (GPa) = 24.84763 38.87760 31.86261
#
# Velocity S-wave (km/s) = 3.26631 4.08569 3.69876
# Velocity P-wave (km/s) = 4.86224 6.63997 5.81939
#
# Compressibility (1/GPa) = 0.04559861
#
# Stress axis : x y z
#
# Youngs Moduli (GPa) = 53.20916 40.25235 105.50367
#
# Poissons Ratio (x) = -0.17643 0.61093
# Poissons Ratio (y) = -0.23322 0.24803
# Poissons Ratio (z) = 0.30811 0.09463
#
# Static dielectric constant tensor:
#      x y z
#    x 4.006460 0.000000 -1.028820 
#    y 0.000000 3.770000 0.000000 
#    z -1.028820 0.000000 7.006670 
# 
# 
# High freq. dielectric constant tensor:
#      x y z
#    x 1.872980 0.000000 -0.032460 
#    y 0.000000 1.889780 0.000000 
#    z -0.032460 0.000000 1.967660 
# 
# From -- ./inp_files/2662.got.cif
#   From: 2010.03.12/outbox.cif.g09.slc.cpg/sg14_2_cif.got.tgz:2662.got - 2010.03.31 13:35:05.
