data_PCOD8125797
_publ_section_title
;
Structure prediction by ZEFSAII (Michael W. Deem and Ramdas Pophale) SiO2 
 PCOD8125797
Probable space group: P 21/C
;
_chemical_formula_sum "Si O2"
_cell_formula_units_Z 32
_cell_length_a 12.252348
_cell_length_b 8.816694
_cell_length_c 23.662844
_cell_angle_alpha 90.000000
_cell_angle_beta 144.286731
_cell_angle_gamma 90.000000
_cell_volume 1492.119131
_symmetry_space_group_name_H-M "P 21/C"
_symmetry_group_IT_number 14
_symmetry_cell_setting 'monoclinic'
loop_
_space_group_symop_operation_xyz
x,y,z
-x,1/2+y,1/2-z
-x,-y,-z
x,1/2-y,1/2+z
loop_
_atom_site_type_symbol
_atom_site_label
_atom_site_fract_x
_atom_site_fract_y
_atom_site_fract_z
Si Si1 0.175256 0.325711 0.525719
Si Si2 0.742558 0.281078 0.682141
Si Si3 0.831684 0.128835 0.608731
Si Si4 0.246980 0.366068 0.319147
Si Si5 0.496064 0.873912 0.329554
Si Si6 0.420568 0.697090 0.096031
Si Si7 0.847646 0.773477 0.607766
Si Si8 0.760332 0.364694 0.384233
O O1 0.306205 0.195660 0.609516
O O2 0.211331 0.313866 0.473747
O O3 0.228364 0.491532 0.569800
O O4 0.959921 0.295260 0.450500
O O5 0.713965 0.177073 0.614654
O O6 0.738384 0.456086 0.663496
O O7 0.584470 0.252627 0.661955
O O8 0.937348 0.234153 0.791958
O O9 0.745041 0.218698 0.519253
O O10 0.047869 0.177544 0.707218
O O11 0.811499 0.951664 0.587660
O O12 0.406413 0.306828 0.344550
O O13 0.274668 0.287678 0.391551
O O14 0.358298 0.909397 0.220238
O O15 0.513744 0.024067 0.374376
O O16 0.344093 0.732986 0.125998
#
# Coordination Sequence:
#
# PCOD8125797 Si02
#       8
#     4   4   4   4   4   4   4   4
#     4  11  24  45  71  93 129 182 218 274 328 388
#     4  10  22  41  68  99 138 170 212 275 329 394
#     4  10  23  42  64 102 136 173 215 267 338 394
#     4  10  24  40  68 102 135 172 213 274 328 396
#     4  12  24  44  69  97 134 175 221 276 326 389
#     4  12  26  42  68 100 131 178 219 271 330 397
#     4  10  20  44  67  98 134 173 217 265 334 392
#     4  11  27  46  65  99 132 174 230 272 325 387
#
# _framework density 21.446009
#
# number of rings (size 3 to 8) (size 9 to 14) (size 15 to 20)
#    0.000    1.250    2.500    2.250    3.500    6.000 
#    0.000    0.000    0.000    0.000    0.000    0.000 
#    0.000    0.000    0.000    0.000    0.000    0.000 
#
# Total GULP energy -396940.854289 kJ/mol
# GULP energy per Si atom -12404.401697 kJ/mol
# Density = 2.139720 g / cm^3
# Si number density = 21.446009 Si / 1000 Ang^3
#
#
#
# Elastic Constant Matrix: (Units=GPa)
#
#
# Indices 1 2 3 4 5 6 
#
# 1 97.8705 25.4222 55.6767 0.0000 -1.3564 0.0000
# 2 25.4222 52.8281 30.1978 0.0000 1.2284 0.0000
# 3 55.6767 30.1978 118.7070 0.0000 -0.5683 0.0000
# 4 0.0000 0.0000 0.0000 31.9059 0.0000 -1.3983
# 5 -1.3564 1.2284 -0.5683 0.0000 27.1254 0.0000
# 6 0.0000 0.0000 0.0000 -1.3983 0.0000 38.1545
#
#
#
# Elastic Compliance Matrix: (Units=1/GPa)
#
#
# Indices 1 2 3 4 5 6 
#
# 1 0.014519 -0.003644 -0.005879 0.000000 0.000768 0.000000
# 2 -0.003644 0.023099 -0.004173 0.000000 -0.001316 0.000000
# 3 -0.005879 -0.004173 0.012244 0.000000 0.000152 0.000000
# 4 0.000000 0.000000 0.000000 0.031393 0.000000 0.001150
# 5 0.000768 -0.001316 0.000152 0.000000 0.036967 0.000000
# 6 0.000000 0.000000 0.000000 0.001150 0.000000 0.026251
#
#
# Mechanical properties :
#
#
# Convention : Reuss Voigt Hill
#
# Bulk Modulus (GPa) = 44.50559 54.66655 49.58607
# Shear Modulus (GPa) = 27.87742 29.97776 28.92759
#
# Velocity S-wave (km/s) = 3.60931 3.74281 3.67666
# Velocity P-wave (km/s) = 6.17794 6.65010 6.41836
#
# Compressibility (1/GPa) = 0.02246909
#
# Stress axis : x y z
#
# Youngs Moduli (GPa) = 68.87318 43.29169 81.67276
#
# Poissons Ratio (x) = 0.15776 0.48018
# Poissons Ratio (y) = 0.25099 0.34084
# Poissons Ratio (z) = 0.40492 0.18067
#
# Static dielectric constant tensor:
#      x y z
#    x 3.817320 0.000000 0.059860 
#    y 0.000000 3.680190 0.000000 
#    z 0.059860 0.000000 4.093340 
# 
# 
# High freq. dielectric constant tensor:
#      x y z
#    x 1.840880 0.000000 0.002620 
#    y 0.000000 1.839320 0.000000 
#    z 0.002620 0.000000 1.858580 
# 
# From -- ./inp_files/73130.got.cif
#   From: 2010.03.12/outbox.cif.g09.slc.cpg/sg14_37_cif.got.tgz:73130.got - 2010.03.31 13:35:05.
