data_PCOD8125179
_publ_section_title
;
Structure prediction by ZEFSAII (Michael W. Deem and Ramdas Pophale) SiO2 
 PCOD8125179
Probable space group: P 21/C
;
_chemical_formula_sum "Si O2"
_cell_formula_units_Z 28
_cell_length_a 9.350876
_cell_length_b 9.354544
_cell_length_c 13.066935
_cell_angle_alpha 90.000000
_cell_angle_beta 125.349320
_cell_angle_gamma 90.000000
_cell_volume 932.281567
_symmetry_space_group_name_H-M "P 21/C"
_symmetry_group_IT_number 14
_symmetry_cell_setting 'monoclinic'
loop_
_space_group_symop_operation_xyz
x,y,z
-x,1/2+y,1/2-z
-x,-y,-z
x,1/2-y,1/2+z
loop_
_atom_site_type_symbol
_atom_site_label
_atom_site_fract_x
_atom_site_fract_y
_atom_site_fract_z
Si Si1 0.139557 0.522823 0.914482
Si Si2 0.024346 0.222384 0.493655
Si Si3 0.340097 0.689909 0.753565
Si Si4 0.635468 0.883946 0.177175
Si Si5 0.710148 0.361080 0.574567
Si Si6 0.109593 0.131339 0.205460
Si Si7 0.551563 0.430080 0.825435
O O1 0.988650 0.609943 0.913285
O O2 0.117918 0.514009 0.779558
O O3 0.330572 0.587577 0.022906
O O4 0.130212 0.355443 0.946563
O O5 0.842766 0.272192 0.371705
O O6 0.117941 0.364539 0.582370
O O7 0.368343 0.748868 0.877585
O O8 0.369933 0.516928 0.770584
O O9 0.486968 0.775657 0.743672
O O10 0.727050 0.731479 0.196202
O O11 0.666821 0.968321 0.297225
O O12 0.719256 0.979815 0.122873
O O13 0.423485 0.863723 0.076590
O O14 0.907385 0.306042 0.632799
#
# Coordination Sequence:
#
# PCOD8125179 Si02
#       7
#     4   4   4   4   4   4   4
#     4  10  20  37  60  86 118 164 211 255 314 384
#     4  10  20  37  60  86 118 164 211 255 314 384
#     4  10  20  38  62  88 125 168 213 263 322 388
#     4  10  21  37  59  88 123 165 211 261 321 386
#     4  10  21  37  59  88 123 165 211 261 321 386
#     4  12  20  34  64  92 120 158 214 264 310 382
#     4  10  20  38  62  88 125 168 213 263 322 388
#
# _framework density 30.033844999999999
#
# number of rings (size 3 to 8) (size 9 to 14) (size 15 to 20)
#    0.000    1.714    2.857    2.571    0.000    0.000 
#    0.000    4.286    0.000   12.000    0.000    0.000 
#    0.000    0.000    0.000    0.000    0.000    0.000 
#
# Total GULP energy -346870.076646 kJ/mol
# GULP energy per Si atom -12388.217023 kJ/mol
# Density = 2.996549 g / cm^3
# Si number density = 30.033845 Si / 1000 Ang^3
#
#
#
# Elastic Constant Matrix: (Units=GPa)
#
#
# Indices 1 2 3 4 5 6 
#
# 1 44.3744 -17.0493 -2.0983 0.0000 9.2266 0.0000
# 2 -17.0493 118.8240 -6.8151 0.0000 -16.5675 0.0000
# 3 -2.0983 -6.8151 94.5230 0.0000 -4.0599 0.0000
# 4 0.0000 0.0000 0.0000 45.5492 0.0000 0.9404
# 5 9.2266 -16.5675 -4.0599 0.0000 34.0436 0.0000
# 6 0.0000 0.0000 0.0000 0.9404 0.0000 48.6760
#
#
#
# Elastic Compliance Matrix: (Units=1/GPa)
#
#
# Indices 1 2 3 4 5 6 
#
# 1 0.024748 0.002848 0.000529 0.000000 -0.005258 0.000000
# 2 0.002848 0.009424 0.000911 0.000000 0.003923 0.000000
# 3 0.000529 0.000911 0.010725 0.000000 0.001579 0.000000
# 4 0.000000 0.000000 0.000000 0.021963 0.000000 -0.000424
# 5 -0.005258 0.003923 0.001579 0.000000 0.032897 0.000000
# 6 0.000000 0.000000 0.000000 -0.000424 0.000000 0.020552
#
#
# Mechanical properties :
#
#
# Convention : Reuss Voigt Hill
#
# Bulk Modulus (GPa) = 18.70107 22.86623 20.78365
# Shear Modulus (GPa) = 38.59330 44.56604 41.57967
#
# Velocity S-wave (km/s) = 3.58857 3.85627 3.72483
# Velocity P-wave (km/s) = 4.83845 5.24002 5.04323
#
# Compressibility (1/GPa) = 0.05347288
#
# Stress axis : x y z
#
# Youngs Moduli (GPa) = 40.40711 106.11562 93.24278
#
# Poissons Ratio (x) = -0.30223 -0.04932
# Poissons Ratio (y) = -0.11509 -0.08496
# Poissons Ratio (z) = -0.02137 -0.09669
#
# Static dielectric constant tensor:
#      x y z
#    x 5.695530 0.000000 -0.224030 
#    y 0.000000 5.973310 0.000000 
#    z -0.224030 0.000000 5.574190 
# 
# 
# High freq. dielectric constant tensor:
#      x y z
#    x 2.230710 0.000000 -0.005260 
#    y 0.000000 2.241790 0.000000 
#    z -0.005260 0.000000 2.237030 
# 
# From -- ./inp_files/40162.got.cif
#   From: 2010.03.12/outbox.cif.g09.slc.cpg/sg14_21_cif.got.tgz:40162.got - 2010.03.31 13:35:05.
