data_PCOD8125941
_publ_section_title
;
Structure prediction by ZEFSAII (Michael W. Deem and Ramdas Pophale) SiO2 
 PCOD8125941
Probable space group: P 21/C
;
_chemical_formula_sum "Si O2"
_cell_formula_units_Z 24
_cell_length_a 7.361147
_cell_length_b 9.377882
_cell_length_c 22.646751
_cell_angle_alpha 90.000000
_cell_angle_beta 132.783568
_cell_angle_gamma 90.000000
_cell_volume 1147.381014
_symmetry_space_group_name_H-M "P 21/C"
_symmetry_group_IT_number 14
_symmetry_cell_setting 'monoclinic'
loop_
_space_group_symop_operation_xyz
x,y,z
-x,1/2+y,1/2-z
-x,-y,-z
x,1/2-y,1/2+z
loop_
_atom_site_type_symbol
_atom_site_label
_atom_site_fract_x
_atom_site_fract_y
_atom_site_fract_z
Si Si1 0.645553 0.291109 0.010979
Si Si2 0.863307 0.905867 0.576685
Si Si3 0.935682 0.201734 0.968097
Si Si4 0.971339 0.680770 0.314591
Si Si5 0.715706 0.931194 0.868620
Si Si6 0.851279 0.509783 0.748177
O O1 0.744264 0.451039 0.025458
O O2 0.774286 0.212670 0.094491
O O3 0.350960 0.290822 0.955361
O O4 0.706125 0.211608 0.963058
O O5 0.038734 0.844378 0.564373
O O6 0.028675 0.933381 0.669671
O O7 0.884268 0.072147 0.912071
O O8 0.190683 0.180380 0.061097
O O9 0.755874 0.636112 0.312682
O O10 0.013244 0.548438 0.280183
O O11 0.882763 0.819733 0.258667
O O12 0.432248 0.965155 0.816251
#
# Coordination Sequence:
#
# PCOD8125941 Si02
#       6
#     4   4   4   4   4   4
#     4   9  20  40  60  90 122 156 208 250 302 369
#     4  10  21  36  63  91 120 162 202 253 307 362
#     4  10  21  39  64  87 118 165 205 251 306 364
#     4  10  24  42  60  90 127 163 206 254 310 368
#     4  10  24  40  60  91 124 160 209 256 305 366
#     4  11  25  39  63  92 126 165 202 259 311 365
#
# _framework density 20.917200999999999
#
# number of rings (size 3 to 8) (size 9 to 14) (size 15 to 20)
#    0.000    2.000    0.000    1.500    7.000    0.000 
#    0.000    8.333    0.000    0.000    0.000    0.000 
#    0.000    0.000    0.000    0.000    0.000    0.000 
#
# Total GULP energy -297690.790674 kJ/mol
# GULP energy per Si atom -12403.782945 kJ/mol
# Density = 2.086959 g / cm^3
# Si number density = 20.917201 Si / 1000 Ang^3
#
#
#
# Elastic Constant Matrix: (Units=GPa)
#
#
# Indices 1 2 3 4 5 6 
#
# 1 76.1566 29.8256 32.7211 0.0000 -5.9419 0.0000
# 2 29.8256 79.6045 23.7266 0.0000 -26.1824 0.0000
# 3 32.7211 23.7266 61.9110 0.0000 -3.8767 0.0000
# 4 0.0000 0.0000 0.0000 17.8009 0.0000 -15.5760
# 5 -5.9419 -26.1824 -3.8767 0.0000 32.5526 0.0000
# 6 0.0000 0.0000 0.0000 -15.5760 0.0000 36.7811
#
#
#
# Elastic Compliance Matrix: (Units=1/GPa)
#
#
# Indices 1 2 3 4 5 6 
#
# 1 0.018373 -0.005092 -0.007864 0.000000 -0.001678 0.000000
# 2 -0.005092 0.020778 -0.004316 0.000000 0.015269 0.000000
# 3 -0.007864 -0.004316 0.021818 0.000000 -0.002308 0.000000
# 4 0.000000 0.000000 0.000000 0.089248 0.000000 0.037795
# 5 -0.001678 0.015269 -0.002308 0.000000 0.042419 0.000000
# 6 0.000000 0.000000 0.000000 0.037795 0.000000 0.043193
#
#
# Mechanical properties :
#
#
# Convention : Reuss Voigt Hill
#
# Bulk Modulus (GPa) = 37.84212 43.35765 40.59988
# Shear Modulus (GPa) = 17.90954 26.18685 22.04819
#
# Velocity S-wave (km/s) = 2.92928 3.54210 3.25017
# Velocity P-wave (km/s) = 5.43798 6.12388 5.79109
#
# Compressibility (1/GPa) = 0.02642558
#
# Stress axis : x y z
#
# Youngs Moduli (GPa) = 54.42793 48.12737 45.83383
#
# Poissons Ratio (x) = 0.24506 0.36044
# Poissons Ratio (y) = 0.27714 0.19781
# Poissons Ratio (z) = 0.42803 0.20770
#
# Static dielectric constant tensor:
#      x y z
#    x 3.621970 0.000000 -0.023330 
#    y 0.000000 3.815240 0.000000 
#    z -0.023330 0.000000 3.780110 
# 
# 
# High freq. dielectric constant tensor:
#      x y z
#    x 1.815410 0.000000 -0.006190 
#    y 0.000000 1.820300 0.000000 
#    z -0.006190 0.000000 1.822560 
# 
# From -- ./inp_files/63391.got.cif
#   From: 2010.03.12/outbox.cif.g09.slc.cpg/sg14_32_cif.got.tgz:63391.got - 2010.03.31 13:35:05.
