data_PCOD8125298
_publ_section_title
;
Structure prediction by ZEFSAII (Michael W. Deem and Ramdas Pophale) SiO2 
 PCOD8125298
Probable space group: P 21/C
;
_chemical_formula_sum "Si O2"
_cell_formula_units_Z 32
_cell_length_a 9.265363
_cell_length_b 27.133182
_cell_length_c 9.251269
_cell_angle_alpha 90.000000
_cell_angle_beta 46.714796
_cell_angle_gamma 90.000000
_cell_volume 1693.034975
_symmetry_space_group_name_H-M "P 21/C"
_symmetry_group_IT_number 14
_symmetry_cell_setting 'monoclinic'
loop_
_space_group_symop_operation_xyz
x,y,z
-x,1/2+y,1/2-z
-x,-y,-z
x,1/2-y,1/2+z
loop_
_atom_site_type_symbol
_atom_site_label
_atom_site_fract_x
_atom_site_fract_y
_atom_site_fract_z
Si Si1 0.978972 0.360686 0.693713
Si Si2 0.247147 0.190763 0.524212
Si Si3 0.622475 0.884686 0.187535
Si Si4 0.456391 0.610837 0.097521
Si Si5 0.567169 0.951264 0.780544
Si Si6 0.681255 0.444592 0.275561
Si Si7 0.939779 0.614405 0.044040
Si Si8 0.214517 0.213201 0.872676
O O1 0.153448 0.398031 0.518176
O O2 0.985943 0.357590 0.863023
O O3 0.018749 0.306811 0.593629
O O4 0.770763 0.381586 0.786954
O O5 0.454316 0.161555 0.398721
O O6 0.083254 0.153608 0.570517
O O7 0.173420 0.213150 0.727905
O O8 0.279295 0.233528 0.384097
O O9 0.582208 0.907347 0.372830
O O10 0.459772 0.901764 0.186696
O O11 0.605836 0.824846 0.214490
O O12 0.472606 0.565609 0.195531
O O13 0.733169 0.912794 0.720389
O O14 0.661292 0.005486 0.695898
O O15 0.382804 0.954785 0.016621
O O16 0.906238 0.426638 0.115326
#
# Coordination Sequence:
#
# PCOD8125298 Si02
#       8
#     4   4   4   4   4   4   4   4
#     4  10  20  38  60  83 121 150 194 237 290 342
#     4  10  21  39  61  85 118 150 194 243 285 350
#     4   9  20  38  58  83 122 150 192 243 286 348
#     4  10  21  39  61  85 114 158 188 241 295 344
#     4  10  23  37  59  88 120 150 203 245 287 349
#     4  11  21  38  60  87 117 158 199 237 296 351
#     4  11  21  38  63  82 118 160 192 244 295 340
#     4   9  20  37  58  83 119 145 190 240 287 339
#
# _framework density 18.900967999999999
#
# number of rings (size 3 to 8) (size 9 to 14) (size 15 to 20)
#    0.750    1.250    2.500    1.125    1.750    0.500 
#    2.250    1.875    0.000    0.000    0.000    0.000 
#    0.000    0.000    0.000    0.000    0.000    0.000 
#
# Total GULP energy -396618.795613 kJ/mol
# GULP energy per Si atom -12394.337363 kJ/mol
# Density = 1.885795 g / cm^3
# Si number density = 18.900968 Si / 1000 Ang^3
#
#
#
# Elastic Constant Matrix: (Units=GPa)
#
#
# Indices 1 2 3 4 5 6 
#
# 1 88.0070 17.9587 24.7686 0.0000 -2.6424 0.0000
# 2 17.9587 64.5270 13.0596 0.0000 6.8220 0.0000
# 3 24.7686 13.0596 78.3228 0.0000 3.7387 0.0000
# 4 0.0000 0.0000 0.0000 26.6529 0.0000 3.6936
# 5 -2.6424 6.8220 3.7387 0.0000 23.4045 0.0000
# 6 0.0000 0.0000 0.0000 3.6936 0.0000 20.4364
#
#
#
# Elastic Compliance Matrix: (Units=1/GPa)
#
#
# Indices 1 2 3 4 5 6 
#
# 1 0.013173 -0.003223 -0.003773 0.000000 0.003029 0.000000
# 2 -0.003223 0.017264 -0.001614 0.000000 -0.005138 0.000000
# 3 -0.003773 -0.001614 0.014337 0.000000 -0.002246 0.000000
# 4 0.000000 0.000000 0.000000 0.038483 0.000000 -0.006955
# 5 0.003029 -0.005138 -0.002246 0.000000 0.044925 0.000000
# 6 0.000000 0.000000 0.000000 -0.006955 0.000000 0.050189
#
#
# Mechanical properties :
#
#
# Convention : Reuss Voigt Hill
#
# Bulk Modulus (GPa) = 36.29188 38.04783 37.16985
# Shear Modulus (GPa) = 24.41668 25.77007 25.09338
#
# Velocity S-wave (km/s) = 3.59809 3.69647 3.64761
# Velocity P-wave (km/s) = 6.04189 6.19615 6.11951
#
# Compressibility (1/GPa) = 0.02755437
#
# Stress axis : x y z
#
# Youngs Moduli (GPa) = 75.91136 57.92297 69.74854
#
# Poissons Ratio (x) = 0.18668 0.26317
# Poissons Ratio (y) = 0.24466 0.11259
# Poissons Ratio (z) = 0.28642 0.09350
#
# Static dielectric constant tensor:
#      x y z
#    x 3.354950 0.000000 0.142020 
#    y 0.000000 3.307300 0.000000 
#    z 0.142020 0.000000 3.505800 
# 
# 
# High freq. dielectric constant tensor:
#      x y z
#    x 1.729460 0.000000 0.013830 
#    y 0.000000 1.719760 0.000000 
#    z 0.013830 0.000000 1.736200 
# 
# From -- ./inp_files/11067.got.cif
#   From: 2010.03.12/outbox.cif.g09.slc.cpg/sg14_6_cif.got.tgz:11067.got - 2010.03.31 13:35:05.
