data_PCOD8125436
_publ_section_title
;
Structure prediction by ZEFSAII (Michael W. Deem and Ramdas Pophale) SiO2 
 PCOD8125436
Probable space group: P 21/C
;
_chemical_formula_sum "Si O2"
_cell_formula_units_Z 28
_cell_length_a 8.750947
_cell_length_b 13.636166
_cell_length_c 17.396649
_cell_angle_alpha 90.000000
_cell_angle_beta 39.792426
_cell_angle_gamma 90.000000
_cell_volume 1328.612785
_symmetry_space_group_name_H-M "P 21/C"
_symmetry_group_IT_number 14
_symmetry_cell_setting 'monoclinic'
loop_
_space_group_symop_operation_xyz
x,y,z
-x,1/2+y,1/2-z
-x,-y,-z
x,1/2-y,1/2+z
loop_
_atom_site_type_symbol
_atom_site_label
_atom_site_fract_x
_atom_site_fract_y
_atom_site_fract_z
Si Si1 0.278685 0.639037 0.017609
Si Si2 0.503839 0.143303 0.407228
Si Si3 0.632275 0.144106 0.830875
Si Si4 0.978155 0.956841 0.422878
Si Si5 0.851224 0.147641 0.914073
Si Si6 0.644613 0.956811 0.274881
Si Si7 0.726076 0.001318 0.080641
O O1 0.469994 0.653972 0.011445
O O2 0.097474 0.548569 0.102520
O O3 0.129628 0.739105 0.068214
O O4 0.429388 0.615394 0.882376
O O5 0.597088 0.240506 0.327823
O O6 0.227775 0.125585 0.494565
O O7 0.666748 0.050395 0.321832
O O8 0.748706 0.129281 0.869181
O O9 0.369517 0.093580 0.929836
O O10 0.791968 0.095197 0.702345
O O11 0.000000 0.000000 0.500000
O O12 0.113798 0.103749 0.817340
O O13 0.681384 0.094689 0.042855
O O14 0.577492 0.002477 0.217493
O O15 0.000000 0.000000 0.000000
#
# Coordination Sequence:
#
# PCOD8125436 Si02
#       7
#     4   4   4   4   4   4   4
#     4  10  21  39  61  88 123 162 203 246 299 361
#     4  10  22  39  62  88 120 164 204 244 298 358
#     4  11  22  39  63  90 122 160 202 251 298 352
#     4  11  23  39  62  93 124 159 204 248 298 364
#     4  10  22  38  62  90 118 161 209 248 293 356
#     4  10  20  39  60  84 124 162 195 249 306 351
#     4  10  23  39  57  85 119 154 192 244 304 352
#
# _framework density 21.074614
#
# number of rings (size 3 to 8) (size 9 to 14) (size 15 to 20)
#    0.000    1.714    0.000    5.571    0.000    8.000 
#    0.000    4.286    0.000    0.000    0.000    0.000 
#    0.000    0.000    0.000    0.000    0.000    0.000 
#
# Total GULP energy -347009.203154 kJ/mol
# GULP energy per Si atom -12393.185827 kJ/mol
# Density = 2.102665 g / cm^3
# Si number density = 21.074614 Si / 1000 Ang^3
#
#
#
# Elastic Constant Matrix: (Units=GPa)
#
#
# Indices 1 2 3 4 5 6 
#
# 1 77.0400 42.3616 38.6224 0.0000 -0.6419 0.0000
# 2 42.3616 155.4030 72.9735 0.0000 -8.9093 0.0000
# 3 38.6224 72.9735 113.6121 0.0000 5.2725 0.0000
# 4 0.0000 0.0000 0.0000 37.9222 0.0000 -2.8718
# 5 -0.6419 -8.9093 5.2725 0.0000 34.8655 0.0000
# 6 0.0000 0.0000 0.0000 -2.8718 0.0000 30.7909
#
#
#
# Elastic Compliance Matrix: (Units=1/GPa)
#
#
# Indices 1 2 3 4 5 6 
#
# 1 0.016376 -0.002624 -0.003892 0.000000 0.000220 0.000000
# 2 -0.002624 0.010021 -0.005701 0.000000 0.003374 0.000000
# 3 -0.003892 -0.005701 0.013956 0.000000 -0.003639 0.000000
# 4 0.000000 0.000000 0.000000 0.026557 0.000000 0.002477
# 5 0.000220 0.003374 -0.003639 0.000000 0.030098 0.000000
# 6 0.000000 0.000000 0.000000 0.002477 0.000000 0.032708
#
#
# Mechanical properties :
#
#
# Convention : Reuss Voigt Hill
#
# Bulk Modulus (GPa) = 62.81872 72.66334 67.74103
# Shear Modulus (GPa) = 31.35674 33.52221 32.43948
#
# Velocity S-wave (km/s) = 3.86150 3.99261 3.92761
# Velocity P-wave (km/s) = 7.05366 7.47051 7.26508
#
# Compressibility (1/GPa) = 0.01591882
#
# Stress axis : x y z
#
# Youngs Moduli (GPa) = 61.06503 99.79473 71.65631
#
# Poissons Ratio (x) = 0.26184 0.27888
# Poissons Ratio (y) = 0.16022 0.40850
# Poissons Ratio (z) = 0.23766 0.56892
#
# Static dielectric constant tensor:
#      x y z
#    x 4.014820 0.000000 0.179280 
#    y 0.000000 4.022760 0.000000 
#    z 0.179280 0.000000 3.947050 
# 
# 
# High freq. dielectric constant tensor:
#      x y z
#    x 1.839810 0.000000 0.006930 
#    y 0.000000 1.827800 0.000000 
#    z 0.006930 0.000000 1.816700 
# 
# From -- ./inp_files/55923.got.cif
#   From: 2010.03.12/outbox.cif.g09.slc.cpg/sg14_28_cif.got.tgz:55923.got - 2010.03.31 13:35:05.
