data_PCOD8125674
_publ_section_title
;
Structure prediction by ZEFSAII (Michael W. Deem and Ramdas Pophale) SiO2 
 PCOD8125674
Probable space group: P 21/C
;
_chemical_formula_sum "Si O2"
_cell_formula_units_Z 28
_cell_length_a 8.404012
_cell_length_b 13.360037
_cell_length_c 14.561851
_cell_angle_alpha 90.000000
_cell_angle_beta 126.661703
_cell_angle_gamma 90.000000
_cell_volume 1311.535315
_symmetry_space_group_name_H-M "P 21/C"
_symmetry_group_IT_number 14
_symmetry_cell_setting 'monoclinic'
loop_
_space_group_symop_operation_xyz
x,y,z
-x,1/2+y,1/2-z
-x,-y,-z
x,1/2-y,1/2+z
loop_
_atom_site_type_symbol
_atom_site_label
_atom_site_fract_x
_atom_site_fract_y
_atom_site_fract_z
Si Si1 0.169860 0.274035 0.032300
Si Si2 0.247903 0.924065 0.781140
Si Si3 0.616746 0.872215 0.231637
Si Si4 0.268304 0.746718 0.150515
Si Si5 0.188873 0.450184 0.895276
Si Si6 0.416359 0.868335 0.536241
Si Si7 0.462133 0.174671 0.002016
O O1 0.238695 0.301060 0.159025
O O2 0.300599 0.188633 0.027408
O O3 0.172416 0.376165 0.975541
O O4 0.948979 0.229263 0.963488
O O5 0.257607 0.811768 0.742845
O O6 0.387306 0.915887 0.919556
O O7 0.021171 0.950505 0.730747
O O8 0.329702 0.010229 0.739999
O O9 0.394194 0.850585 0.194685
O O10 0.641701 0.846846 0.131799
O O11 0.390316 0.671333 0.128909
O O12 0.369097 0.422452 0.890024
O O13 0.232170 0.560407 0.948769
O O14 0.413899 0.777735 0.462513
#
# Coordination Sequence:
#
# PCOD8125674 Si02
#       7
#     4   4   4   4   4   4   4
#     4  10  20  41  63  88 125 161 209 258 301 358
#     4  11  21  40  62  90 129 161 203 252 317 373
#     4  11  22  39  64  88 121 172 201 251 315 369
#     4  10  21  39  61  91 120 160 210 256 302 358
#     4   9  19  36  63  93 115 159 209 258 302 353
#     4   9  18  37  57  90 121 152 210 255 292 361
#     4  10  22  40  59  87 132 158 199 253 310 380
#
# _framework density 21.349022999999999
#
# number of rings (size 3 to 8) (size 9 to 14) (size 15 to 20)
#    0.000    2.000    1.429    2.143    0.000    2.286 
#   30.857    0.714    0.000    0.000    0.000    0.000 
#    0.000    0.000    0.000    0.000    0.000    0.000 
#
# Total GULP energy -347071.823838 kJ/mol
# GULP energy per Si atom -12395.422280 kJ/mol
# Density = 2.130043 g / cm^3
# Si number density = 21.349023 Si / 1000 Ang^3
#
#
#
# Elastic Constant Matrix: (Units=GPa)
#
#
# Indices 1 2 3 4 5 6 
#
# 1 77.2492 16.3294 44.0265 0.0000 21.3185 0.0000
# 2 16.3294 48.6333 20.4787 0.0000 21.0027 0.0000
# 3 44.0265 20.4787 130.6440 0.0000 18.8224 0.0000
# 4 0.0000 0.0000 0.0000 28.2511 0.0000 5.8493
# 5 21.3185 21.0027 18.8224 0.0000 38.4323 0.0000
# 6 0.0000 0.0000 0.0000 5.8493 0.0000 23.8207
#
#
#
# Elastic Compliance Matrix: (Units=1/GPa)
#
#
# Indices 1 2 3 4 5 6 
#
# 1 0.017845 -0.000914 -0.004859 0.000000 -0.007019 0.000000
# 2 -0.000914 0.027595 -0.002063 0.000000 -0.013563 0.000000
# 3 -0.004859 -0.002063 0.009753 0.000000 -0.000953 0.000000
# 4 0.000000 0.000000 0.000000 0.037293 0.000000 -0.009157
# 5 -0.007019 -0.013563 -0.000953 0.000000 0.037792 0.000000
# 6 0.000000 0.000000 0.000000 -0.009157 0.000000 0.044229
#
#
# Mechanical properties :
#
#
# Convention : Reuss Voigt Hill
#
# Bulk Modulus (GPa) = 25.30437 46.46620 35.88529
# Shear Modulus (GPa) = 24.58780 29.81360 27.20070
#
# Velocity S-wave (km/s) = 3.39736 3.74101 3.57332
# Velocity P-wave (km/s) = 5.22186 6.36180 5.81981
#
# Compressibility (1/GPa) = 0.03951887
#
# Stress axis : x y z
#
# Youngs Moduli (GPa) = 56.03883 36.23846 102.53597
#
# Poissons Ratio (x) = 0.03313 0.49822
# Poissons Ratio (y) = 0.05124 0.21157
# Poissons Ratio (z) = 0.27229 0.07478
#
# Static dielectric constant tensor:
#      x y z
#    x 3.885030 0.000000 0.256540 
#    y 0.000000 3.921680 0.000000 
#    z 0.256540 0.000000 3.856930 
# 
# 
# High freq. dielectric constant tensor:
#      x y z
#    x 1.827870 0.000000 0.011230 
#    y 0.000000 1.827200 0.000000 
#    z 0.011230 0.000000 1.833140 
# 
# From -- ./inp_files/25584.got.cif
#   From: 2010.03.12/outbox.cif.g09.slc.cpg/sg14_13_cif.got.tgz:25584.got - 2010.03.31 13:35:05.
