data_PCOD8125177
_publ_section_title
;
Structure prediction by ZEFSAII (Michael W. Deem and Ramdas Pophale) SiO2 
 PCOD8125177
Probable space group: P 21/C
;
_chemical_formula_sum "Si O2"
_cell_formula_units_Z 24
_cell_length_a 6.950869
_cell_length_b 8.117892
_cell_length_c 22.045845
_cell_angle_alpha 90.000000
_cell_angle_beta 119.268525
_cell_angle_gamma 90.000000
_cell_volume 1085.160316
_symmetry_space_group_name_H-M "P 21/C"
_symmetry_group_IT_number 14
_symmetry_cell_setting 'monoclinic'
loop_
_space_group_symop_operation_xyz
x,y,z
-x,1/2+y,1/2-z
-x,-y,-z
x,1/2-y,1/2+z
loop_
_atom_site_type_symbol
_atom_site_label
_atom_site_fract_x
_atom_site_fract_y
_atom_site_fract_z
Si Si1 0.093121 0.185555 0.809582
Si Si2 0.535749 0.733447 0.980434
Si Si3 0.825762 0.985285 0.599709
Si Si4 0.675413 0.039834 0.808559
Si Si5 0.223728 0.331719 0.195421
Si Si6 0.462182 0.564704 0.582497
O O1 0.858022 0.139081 0.800367
O O2 0.156052 0.372045 0.837630
O O3 0.084444 0.183410 0.735951
O O4 0.275040 0.058833 0.863667
O O5 0.753536 0.627707 0.031241
O O6 0.414435 0.800651 0.022983
O O7 0.362997 0.621395 0.917352
O O8 0.614193 0.884465 0.951067
O O9 0.062148 0.072526 0.623735
O O10 0.445048 0.063299 0.738230
O O11 0.665004 0.113102 0.875363
O O12 0.721856 0.847105 0.821753
#
# Coordination Sequence:
#
# PCOD8125177 Si02
#       6
#     4   4   4   4   4   4
#     4  10  21  39  62  87 118 152 193 247 301 349
#     4   9  19  39  63  85 119 160 197 244 291 341
#     4  10  20  37  60  86 117 157 195 235 297 352
#     4  11  23  39  62  89 118 154 198 245 295 354
#     4  11  23  38  60  89 119 153 194 245 300 352
#     4   9  20  40  63  87 116 156 201 242 291 347
#
# _framework density 22.116548000000002
#
# number of rings (size 3 to 8) (size 9 to 14) (size 15 to 20)
#    0.000    2.000    0.000    3.000    0.000    5.333 
#    0.000   18.333    0.000    0.000    0.000    0.000 
#    0.000    0.000    0.000    0.000    0.000    0.000 
#
# Total GULP energy -297621.331158 kJ/mol
# GULP energy per Si atom -12400.888798 kJ/mol
# Density = 2.206621 g / cm^3
# Si number density = 22.116548 Si / 1000 Ang^3
#
#
#
# Elastic Constant Matrix: (Units=GPa)
#
#
# Indices 1 2 3 4 5 6 
#
# 1 126.2744 37.7610 51.4560 0.0000 5.0519 0.0000
# 2 37.7610 123.6987 41.3545 0.0000 19.3877 0.0000
# 3 51.4560 41.3545 82.4719 0.0000 17.5687 0.0000
# 4 0.0000 0.0000 0.0000 39.8604 0.0000 10.0628
# 5 5.0519 19.3877 17.5687 0.0000 30.2988 0.0000
# 6 0.0000 0.0000 0.0000 10.0628 0.0000 29.7713
#
#
#
# Elastic Compliance Matrix: (Units=1/GPa)
#
#
# Indices 1 2 3 4 5 6 
#
# 1 0.011016 -0.001597 -0.006730 0.000000 0.003087 0.000000
# 2 -0.001597 0.010358 -0.003243 0.000000 -0.004481 0.000000
# 3 -0.006730 -0.003243 0.019703 0.000000 -0.008227 0.000000
# 4 0.000000 0.000000 0.000000 0.027428 0.000000 -0.009271
# 5 0.003087 -0.004481 -0.008227 0.000000 0.040128 0.000000
# 6 0.000000 0.000000 0.000000 -0.009271 0.000000 0.036723
#
#
# Mechanical properties :
#
#
# Convention : Reuss Voigt Hill
#
# Bulk Modulus (GPa) = 55.74917 65.95422 60.85169
# Shear Modulus (GPa) = 28.65750 33.44435 31.05092
#
# Velocity S-wave (km/s) = 3.60356 3.89290 3.75102
# Velocity P-wave (km/s) = 6.52502 7.07758 6.80691
#
# Compressibility (1/GPa) = 0.01793749
#
# Stress axis : x y z
#
# Youngs Moduli (GPa) = 90.78035 96.54210 50.75322
#
# Poissons Ratio (x) = 0.15414 0.34157
# Poissons Ratio (y) = 0.14494 0.16460
# Poissons Ratio (z) = 0.61094 0.31310
#
# Static dielectric constant tensor:
#      x y z
#    x 3.715660 0.000000 0.162950 
#    y 0.000000 4.107110 0.000000 
#    z 0.162950 0.000000 4.066400 
# 
# 
# High freq. dielectric constant tensor:
#      x y z
#    x 1.842400 0.000000 0.013570 
#    y 0.000000 1.883440 0.000000 
#    z 0.013570 0.000000 1.872730 
# 
# From -- ./inp_files/71088.got.cif
#   From: 2010.03.12/outbox.cif.g09.slc.cpg/sg14_36_cif.got.tgz:71088.got - 2010.03.31 13:35:05.
