data_PCOD8125505
_publ_section_title
;
Structure prediction by ZEFSAII (Michael W. Deem and Ramdas Pophale) SiO2 
 PCOD8125505
Probable space group: P 21/C
;
_chemical_formula_sum "Si O2"
_cell_formula_units_Z 28
_cell_length_a 5.243001
_cell_length_b 9.939897
_cell_length_c 26.691858
_cell_angle_alpha 90.000000
_cell_angle_beta 114.299958
_cell_angle_gamma 90.000000
_cell_volume 1267.801788
_symmetry_space_group_name_H-M "P 21/C"
_symmetry_group_IT_number 14
_symmetry_cell_setting 'monoclinic'
loop_
_space_group_symop_operation_xyz
x,y,z
-x,1/2+y,1/2-z
-x,-y,-z
x,1/2-y,1/2+z
loop_
_atom_site_type_symbol
_atom_site_label
_atom_site_fract_x
_atom_site_fract_y
_atom_site_fract_z
Si Si1 0.626176 0.588567 0.448993
Si Si2 0.195468 0.965915 0.131823
Si Si3 0.729079 0.289334 0.137142
Si Si4 0.414636 0.804221 0.674593
Si Si5 0.324101 0.168416 0.942849
Si Si6 0.649366 0.786922 0.800991
Si Si7 0.793357 0.585899 0.125387
O O1 0.821365 0.570073 0.416371
O O2 0.348688 0.671619 0.408906
O O3 0.776470 0.669559 0.506583
O O4 0.585710 0.432847 0.463372
O O5 0.400993 0.837276 0.142785
O O6 0.891889 0.900004 0.113804
O O7 0.297574 0.053247 0.187139
O O8 0.523584 0.282595 0.168233
O O9 0.708633 0.432434 0.106967
O O10 0.048046 0.280095 0.181179
O O11 0.470731 0.769773 0.736634
O O12 0.674291 0.884200 0.671542
O O13 0.125922 0.888944 0.647890
O O14 0.374569 0.320812 0.928491
#
# Coordination Sequence:
#
# PCOD8125505 Si02
#       7
#     4   4   4   4   4   4   4
#     4  10  20  39  64  90 123 164 207 262 312 364
#     4  10  21  38  64  90 126 158 219 258 302 374
#     4  11  24  42  62  92 129 161 207 258 309 378
#     4  11  24  41  63  90 125 169 208 256 309 366
#     4  10  20  39  64  90 123 164 207 262 312 364
#     4  11  24  41  63  90 125 169 208 256 309 366
#     4  11  24  42  62  92 129 161 207 258 309 378
#
# _framework density 22.085473
#
# number of rings (size 3 to 8) (size 9 to 14) (size 15 to 20)
#    0.000    1.429    2.857    2.143    4.000    0.571 
#    0.000    0.000    0.000    5.143    0.000    0.000 
#    0.000    0.000    0.000    0.000    0.000    0.000 
#
# Total GULP energy -346950.098265 kJ/mol
# GULP energy per Si atom -12391.074938 kJ/mol
# Density = 2.203521 g / cm^3
# Si number density = 22.085473 Si / 1000 Ang^3
#
#
#
# Elastic Constant Matrix: (Units=GPa)
#
#
# Indices 1 2 3 4 5 6 
#
# 1 94.8126 15.5205 5.9033 0.0000 -1.5800 0.0000
# 2 15.5205 106.8017 19.3002 0.0000 -9.2955 0.0000
# 3 5.9033 19.3002 72.0923 0.0000 -4.9639 0.0000
# 4 0.0000 0.0000 0.0000 20.7179 0.0000 -3.6029
# 5 -1.5800 -9.2955 -4.9639 0.0000 22.9944 0.0000
# 6 0.0000 0.0000 0.0000 -3.6029 0.0000 25.9891
#
#
#
# Elastic Compliance Matrix: (Units=1/GPa)
#
#
# Indices 1 2 3 4 5 6 
#
# 1 0.010821 -0.001481 -0.000487 0.000000 0.000040 0.000000
# 2 -0.001481 0.010321 -0.002397 0.000000 0.003553 0.000000
# 3 -0.000487 -0.002397 0.014702 0.000000 0.002171 0.000000
# 4 0.000000 0.000000 0.000000 0.049460 0.000000 0.006857
# 5 0.000040 0.003553 0.002171 0.000000 0.045397 0.000000
# 6 0.000000 0.000000 0.000000 0.006857 0.000000 0.039428
#
#
# Mechanical properties :
#
#
# Convention : Reuss Voigt Hill
#
# Bulk Modulus (GPa) = 36.88181 39.46162 38.17171
# Shear Modulus (GPa) = 26.61044 29.47244 28.04144
#
# Velocity S-wave (km/s) = 3.47491 3.65701 3.56712
# Velocity P-wave (km/s) = 5.73026 5.97813 5.85551
#
# Compressibility (1/GPa) = 0.02711364
#
# Stress axis : x y z
#
# Youngs Moduli (GPa) = 92.41685 96.89180 68.01697
#
# Poissons Ratio (x) = 0.14350 0.03311
# Poissons Ratio (y) = 0.13687 0.16304
# Poissons Ratio (z) = 0.04499 0.23226
#
# Static dielectric constant tensor:
#      x y z
#    x 3.750990 0.000000 -0.102710 
#    y 0.000000 4.263380 0.000000 
#    z -0.102710 0.000000 3.962050 
# 
# 
# High freq. dielectric constant tensor:
#      x y z
#    x 1.863060 0.000000 -0.006020 
#    y 0.000000 1.872200 0.000000 
#    z -0.006020 0.000000 1.854280 
# 
# From -- ./inp_files/78649.got.cif
#   From: 2010.03.12/outbox.cif.g09.slc.cpg/sg14_40_cif.got.tgz:78649.got - 2010.03.31 13:35:05.
