data_PCOD8125098
_publ_section_title
;
Structure prediction by ZEFSAII (Michael W. Deem and Ramdas Pophale) SiO2 
 PCOD8125098
Probable space group: P 21/C
;
_chemical_formula_sum "Si O2"
_cell_formula_units_Z 24
_cell_length_a 9.599846
_cell_length_b 17.710905
_cell_length_c 15.950582
_cell_angle_alpha 90.000000
_cell_angle_beta 151.673409
_cell_angle_gamma 90.000000
_cell_volume 1286.811195
_symmetry_space_group_name_H-M "P 21/C"
_symmetry_group_IT_number 14
_symmetry_cell_setting 'monoclinic'
loop_
_space_group_symop_operation_xyz
x,y,z
-x,1/2+y,1/2-z
-x,-y,-z
x,1/2-y,1/2+z
loop_
_atom_site_type_symbol
_atom_site_label
_atom_site_fract_x
_atom_site_fract_y
_atom_site_fract_z
Si Si1 0.146395 0.522430 0.991793
Si Si2 0.214135 0.177090 0.260446
Si Si3 0.733583 0.586762 0.547535
Si Si4 0.229615 0.066392 0.123896
Si Si5 0.889862 0.432362 0.709600
Si Si6 0.092114 0.830418 0.366993
O O1 0.491501 0.527831 0.185694
O O2 0.016431 0.601846 0.890913
O O3 0.000000 0.500000 0.000000
O O4 0.081398 0.457964 0.890051
O O5 0.128899 0.136106 0.128363
O O6 0.562225 0.184255 0.458250
O O7 0.075451 0.132724 0.264549
O O8 0.071627 0.259099 0.181047
O O9 0.706332 0.600123 0.433929
O O10 0.839881 0.501055 0.618674
O O11 0.419853 0.601264 0.424424
O O12 0.963444 0.646890 0.707619
O O13 0.000000 0.000000 0.000000
#
# Coordination Sequence:
#
# PCOD8125098 Si02
#       6
#     4   4   4   4   4   4
#     4  10  21  39  61  90 119 155 199 246 295 353
#     4  11  23  42  60  86 121 161 198 248 300 359
#     4  10  20  38  60  92 118 156 196 244 293 360
#     4  11  22  36  63  93 122 150 202 251 298 350
#     4  10  20  36  65  85 121 157 195 239 301 356
#     4  10  24  39  61  83 123 160 199 242 303 354
#
# _framework density 18.650755
#
# number of rings (size 3 to 8) (size 9 to 14) (size 15 to 20)
#    0.000    1.667    3.333    1.000    2.333    3.333 
#    3.000    1.667    0.000    0.000    0.000    0.000 
#    0.000    0.000    0.000    0.000    0.000    0.000 
#
# Total GULP energy -297687.159325 kJ/mol
# GULP energy per Si atom -12403.631639 kJ/mol
# Density = 1.860830 g / cm^3
# Si number density = 18.650755 Si / 1000 Ang^3
#
#
#
# Elastic Constant Matrix: (Units=GPa)
#
#
# Indices 1 2 3 4 5 6 
#
# 1 102.2991 47.4446 40.4707 0.0000 -11.8040 0.0000
# 2 47.4446 99.6823 47.4711 0.0000 2.3294 0.0000
# 3 40.4707 47.4711 115.7193 0.0000 -6.5564 0.0000
# 4 0.0000 0.0000 0.0000 28.3988 0.0000 8.0151
# 5 -11.8040 2.3294 -6.5564 0.0000 33.7590 0.0000
# 6 0.0000 0.0000 0.0000 8.0151 0.0000 32.1585
#
#
#
# Elastic Compliance Matrix: (Units=1/GPa)
#
#
# Indices 1 2 3 4 5 6 
#
# 1 0.013826 -0.005616 -0.002261 0.000000 0.004783 0.000000
# 2 -0.005616 0.014867 -0.004352 0.000000 -0.003835 0.000000
# 3 -0.002261 -0.004352 0.011314 0.000000 0.001707 0.000000
# 4 0.000000 0.000000 0.000000 0.037877 0.000000 -0.009440
# 5 0.004783 -0.003835 0.001707 0.000000 0.031890 0.000000
# 6 0.000000 0.000000 0.000000 -0.009440 0.000000 0.033449
#
#
# Mechanical properties :
#
#
# Convention : Reuss Voigt Hill
#
# Bulk Modulus (GPa) = 64.30786 65.38594 64.84690
# Shear Modulus (GPa) = 28.92452 31.01755 29.97104
#
# Velocity S-wave (km/s) = 3.94236 4.08250 4.01304
# Velocity P-wave (km/s) = 7.43490 7.57341 7.50448
#
# Compressibility (1/GPa) = 0.01555020
#
# Stress axis : x y z
#
# Youngs Moduli (GPa) = 72.32766 67.26359 88.38393
#
# Poissons Ratio (x) = 0.37774 0.19981
# Poissons Ratio (y) = 0.40617 0.38465
# Poissons Ratio (z) = 0.16351 0.29273
#
# Static dielectric constant tensor:
#      x y z
#    x 3.480860 0.000000 -0.140530 
#    y 0.000000 3.157690 0.000000 
#    z -0.140530 0.000000 3.693070 
# 
# 
# High freq. dielectric constant tensor:
#      x y z
#    x 1.728090 0.000000 0.000530 
#    y 0.000000 1.712990 0.000000 
#    z 0.000530 0.000000 1.739950 
# 
# From -- ./inp_files/9816.got.cif
#   From: 2010.03.12/outbox.cif.g09.slc.cpg/sg14_5_cif.got.tgz:9816.got - 2010.03.31 13:35:05.
