data_PCOD8125408
_publ_section_title
;
Structure prediction by ZEFSAII (Michael W. Deem and Ramdas Pophale) SiO2 
 PCOD8125408
Probable space group: P 21/C
;
_chemical_formula_sum "Si O2"
_cell_formula_units_Z 28
_cell_length_a 8.639158
_cell_length_b 10.863725
_cell_length_c 21.991974
_cell_angle_alpha 90.000000
_cell_angle_beta 140.418822
_cell_angle_gamma 90.000000
_cell_volume 1315.134843
_symmetry_space_group_name_H-M "P 21/C"
_symmetry_group_IT_number 14
_symmetry_cell_setting 'monoclinic'
loop_
_space_group_symop_operation_xyz
x,y,z
-x,1/2+y,1/2-z
-x,-y,-z
x,1/2-y,1/2+z
loop_
_atom_site_type_symbol
_atom_site_label
_atom_site_fract_x
_atom_site_fract_y
_atom_site_fract_z
Si Si1 0.932451 0.116037 0.396953
Si Si2 0.915260 0.762840 0.803876
Si Si3 0.341453 0.709247 0.019639
Si Si4 0.383498 0.672147 0.651017
Si Si5 0.883510 0.742159 0.154773
Si Si6 0.815903 0.042570 0.804250
Si Si7 0.668268 0.538346 0.904412
O O1 0.004965 0.123551 0.347704
O O2 0.725228 0.215849 0.343663
O O3 0.819059 0.987604 0.387050
O O4 0.179756 0.140176 0.511773
O O5 0.674796 0.682814 0.742619
O O6 0.982179 0.761449 0.753037
O O7 0.887719 0.902619 0.816607
O O8 0.132293 0.699708 0.906450
O O9 0.296540 0.821177 0.054295
O O10 0.593991 0.733028 0.062251
O O11 0.358057 0.584500 0.063110
O O12 0.279788 0.552160 0.654476
O O13 0.958889 0.868393 0.143166
O O14 0.598014 0.085677 0.693225
#
# Coordination Sequence:
#
# PCOD8125408 Si02
#       7
#     4   4   4   4   4   4   4
#     4   9  19  36  59  92 122 150 203 265 301 358
#     4  11  23  41  63  91 129 165 203 259 312 368
#     4  10  22  41  59  90 129 159 207 257 303 377
#     4   9  21  40  59  92 124 156 213 261 299 365
#     4  10  23  41  58  94 131 158 205 255 311 375
#     4  11  22  41  64  89 126 166 205 253 317 369
#     4  10  20  38  67  94 116 160 217 261 309 352
#
# _framework density 21.290593000000001
#
# number of rings (size 3 to 8) (size 9 to 14) (size 15 to 20)
#    0.000    2.000    4.286    0.000    8.000    2.857 
#    2.571    0.000    0.000    0.000    0.000    0.000 
#    0.000    0.000    0.000    0.000    0.000    0.000 
#
# Total GULP energy -346978.560021 kJ/mol
# GULP energy per Si atom -12392.091429 kJ/mol
# Density = 2.124213 g / cm^3
# Si number density = 21.290593 Si / 1000 Ang^3
#
#
#
# Elastic Constant Matrix: (Units=GPa)
#
#
# Indices 1 2 3 4 5 6 
#
# 1 151.9163 23.2397 28.8604 0.0000 -9.8303 0.0000
# 2 23.2397 31.3806 -14.3042 0.0000 -5.6717 0.0000
# 3 28.8604 -14.3042 86.9721 0.0000 3.6942 0.0000
# 4 0.0000 0.0000 0.0000 23.5820 0.0000 -6.6972
# 5 -9.8303 -5.6717 3.6942 0.0000 32.7546 0.0000
# 6 0.0000 0.0000 0.0000 -6.6972 0.0000 17.0516
#
#
#
# Elastic Compliance Matrix: (Units=1/GPa)
#
#
# Indices 1 2 3 4 5 6 
#
# 1 0.008760 -0.008148 -0.004319 0.000000 0.001705 0.000000
# 2 -0.008148 0.042988 0.009608 0.000000 0.003915 0.000000
# 3 -0.004319 0.009608 0.014566 0.000000 -0.001275 0.000000
# 4 0.000000 0.000000 0.000000 0.047729 0.000000 0.018746
# 5 0.001705 0.003915 -0.001275 0.000000 0.031864 0.000000
# 6 0.000000 0.000000 0.000000 0.018746 0.000000 0.066008
#
#
# Mechanical properties :
#
#
# Convention : Reuss Voigt Hill
#
# Bulk Modulus (GPa) = 16.50320 38.42896 27.46608
# Shear Modulus (GPa) = 21.02321 30.17586 25.59953
#
# Velocity S-wave (km/s) = 3.14577 3.76883 3.47131
# Velocity P-wave (km/s) = 4.57850 6.08504 5.38472
#
# Compressibility (1/GPa) = 0.06059430
#
# Stress axis : x y z
#
# Youngs Moduli (GPa) = 114.15558 23.26220 68.65475
#
# Poissons Ratio (x) = 0.18954 0.29655
# Poissons Ratio (y) = 0.93015 -0.65962
# Poissons Ratio (z) = 0.49309 -0.22350
#
# Static dielectric constant tensor:
#      x y z
#    x 4.260890 0.000000 -0.092790 
#    y 0.000000 3.521910 0.000000 
#    z -0.092790 0.000000 4.066880 
# 
# 
# High freq. dielectric constant tensor:
#      x y z
#    x 1.853910 0.000000 0.005200 
#    y 0.000000 1.797180 0.000000 
#    z 0.005200 0.000000 1.833210 
# 
# From -- ./inp_files/72292.got.cif
#   From: 2010.03.12/outbox.cif.g09.slc.cpg/sg14_37_cif.got.tgz:72292.got - 2010.03.31 13:35:05.
