data_PCOD8125650
_publ_section_title
;
Structure prediction by ZEFSAII (Michael W. Deem and Ramdas Pophale) SiO2 
 PCOD8125650
Probable space group: P 21/C
;
_chemical_formula_sum "Si O2"
_cell_formula_units_Z 24
_cell_length_a 13.699124
_cell_length_b 5.341419
_cell_length_c 13.763241
_cell_angle_alpha 90.000000
_cell_angle_beta 82.251795
_cell_angle_gamma 90.000000
_cell_volume 997.899698
_symmetry_space_group_name_H-M "P 21/C"
_symmetry_group_IT_number 14
_symmetry_cell_setting 'monoclinic'
loop_
_space_group_symop_operation_xyz
x,y,z
-x,1/2+y,1/2-z
-x,-y,-z
x,1/2-y,1/2+z
loop_
_atom_site_type_symbol
_atom_site_label
_atom_site_fract_x
_atom_site_fract_y
_atom_site_fract_z
Si Si1 0.774383 0.248350 0.220690
Si Si2 0.979390 0.035557 0.695184
Si Si3 0.325375 0.749276 0.953321
Si Si4 0.497048 0.121590 0.687832
Si Si5 0.823320 0.942606 0.400750
Si Si6 0.329045 0.084213 0.124011
O O1 0.867884 0.418302 0.174717
O O2 0.727125 0.114649 0.132133
O O3 0.685559 0.417423 0.277771
O O4 0.809840 0.050065 0.293814
O O5 0.013353 0.254159 0.764888
O O6 0.059110 0.056644 0.594879
O O7 0.414790 0.579557 0.900863
O O8 0.238554 0.585782 0.010671
O O9 0.373719 0.933277 0.026378
O O10 0.519054 0.370531 0.748904
O O11 0.396964 0.176635 0.640092
O O12 0.779890 0.662831 0.399009
#
# Coordination Sequence:
#
# PCOD8125650 Si02
#       6
#     4   4   4   4   4   4
#     4  10  21  43  65  95 135 182 219 277 333 404
#     4  10  20  40  69  96 133 183 224 270 332 396
#     4  11  25  42  66 102 134 177 225 283 332 402
#     4  12  27  46  73  99 135 182 225 273 342 405
#     4  10  23  40  68  97 136 175 226 276 341 391
#     4  11  23  43  68  96 136 176 225 279 338 395
#
# _framework density 24.050514
#
# number of rings (size 3 to 8) (size 9 to 14) (size 15 to 20)
#    0.000    1.333    3.333    1.500    4.667    2.667 
#    0.000    0.833    0.000    0.000    0.000    0.000 
#    0.000    0.000    0.000    0.000    0.000    0.000 
#
# Total GULP energy -297399.608527 kJ/mol
# GULP energy per Si atom -12391.650355 kJ/mol
# Density = 2.399577 g / cm^3
# Si number density = 24.050514 Si / 1000 Ang^3
#
#
#
# Elastic Constant Matrix: (Units=GPa)
#
#
# Indices 1 2 3 4 5 6 
#
# 1 80.5809 -4.3520 46.3999 0.0000 -14.9809 0.0000
# 2 -4.3520 75.8350 22.8678 0.0000 -4.4631 0.0000
# 3 46.3999 22.8678 124.6413 0.0000 -22.0795 0.0000
# 4 0.0000 0.0000 0.0000 16.9752 0.0000 -5.1799
# 5 -14.9809 -4.4631 -22.0795 0.0000 45.9855 0.0000
# 6 0.0000 0.0000 0.0000 -5.1799 0.0000 40.2889
#
#
#
# Elastic Compliance Matrix: (Units=1/GPa)
#
#
# Indices 1 2 3 4 5 6 
#
# 1 0.016698 0.003014 -0.006289 0.000000 0.002713 0.000000
# 2 0.003014 0.014504 -0.003672 0.000000 0.000626 0.000000
# 3 -0.006289 -0.003672 0.011598 0.000000 0.003164 0.000000
# 4 0.000000 0.000000 0.000000 0.061315 0.000000 0.007883
# 5 0.002713 0.000626 0.003164 0.000000 0.024210 0.000000
# 6 0.000000 0.000000 0.000000 0.007883 0.000000 0.025834
#
#
# Mechanical properties :
#
#
# Convention : Reuss Voigt Hill
#
# Bulk Modulus (GPa) = 34.59354 45.65428 40.12391
# Shear Modulus (GPa) = 28.13930 35.05936 31.59933
#
# Velocity S-wave (km/s) = 3.42425 3.82218 3.62867
# Velocity P-wave (km/s) = 5.48169 6.20504 5.85455
#
# Compressibility (1/GPa) = 0.02890713
#
# Stress axis : x y z
#
# Youngs Moduli (GPa) = 59.88689 68.94796 86.22018
#
# Poissons Ratio (x) = -0.20783 0.54220
# Poissons Ratio (y) = -0.18051 0.31661
# Poissons Ratio (z) = 0.37661 0.25318
#
# Static dielectric constant tensor:
#      x y z
#    x 4.718740 0.000000 -0.481960 
#    y 0.000000 4.038460 0.000000 
#    z -0.481960 0.000000 4.443490 
# 
# 
# High freq. dielectric constant tensor:
#      x y z
#    x 1.966040 0.000000 -0.027300 
#    y 0.000000 1.934930 0.000000 
#    z -0.027300 0.000000 1.952550 
# 
# From -- ./inp_files/45670.got.cif
#   From: 2010.03.12/outbox.cif.g09.slc.cpg/sg14_23_cif.got.tgz:45670.got - 2010.03.31 13:35:05.
