data_PCOD8125073
_publ_section_title
;
Structure prediction by ZEFSAII (Michael W. Deem and Ramdas Pophale) SiO2 
 PCOD8125073
Probable space group: P 21/C
;
_chemical_formula_sum "Si O2"
_cell_formula_units_Z 32
_cell_length_a 21.487379
_cell_length_b 16.074327
_cell_length_c 14.521866
_cell_angle_alpha 90.000000
_cell_angle_beta 17.782098
_cell_angle_gamma 90.000000
_cell_volume 1531.808834
_symmetry_space_group_name_H-M "P 21/C"
_symmetry_group_IT_number 14
_symmetry_cell_setting 'monoclinic'
loop_
_space_group_symop_operation_xyz
x,y,z
-x,1/2+y,1/2-z
-x,-y,-z
x,1/2-y,1/2+z
loop_
_atom_site_type_symbol
_atom_site_label
_atom_site_fract_x
_atom_site_fract_y
_atom_site_fract_z
Si Si1 0.218687 0.327872 0.657918
Si Si2 0.190110 0.870612 0.357182
Si Si3 0.407154 0.483069 0.471715
Si Si4 0.724506 0.355808 0.067194
Si Si5 0.483565 0.727215 0.917241
Si Si6 0.150222 0.893707 0.813588
Si Si7 0.588152 0.720576 0.972582
Si Si8 0.709090 0.571105 0.917934
O O1 0.298285 0.422786 0.550736
O O2 0.362375 0.277828 0.384824
O O3 0.233108 0.279360 0.735557
O O4 0.985784 0.329835 0.956106
O O5 0.125859 0.863107 0.555610
O O6 0.233756 0.967280 0.272037
O O7 0.397188 0.820230 0.045650
O O8 0.544704 0.423165 0.341788
O O9 0.549584 0.550546 0.221979
O O10 0.628602 0.263427 0.197377
O O11 0.837198 0.374884 0.813614
O O12 0.610176 0.708713 0.831913
O O13 0.290982 0.665372 0.176774
O O14 0.220744 0.987792 0.733987
O O15 0.911139 0.883699 0.176396
O O16 0.594576 0.629305 0.006663
#
# Coordination Sequence:
#
# PCOD8125073 Si02
#       8
#     4   4   4   4   4   4   4   4
#     4  11  22  43  58  91 127 154 201 260 301 350
#     4  11  23  36  67  89 115 166 204 241 307 370
#     4  10  20  40  62  88 125 160 197 252 301 355
#     4   9  20  39  59  87 123 159 201 251 298 356
#     4  11  22  40  60  87 120 162 200 252 304 354
#     4  10  20  39  60  85 125 158 198 249 302 357
#     4  10  21  37  61  86 118 161 201 250 303 355
#     4  10  20  36  62  89 116 163 195 244 303 357
#
# _framework density 20.890336000000001
#
# number of rings (size 3 to 8) (size 9 to 14) (size 15 to 20)
#    0.000    1.750    3.750    2.250    1.750    0.500 
#    0.000    0.000    0.000    0.000    0.000    0.000 
#    0.000    0.000    0.000    0.000    0.000    0.000 
#
# Total GULP energy -396732.100574 kJ/mol
# GULP energy per Si atom -12397.878143 kJ/mol
# Density = 2.084279 g / cm^3
# Si number density = 20.890336 Si / 1000 Ang^3
#
#
#
# Elastic Constant Matrix: (Units=GPa)
#
#
# Indices 1 2 3 4 5 6 
#
# 1 142.7070 46.1028 37.9070 0.0000 -13.4551 0.0000
# 2 46.1028 79.9829 19.9941 0.0000 5.3520 0.0000
# 3 37.9070 19.9941 58.3895 0.0000 -5.6170 0.0000
# 4 0.0000 0.0000 0.0000 25.2526 0.0000 1.9687
# 5 -13.4551 5.3520 -5.6170 0.0000 20.6084 0.0000
# 6 0.0000 0.0000 0.0000 1.9687 0.0000 27.5198
#
#
#
# Elastic Compliance Matrix: (Units=1/GPa)
#
#
# Indices 1 2 3 4 5 6 
#
# 1 0.010613 -0.005522 -0.004308 0.000000 0.007189 0.000000
# 2 -0.005522 0.017057 -0.003111 0.000000 -0.008883 0.000000
# 3 -0.004308 -0.003111 0.021355 0.000000 0.003816 0.000000
# 4 0.000000 0.000000 0.000000 0.039822 0.000000 -0.002849
# 5 0.007189 -0.008883 0.003816 0.000000 0.056565 0.000000
# 6 0.000000 0.000000 0.000000 -0.002849 0.000000 0.036541
#
#
# Mechanical properties :
#
#
# Convention : Reuss Voigt Hill
#
# Bulk Modulus (GPa) = 43.20491 54.34301 48.77396
# Shear Modulus (GPa) = 23.19649 26.48119 24.83884
#
# Velocity S-wave (km/s) = 3.33587 3.56424 3.45194
# Velocity P-wave (km/s) = 5.96356 6.55808 6.26787
#
# Compressibility (1/GPa) = 0.02314552
#
# Stress axis : x y z
#
# Youngs Moduli (GPa) = 94.22071 58.62534 46.82675
#
# Poissons Ratio (x) = 0.32372 0.20172
# Poissons Ratio (y) = 0.52027 0.14566
# Poissons Ratio (z) = 0.40589 0.18236
#
# Static dielectric constant tensor:
#      x y z
#    x 3.769390 0.000000 -0.162780 
#    y 0.000000 3.929040 0.000000 
#    z -0.162780 0.000000 3.531550 
# 
# 
# High freq. dielectric constant tensor:
#      x y z
#    x 1.807400 0.000000 -0.012020 
#    y 0.000000 1.832650 0.000000 
#    z -0.012020 0.000000 1.797480 
# 
# From -- ./inp_files/50614.got.cif
#   From: 2010.03.12/outbox.cif.g09.slc.cpg/sg14_26_cif.got.tgz:50614.got - 2010.03.31 13:35:05.
