data_PCOD8125687
_publ_section_title
;
Structure prediction by ZEFSAII (Michael W. Deem and Ramdas Pophale) SiO2 
 PCOD8125687
Probable space group: P 21/C
;
_chemical_formula_sum "Si O2"
_cell_formula_units_Z 24
_cell_length_a 5.399745
_cell_length_b 9.887926
_cell_length_c 22.597650
_cell_angle_alpha 90.000000
_cell_angle_beta 117.779658
_cell_angle_gamma 90.000000
_cell_volume 1067.482075
_symmetry_space_group_name_H-M "P 21/C"
_symmetry_group_IT_number 14
_symmetry_cell_setting 'monoclinic'
loop_
_space_group_symop_operation_xyz
x,y,z
-x,1/2+y,1/2-z
-x,-y,-z
x,1/2-y,1/2+z
loop_
_atom_site_type_symbol
_atom_site_label
_atom_site_fract_x
_atom_site_fract_y
_atom_site_fract_z
Si Si1 0.487360 0.557836 0.298368
Si Si2 0.349316 0.293509 0.333002
Si Si3 0.982251 0.276965 0.691524
Si Si4 0.302221 0.961041 0.651907
Si Si5 0.273031 0.338027 0.939819
Si Si6 0.544654 0.384622 0.084344
O O1 0.560384 0.415970 0.339890
O O2 0.295107 0.637303 0.323713
O O3 0.287218 0.515308 0.220713
O O4 0.773856 0.634120 0.312491
O O5 0.451272 0.146668 0.326125
O O6 0.286368 0.290638 0.396589
O O7 0.070275 0.303919 0.260941
O O8 0.863525 0.168092 0.630012
O O9 0.038007 0.894202 0.591147
O O10 0.380731 0.104547 0.629097
O O11 0.468119 0.459964 0.938844
O O12 0.380949 0.293653 0.017276
#
# Coordination Sequence:
#
# PCOD8125687 Si02
#       6
#     4   4   4   4   4   4
#     4  11  25  40  65  96 133 169 220 268 330 391
#     4  10  23  39  63  92 128 167 219 265 326 397
#     4  11  25  41  64  99 128 174 213 275 330 385
#     4  10  21  37  64  94 121 174 212 282 323 376
#     4  10  20  41  64  94 125 170 216 270 329 377
#     4  10  23  38  64  95 129 163 221 271 325 387
#
# _framework density 22.482813
#
# number of rings (size 3 to 8) (size 9 to 14) (size 15 to 20)
#    0.000    1.667    1.667    1.500   14.000    0.000 
#    0.000    1.667    0.000    0.000    0.000    0.000 
#    0.000    0.000    0.000    0.000    0.000    0.000 
#
# Total GULP energy -297354.954010 kJ/mol
# GULP energy per Si atom -12389.789750 kJ/mol
# Density = 2.243164 g / cm^3
# Si number density = 22.482813 Si / 1000 Ang^3
#
#
#
# Elastic Constant Matrix: (Units=GPa)
#
#
# Indices 1 2 3 4 5 6 
#
# 1 105.5233 20.0702 29.2586 0.0000 3.1858 0.0000
# 2 20.0702 46.9359 29.0812 0.0000 -12.0912 0.0000
# 3 29.2586 29.0812 126.6338 0.0000 17.7454 0.0000
# 4 0.0000 0.0000 0.0000 22.0811 0.0000 -2.6848
# 5 3.1858 -12.0912 17.7454 0.0000 25.4170 0.0000
# 6 0.0000 0.0000 0.0000 -2.6848 0.0000 32.7583
#
#
#
# Elastic Compliance Matrix: (Units=1/GPa)
#
#
# Indices 1 2 3 4 5 6 
#
# 1 0.010737 -0.004728 -0.000988 0.000000 -0.002905 0.000000
# 2 -0.004728 0.036732 -0.010946 0.000000 0.025708 0.000000
# 3 -0.000988 -0.010946 0.012582 0.000000 -0.013868 0.000000
# 4 0.000000 0.000000 0.000000 0.045743 0.000000 0.003749
# 5 -0.002905 0.025708 -0.013868 0.000000 0.061619 0.000000
# 6 0.000000 0.000000 0.000000 0.003749 0.000000 0.030834
#
#
# Mechanical properties :
#
#
# Convention : Reuss Voigt Hill
#
# Bulk Modulus (GPa) = 37.41305 48.43477 42.92391
# Shear Modulus (GPa) = 20.79175 29.43016 25.11095
#
# Velocity S-wave (km/s) = 3.04433 3.62195 3.34562
# Velocity P-wave (km/s) = 5.38833 6.25149 5.83589
#
# Compressibility (1/GPa) = 0.02672864
#
# Stress axis : x y z
#
# Youngs Moduli (GPa) = 93.13225 27.22440 79.47850
#
# Poissons Ratio (x) = 0.12870 0.07854
# Poissons Ratio (y) = 0.44028 0.86994
# Poissons Ratio (z) = 0.09203 0.29799
#
# Static dielectric constant tensor:
#      x y z
#    x 3.925970 0.000000 -0.319530 
#    y 0.000000 3.956500 0.000000 
#    z -0.319530 0.000000 4.504030 
# 
# 
# High freq. dielectric constant tensor:
#      x y z
#    x 1.881330 0.000000 -0.006800 
#    y 0.000000 1.860430 0.000000 
#    z -0.006800 0.000000 1.885510 
# 
# From -- ./inp_files/52992.got.cif
#   From: 2010.03.12/outbox.cif.g09.slc.cpg/sg14_27_cif.got.tgz:52992.got - 2010.03.31 13:35:05.
