data_PCOD8125449
_publ_section_title
;
Structure prediction by ZEFSAII (Michael W. Deem and Ramdas Pophale) SiO2 
 PCOD8125449
Probable space group: P 21/C
;
_chemical_formula_sum "Si O2"
_cell_formula_units_Z 28
_cell_length_a 8.798902
_cell_length_b 10.829546
_cell_length_c 15.867154
_cell_angle_alpha 90.000000
_cell_angle_beta 59.424768
_cell_angle_gamma 90.000000
_cell_volume 1301.732505
_symmetry_space_group_name_H-M "P 21/C"
_symmetry_group_IT_number 14
_symmetry_cell_setting 'monoclinic'
loop_
_space_group_symop_operation_xyz
x,y,z
-x,1/2+y,1/2-z
-x,-y,-z
x,1/2-y,1/2+z
loop_
_atom_site_type_symbol
_atom_site_label
_atom_site_fract_x
_atom_site_fract_y
_atom_site_fract_z
Si Si1 0.091193 0.264178 0.537562
Si Si2 0.595168 0.079008 0.043728
Si Si3 0.028625 0.968459 0.123500
Si Si4 0.856181 0.550935 0.844590
Si Si5 0.511367 0.841342 0.363111
Si Si6 0.671720 0.878116 0.146097
Si Si7 0.872151 0.099289 0.494699
O O1 0.029554 0.388679 0.599016
O O2 0.096113 0.162366 0.607833
O O3 0.288077 0.280292 0.440846
O O4 0.949428 0.230451 0.503529
O O5 0.500968 0.210557 0.085020
O O6 0.583793 0.002549 0.134354
O O7 0.793955 0.100922 0.955402
O O8 0.500000 0.000000 0.000000
O O9 0.004196 0.956510 0.230832
O O10 0.867996 0.906203 0.121696
O O11 0.661231 0.571534 0.861135
O O12 0.866468 0.422595 0.894922
O O13 0.553727 0.818287 0.252380
O O14 0.328547 0.915619 0.416984
O O15 0.000000 0.000000 0.500000
#
# Coordination Sequence:
#
# PCOD8125449 Si02
#       7
#     4   4   4   4   4   4   4
#     4  10  20  39  61  85 118 156 197 249 300 347
#     4  11  23  39  62  92 122 154 200 247 296 359
#     4  10  21  40  61  85 119 159 201 243 298 358
#     4  10  23  39  61  90 120 156 200 246 294 354
#     4  11  22  39  61  88 124 160 194 246 299 344
#     4  10  22  39  61  86 118 161 203 243 294 356
#     4  10  22  39  60  88 119 154 197 242 293 352
#
# _framework density 21.509795
#
# number of rings (size 3 to 8) (size 9 to 14) (size 15 to 20)
#    0.000    1.714    0.000    5.571    0.000    9.143 
#    0.000    4.286    0.000    0.000    0.000    0.000 
#    0.000    0.000    0.000    0.000    0.000    0.000 
#
# Total GULP energy -347080.832834 kJ/mol
# GULP energy per Si atom -12395.744030 kJ/mol
# Density = 2.146084 g / cm^3
# Si number density = 21.509795 Si / 1000 Ang^3
#
#
#
# Elastic Constant Matrix: (Units=GPa)
#
#
# Indices 1 2 3 4 5 6 
#
# 1 75.8798 22.7195 42.3050 0.0000 -1.0566 0.0000
# 2 22.7195 70.1232 60.0542 0.0000 3.3880 0.0000
# 3 42.3050 60.0542 140.7850 0.0000 14.2318 0.0000
# 4 0.0000 0.0000 0.0000 35.0903 0.0000 11.2915
# 5 -1.0566 3.3880 14.2318 0.0000 27.8415 0.0000
# 6 0.0000 0.0000 0.0000 11.2915 0.0000 28.4343
#
#
#
# Elastic Compliance Matrix: (Units=1/GPa)
#
#
# Indices 1 2 3 4 5 6 
#
# 1 0.016206 -0.001514 -0.004540 0.000000 0.003120 0.000000
# 2 -0.001514 0.022749 -0.009452 0.000000 0.002006 0.000000
# 3 -0.004540 -0.009452 0.013076 0.000000 -0.005706 0.000000
# 4 0.000000 0.000000 0.000000 0.032673 0.000000 -0.012975
# 5 0.003120 0.002006 -0.005706 0.000000 0.038709 0.000000
# 6 0.000000 0.000000 0.000000 -0.012975 0.000000 0.040321
#
#
# Mechanical properties :
#
#
# Convention : Reuss Voigt Hill
#
# Bulk Modulus (GPa) = 47.57216 59.66060 53.61638
# Shear Modulus (GPa) = 24.78308 29.05385 26.91846
#
# Velocity S-wave (km/s) = 3.39805 3.67921 3.54142
# Velocity P-wave (km/s) = 6.12864 6.77093 6.45777
#
# Compressibility (1/GPa) = 0.02102070
#
# Stress axis : x y z
#
# Youngs Moduli (GPa) = 61.70427 43.95853 76.47750
#
# Poissons Ratio (x) = 0.06654 0.34717
# Poissons Ratio (y) = 0.09341 0.72284
# Poissons Ratio (z) = 0.28011 0.41548
#
# Static dielectric constant tensor:
#      x y z
#    x 4.117070 0.000000 0.160250 
#    y 0.000000 4.188200 0.000000 
#    z 0.160250 0.000000 4.343830 
# 
# 
# High freq. dielectric constant tensor:
#      x y z
#    x 1.848910 0.000000 0.008730 
#    y 0.000000 1.840670 0.000000 
#    z 0.008730 0.000000 1.852380 
# 
# From -- ./inp_files/39956.got.cif
#   From: 2010.03.12/outbox.cif.g09.slc.cpg/sg14_20_cif.got.tgz:39956.got - 2010.03.31 13:35:05.
