data_PCOD8125395
_publ_section_title
;
Structure prediction by ZEFSAII (Michael W. Deem and Ramdas Pophale) SiO2 
 PCOD8125395
Probable space group: P 21/C
;
_chemical_formula_sum "Si O2"
_cell_formula_units_Z 20
_cell_length_a 4.930525
_cell_length_b 8.149445
_cell_length_c 24.675082
_cell_angle_alpha 90.000000
_cell_angle_beta 66.444587
_cell_angle_gamma 90.000000
_cell_volume 908.855241
_symmetry_space_group_name_H-M "P 21/C"
_symmetry_group_IT_number 14
_symmetry_cell_setting 'monoclinic'
loop_
_space_group_symop_operation_xyz
x,y,z
-x,1/2+y,1/2-z
-x,-y,-z
x,1/2-y,1/2+z
loop_
_atom_site_type_symbol
_atom_site_label
_atom_site_fract_x
_atom_site_fract_y
_atom_site_fract_z
Si Si1 0.852729 0.185207 0.124530
Si Si2 0.754320 0.619811 0.500000
Si Si3 0.227871 0.315456 0.187242
Si Si4 0.976838 0.184544 0.312758
Si Si5 0.649152 0.814794 0.124530
O O1 0.570112 0.304719 0.141129
O O2 0.011667 0.201384 0.169422
O O3 0.743887 0.000000 0.128056
O O4 0.102585 0.230600 0.059222
O O5 0.500000 0.500000 0.500000
O O6 0.660528 0.730599 0.559222
O O7 0.000000 0.500000 0.500000
O O8 0.119801 0.500000 0.190099
O O9 0.211178 0.250000 0.250000
O O10 0.689353 0.298616 0.330577
O O11 0.134627 0.195283 0.358871
#
# Coordination Sequence:
#
# PCOD8125395 Si02
#       5
#     4   4   4   4   4
#     4  11  22  41  66  93 123 164 211 258 308 372
#     4  10  20  38  65  96 125 162 209 256 307 374
#     4  12  25  42  62  91 127 167 209 260 317 375
#     4  12  25  42  62  91 127 167 209 260 317 375
#     4  11  22  41  66  93 123 164 211 258 308 372
#
# _framework density 22.005703
#
# number of rings (size 3 to 8) (size 9 to 14) (size 15 to 20)
#    0.000    0.800    0.000   10.800    0.000    0.000 
#    0.000    6.000    0.000    0.000    0.000    0.000 
#    0.000    0.000    0.000    0.000    0.000    0.000 
#
# Total GULP energy -248001.661508 kJ/mol
# GULP energy per Si atom -12400.083075 kJ/mol
# Density = 2.195562 g / cm^3
# Si number density = 22.005703 Si / 1000 Ang^3
#
#
#
# Elastic Constant Matrix: (Units=GPa)
#
#
# Indices 1 2 3 4 5 6 
#
# 1 157.3718 27.1730 62.6578 0.0000 -2.9847 0.0000
# 2 27.1730 70.0322 63.7039 0.0000 2.7421 0.0000
# 3 62.6578 63.7039 152.6828 0.0000 2.6330 0.0000
# 4 0.0000 0.0000 0.0000 29.0500 0.0000 0.2158
# 5 -2.9847 2.7421 2.6330 0.0000 27.8961 0.0000
# 6 0.0000 0.0000 0.0000 0.2158 0.0000 26.1731
#
#
#
# Elastic Compliance Matrix: (Units=1/GPa)
#
#
# Indices 1 2 3 4 5 6 
#
# 1 0.007632 -0.000224 -0.003058 0.000000 0.001127 0.000000
# 2 -0.000224 0.023071 -0.009510 0.000000 -0.001394 0.000000
# 3 -0.003058 -0.009510 0.011781 0.000000 -0.000504 0.000000
# 4 0.000000 0.000000 0.000000 0.034425 0.000000 -0.000284
# 5 0.001127 -0.001394 -0.000504 0.000000 0.036153 0.000000
# 6 0.000000 0.000000 0.000000 -0.000284 0.000000 0.038210
#
#
# Mechanical properties :
#
#
# Convention : Reuss Voigt Hill
#
# Bulk Modulus (GPa) = 59.16980 76.35069 67.76025
# Shear Modulus (GPa) = 27.39882 31.72732 29.56307
#
# Velocity S-wave (km/s) = 3.53239 3.80119 3.66926
# Velocity P-wave (km/s) = 6.60181 7.35096 6.98643
#
# Compressibility (1/GPa) = 0.01690051
#
# Stress axis : x y z
#
# Youngs Moduli (GPa) = 131.02773 43.34376 84.88104
#
# Poissons Ratio (x) = 0.00969 0.25958
# Poissons Ratio (y) = 0.02930 0.80724
# Poissons Ratio (z) = 0.40070 0.41221
#
# Static dielectric constant tensor:
#      x y z
#    x 4.151530 0.000000 -0.401040 
#    y 0.000000 3.679250 0.000000 
#    z -0.401040 0.000000 -1.191490 
# 
# 
# High freq. dielectric constant tensor:
#      x y z
#    x 1.889140 0.000000 -0.000690 
#    y 0.000000 1.837300 0.000000 
#    z -0.000690 0.000000 1.879920 
# 
# From -- ./inp_files/70963.got.cif
#   From: 2010.03.12/outbox.cif.g09.slc.cpg/sg14_36_cif.got.tgz:70963.got - 2010.03.31 13:35:05.
