data_PCOD8125712
_publ_section_title
;
Structure prediction by ZEFSAII (Michael W. Deem and Ramdas Pophale) SiO2 
 PCOD8125712
Probable space group: P 21/C
;
_chemical_formula_sum "Si O2"
_cell_formula_units_Z 24
_cell_length_a 12.214473
_cell_length_b 14.121939
_cell_length_c 13.515729
_cell_angle_alpha 90.000000
_cell_angle_beta 31.705109
_cell_angle_gamma 90.000000
_cell_volume 1225.238196
_symmetry_space_group_name_H-M "P 21/C"
_symmetry_group_IT_number 14
_symmetry_cell_setting 'monoclinic'
loop_
_space_group_symop_operation_xyz
x,y,z
-x,1/2+y,1/2-z
-x,-y,-z
x,1/2-y,1/2+z
loop_
_atom_site_type_symbol
_atom_site_label
_atom_site_fract_x
_atom_site_fract_y
_atom_site_fract_z
Si Si1 0.443276 0.263992 0.039226
Si Si2 0.065291 0.020791 0.613002
Si Si3 0.001304 0.178160 0.811134
Si Si4 0.150593 0.718740 0.375470
Si Si5 0.175546 0.385575 0.839799
Si Si6 0.199310 0.647230 0.134902
O O1 0.379897 0.165857 0.140813
O O2 0.248199 0.319025 0.142909
O O3 0.610614 0.244913 0.822462
O O4 0.556237 0.326853 0.037878
O O5 0.190642 0.957178 0.595381
O O6 0.886290 0.962865 0.694639
O O7 0.222019 0.063457 0.409388
O O8 0.953198 0.104536 0.760929
O O9 0.920106 0.282241 0.846330
O O10 0.876898 0.151266 0.007376
O O11 0.084382 0.656043 0.330445
O O12 0.007205 0.810409 0.499714
#
# Coordination Sequence:
#
# PCOD8125712 Si02
#       6
#     4   4   4   4   4   4
#     4   9  21  40  65  87 124 169 208 250 322 377
#     4  11  21  37  69  95 127 167 211 265 317 363
#     4  11  21  41  65  89 131 166 202 272 316 359
#     4   9  20  41  62  90 124 164 217 250 304 398
#     4  10  20  41  67  92 124 166 218 264 298 382
#     4  10  21  40  64  92 126 167 211 256 317 376
#
# _framework density 19.588028999999999
#
# number of rings (size 3 to 8) (size 9 to 14) (size 15 to 20)
#    1.000    1.000    5.000    0.000    0.000    2.667 
#    0.000    9.167   14.667    0.000    0.000    0.000 
#    0.000    0.000    0.000    0.000    0.000    0.000 
#
# Total GULP energy -297377.046435 kJ/mol
# GULP energy per Si atom -12390.710268 kJ/mol
# Density = 1.954345 g / cm^3
# Si number density = 19.588029 Si / 1000 Ang^3
#
#
#
# Elastic Constant Matrix: (Units=GPa)
#
#
# Indices 1 2 3 4 5 6 
#
# 1 108.5988 34.6506 45.8695 0.0000 25.7911 0.0000
# 2 34.6506 80.1962 25.6522 0.0000 12.2259 0.0000
# 3 45.8695 25.6522 117.6381 0.0000 4.9715 0.0000
# 4 0.0000 0.0000 0.0000 22.5735 0.0000 13.5310
# 5 25.7911 12.2259 4.9715 0.0000 27.6836 0.0000
# 6 0.0000 0.0000 0.0000 13.5310 0.0000 51.2606
#
#
#
# Elastic Compliance Matrix: (Units=1/GPa)
#
#
# Indices 1 2 3 4 5 6 
#
# 1 0.014969 -0.003198 -0.004645 0.000000 -0.011699 0.000000
# 2 -0.003198 0.014952 -0.001874 0.000000 -0.003287 0.000000
# 3 -0.004645 -0.001874 0.010583 0.000000 0.003255 0.000000
# 4 0.000000 0.000000 0.000000 0.052627 0.000000 -0.013892
# 5 -0.011699 -0.003287 0.003255 0.000000 0.047889 0.000000
# 6 0.000000 0.000000 0.000000 -0.013892 0.000000 0.023175
#
#
# Mechanical properties :
#
#
# Convention : Reuss Voigt Hill
#
# Bulk Modulus (GPa) = 47.46399 57.64197 52.55298
# Shear Modulus (GPa) = 26.22568 33.65426 29.93997
#
# Velocity S-wave (km/s) = 3.66302 4.14950 3.91382
# Velocity P-wave (km/s) = 6.49415 7.24215 6.87833
#
# Compressibility (1/GPa) = 0.02106860
#
# Stress axis : x y z
#
# Youngs Moduli (GPa) = 66.80472 66.88057 94.49154
#
# Poissons Ratio (x) = 0.21391 0.43890
# Poissons Ratio (y) = 0.21367 0.17712
# Poissons Ratio (z) = 0.31030 0.12536
#
# Static dielectric constant tensor:
#      x y z
#    x 3.728720 0.000000 0.333180 
#    y 0.000000 3.412700 0.000000 
#    z 0.333180 0.000000 3.439140 
# 
# 
# High freq. dielectric constant tensor:
#      x y z
#    x 1.775400 0.000000 0.020070 
#    y 0.000000 1.748910 0.000000 
#    z 0.020070 0.000000 1.742230 
# 
# From -- ./inp_files/45023.got.cif
#   From: 2010.03.12/outbox.cif.g09.slc.cpg/sg14_23_cif.got.tgz:45023.got - 2010.03.31 13:35:05.
