data_PCOD8125702
_publ_section_title
;
Structure prediction by ZEFSAII (Michael W. Deem and Ramdas Pophale) SiO2 
 PCOD8125702
Probable space group: P 21/C
;
_chemical_formula_sum "Si O2"
_cell_formula_units_Z 28
_cell_length_a 16.237293
_cell_length_b 8.122862
_cell_length_c 10.350289
_cell_angle_alpha 90.000000
_cell_angle_beta 114.290339
_cell_angle_gamma 90.000000
_cell_volume 1244.282008
_symmetry_space_group_name_H-M "P 21/C"
_symmetry_group_IT_number 14
_symmetry_cell_setting 'monoclinic'
loop_
_space_group_symop_operation_xyz
x,y,z
-x,1/2+y,1/2-z
-x,-y,-z
x,1/2-y,1/2+z
loop_
_atom_site_type_symbol
_atom_site_label
_atom_site_fract_x
_atom_site_fract_y
_atom_site_fract_z
Si Si1 0.279120 0.380919 0.947184
Si Si2 0.757878 0.421063 0.820251
Si Si3 0.122437 0.149997 0.747253
Si Si4 0.434249 0.014259 0.840802
Si Si5 0.738784 0.452076 0.317921
Si Si6 0.412917 0.330258 0.677514
Si Si7 0.924464 0.878445 0.999459
O O1 0.207221 0.262041 0.836004
O O2 0.290681 0.528313 0.851448
O O3 0.241269 0.456986 0.055888
O O4 0.372590 0.279742 0.031944
O O5 0.837736 0.472452 0.772399
O O6 0.661180 0.432573 0.687299
O O7 0.768767 0.233024 0.870046
O O8 0.065750 0.218081 0.587062
O O9 0.059565 0.145794 0.835493
O O10 0.418091 0.205634 0.800161
O O11 0.486194 0.904678 0.767140
O O12 0.500000 0.000000 0.000000
O O13 0.654024 0.515781 0.345646
O O14 0.823208 0.560122 0.415556
O O15 0.000000 0.000000 0.000000
#
# Coordination Sequence:
#
# PCOD8125702 Si02
#       7
#     4   4   4   4   4   4   4
#     4  10  20  41  66  92 126 183 221 269 337 400
#     4  11  24  39  66  98 130 179 222 282 330 405
#     4  11  21  48  70  97 137 179 222 267 342 399
#     4  11  23  37  60  89 128 172 228 272 335 390
#     4  11  24  40  67  94 134 171 228 274 343 404
#     4  11  21  40  60  93 128 178 221 279 333 398
#     4  11  25  45  74 102 135 178 223 276 332 403
#
# _framework density 22.502936999999999
#
# number of rings (size 3 to 8) (size 9 to 14) (size 15 to 20)
#    0.000    1.143    2.857    5.143    2.000    3.429 
#    2.571    6.429    0.000    0.000    0.000    0.000 
#    0.000    0.000    0.000    0.000    0.000    0.000 
#
# Total GULP energy -346989.395352 kJ/mol
# GULP energy per Si atom -12392.478405 kJ/mol
# Density = 2.245172 g / cm^3
# Si number density = 22.502937 Si / 1000 Ang^3
#
#
#
# Elastic Constant Matrix: (Units=GPa)
#
#
# Indices 1 2 3 4 5 6 
#
# 1 91.0337 18.3930 12.4186 0.0000 -16.9731 0.0000
# 2 18.3930 110.8275 10.7680 0.0000 -14.0770 0.0000
# 3 12.4186 10.7680 58.9854 0.0000 -24.8899 0.0000
# 4 0.0000 0.0000 0.0000 22.5654 0.0000 0.0707
# 5 -16.9731 -14.0770 -24.8899 0.0000 29.1222 0.0000
# 6 0.0000 0.0000 0.0000 0.0707 0.0000 36.2559
#
#
#
# Elastic Compliance Matrix: (Units=1/GPa)
#
#
# Indices 1 2 3 4 5 6 
#
# 1 0.012494 -0.001216 0.000651 0.000000 0.007250 0.000000
# 2 -0.001216 0.009735 0.000259 0.000000 0.004218 0.000000
# 3 0.000651 0.000259 0.026561 0.000000 0.023205 0.000000
# 4 0.000000 0.000000 0.000000 0.044316 0.000000 -0.000086
# 5 0.007250 0.004218 0.023205 0.000000 0.060435 0.000000
# 6 0.000000 0.000000 0.000000 -0.000086 0.000000 0.027582
#
#
# Mechanical properties :
#
#
# Convention : Reuss Voigt Hill
#
# Bulk Modulus (GPa) = 20.75647 38.22288 29.48967
# Shear Modulus (GPa) = 25.27875 32.20652 28.74264
#
# Velocity S-wave (km/s) = 3.35528 3.78724 3.57779
# Velocity P-wave (km/s) = 4.92488 6.01223 5.49551
#
# Compressibility (1/GPa) = 0.04817775
#
# Stress axis : x y z
#
# Youngs Moduli (GPa) = 80.04111 102.71710 37.64936
#
# Poissons Ratio (x) = 0.12488 -0.02451
# Poissons Ratio (y) = 0.09731 -0.00974
# Poissons Ratio (z) = -0.05210 -0.02658
#
# Static dielectric constant tensor:
#      x y z
#    x 3.973400 0.000000 0.059760 
#    y 0.000000 3.854770 0.000000 
#    z 0.059760 0.000000 4.478790 
# 
# 
# High freq. dielectric constant tensor:
#      x y z
#    x 1.877110 0.000000 -0.009760 
#    y 0.000000 1.883200 0.000000 
#    z -0.009760 0.000000 1.890210 
# 
# From -- ./inp_files/31899.got.cif
#   From: 2010.03.12/outbox.cif.g09.slc.cpg/sg14_16_cif.got.tgz:31899.got - 2010.03.31 13:35:05.
