data_PCOD8125324
_publ_section_title
;
Structure prediction by ZEFSAII (Michael W. Deem and Ramdas Pophale) SiO2 
 PCOD8125324
Probable space group: P 21/C
;
_chemical_formula_sum "Si O2"
_cell_formula_units_Z 28
_cell_length_a 10.859051
_cell_length_b 14.925034
_cell_length_c 16.991618
_cell_angle_alpha 90.000000
_cell_angle_beta 29.075700
_cell_angle_gamma 90.000000
_cell_volume 1338.279151
_symmetry_space_group_name_H-M "P 21/C"
_symmetry_group_IT_number 14
_symmetry_cell_setting 'monoclinic'
loop_
_space_group_symop_operation_xyz
x,y,z
-x,1/2+y,1/2-z
-x,-y,-z
x,1/2-y,1/2+z
loop_
_atom_site_type_symbol
_atom_site_label
_atom_site_fract_x
_atom_site_fract_y
_atom_site_fract_z
Si Si1 0.858210 0.124322 0.518547
Si Si2 0.358217 0.082696 0.707092
Si Si3 0.868266 0.328862 0.499860
Si Si4 0.504274 0.390724 0.834292
Si Si5 0.357975 0.292857 0.062219
Si Si6 0.936369 0.445666 0.139048
Si Si7 0.803362 0.168556 0.860522
O O1 0.601002 0.121522 0.614069
O O2 0.957687 0.225105 0.451528
O O3 0.790702 0.100445 0.647344
O O4 0.066964 0.054423 0.365987
O O5 0.352081 0.119685 0.621333
O O6 0.113397 0.116664 0.891846
O O7 0.347641 0.975537 0.712829
O O8 0.634953 0.346850 0.686491
O O9 0.790664 0.366129 0.457011
O O10 0.499670 0.314973 0.902614
O O11 0.226187 0.418499 0.963693
O O12 0.531383 0.215309 0.001148
O O13 0.059375 0.268187 0.211646
O O14 0.827494 0.412818 0.283879
#
# Coordination Sequence:
#
# PCOD8125324 Si02
#       7
#     4   4   4   4   4   4   4
#     4  10  20  38  61  86 116 163 198 241 302 365
#     4  10  21  38  60  87 119 157 198 245 305 361
#     4  11  22  36  62  88 123 150 205 252 300 355
#     4  10  21  37  62  90 118 155 199 253 297 361
#     4  10  20  39  62  89 120 161 203 248 300 364
#     4   9  21  39  62  85 120 158 204 241 304 366
#     4  10  21  39  61  91 122 159 204 253 300 361
#
# _framework density 20.922391000000001
#
# number of rings (size 3 to 8) (size 9 to 14) (size 15 to 20)
#    0.000    2.000    1.429    1.714    2.000    1.143 
#    2.571    0.000    0.000   11.143    0.000    0.000 
#    0.000    0.000    0.000    0.000    0.000    0.000 
#
# Total GULP energy -347032.956946 kJ/mol
# GULP energy per Si atom -12394.034177 kJ/mol
# Density = 2.087477 g / cm^3
# Si number density = 20.922391 Si / 1000 Ang^3
#
#
#
# Elastic Constant Matrix: (Units=GPa)
#
#
# Indices 1 2 3 4 5 6 
#
# 1 53.6506 -6.1907 13.3028 0.0000 18.0780 0.0000
# 2 -6.1907 51.4767 10.6893 0.0000 9.2692 0.0000
# 3 13.3028 10.6893 82.7423 0.0000 22.8316 0.0000
# 4 0.0000 0.0000 0.0000 23.8908 0.0000 2.7898
# 5 18.0780 9.2692 22.8316 0.0000 43.0219 0.0000
# 6 0.0000 0.0000 0.0000 2.7898 0.0000 29.7836
#
#
#
# Elastic Compliance Matrix: (Units=1/GPa)
#
#
# Indices 1 2 3 4 5 6 
#
# 1 0.022906 0.004856 -0.001600 0.000000 -0.009822 0.000000
# 2 0.004856 0.021434 -0.002006 0.000000 -0.005594 0.000000
# 3 -0.001600 -0.002006 0.014407 0.000000 -0.006541 0.000000
# 4 0.000000 0.000000 0.000000 0.042320 0.000000 -0.003964
# 5 -0.009822 -0.005594 -0.006541 0.000000 0.032048 0.000000
# 6 0.000000 0.000000 0.000000 -0.003964 0.000000 0.033947
#
#
# Mechanical properties :
#
#
# Convention : Reuss Voigt Hill
#
# Bulk Modulus (GPa) = 16.32746 24.83024 20.57885
# Shear Modulus (GPa) = 27.03028 30.67712 28.85370
#
# Velocity S-wave (km/s) = 3.59824 3.83330 3.71763
# Velocity P-wave (km/s) = 5.00838 5.61122 5.31835
#
# Compressibility (1/GPa) = 0.06124650
#
# Stress axis : x y z
#
# Youngs Moduli (GPa) = 43.65717 46.65475 69.41034
#
# Poissons Ratio (x) = -0.22653 0.11103
# Poissons Ratio (y) = -0.21198 0.13925
# Poissons Ratio (z) = 0.06983 0.09360
#
# Static dielectric constant tensor:
#      x y z
#    x 3.940120 0.000000 -0.000510 
#    y 0.000000 3.743410 0.000000 
#    z -0.000510 0.000000 3.687930 
# 
# 
# High freq. dielectric constant tensor:
#      x y z
#    x 1.833310 0.000000 0.002370 
#    y 0.000000 1.801220 0.000000 
#    z 0.002370 0.000000 1.811550 
# 
# From -- ./inp_files/55929.got.cif
#   From: 2010.03.12/outbox.cif.g09.slc.cpg/sg14_28_cif.got.tgz:55929.got - 2010.03.31 13:35:05.
