data_PCOD8125786
_publ_section_title
;
Structure prediction by ZEFSAII (Michael W. Deem and Ramdas Pophale) SiO2 
 PCOD8125786
Probable space group: P 21/C
;
_chemical_formula_sum "Si O2"
_cell_formula_units_Z 28
_cell_length_a 11.471953
_cell_length_b 14.124899
_cell_length_c 7.364288
_cell_angle_alpha 90.000000
_cell_angle_beta 105.158001
_cell_angle_gamma 90.000000
_cell_volume 1151.793382
_symmetry_space_group_name_H-M "P 21/C"
_symmetry_group_IT_number 14
_symmetry_cell_setting 'monoclinic'
loop_
_space_group_symop_operation_xyz
x,y,z
-x,1/2+y,1/2-z
-x,-y,-z
x,1/2-y,1/2+z
loop_
_atom_site_type_symbol
_atom_site_label
_atom_site_fract_x
_atom_site_fract_y
_atom_site_fract_z
Si Si1 0.473620 0.864976 0.326926
Si Si2 0.919177 0.353527 0.703746
Si Si3 0.195823 0.157543 0.355667
Si Si4 0.648141 0.701753 0.391761
Si Si5 0.200236 0.967274 0.559826
Si Si6 0.200767 0.837762 0.215580
Si Si7 0.532575 0.431488 0.767251
O O1 0.577606 0.795761 0.290554
O O2 0.342291 0.820133 0.238902
O O3 0.497987 0.883356 0.550343
O O4 0.479376 0.964060 0.225371
O O5 0.862391 0.380639 0.488074
O O6 0.854893 0.263509 0.764640
O O7 0.059415 0.330415 0.735029
O O8 0.903763 0.442415 0.836169
O O9 0.282566 0.133383 0.223169
O O10 0.246253 0.261834 0.432832
O O11 0.206970 0.079024 0.518804
O O12 0.538450 0.632295 0.414499
O O13 0.175153 0.912751 0.362816
O O14 0.324098 0.932426 0.703850
#
# Coordination Sequence:
#
# PCOD8125786 Si02
#       7
#     4   4   4   4   4   4   4
#     4  10  21  41  69 101 142 180 235 302 370 432
#     4  12  25  47  69 105 144 194 247 298 359 437
#     4  12  27  46  67 103 150 192 243 299 370 435
#     4  12  22  42  71  99 140 192 229 299 373 433
#     4  11  24  49  74 104 146 189 244 309 362 434
#     4  11  24  43  74 105 136 190 246 299 358 441
#     4  10  20  43  68 103 144 181 237 299 372 440
#
# _framework density 24.309916999999999
#
# number of rings (size 3 to 8) (size 9 to 14) (size 15 to 20)
#    0.000    0.857    4.286    3.857    2.000    1.714 
#    5.143    1.429    0.000    0.000    0.000    0.000 
#    0.000    0.000    0.000    0.000    0.000    0.000 
#
# Total GULP energy -347086.646927 kJ/mol
# GULP energy per Si atom -12395.951676 kJ/mol
# Density = 2.425459 g / cm^3
# Si number density = 24.309917 Si / 1000 Ang^3
#
#
#
# Elastic Constant Matrix: (Units=GPa)
#
#
# Indices 1 2 3 4 5 6 
#
# 1 138.0979 31.1581 44.8495 0.0000 32.3970 0.0000
# 2 31.1581 81.6615 8.1769 0.0000 8.7909 0.0000
# 3 44.8495 8.1769 84.3710 0.0000 15.5009 0.0000
# 4 0.0000 0.0000 0.0000 34.2040 0.0000 -0.5655
# 5 32.3970 8.7909 15.5009 0.0000 22.7499 0.0000
# 6 0.0000 0.0000 0.0000 -0.5655 0.0000 36.4725
#
#
#
# Elastic Compliance Matrix: (Units=1/GPa)
#
#
# Indices 1 2 3 4 5 6 
#
# 1 0.012375 -0.002843 -0.003734 0.000000 -0.013980 0.000000
# 2 -0.002843 0.013441 0.000479 0.000000 -0.001472 0.000000
# 3 -0.003734 0.000479 0.014687 0.000000 -0.004874 0.000000
# 4 0.000000 0.000000 0.000000 0.029244 0.000000 0.000453
# 5 -0.013980 -0.001472 -0.004874 0.000000 0.067753 0.000000
# 6 0.000000 0.000000 0.000000 0.000453 0.000000 0.027425
#
#
# Mechanical properties :
#
#
# Convention : Reuss Voigt Hill
#
# Bulk Modulus (GPa) = 35.32836 52.49993 43.91415
# Shear Modulus (GPa) = 26.80154 33.34835 30.07495
#
# Velocity S-wave (km/s) = 3.32398 3.70780 3.52113
# Velocity P-wave (km/s) = 5.41257 6.32245 5.88512
#
# Compressibility (1/GPa) = 0.02830587
#
# Stress axis : x y z
#
# Youngs Moduli (GPa) = 80.80817 74.40006 68.08959
#
# Poissons Ratio (x) = 0.21151 0.25427
# Poissons Ratio (y) = 0.22973 -0.03261
# Poissons Ratio (z) = 0.30176 -0.03563
#
# Static dielectric constant tensor:
#      x y z
#    x 4.487070 0.000000 0.136520 
#    y 0.000000 4.315720 0.000000 
#    z 0.136520 0.000000 4.242470 
# 
# 
# High freq. dielectric constant tensor:
#      x y z
#    x 1.977320 0.000000 0.016440 
#    y 0.000000 1.965790 0.000000 
#    z 0.016440 0.000000 1.949450 
# 
# From -- ./inp_files/13132.got.cif
#   From: 2010.03.12/outbox.cif.g09.slc.cpg/sg14_7_cif.got.tgz:13132.got - 2010.03.31 13:35:05.
