data_PCOD8125025
_publ_section_title
;
Structure prediction by ZEFSAII (Michael W. Deem and Ramdas Pophale) SiO2 
 PCOD8125025
Probable space group: P 21/C
;
_chemical_formula_sum "Si O2"
_cell_formula_units_Z 32
_cell_length_a 20.951645
_cell_length_b 9.840461
_cell_length_c 25.926646
_cell_angle_alpha 90.000000
_cell_angle_beta 17.963027
_cell_angle_gamma 90.000000
_cell_volume 1648.537394
_symmetry_space_group_name_H-M "P 21/C"
_symmetry_group_IT_number 14
_symmetry_cell_setting 'monoclinic'
loop_
_space_group_symop_operation_xyz
x,y,z
-x,1/2+y,1/2-z
-x,-y,-z
x,1/2-y,1/2+z
loop_
_atom_site_type_symbol
_atom_site_label
_atom_site_fract_x
_atom_site_fract_y
_atom_site_fract_z
Si Si1 0.128056 0.846695 0.848508
Si Si2 0.208933 0.388739 0.734450
Si Si3 0.180843 0.291875 0.499654
Si Si4 0.577110 0.512280 0.621291
Si Si5 0.458636 0.791883 0.360779
Si Si6 0.777976 0.846745 0.198501
Si Si7 0.564366 0.388814 0.378937
Si Si8 0.216464 0.512305 0.981846
O O1 0.333991 0.758606 0.695005
O O2 0.195327 0.999962 0.804743
O O3 0.032769 0.828639 0.864672
O O4 0.962992 0.799875 0.018523
O O5 0.218307 0.241285 0.752796
O O6 0.358710 0.395840 0.570677
O O7 0.269145 0.499926 0.730915
O O8 0.978676 0.414204 0.892701
O O9 0.224957 0.404034 0.509777
O O10 0.365126 0.294472 0.317429
O O11 0.163082 0.142467 0.539011
O O12 0.645644 0.357494 0.556587
O O13 0.493765 0.585719 0.634984
O O14 0.395276 0.513742 0.802324
O O15 0.556746 0.828616 0.340597
O O16 0.285856 0.904081 0.479302
#
# Coordination Sequence:
#
# PCOD8125025 Si02
#       8
#     4   4   4   4   4   4   4   4
#     4  10  21  37  61  89 116 148 192 241 293 344
#     4  11  23  39  58  82 115 155 197 236 281 338
#     4   9  19  34  56  87 114 143 184 238 291 339
#     4  10  20  36  59  84 114 147 189 238 290 343
#     4   9  19  34  56  87 114 143 184 238 291 339
#     4  10  21  37  61  89 116 148 192 241 293 344
#     4  11  23  39  58  82 115 155 197 236 281 338
#     4  10  20  36  59  84 114 147 189 238 290 343
#
# _framework density 19.411147
#
# number of rings (size 3 to 8) (size 9 to 14) (size 15 to 20)
#    0.000    2.000    2.500    0.750    3.500    1.500 
#    0.000    2.500    0.000    0.000    0.000    0.000 
#    0.000    0.000    0.000    0.000    0.000    0.000 
#
# Total GULP energy -396887.405568 kJ/mol
# GULP energy per Si atom -12402.731424 kJ/mol
# Density = 1.936697 g / cm^3
# Si number density = 19.411147 Si / 1000 Ang^3
#
#
#
# Elastic Constant Matrix: (Units=GPa)
#
#
# Indices 1 2 3 4 5 6 
#
# 1 93.7161 64.5805 26.8127 0.0000 -36.1043 0.0000
# 2 64.5805 135.1200 28.5879 0.0000 -24.7979 0.0000
# 3 26.8127 28.5879 21.3020 0.0000 -13.8314 0.0000
# 4 0.0000 0.0000 0.0000 19.7784 0.0000 -12.7451
# 5 -36.1043 -24.7979 -13.8314 0.0000 22.5605 0.0000
# 6 0.0000 0.0000 0.0000 -12.7451 0.0000 38.2528
#
#
#
# Elastic Compliance Matrix: (Units=1/GPa)
#
#
# Indices 1 2 3 4 5 6 
#
# 1 0.033372 -0.007113 -0.004750 0.000000 0.042676 0.000000
# 2 -0.007113 0.012167 -0.010106 0.000000 -0.004206 0.000000
# 3 -0.004750 -0.010106 0.090271 0.000000 0.036635 0.000000
# 4 0.000000 0.000000 0.000000 0.064383 0.000000 0.021451
# 5 0.042676 -0.004206 0.036635 0.000000 0.130458 0.000000
# 6 0.000000 0.000000 0.000000 0.021451 0.000000 0.033289
#
#
# Mechanical properties :
#
#
# Convention : Reuss Voigt Hill
#
# Bulk Modulus (GPa) = 10.88453 54.45559 32.67006
# Shear Modulus (GPa) = 11.40246 24.79549 18.09898
#
# Velocity S-wave (km/s) = 2.42630 3.57793 3.05684
# Velocity P-wave (km/s) = 3.66998 6.72186 5.41536
#
# Compressibility (1/GPa) = 0.09187348
#
# Stress axis : x y z
#
# Youngs Moduli (GPa) = 29.96516 82.19064 11.07773
#
# Poissons Ratio (x) = 0.58464 0.05261
# Poissons Ratio (y) = 0.21315 0.11195
# Poissons Ratio (z) = 0.14232 0.83058
#
# Static dielectric constant tensor:
#      x y z
#    x 3.604120 0.000000 -0.226770 
#    y 0.000000 3.772790 0.000000 
#    z -0.226770 0.000000 3.274740 
# 
# 
# High freq. dielectric constant tensor:
#      x y z
#    x 1.757550 0.000000 -0.020780 
#    y 0.000000 1.769640 0.000000 
#    z -0.020780 0.000000 1.727370 
# 
# From -- ./inp_files/77976.got.cif
#   From: 2010.03.12/outbox.cif.g09.slc.cpg/sg14_39_cif.got.tgz:77976.got - 2010.03.31 13:35:05.
