data_PCOD8125123
_publ_section_title
;
Structure prediction by ZEFSAII (Michael W. Deem and Ramdas Pophale) SiO2 
 PCOD8125123
Probable space group: P 21/C
;
_chemical_formula_sum "Si O2"
_cell_formula_units_Z 24
_cell_length_a 17.328632
_cell_length_b 11.071247
_cell_length_c 7.733530
_cell_angle_alpha 90.000000
_cell_angle_beta 124.406984
_cell_angle_gamma 90.000000
_cell_volume 1224.097563
_symmetry_space_group_name_H-M "P 21/C"
_symmetry_group_IT_number 14
_symmetry_cell_setting 'monoclinic'
loop_
_space_group_symop_operation_xyz
x,y,z
-x,1/2+y,1/2-z
-x,-y,-z
x,1/2-y,1/2+z
loop_
_atom_site_type_symbol
_atom_site_label
_atom_site_fract_x
_atom_site_fract_y
_atom_site_fract_z
Si Si1 0.663589 0.909992 0.947787
Si Si2 0.939285 0.144224 0.564724
Si Si3 0.536986 0.398001 0.171914
Si Si4 0.080585 0.596249 0.584898
Si Si5 0.439975 0.298246 0.370355
Si Si6 0.863470 0.987826 0.173978
O O1 0.632269 0.808232 0.771589
O O2 0.637452 0.049037 0.859006
O O3 0.611523 0.884994 0.061313
O O4 0.775329 0.904055 0.110400
O O5 0.882786 0.123803 0.674514
O O6 0.959244 0.283963 0.555557
O O7 0.874065 0.091859 0.331170
O O8 0.042154 0.088665 0.704221
O O9 0.468585 0.383939 0.249726
O O10 0.500000 0.500000 0.000000
O O11 0.533622 0.267823 0.069682
O O12 0.155939 0.542429 0.543580
O O13 0.000000 0.500000 0.500000
#
# Coordination Sequence:
#
# PCOD8125123 Si02
#       6
#     4   4   4   4   4   4
#     4  10  20  37  57  89 113 144 194 237 279 346
#     4  10  20  39  58  79 120 156 192 237 293 347
#     4   9  18  36  59  80 115 147 183 228 292 349
#     4  10  20  37  60  80 110 159 195 233 294 349
#     4   9  19  37  59  83 114 151 183 233 292 346
#     4  10  22  38  57  87 114 153 200 241 286 336
#
# _framework density 19.606280000000002
#
# number of rings (size 3 to 8) (size 9 to 14) (size 15 to 20)
#    0.000    2.333    1.667    0.500    0.000    2.667 
#   12.000    0.000    0.000    0.000    0.000    0.000 
#    0.000    0.000    0.000    0.000    0.000    0.000 
#
# Total GULP energy -297315.937264 kJ/mol
# GULP energy per Si atom -12388.164053 kJ/mol
# Density = 1.956166 g / cm^3
# Si number density = 19.606280 Si / 1000 Ang^3
#
#
#
# Elastic Constant Matrix: (Units=GPa)
#
#
# Indices 1 2 3 4 5 6 
#
# 1 77.2925 37.1112 49.1850 0.0000 -20.0637 0.0000
# 2 37.1112 86.7630 27.8303 0.0000 -8.5220 0.0000
# 3 49.1850 27.8303 74.6427 0.0000 -13.7915 0.0000
# 4 0.0000 0.0000 0.0000 22.5367 0.0000 -6.7862
# 5 -20.0637 -8.5220 -13.7915 0.0000 40.2692 0.0000
# 6 0.0000 0.0000 0.0000 -6.7862 0.0000 30.1306
#
#
#
# Elastic Compliance Matrix: (Units=1/GPa)
#
#
# Indices 1 2 3 4 5 6 
#
# 1 0.026646 -0.006230 -0.013906 0.000000 0.007195 0.000000
# 2 -0.006230 0.014600 -0.001432 0.000000 -0.000505 0.000000
# 3 -0.013906 -0.001432 0.023228 0.000000 0.000724 0.000000
# 4 0.000000 0.000000 0.000000 0.047600 0.000000 0.010721
# 5 0.007195 -0.000505 0.000724 0.000000 0.028559 0.000000
# 6 0.000000 0.000000 0.000000 0.010721 0.000000 0.035604
#
#
# Mechanical properties :
#
#
# Convention : Reuss Voigt Hill
#
# Bulk Modulus (GPa) = 46.86296 51.88346 49.37321
# Shear Modulus (GPa) = 22.07665 26.89206 24.48436
#
# Velocity S-wave (km/s) = 3.35923 3.70754 3.53767
# Velocity P-wave (km/s) = 6.24498 6.69686 6.47486
#
# Compressibility (1/GPa) = 0.02133881
#
# Stress axis : x y z
#
# Youngs Moduli (GPa) = 37.52946 68.49274 43.05220
#
# Poissons Ratio (x) = 0.42672 0.59867
# Poissons Ratio (y) = 0.23381 0.06163
# Poissons Ratio (z) = 0.52187 0.09805
#
# Static dielectric constant tensor:
#      x y z
#    x 3.633740 0.000000 -0.492160 
#    y 0.000000 3.771940 0.000000 
#    z -0.492160 0.000000 3.835040 
# 
# 
# High freq. dielectric constant tensor:
#      x y z
#    x 1.749150 0.000000 -0.039520 
#    y 0.000000 1.770530 0.000000 
#    z -0.039520 0.000000 1.755360 
# 
# From -- ./inp_files/17787.got.cif
#   From: 2010.03.12/outbox.cif.g09.slc.cpg/sg14_9_cif.got.tgz:17787.got - 2010.03.31 13:35:05.
