data_PCOD8125861
_publ_section_title
;
Structure prediction by ZEFSAII (Michael W. Deem and Ramdas Pophale) SiO2 
 PCOD8125861
Probable space group: P 21/C
;
_chemical_formula_sum "Si O2"
_cell_formula_units_Z 20
_cell_length_a 11.393179
_cell_length_b 5.174077
_cell_length_c 19.125257
_cell_angle_alpha 90.000000
_cell_angle_beta 55.252692
_cell_angle_gamma 90.000000
_cell_volume 926.370004
_symmetry_space_group_name_H-M "P 21/C"
_symmetry_group_IT_number 14
_symmetry_cell_setting 'monoclinic'
loop_
_space_group_symop_operation_xyz
x,y,z
-x,1/2+y,1/2-z
-x,-y,-z
x,1/2-y,1/2+z
loop_
_atom_site_type_symbol
_atom_site_label
_atom_site_fract_x
_atom_site_fract_y
_atom_site_fract_z
Si Si1 0.840487 0.211490 0.096060
Si Si2 0.437241 0.822985 0.237112
Si Si3 0.158193 0.221492 0.494470
Si Si4 0.388588 0.556165 0.600240
Si Si5 0.667342 0.939873 0.431658
O O1 0.730650 0.263517 0.195982
O O2 0.999903 0.188011 0.073461
O O3 0.842684 0.445355 0.041349
O O4 0.786538 0.949263 0.075563
O O5 0.529725 0.579014 0.229721
O O6 0.468406 0.867372 0.144687
O O7 0.260283 0.182616 0.525335
O O8 0.500000 0.500000 0.500000
O O9 0.309161 0.279728 0.636540
O O10 0.275363 0.782777 0.615614
O O11 0.500000 0.000000 0.500000
#
# Coordination Sequence:
#
# PCOD8125861 Si02
#       5
#     4   4   4   4   4
#     4  10  23  39  64  91 130 166 222 260 335 375
#     4  12  26  40  64  95 133 168 218 280 323 382
#     4  10  21  41  64  94 123 174 212 271 315 410
#     4  10  23  39  57  92 127 168 210 256 333 390
#     4  10  21  35  63  88 124 161 216 254 320 388
#
# _framework density 21.589648
#
# number of rings (size 3 to 8) (size 9 to 14) (size 15 to 20)
#    0.000    1.600    0.000    3.600   16.800    0.000 
#    0.000    2.000    0.000    0.000    0.000    0.000 
#    0.000    0.000    0.000    0.000    0.000    0.000 
#
# Total GULP energy -247787.459841 kJ/mol
# GULP energy per Si atom -12389.372992 kJ/mol
# Density = 2.154051 g / cm^3
# Si number density = 21.589648 Si / 1000 Ang^3
#
#
#
# Elastic Constant Matrix: (Units=GPa)
#
#
# Indices 1 2 3 4 5 6 
#
# 1 129.2311 55.4602 45.4418 0.0000 21.3996 0.0000
# 2 55.4602 199.9801 20.3339 0.0000 15.2983 0.0000
# 3 45.4418 20.3339 88.4467 0.0000 9.3697 0.0000
# 4 0.0000 0.0000 0.0000 25.9534 0.0000 7.8192
# 5 21.3996 15.2983 9.3697 0.0000 25.6240 0.0000
# 6 0.0000 0.0000 0.0000 7.8192 0.0000 36.4951
#
#
#
# Elastic Compliance Matrix: (Units=1/GPa)
#
#
# Indices 1 2 3 4 5 6 
#
# 1 0.011393 -0.002188 -0.004662 0.000000 -0.006504 0.000000
# 2 -0.002188 0.005731 -0.000025 0.000000 -0.001585 0.000000
# 3 -0.004662 -0.000025 0.013829 0.000000 -0.001148 0.000000
# 4 0.000000 0.000000 0.000000 0.041189 0.000000 -0.008825
# 5 -0.006504 -0.001585 -0.001148 0.000000 0.045824 0.000000
# 6 0.000000 0.000000 0.000000 -0.008825 0.000000 0.029292
#
#
# Mechanical properties :
#
#
# Convention : Reuss Voigt Hill
#
# Bulk Modulus (GPa) = 58.12975 73.34773 65.73874
# Shear Modulus (GPa) = 29.98632 37.37597 33.68114
#
# Velocity S-wave (km/s) = 3.73087 4.16528 3.95404
# Velocity P-wave (km/s) = 6.74851 7.56175 7.16668
#
# Compressibility (1/GPa) = 0.01720290
#
# Stress axis : x y z
#
# Youngs Moduli (GPa) = 87.77089 174.48432 72.31316
#
# Poissons Ratio (x) = 0.38180 0.33709
# Poissons Ratio (y) = 0.19206 0.00184
# Poissons Ratio (z) = 0.40915 0.00444
#
# Static dielectric constant tensor:
#      x y z
#    x 3.897890 0.000000 -0.068060 
#    y 0.000000 -1.233330 0.000000 
#    z -0.068060 0.000000 3.581790 
# 
# 
# High freq. dielectric constant tensor:
#      x y z
#    x 1.833790 0.000000 0.006820 
#    y 0.000000 1.896480 0.000000 
#    z 0.006820 0.000000 1.808390 
# 
# From -- ./inp_files/56507.got.cif
#   From: 2010.03.12/outbox.cif.g09.slc.cpg/sg14_29_cif.got.tgz:56507.got - 2010.03.31 13:35:05.
