data_PCOD8125616
_publ_section_title
;
Structure prediction by ZEFSAII (Michael W. Deem and Ramdas Pophale) SiO2 
 PCOD8125616
Probable space group: P 21/C
;
_chemical_formula_sum "Si O2"
_cell_formula_units_Z 24
_cell_length_a 7.930254
_cell_length_b 11.182340
_cell_length_c 23.572718
_cell_angle_alpha 90.000000
_cell_angle_beta 34.133669
_cell_angle_gamma 90.000000
_cell_volume 1172.976882
_symmetry_space_group_name_H-M "P 21/C"
_symmetry_group_IT_number 14
_symmetry_cell_setting 'monoclinic'
loop_
_space_group_symop_operation_xyz
x,y,z
-x,1/2+y,1/2-z
-x,-y,-z
x,1/2-y,1/2+z
loop_
_atom_site_type_symbol
_atom_site_label
_atom_site_fract_x
_atom_site_fract_y
_atom_site_fract_z
Si Si1 0.104157 0.493783 0.875550
Si Si2 0.050079 0.638703 0.311737
Si Si3 0.714484 0.769455 0.615505
Si Si4 0.980080 0.829554 0.701544
Si Si5 0.732922 0.609046 0.711376
Si Si6 0.326252 0.295098 0.999843
O O1 0.083310 0.386282 0.927091
O O2 0.382393 0.578957 0.812311
O O3 0.147550 0.438283 0.800666
O O4 0.800754 0.570250 0.963059
O O5 0.370865 0.701955 0.227858
O O6 0.943429 0.632236 0.276610
O O7 0.060424 0.505261 0.333716
O O8 0.807424 0.713314 0.413967
O O9 0.821370 0.658652 0.624342
O O10 0.748106 0.735633 0.540432
O O11 0.321103 0.804066 0.588467
O O12 0.789098 0.709894 0.743317
#
# Coordination Sequence:
#
# PCOD8125616 Si02
#       6
#     4   4   4   4   4   4
#     4  10  20  40  65  88 118 160 202 251 300 341
#     4  10  22  38  62  89 121 169 191 242 311 347
#     4   9  20  39  59  92 122 155 204 250 282 361
#     4  10  24  40  61  92 122 154 205 253 290 362
#     4  10  21  41  62  86 127 159 199 243 302 362
#     4  11  21  38  63  90 123 153 203 245 304 350
#
# _framework density 20.460761000000002
#
# number of rings (size 3 to 8) (size 9 to 14) (size 15 to 20)
#    0.000    2.000    1.667    1.000    2.333    1.333 
#    9.000    0.000    0.000    0.000    0.000    0.000 
#    0.000    0.000    0.000    0.000    0.000    0.000 
#
# Total GULP energy -297693.908001 kJ/mol
# GULP energy per Si atom -12403.912833 kJ/mol
# Density = 2.041419 g / cm^3
# Si number density = 20.460761 Si / 1000 Ang^3
#
#
#
# Elastic Constant Matrix: (Units=GPa)
#
#
# Indices 1 2 3 4 5 6 
#
# 1 121.8304 53.7470 40.8354 0.0000 1.4878 0.0000
# 2 53.7470 98.9223 44.8113 0.0000 -3.5762 0.0000
# 3 40.8354 44.8113 82.1736 0.0000 8.1327 0.0000
# 4 0.0000 0.0000 0.0000 21.4423 0.0000 -4.7679
# 5 1.4878 -3.5762 8.1327 0.0000 19.1562 0.0000
# 6 0.0000 0.0000 0.0000 -4.7679 0.0000 36.8536
#
#
#
# Elastic Compliance Matrix: (Units=1/GPa)
#
#
# Indices 1 2 3 4 5 6 
#
# 1 0.011339 -0.004850 -0.002936 0.000000 -0.000539 0.000000
# 2 -0.004850 0.016161 -0.007035 0.000000 0.006380 0.000000
# 3 -0.002936 -0.007035 0.018343 0.000000 -0.008873 0.000000
# 4 0.000000 0.000000 0.000000 0.048018 0.000000 0.006212
# 5 -0.000539 0.006380 -0.008873 0.000000 0.057202 0.000000
# 6 0.000000 0.000000 0.000000 0.006212 0.000000 0.027938
#
#
# Mechanical properties :
#
#
# Convention : Reuss Voigt Hill
#
# Bulk Modulus (GPa) = 61.72456 64.63485 63.17970
# Shear Modulus (GPa) = 23.35976 26.39258 24.87617
#
# Velocity S-wave (km/s) = 3.38255 3.59543 3.49061
# Velocity P-wave (km/s) = 6.74450 6.99245 6.86960
#
# Compressibility (1/GPa) = 0.01620101
#
# Stress axis : x y z
#
# Youngs Moduli (GPa) = 88.19491 61.87646 54.51719
#
# Poissons Ratio (x) = 0.30009 0.16009
# Poissons Ratio (y) = 0.42773 0.38350
# Poissons Ratio (z) = 0.25898 0.43527
#
# Static dielectric constant tensor:
#      x y z
#    x 3.948260 0.000000 0.024150 
#    y 0.000000 3.732480 0.000000 
#    z 0.024150 0.000000 3.359210 
# 
# 
# High freq. dielectric constant tensor:
#      x y z
#    x 1.819280 0.000000 0.004210 
#    y 0.000000 1.802040 0.000000 
#    z 0.004210 0.000000 1.774570 
# 
# From -- ./inp_files/24238.got.cif
#   From: 2010.03.12/outbox.cif.g09.slc.cpg/sg14_13_cif.got.tgz:24238.got - 2010.03.31 13:35:05.
