data_PCOD8125672
_publ_section_title
;
Structure prediction by ZEFSAII (Michael W. Deem and Ramdas Pophale) SiO2 
 PCOD8125672
Probable space group: P 21/C
;
_chemical_formula_sum "Si O2"
_cell_formula_units_Z 28
_cell_length_a 13.685209
_cell_length_b 9.307598
_cell_length_c 20.122952
_cell_angle_alpha 90.000000
_cell_angle_beta 32.665005
_cell_angle_gamma 90.000000
_cell_volume 1383.420729
_symmetry_space_group_name_H-M "P 21/C"
_symmetry_group_IT_number 14
_symmetry_cell_setting 'monoclinic'
loop_
_space_group_symop_operation_xyz
x,y,z
-x,1/2+y,1/2-z
-x,-y,-z
x,1/2-y,1/2+z
loop_
_atom_site_type_symbol
_atom_site_label
_atom_site_fract_x
_atom_site_fract_y
_atom_site_fract_z
Si Si1 0.232602 0.646214 0.950214
Si Si2 0.050963 0.839914 0.961385
Si Si3 0.798402 0.167816 0.384306
Si Si4 0.194375 0.337057 0.987256
Si Si5 0.580706 0.263455 0.280263
Si Si6 0.487939 0.840380 0.035767
Si Si7 0.152379 0.169110 0.659533
O O1 0.302655 0.667255 0.985772
O O2 0.126878 0.495366 0.006707
O O3 0.394553 0.643848 0.802131
O O4 0.085922 0.767261 0.013354
O O5 0.234477 0.826427 0.812224
O O6 0.878258 0.771926 0.025101
O O7 0.000000 0.000000 0.000000
O O8 0.677682 0.252813 0.400880
O O9 0.982492 0.257022 0.293000
O O10 0.834791 0.004291 0.337813
O O11 0.412806 0.342291 0.864348
O O12 0.118381 0.292537 0.102166
O O13 0.543198 0.359584 0.367072
O O14 0.666617 0.747099 0.917682
O O15 0.500000 0.000000 0.000000
#
# Coordination Sequence:
#
# PCOD8125672 Si02
#       7
#     4   4   4   4   4   4   4
#     4   9  23  40  60  90 121 162 206 250 318 365
#     4  10  22  37  59  93 122 162 207 249 316 371
#     4  11  22  43  62  91 128 160 216 264 309 383
#     4  10  20  41  63  83 126 162 200 259 311 362
#     4   9  23  39  62  92 126 157 211 256 310 369
#     4  11  23  41  66  94 126 170 210 257 323 382
#     4  10  23  40  65  89 120 171 207 263 315 371
#
# _framework density 20.239685000000001
#
# number of rings (size 3 to 8) (size 9 to 14) (size 15 to 20)
#    0.857    1.143    0.000    2.571    2.000    6.857 
#    2.571    0.000    0.000    0.000    0.000    0.000 
#    0.000    0.000    0.000    0.000    0.000    0.000 
#
# Total GULP energy -346946.415071 kJ/mol
# GULP energy per Si atom -12390.943395 kJ/mol
# Density = 2.019362 g / cm^3
# Si number density = 20.239685 Si / 1000 Ang^3
#
#
#
# Elastic Constant Matrix: (Units=GPa)
#
#
# Indices 1 2 3 4 5 6 
#
# 1 75.3757 43.4218 31.3787 0.0000 -4.2852 0.0000
# 2 43.4218 146.2901 30.3873 0.0000 -6.8038 0.0000
# 3 31.3787 30.3873 96.0682 0.0000 -1.5798 0.0000
# 4 0.0000 0.0000 0.0000 27.4502 0.0000 -1.3149
# 5 -4.2852 -6.8038 -1.5798 0.0000 38.7059 0.0000
# 6 0.0000 0.0000 0.0000 -1.3149 0.0000 34.2256
#
#
#
# Elastic Compliance Matrix: (Units=1/GPa)
#
#
# Indices 1 2 3 4 5 6 
#
# 1 0.017609 -0.004269 -0.004385 0.000000 0.001020 0.000000
# 2 -0.004269 0.008407 -0.001249 0.000000 0.000954 0.000000
# 3 -0.004385 -0.001249 0.012233 0.000000 -0.000206 0.000000
# 4 0.000000 0.000000 0.000000 0.036497 0.000000 0.001402
# 5 0.001020 0.000954 -0.000206 0.000000 0.026108 0.000000
# 6 0.000000 0.000000 0.000000 0.001402 0.000000 0.029272
#
#
# Mechanical properties :
#
#
# Convention : Reuss Voigt Hill
#
# Bulk Modulus (GPa) = 54.21776 58.67884 56.44830
# Shear Modulus (GPa) = 32.03515 34.24608 33.14062
#
# Velocity S-wave (km/s) = 3.98274 4.11789 4.05088
# Velocity P-wave (km/s) = 6.92789 7.18778 7.05903
#
# Compressibility (1/GPa) = 0.01844414
#
# Stress axis : x y z
#
# Youngs Moduli (GPa) = 56.78849 118.95465 81.74481
#
# Poissons Ratio (x) = 0.50776 0.35843
# Poissons Ratio (y) = 0.24240 0.10211
# Poissons Ratio (z) = 0.24900 0.14859
#
# Static dielectric constant tensor:
#      x y z
#    x 3.620890 0.000000 0.139730 
#    y 0.000000 3.631520 0.000000 
#    z 0.139730 0.000000 3.387710 
# 
# 
# High freq. dielectric constant tensor:
#      x y z
#    x 1.793000 0.000000 0.002700 
#    y 0.000000 1.789340 0.000000 
#    z 0.002700 0.000000 1.784730 
# 
# From -- ./inp_files/68312.got.cif
#   From: 2010.03.12/outbox.cif.g09.slc.cpg/sg14_35_cif.got.tgz:68312.got - 2010.03.31 13:35:05.
