data_PCOD8125664
_publ_section_title
;
Structure prediction by ZEFSAII (Michael W. Deem and Ramdas Pophale) SiO2 
 PCOD8125664
Probable space group: P 21/C
;
_chemical_formula_sum "Si O2"
_cell_formula_units_Z 28
_cell_length_a 9.942718
_cell_length_b 9.837891
_cell_length_c 14.084877
_cell_angle_alpha 90.000000
_cell_angle_beta 107.740077
_cell_angle_gamma 90.000000
_cell_volume 1312.205120
_symmetry_space_group_name_H-M "P 21/C"
_symmetry_group_IT_number 14
_symmetry_cell_setting 'monoclinic'
loop_
_space_group_symop_operation_xyz
x,y,z
-x,1/2+y,1/2-z
-x,-y,-z
x,1/2-y,1/2+z
loop_
_atom_site_type_symbol
_atom_site_label
_atom_site_fract_x
_atom_site_fract_y
_atom_site_fract_z
Si Si1 0.196201 0.317428 0.476819
Si Si2 0.814855 0.308765 0.112278
Si Si3 0.641953 0.451260 0.580365
Si Si4 0.649179 0.540388 0.989672
Si Si5 0.034736 0.687758 0.193326
Si Si6 0.732320 0.516232 0.798426
Si Si7 0.107774 0.216389 0.155591
O O1 0.233093 0.448758 0.424265
O O2 0.173647 0.366435 0.581308
O O3 0.048232 0.261284 0.407666
O O4 0.317530 0.201042 0.495551
O O5 0.688552 0.200788 0.060648
O O6 0.854155 0.293172 0.233015
O O7 0.959185 0.279821 0.084961
O O8 0.766345 0.459821 0.075631
O O9 0.500000 0.500000 0.500000
O O10 0.629005 0.465059 0.691867
O O11 0.651675 0.494187 0.880303
O O12 0.500000 0.500000 0.000000
O O13 0.119497 0.563514 0.167374
O O14 0.927422 0.633400 0.254778
O O15 0.775252 0.671701 0.791410
#
# Coordination Sequence:
#
# PCOD8125664 Si02
#       7
#     4   4   4   4   4   4   4
#     4  11  21  37  65  88 120 155 195 252 297 347
#     4   9  20  38  58  89 120 145 200 240 297 348
#     4  11  22  40  58  84 126 164 191 238 298 363
#     4  11  23  41  62  87 118 161 210 238 280 362
#     4   9  19  35  61  89 117 147 194 247 301 348
#     4  10  20  41  62  84 120 161 195 247 304 341
#     4   9  19  36  61  91 114 147 199 247 298 346
#
# _framework density 21.338127
#
# number of rings (size 3 to 8) (size 9 to 14) (size 15 to 20)
#    0.857    1.143    1.429    2.571    0.000    2.857 
#    2.571    8.571    0.000    0.000    0.000    0.000 
#    0.000    0.000    0.000    0.000    0.000    0.000 
#
# Total GULP energy -346913.131734 kJ/mol
# GULP energy per Si atom -12389.754705 kJ/mol
# Density = 2.128956 g / cm^3
# Si number density = 21.338127 Si / 1000 Ang^3
#
#
#
# Elastic Constant Matrix: (Units=GPa)
#
#
# Indices 1 2 3 4 5 6 
#
# 1 86.9380 5.5211 29.0537 0.0000 -16.0799 0.0000
# 2 5.5211 38.2385 7.2174 0.0000 -12.7370 0.0000
# 3 29.0537 7.2174 88.7605 0.0000 -9.0116 0.0000
# 4 0.0000 0.0000 0.0000 22.9148 0.0000 0.2844
# 5 -16.0799 -12.7370 -9.0116 0.0000 43.9833 0.0000
# 6 0.0000 0.0000 0.0000 0.2844 0.0000 24.6124
#
#
#
# Elastic Compliance Matrix: (Units=1/GPa)
#
#
# Indices 1 2 3 4 5 6 
#
# 1 0.013621 0.000199 -0.004047 0.000000 0.004208 0.000000
# 2 0.000199 0.029153 -0.001604 0.000000 0.008186 0.000000
# 3 -0.004047 -0.001604 0.012790 0.000000 0.000676 0.000000
# 4 0.000000 0.000000 0.000000 0.043646 0.000000 -0.000504
# 5 0.004208 0.008186 0.000676 0.000000 0.026783 0.000000
# 6 0.000000 0.000000 0.000000 -0.000504 0.000000 0.040636
#
#
# Mechanical properties :
#
#
# Convention : Reuss Voigt Hill
#
# Bulk Modulus (GPa) = 22.39258 33.05792 27.72525
# Shear Modulus (GPa) = 25.98473 29.77840 27.88157
#
# Velocity S-wave (km/s) = 3.49343 3.73976 3.61869
# Velocity P-wave (km/s) = 5.17581 5.84583 5.52099
#
# Compressibility (1/GPa) = 0.04465766
#
# Stress axis : x y z
#
# Youngs Moduli (GPa) = 73.41769 34.30227 78.18486
#
# Poissons Ratio (x) = -0.00682 0.31644
# Poissons Ratio (y) = -0.01460 0.12544
# Poissons Ratio (z) = 0.29715 0.05504
#
# Static dielectric constant tensor:
#      x y z
#    x 3.719120 0.000000 -0.131670 
#    y 0.000000 3.712760 0.000000 
#    z -0.131670 0.000000 3.810200 
# 
# 
# High freq. dielectric constant tensor:
#      x y z
#    x 1.823010 0.000000 -0.004850 
#    y 0.000000 1.815570 0.000000 
#    z -0.004850 0.000000 1.840840 
# 
# From -- ./inp_files/43531.got.cif
#   From: 2010.03.12/outbox.cif.g09.slc.cpg/sg14_22_cif.got.tgz:43531.got - 2010.03.31 13:35:05.
