data_PCOD8125222
_publ_section_title
;
Structure prediction by ZEFSAII (Michael W. Deem and Ramdas Pophale) SiO2 
 PCOD8125222
Probable space group: P 21/C
;
_chemical_formula_sum "Si O2"
_cell_formula_units_Z 32
_cell_length_a 11.332310
_cell_length_b 9.434762
_cell_length_c 13.161193
_cell_angle_alpha 90.000000
_cell_angle_beta 100.093499
_cell_angle_gamma 90.000000
_cell_volume 1385.385224
_symmetry_space_group_name_H-M "P 21/C"
_symmetry_group_IT_number 14
_symmetry_cell_setting 'monoclinic'
loop_
_space_group_symop_operation_xyz
x,y,z
-x,1/2+y,1/2-z
-x,-y,-z
x,1/2-y,1/2+z
loop_
_atom_site_type_symbol
_atom_site_label
_atom_site_fract_x
_atom_site_fract_y
_atom_site_fract_z
Si Si1 0.097953 0.595747 0.795106
Si Si2 0.823579 0.904923 0.282559
Si Si3 0.387060 0.257569 0.554341
Si Si4 0.248646 0.845046 0.851770
Si Si5 0.730094 0.596757 0.292144
Si Si6 0.612436 0.274421 0.454726
Si Si7 0.568344 0.365820 0.220339
Si Si8 0.757527 0.505694 0.992578
O O1 0.125579 0.765127 0.802387
O O2 0.162142 0.517254 0.708697
O O3 0.957283 0.582014 0.759421
O O4 0.143908 0.533337 0.909075
O O5 0.773216 0.747931 0.257590
O O6 0.740539 0.004086 0.200026
O O7 0.825068 0.962321 0.397240
O O8 0.311273 0.385508 0.595528
O O9 0.490452 0.311967 0.496839
O O10 0.434094 0.159106 0.658551
O O11 0.301606 0.152744 0.478105
O O12 0.354306 0.738402 0.836686
O O13 0.275979 0.861778 0.976751
O O14 0.614836 0.529237 0.213690
O O15 0.588743 0.326803 0.339280
O O16 0.651744 0.109589 0.462293
#
# Coordination Sequence:
#
# PCOD8125222 Si02
#       8
#     4   4   4   4   4   4   4   4
#     4  10  21  39  65  87 118 164 210 262 317 358
#     4  11  20  40  63  87 123 158 208 267 319 352
#     4  10  23  35  61  94 127 168 205 245 310 367
#     4   9  20  38  61  90 116 164 210 247 313 371
#     4  10  24  39  57  96 126 155 209 264 293 383
#     4  10  20  37  63  86 124 170 203 246 305 377
#     4  10  21  39  62  86 130 167 201 247 311 365
#     4  10  21  37  61  92 119 160 218 252 299 377
#
# _framework density 23.098269999999999
#
# number of rings (size 3 to 8) (size 9 to 14) (size 15 to 20)
#    0.000    2.000    1.250    2.250    3.500    1.500 
#    4.500    0.000    0.000    3.000    0.000    0.000 
#    0.000    0.000    0.000    0.000    0.000    0.000 
#
# Total GULP energy -396498.588079 kJ/mol
# GULP energy per Si atom -12390.580877 kJ/mol
# Density = 2.304570 g / cm^3
# Si number density = 23.098270 Si / 1000 Ang^3
#
#
#
# Elastic Constant Matrix: (Units=GPa)
#
#
# Indices 1 2 3 4 5 6 
#
# 1 71.2616 18.9609 2.3500 0.0000 -15.2887 0.0000
# 2 18.9609 75.8293 19.8140 0.0000 5.6280 0.0000
# 3 2.3500 19.8140 73.7565 0.0000 -4.9411 0.0000
# 4 0.0000 0.0000 0.0000 19.4542 0.0000 -17.1158
# 5 -15.2887 5.6280 -4.9411 0.0000 24.9251 0.0000
# 6 0.0000 0.0000 0.0000 -17.1158 0.0000 18.3421
#
#
#
# Elastic Compliance Matrix: (Units=1/GPa)
#
#
# Indices 1 2 3 4 5 6 
#
# 1 0.018376 -0.006062 0.001915 0.000000 0.013020 0.000000
# 2 -0.006062 0.016590 -0.004828 0.000000 -0.008421 0.000000
# 3 0.001915 -0.004828 0.015147 0.000000 0.005267 0.000000
# 4 0.000000 0.000000 0.000000 0.287130 0.000000 0.267932
# 5 0.013020 -0.008421 0.005267 0.000000 0.051052 0.000000
# 6 0.000000 0.000000 0.000000 0.267932 0.000000 0.304538
#
#
# Mechanical properties :
#
#
# Convention : Reuss Voigt Hill
#
# Bulk Modulus (GPa) = 31.09056 33.67749 32.38403
# Shear Modulus (GPa) = 6.92999 24.52577 15.72788
#
# Velocity S-wave (km/s) = 1.73399 3.26206 2.61226
# Velocity P-wave (km/s) = 4.18310 5.36655 4.81135
#
# Compressibility (1/GPa) = 0.03216410
#
# Stress axis : x y z
#
# Youngs Moduli (GPa) = 54.41953 60.27867 66.02016
#
# Poissons Ratio (x) = 0.36538 -0.12643
# Poissons Ratio (y) = 0.32987 0.31872
# Poissons Ratio (z) = -0.10422 0.29100
#
# Static dielectric constant tensor:
#      x y z
#    x 4.131320 0.000000 -0.134530 
#    y 0.000000 4.270730 0.000000 
#    z -0.134530 0.000000 4.127530 
# 
# 
# High freq. dielectric constant tensor:
#      x y z
#    x 1.902810 0.000000 -0.011740 
#    y 0.000000 1.915740 0.000000 
#    z -0.011740 0.000000 1.905320 
# 
# From -- ./inp_files/43790.got.cif
#   From: 2010.03.12/outbox.cif.g09.slc.cpg/sg14_22_cif.got.tgz:43790.got - 2010.03.31 13:35:05.
