data_PCOD8125577
_publ_section_title
;
Structure prediction by ZEFSAII (Michael W. Deem and Ramdas Pophale) SiO2 
 PCOD8125577
Probable space group: P 21/C
;
_chemical_formula_sum "Si O2"
_cell_formula_units_Z 32
_cell_length_a 10.790921
_cell_length_b 8.899090
_cell_length_c 19.986600
_cell_angle_alpha 90.000000
_cell_angle_beta 128.856270
_cell_angle_gamma 90.000000
_cell_volume 1494.602109
_symmetry_space_group_name_H-M "P 21/C"
_symmetry_group_IT_number 14
_symmetry_cell_setting 'monoclinic'
loop_
_space_group_symop_operation_xyz
x,y,z
-x,1/2+y,1/2-z
-x,-y,-z
x,1/2-y,1/2+z
loop_
_atom_site_type_symbol
_atom_site_label
_atom_site_fract_x
_atom_site_fract_y
_atom_site_fract_z
Si Si1 0.562670 0.052798 0.363802
Si Si2 0.744851 0.480144 0.317633
Si Si3 0.732660 0.149067 0.298258
Si Si4 0.980609 0.985440 0.677068
Si Si5 0.677913 0.664296 0.011265
Si Si6 0.413860 0.304030 0.386197
Si Si7 0.087547 0.300287 0.719971
Si Si8 0.426556 0.081808 0.114366
O O1 0.410537 0.973681 0.280818
O O2 0.708447 0.061429 0.360786
O O3 0.521051 0.223711 0.366902
O O4 0.595667 0.971695 0.444874
O O5 0.815832 0.311859 0.335663
O O6 0.865206 0.610435 0.331981
O O7 0.699898 0.503860 0.379436
O O8 0.560851 0.165239 0.204061
O O9 0.846255 0.045098 0.293759
O O10 0.850606 0.894335 0.590927
O O11 0.976602 0.929555 0.752303
O O12 0.955512 0.168008 0.663580
O O13 0.570692 0.720995 0.037083
O O14 0.686509 0.803592 0.963513
O O15 0.230998 0.293864 0.301726
O O16 0.484046 0.472540 0.408566
#
# Coordination Sequence:
#
# PCOD8125577 Si02
#       8
#     4   4   4   4   4   4   4   4
#     4  10  21  37  61  94 125 160 213 261 322 369
#     4  10  21  38  67  92 122 165 217 266 302 376
#     4  11  21  38  66  90 125 169 213 261 309 381
#     4  11  24  42  64  91 128 169 206 260 319 383
#     4  11  24  39  61  94 131 167 206 264 325 375
#     4  10  20  40  62  91 126 163 209 269 312 376
#     4  10  22  41  64  92 125 166 218 252 314 386
#     4  11  21  39  65  96 124 164 215 266 320 365
#
# _framework density 21.410381999999998
#
# number of rings (size 3 to 8) (size 9 to 14) (size 15 to 20)
#    0.000    1.500    3.750    1.500    1.750    0.500 
#    2.250    1.875    0.000    0.000    0.000    0.000 
#    0.000    0.000    0.000    0.000    0.000    0.000 
#
# Total GULP energy -396628.231240 kJ/mol
# GULP energy per Si atom -12394.632226 kJ/mol
# Density = 2.136165 g / cm^3
# Si number density = 21.410382 Si / 1000 Ang^3
#
#
#
# Elastic Constant Matrix: (Units=GPa)
#
#
# Indices 1 2 3 4 5 6 
#
# 1 100.9785 34.1374 22.3832 0.0000 -18.7535 0.0000
# 2 34.1374 125.2954 19.4548 0.0000 -9.6175 0.0000
# 3 22.3832 19.4548 60.2396 0.0000 -18.5932 0.0000
# 4 0.0000 0.0000 0.0000 35.5546 0.0000 -1.5703
# 5 -18.7535 -9.6175 -18.5932 0.0000 20.8604 0.0000
# 6 0.0000 0.0000 0.0000 -1.5703 0.0000 31.6764
#
#
#
# Elastic Compliance Matrix: (Units=1/GPa)
#
#
# Indices 1 2 3 4 5 6 
#
# 1 0.012743 -0.002597 -0.001007 0.000000 0.009361 0.000000
# 2 -0.002597 0.008993 -0.001904 0.000000 0.000114 0.000000
# 3 -0.001007 -0.001904 0.023506 0.000000 0.019168 0.000000
# 4 0.000000 0.000000 0.000000 0.028188 0.000000 0.001397
# 5 0.009361 0.000114 0.019168 0.000000 0.073491 0.000000
# 6 0.000000 0.000000 0.000000 0.001397 0.000000 0.031638
#
#
# Mechanical properties :
#
#
# Convention : Reuss Voigt Hill
#
# Bulk Modulus (GPa) = 29.21773 48.71825 38.96799
# Shear Modulus (GPa) = 24.87775 31.65415 28.26595
#
# Velocity S-wave (km/s) = 3.41243 3.84923 3.63740
# Velocity P-wave (km/s) = 5.40393 6.52375 5.99007
#
# Compressibility (1/GPa) = 0.03422579
#
# Stress axis : x y z
#
# Youngs Moduli (GPa) = 78.47615 111.19600 42.54287
#
# Poissons Ratio (x) = 0.28877 0.04283
# Poissons Ratio (y) = 0.20380 0.08101
# Poissons Ratio (z) = 0.07901 0.21174
#
# Static dielectric constant tensor:
#      x y z
#    x 3.760780 0.000000 -0.247900 
#    y 0.000000 3.893160 0.000000 
#    z -0.247900 0.000000 3.581370 
# 
# 
# High freq. dielectric constant tensor:
#      x y z
#    x 1.837600 0.000000 -0.024000 
#    y 0.000000 1.856640 0.000000 
#    z -0.024000 0.000000 1.806580 
# 
# From -- ./inp_files/67049.got.cif
#   From: 2010.03.12/outbox.cif.g09.slc.cpg/sg14_34_cif.got.tgz:67049.got - 2010.03.31 13:35:05.
