data_PCOD8125482
_publ_section_title
;
Structure prediction by ZEFSAII (Michael W. Deem and Ramdas Pophale) SiO2 
 PCOD8125482
Probable space group: P 21/C
;
_chemical_formula_sum "Si O2"
_cell_formula_units_Z 24
_cell_length_a 9.264462
_cell_length_b 23.963576
_cell_length_c 5.099290
_cell_angle_alpha 90.000000
_cell_angle_beta 73.430825
_cell_angle_gamma 90.000000
_cell_volume 1085.082718
_symmetry_space_group_name_H-M "P 21/C"
_symmetry_group_IT_number 14
_symmetry_cell_setting 'monoclinic'
loop_
_space_group_symop_operation_xyz
x,y,z
-x,1/2+y,1/2-z
-x,-y,-z
x,1/2-y,1/2+z
loop_
_atom_site_type_symbol
_atom_site_label
_atom_site_fract_x
_atom_site_fract_y
_atom_site_fract_z
Si Si1 0.179906 0.130043 0.278410
Si Si2 0.089017 0.583431 0.325736
Si Si3 0.393102 0.213613 0.352485
Si Si4 0.422404 0.604506 0.239962
Si Si5 0.842714 0.533512 0.816601
Si Si6 0.412327 0.072847 0.860307
O O1 0.225274 0.185483 0.414837
O O2 0.216058 0.072401 0.417991
O O3 0.004766 0.130884 0.284391
O O4 0.295423 0.125051 0.970687
O O5 0.242538 0.609165 0.353656
O O6 0.115885 0.529732 0.119488
O O7 0.988957 0.563168 0.620489
O O8 0.412250 0.237375 0.632606
O O9 0.517534 0.166496 0.232530
O O10 0.491001 0.561587 0.424057
O O11 0.467846 0.586285 0.926261
O O12 0.702807 0.524481 0.681187
#
# Coordination Sequence:
#
# PCOD8125482 Si02
#       6
#     4   4   4   4   4   4
#     4  10  21  42  66  92 129 164 220 255 314 386
#     4  10  24  37  65  97 139 169 204 258 325 382
#     4  11  23  42  70  88 116 166 220 267 322 374
#     4  11  23  42  62  98 126 163 208 276 316 367
#     4  10  20  42  63  97 131 183 206 248 312 396
#     4  10  20  39  63  87 132 163 216 248 307 378
#
# _framework density 22.118130000000001
#
# number of rings (size 3 to 8) (size 9 to 14) (size 15 to 20)
#    0.000    1.667    3.333    2.500    4.667    1.333 
#    0.000    1.667    0.000    0.000    0.000    0.000 
#    0.000    0.000    0.000    0.000    0.000    0.000 
#
# Total GULP energy -297387.424333 kJ/mol
# GULP energy per Si atom -12391.142681 kJ/mol
# Density = 2.206779 g / cm^3
# Si number density = 22.118130 Si / 1000 Ang^3
#
#
#
# Elastic Constant Matrix: (Units=GPa)
#
#
# Indices 1 2 3 4 5 6 
#
# 1 178.6536 22.1998 39.9797 0.0000 -17.4609 0.0000
# 2 22.1998 39.9356 5.9399 0.0000 -8.8578 0.0000
# 3 39.9797 5.9399 83.2059 0.0000 5.2965 0.0000
# 4 0.0000 0.0000 0.0000 20.7104 0.0000 5.7885
# 5 -17.4609 -8.8578 5.2965 0.0000 22.8524 0.0000
# 6 0.0000 0.0000 0.0000 5.7885 0.0000 23.5001
#
#
#
# Elastic Compliance Matrix: (Units=1/GPa)
#
#
# Indices 1 2 3 4 5 6 
#
# 1 0.007236 -0.002256 -0.003666 0.000000 0.005504 0.000000
# 2 -0.002256 0.028697 -0.001586 0.000000 0.009767 0.000000
# 3 -0.003666 -0.001586 0.014322 0.000000 -0.006735 0.000000
# 4 0.000000 0.000000 0.000000 0.051855 0.000000 -0.012773
# 5 0.005504 0.009767 -0.006735 0.000000 0.053311 0.000000
# 6 0.000000 0.000000 0.000000 -0.012773 0.000000 0.045699
#
#
# Mechanical properties :
#
#
# Convention : Reuss Voigt Hill
#
# Bulk Modulus (GPa) = 28.37887 48.67044 38.52465
# Shear Modulus (GPa) = 21.94101 28.99096 25.46599
#
# Velocity S-wave (km/s) = 3.15301 3.62433 3.39685
# Velocity P-wave (km/s) = 5.11016 6.29022 5.73065
#
# Compressibility (1/GPa) = 0.03523749
#
# Stress axis : x y z
#
# Youngs Moduli (GPa) = 138.19420 34.84701 69.82293
#
# Poissons Ratio (x) = 0.07863 0.25599
# Poissons Ratio (y) = 0.31182 0.11075
# Poissons Ratio (z) = 0.50665 0.05527
#
# Static dielectric constant tensor:
#      x y z
#    x 4.220610 0.000000 0.094730 
#    y 0.000000 3.743170 0.000000 
#    z 0.094730 0.000000 3.940110 
# 
# 
# High freq. dielectric constant tensor:
#      x y z
#    x 1.884220 0.000000 0.006470 
#    y 0.000000 1.828500 0.000000 
#    z 0.006470 0.000000 1.869690 
# 
# From -- ./inp_files/1799.got.cif
#   From: 2010.03.12/outbox.cif.g09.slc.cpg/sg14_1_cif.got.tgz:1799.got - 2010.03.31 13:35:05.
