data_PCOD8125960
_publ_section_title
;
Structure prediction by ZEFSAII (Michael W. Deem and Ramdas Pophale) SiO2 
 PCOD8125960
Probable space group: P 21/C
;
_chemical_formula_sum "Si O2"
_cell_formula_units_Z 32
_cell_length_a 9.126432
_cell_length_b 20.116833
_cell_length_c 12.903390
_cell_angle_alpha 90.000000
_cell_angle_beta 135.014818
_cell_angle_gamma 90.000000
_cell_volume 1674.700351
_symmetry_space_group_name_H-M "P 21/C"
_symmetry_group_IT_number 14
_symmetry_cell_setting 'monoclinic'
loop_
_space_group_symop_operation_xyz
x,y,z
-x,1/2+y,1/2-z
-x,-y,-z
x,1/2-y,1/2+z
loop_
_atom_site_type_symbol
_atom_site_label
_atom_site_fract_x
_atom_site_fract_y
_atom_site_fract_z
Si Si1 0.685935 0.082092 0.827277
Si Si2 0.358421 0.066648 0.173073
Si Si3 0.012275 0.066648 0.826928
Si Si4 0.485210 0.300451 0.329377
Si Si5 0.028540 0.323868 0.169971
Si Si6 0.826460 0.199549 0.170626
Si Si7 0.031383 0.417908 0.672724
Si Si8 0.688600 0.176132 0.330031
O O1 0.792292 0.088410 0.767454
O O2 0.520267 0.140417 0.763291
O O3 0.576450 0.010720 0.786936
O O4 0.870525 0.089416 0.000001
O O5 0.565601 0.107577 0.255409
O O6 0.257386 0.088410 0.232547
O O7 0.200570 0.078712 0.000000
O O8 0.054783 0.107577 0.744592
O O9 0.997420 0.989280 0.786935
O O10 0.622450 0.313262 0.500002
O O11 0.537721 0.230710 0.303296
O O12 0.247345 0.297252 0.240681
O O13 0.931132 0.269290 0.196707
O O14 0.886921 0.336863 0.000001
O O15 0.993689 0.140417 0.236712
O O16 0.765988 0.202747 0.259323
#
# Coordination Sequence:
#
# PCOD8125960 Si02
#       8
#     4   4   4   4   4   4   4   4
#     4   8  16  33  58  82 101 135 185 220 246 299
#     4   9  17  34  59  81 105 138 176 217 258 304
#     4   9  17  34  59  81 105 138 176 217 258 304
#     4  10  21  37  55  75 103 139 178 217 257 308
#     4  11  23  36  53  80 109 136 172 218 267 315
#     4  10  21  37  55  75 103 139 178 217 257 308
#     4   8  16  33  58  82 101 135 185 220 246 299
#     4  11  23  36  53  80 109 136 172 218 267 315
#
# _framework density 19.107894999999999
#
# number of rings (size 3 to 8) (size 9 to 14) (size 15 to 20)
#    0.000    2.500    0.000    3.750    0.000    5.000 
#    0.000   10.000    0.000    0.000    0.000    0.000 
#    0.000    0.000    0.000    0.000    0.000    0.000 
#
# Total GULP energy -396818.347857 kJ/mol
# GULP energy per Si atom -12400.573371 kJ/mol
# Density = 1.906440 g / cm^3
# Si number density = 19.107895 Si / 1000 Ang^3
#
#
#
# Elastic Constant Matrix: (Units=GPa)
#
#
# Indices 1 2 3 4 5 6 
#
# 1 62.0548 6.5931 28.9718 0.0000 -3.1753 0.0000
# 2 6.5931 67.2164 24.6806 0.0000 -2.4610 0.0000
# 3 28.9718 24.6806 58.4626 0.0000 3.6641 0.0000
# 4 0.0000 0.0000 0.0000 21.0371 0.0000 1.9609
# 5 -3.1753 -2.4610 3.6641 0.0000 27.2795 0.0000
# 6 0.0000 0.0000 0.0000 1.9609 0.0000 35.4467
#
#
#
# Elastic Compliance Matrix: (Units=1/GPa)
#
#
# Indices 1 2 3 4 5 6 
#
# 1 0.021714 0.002464 -0.012075 0.000000 0.004372 0.000000
# 2 0.002464 0.018072 -0.009047 0.000000 0.003132 0.000000
# 3 -0.012075 -0.009047 0.027277 0.000000 -0.005885 0.000000
# 4 0.000000 0.000000 0.000000 0.047782 0.000000 -0.002643
# 5 0.004372 0.003132 -0.005885 0.000000 0.038240 0.000000
# 6 0.000000 0.000000 0.000000 -0.002643 0.000000 0.028358
#
#
# Mechanical properties :
#
#
# Convention : Reuss Voigt Hill
#
# Bulk Modulus (GPa) = 33.61598 34.24721 33.93159
# Shear Modulus (GPa) = 21.86530 25.25186 23.55858
#
# Velocity S-wave (km/s) = 3.38643 3.63924 3.51511
# Velocity P-wave (km/s) = 5.73772 5.96831 5.85415
#
# Compressibility (1/GPa) = 0.02974776
#
# Stress axis : x y z
#
# Youngs Moduli (GPa) = 46.05294 55.33400 36.66122
#
# Poissons Ratio (x) = -0.13633 0.44268
# Poissons Ratio (y) = -0.11347 0.33166
# Poissons Ratio (z) = 0.55608 0.50058
#
# Static dielectric constant tensor:
#      x y z
#    x 3.575640 0.000000 0.054820 
#    y 0.000000 3.694500 0.000000 
#    z 0.054820 0.000000 3.172770 
# 
# 
# High freq. dielectric constant tensor:
#      x y z
#    x 1.744560 0.000000 0.004530 
#    y 0.000000 1.756180 0.000000 
#    z 0.004530 0.000000 1.711300 
# 
# From -- ./inp_files/42000.got.cif
#   From: 2010.03.12/outbox.cif.g09.slc.cpg/sg14_21_cif.got.tgz:42000.got - 2010.03.31 13:35:05.
