data_PCOD8125188
_publ_section_title
;
Structure prediction by ZEFSAII (Michael W. Deem and Ramdas Pophale) SiO2 
 PCOD8125188
Probable space group: P 21/C
;
_chemical_formula_sum "Si O2"
_cell_formula_units_Z 24
_cell_length_a 21.060708
_cell_length_b 12.026875
_cell_length_c 8.503709
_cell_angle_alpha 90.000000
_cell_angle_beta 34.508339
_cell_angle_gamma 90.000000
_cell_volume 1220.264946
_symmetry_space_group_name_H-M "P 21/C"
_symmetry_group_IT_number 14
_symmetry_cell_setting 'monoclinic'
loop_
_space_group_symop_operation_xyz
x,y,z
-x,1/2+y,1/2-z
-x,-y,-z
x,1/2-y,1/2+z
loop_
_atom_site_type_symbol
_atom_site_label
_atom_site_fract_x
_atom_site_fract_y
_atom_site_fract_z
Si Si1 0.184142 0.027840 0.574851
Si Si2 0.240697 0.140637 0.167912
Si Si3 0.998475 0.124715 0.567130
Si Si4 0.042411 0.655752 0.500269
Si Si5 0.373775 0.201204 0.611681
Si Si6 0.581419 0.903496 0.783225
O O1 0.229565 0.030880 0.300876
O O2 0.287306 0.062378 0.476639
O O3 0.080236 0.113632 0.805721
O O4 0.140686 0.904860 0.701778
O O5 0.122601 0.171495 0.335056
O O6 0.326117 0.122641 0.848558
O O7 0.275314 0.243740 0.208080
O O8 0.934909 0.127883 0.863645
O O9 0.942523 0.212025 0.560223
O O10 0.000000 0.000000 0.500000
O O11 0.445260 0.299590 0.547289
O O12 0.446871 0.127699 0.341116
O O13 0.500000 0.000000 0.000000
#
# Coordination Sequence:
#
# PCOD8125188 Si02
#       6
#     4   4   4   4   4   4
#     4   9  20  37  58  82 114 152 187 240 287 328
#     4   9  17  33  56  81 108 144 194 231 275 328
#     4  11  23  33  56  83 117 155 195 229 286 340
#     4  10  22  37  56  82 122 150 193 236 281 342
#     4   9  18  35  61  83 107 143 195 239 269 340
#     4  10  20  37  61  85 111 145 192 235 289 333
#
# _framework density 19.667857999999999
#
# number of rings (size 3 to 8) (size 9 to 14) (size 15 to 20)
#    0.000    2.333    0.000    4.000    9.333    0.000 
#    0.000    9.167    0.000    0.000    0.000    0.000 
#    0.000    0.000    0.000    0.000    0.000    0.000 
#
# Total GULP energy -297400.147839 kJ/mol
# GULP energy per Si atom -12391.672827 kJ/mol
# Density = 1.962309 g / cm^3
# Si number density = 19.667858 Si / 1000 Ang^3
#
#
#
# Elastic Constant Matrix: (Units=GPa)
#
#
# Indices 1 2 3 4 5 6 
#
# 1 68.7407 42.3252 50.3792 0.0000 32.3545 0.0000
# 2 42.3252 139.2931 70.5490 0.0000 35.6938 0.0000
# 3 50.3792 70.5490 117.0307 0.0000 36.8365 0.0000
# 4 0.0000 0.0000 0.0000 38.3366 0.0000 6.0531
# 5 32.3545 35.6938 36.8365 0.0000 35.9893 0.0000
# 6 0.0000 0.0000 0.0000 6.0531 0.0000 18.0506
#
#
#
# Elastic Compliance Matrix: (Units=1/GPa)
#
#
# Indices 1 2 3 4 5 6 
#
# 1 0.027927 -0.000886 -0.005697 0.000000 -0.018396 0.000000
# 2 -0.000886 0.011225 -0.004621 0.000000 -0.005607 0.000000
# 3 -0.005697 -0.004621 0.015827 0.000000 -0.006495 0.000000
# 4 0.000000 0.000000 0.000000 0.027543 0.000000 -0.009236
# 5 -0.018396 -0.005607 -0.006495 0.000000 0.056534 0.000000
# 6 0.000000 0.000000 0.000000 -0.009236 0.000000 0.058497
#
#
# Mechanical properties :
#
#
# Convention : Reuss Voigt Hill
#
# Bulk Modulus (GPa) = 30.70172 72.39683 51.54927
# Shear Modulus (GPa) = 21.66194 29.26271 25.46233
#
# Velocity S-wave (km/s) = 3.32232 3.86144 3.60198
# Velocity P-wave (km/s) = 5.51008 7.53463 6.60044
#
# Compressibility (1/GPa) = 0.03257147
#
# Stress axis : x y z
#
# Youngs Moduli (GPa) = 35.80715 89.08321 63.18248
#
# Poissons Ratio (x) = 0.07895 0.35998
# Poissons Ratio (y) = 0.03173 0.29194
# Poissons Ratio (z) = 0.20401 0.41161
#
# Static dielectric constant tensor:
#      x y z
#    x 3.648200 0.000000 0.381630 
#    y 0.000000 3.516390 0.000000 
#    z 0.381630 0.000000 3.565740 
# 
# 
# High freq. dielectric constant tensor:
#      x y z
#    x 1.757100 0.000000 0.032160 
#    y 0.000000 1.749340 0.000000 
#    z 0.032160 0.000000 1.747560 
# 
# From -- ./inp_files/12355.got.cif
#   From: 2010.03.12/outbox.cif.g09.slc.cpg/sg14_7_cif.got.tgz:12355.got - 2010.03.31 13:35:05.
