data_PCOD8125099
_publ_section_title
;
Structure prediction by ZEFSAII (Michael W. Deem and Ramdas Pophale) SiO2 
 PCOD8125099
Probable space group: P 21/C
;
_chemical_formula_sum "Si O2"
_cell_formula_units_Z 28
_cell_length_a 9.093052
_cell_length_b 16.415684
_cell_length_c 17.361235
_cell_angle_alpha 90.000000
_cell_angle_beta 147.976552
_cell_angle_gamma 90.000000
_cell_volume 1374.178926
_symmetry_space_group_name_H-M "P 21/C"
_symmetry_group_IT_number 14
_symmetry_cell_setting 'monoclinic'
loop_
_space_group_symop_operation_xyz
x,y,z
-x,1/2+y,1/2-z
-x,-y,-z
x,1/2-y,1/2+z
loop_
_atom_site_type_symbol
_atom_site_label
_atom_site_fract_x
_atom_site_fract_y
_atom_site_fract_z
Si Si1 0.212692 0.890682 0.375539
Si Si2 0.784995 0.692750 0.115317
Si Si3 0.709375 0.334227 0.392617
Si Si4 0.053880 0.340309 0.400947
Si Si5 0.098433 0.541130 0.272727
Si Si6 0.116200 0.228669 0.677459
Si Si7 0.329696 0.994669 0.037574
O O1 0.524592 0.866381 0.498453
O O2 0.037570 0.865765 0.223757
O O3 0.085762 0.847500 0.395059
O O4 0.176977 0.987916 0.368541
O O5 0.772303 0.757023 0.038749
O O6 0.793646 0.733553 0.201953
O O7 0.052722 0.633856 0.224460
O O8 0.401033 0.297540 0.262344
O O9 0.708184 0.431135 0.409663
O O10 0.797659 0.321870 0.343295
O O11 0.941561 0.291142 0.548336
O O12 0.235130 0.413662 0.518245
O O13 0.347006 0.498241 0.338158
O O14 0.158943 0.542348 0.390553
#
# Coordination Sequence:
#
# PCOD8125099 Si02
#       7
#     4   4   4   4   4   4   4
#     4  10  21  40  58  92 119 162 203 256 303 371
#     4  11  22  38  62  92 124 158 205 258 309 365
#     4  12  23  43  62  92 127 165 204 260 309 372
#     4  10  26  37  64  90 125 160 207 254 311 368
#     4  10  20  36  65  90 117 158 208 258 300 363
#     4  11  23  37  65  88 121 162 209 250 303 365
#     4  10  21  39  63  91 119 162 212 248 309 369
#
# _framework density 20.375803999999999
#
# number of rings (size 3 to 8) (size 9 to 14) (size 15 to 20)
#    0.000    1.429    4.286    0.857    8.000    0.000 
#    0.000    0.000    0.000    1.714    0.000    0.000 
#    0.000    0.000    0.000    0.000    0.000    0.000 
#
# Total GULP energy -347068.460630 kJ/mol
# GULP energy per Si atom -12395.302165 kJ/mol
# Density = 2.032943 g / cm^3
# Si number density = 20.375804 Si / 1000 Ang^3
#
#
#
# Elastic Constant Matrix: (Units=GPa)
#
#
# Indices 1 2 3 4 5 6 
#
# 1 97.1838 45.5708 5.5770 0.0000 18.6713 0.0000
# 2 45.5708 126.0939 30.5047 0.0000 12.7887 0.0000
# 3 5.5770 30.5047 41.5976 0.0000 20.6850 0.0000
# 4 0.0000 0.0000 0.0000 22.6834 0.0000 12.3069
# 5 18.6713 12.7887 20.6850 0.0000 20.9792 0.0000
# 6 0.0000 0.0000 0.0000 12.3069 0.0000 22.9434
#
#
#
# Elastic Compliance Matrix: (Units=1/GPa)
#
#
# Indices 1 2 3 4 5 6 
#
# 1 0.018811 -0.008207 0.018312 0.000000 -0.029794 0.000000
# 2 -0.008207 0.013271 -0.016168 0.000000 0.015155 0.000000
# 3 0.018312 -0.016168 0.071893 0.000000 -0.077327 0.000000
# 4 0.000000 0.000000 0.000000 0.062182 0.000000 -0.033354
# 5 -0.029794 0.015155 -0.077327 0.000000 0.141187 0.000000
# 6 0.000000 0.000000 0.000000 -0.033354 0.000000 0.061477
#
#
# Mechanical properties :
#
#
# Convention : Reuss Voigt Hill
#
# Bulk Modulus (GPa) = 10.88731 47.57558 29.23145
# Shear Modulus (GPa) = 12.14882 25.53605 18.84243
#
# Velocity S-wave (km/s) = 2.44445 3.54397 3.04426
# Velocity P-wave (km/s) = 3.64992 6.33609 5.17049
#
# Compressibility (1/GPa) = 0.09185002
#
# Stress axis : x y z
#
# Youngs Moduli (GPa) = 53.15928 75.35360 13.90958
#
# Poissons Ratio (x) = 0.61841 -0.25471
# Poissons Ratio (y) = 0.43626 0.22489
# Poissons Ratio (z) = -0.97345 1.21830
#
# Static dielectric constant tensor:
#      x y z
#    x 3.587560 0.000000 0.184950 
#    y 0.000000 4.096390 0.000000 
#    z 0.184950 0.000000 3.517670 
# 
# 
# High freq. dielectric constant tensor:
#      x y z
#    x 1.784250 0.000000 0.021340 
#    y 0.000000 1.813720 0.000000 
#    z 0.021340 0.000000 1.780250 
# 
# From -- ./inp_files/18164.got.cif
#   From: 2010.03.12/outbox.cif.g09.slc.cpg/sg14_10_cif.got.tgz:18164.got - 2010.03.31 13:35:05.
