data_PCOD8125129
_publ_section_title
;
Structure prediction by ZEFSAII (Michael W. Deem and Ramdas Pophale) SiO2 
 PCOD8125129
Probable space group: P 21/C
;
_chemical_formula_sum "Si O2"
_cell_formula_units_Z 32
_cell_length_a 19.178470
_cell_length_b 9.910085
_cell_length_c 25.323472
_cell_angle_alpha 90.000000
_cell_angle_beta 19.074737
_cell_angle_gamma 90.000000
_cell_volume 1572.889645
_symmetry_space_group_name_H-M "P 21/C"
_symmetry_group_IT_number 14
_symmetry_cell_setting 'monoclinic'
loop_
_space_group_symop_operation_xyz
x,y,z
-x,1/2+y,1/2-z
-x,-y,-z
x,1/2-y,1/2+z
loop_
_atom_site_type_symbol
_atom_site_label
_atom_site_fract_x
_atom_site_fract_y
_atom_site_fract_z
Si Si1 0.687285 0.208250 0.469837
Si Si2 0.158974 0.449953 0.497152
Si Si3 0.269543 0.481822 0.140298
Si Si4 0.940999 0.791715 0.716234
Si Si5 0.370425 0.518141 0.539489
Si Si6 0.617494 0.743248 0.225279
Si Si7 0.535464 0.050056 0.808693
Si Si8 0.246029 0.756676 0.911223
O O1 0.684953 0.324266 0.426909
O O2 0.456689 0.204202 0.663859
O O3 0.864877 0.251149 0.385071
O O4 0.739428 0.064277 0.407766
O O5 0.175599 0.323710 0.444535
O O6 0.304860 0.433922 0.445289
O O7 0.232769 0.582826 0.411617
O O8 0.913801 0.462472 0.689682
O O9 0.237811 0.324227 0.150219
O O10 0.500000 0.500000 0.000000
O O11 0.025121 0.795872 0.595499
O O12 0.848897 0.935666 0.798378
O O13 0.500000 0.500000 0.500000
O O14 0.501079 0.462491 0.395784
O O15 0.655890 0.582796 0.199807
O O16 0.434249 0.784495 0.315764
O O17 0.695806 0.176413 0.684183
#
# Coordination Sequence:
#
# PCOD8125129 Si02
#       8
#     4   4   4   4   4   4   4   4
#     4  10  20  37  58  82 110 148 191 232 276 334
#     4   9  17  33  55  82 111 144 185 233 280 332
#     4  11  22  36  55  83 118 151 184 231 284 335
#     4  10  20  37  58  82 110 148 191 232 276 334
#     4  11  22  36  55  83 118 151 184 231 284 335
#     4   8  16  30  52  79 107 137 182 234 276 321
#     4   9  17  33  55  82 111 144 185 233 280 332
#     4   8  16  30  52  79 107 137 182 234 276 321
#
# _framework density 20.344719999999999
#
# number of rings (size 3 to 8) (size 9 to 14) (size 15 to 20)
#    0.000    2.500    0.000    4.500    0.000    2.000 
#    0.000    6.250    0.000    3.000    0.000    0.000 
#    0.000    0.000    0.000    0.000    0.000    0.000 
#
# Total GULP energy -396699.777009 kJ/mol
# GULP energy per Si atom -12396.868032 kJ/mol
# Density = 2.029841 g / cm^3
# Si number density = 20.344720 Si / 1000 Ang^3
#
#
#
# Elastic Constant Matrix: (Units=GPa)
#
#
# Indices 1 2 3 4 5 6 
#
# 1 74.6337 32.4263 40.3560 0.0000 7.9237 0.0000
# 2 32.4263 58.9493 36.3668 0.0000 3.0092 0.0000
# 3 40.3560 36.3668 85.7460 0.0000 0.4149 0.0000
# 4 0.0000 0.0000 0.0000 43.6954 0.0000 10.6888
# 5 7.9237 3.0092 0.4149 0.0000 17.5165 0.0000
# 6 0.0000 0.0000 0.0000 10.6888 0.0000 28.4937
#
#
#
# Elastic Compliance Matrix: (Units=1/GPa)
#
#
# Indices 1 2 3 4 5 6 
#
# 1 0.020991 -0.006853 -0.006933 0.000000 -0.008154 0.000000
# 2 -0.006853 0.025457 -0.007566 0.000000 -0.001094 0.000000
# 3 -0.006933 -0.007566 0.018115 0.000000 0.004007 0.000000
# 4 0.000000 0.000000 0.000000 0.025198 0.000000 -0.009453
# 5 -0.008154 -0.001094 0.004007 0.000000 0.060871 0.000000
# 6 0.000000 0.000000 0.000000 -0.009453 0.000000 0.038641
#
#
# Mechanical properties :
#
#
# Convention : Reuss Voigt Hill
#
# Bulk Modulus (GPa) = 45.75007 48.62522 47.18765
# Shear Modulus (GPa) = 20.89744 25.28645 23.09195
#
# Velocity S-wave (km/s) = 3.20842 3.52930 3.37268
# Velocity P-wave (km/s) = 6.02176 6.36871 6.19766
#
# Compressibility (1/GPa) = 0.02185789
#
# Stress axis : x y z
#
# Youngs Moduli (GPa) = 47.63982 39.28203 55.20262
#
# Poissons Ratio (x) = 0.26920 0.38274
# Poissons Ratio (y) = 0.32647 0.41768
# Poissons Ratio (z) = 0.33030 0.29722
#
# Static dielectric constant tensor:
#      x y z
#    x 3.428480 0.000000 0.208730 
#    y 0.000000 3.815140 0.000000 
#    z 0.208730 0.000000 3.720190 
# 
# 
# High freq. dielectric constant tensor:
#      x y z
#    x 1.767990 0.000000 0.014400 
#    y 0.000000 1.800010 0.000000 
#    z 0.014400 0.000000 1.788230 
# 
# From -- ./inp_files/77965.got.cif
#   From: 2010.03.12/outbox.cif.g09.slc.cpg/sg14_39_cif.got.tgz:77965.got - 2010.03.31 13:35:05.
