data_PCOD8125422
_publ_section_title
;
Structure prediction by ZEFSAII (Michael W. Deem and Ramdas Pophale) SiO2 
 PCOD8125422
Probable space group: P 21/C
;
_chemical_formula_sum "Si O2"
_cell_formula_units_Z 32
_cell_length_a 14.909775
_cell_length_b 9.060156
_cell_length_c 12.612834
_cell_angle_alpha 90.000000
_cell_angle_beta 116.118858
_cell_angle_gamma 90.000000
_cell_volume 1529.815520
_symmetry_space_group_name_H-M "P 21/C"
_symmetry_group_IT_number 14
_symmetry_cell_setting 'monoclinic'
loop_
_space_group_symop_operation_xyz
x,y,z
-x,1/2+y,1/2-z
-x,-y,-z
x,1/2-y,1/2+z
loop_
_atom_site_type_symbol
_atom_site_label
_atom_site_fract_x
_atom_site_fract_y
_atom_site_fract_z
Si Si1 0.118459 0.493154 0.674270
Si Si2 0.527326 0.069075 0.296843
Si Si3 0.687903 0.890841 0.465149
Si Si4 0.421359 0.706584 0.504379
Si Si5 0.005661 0.750715 0.499134
Si Si6 0.090524 0.491378 0.906275
Si Si7 0.405806 0.111260 0.035485
Si Si8 0.654452 0.038334 0.661398
O O1 0.080769 0.631927 0.587221
O O2 0.075641 0.496704 0.771958
O O3 0.237484 0.503618 0.734214
O O4 0.085857 0.338157 0.603207
O O5 0.576865 0.205441 0.384513
O O6 0.498765 0.116419 0.165084
O O7 0.427587 0.004386 0.296710
O O8 0.612834 0.942121 0.333023
O O9 0.795520 0.959669 0.503207
O O10 0.687211 0.712093 0.473545
O O11 0.635624 0.944001 0.546204
O O12 0.538114 0.674872 0.538897
O O13 0.363035 0.552482 0.494387
O O14 0.359042 0.790992 0.380560
O O15 0.972256 0.857324 0.577145
O O16 0.059601 0.850277 0.437856
#
# Coordination Sequence:
#
# PCOD8125422 Si02
#       8
#     4   4   4   4   4   4   4   4
#     4  10  22  41  65  91 119 160 200 256 312 374
#     4  11  20  37  57  81 122 167 191 238 297 356
#     4  10  20  39  57  85 121 161 198 245 300 357
#     4  10  21  37  54  82 123 159 205 246 289 347
#     4  10  22  43  65  91 118 154 208 258 317 376
#     4  10  22  41  66  90 123 157 200 260 317 366
#     4  11  21  34  56  85 117 164 205 245 284 349
#     4  10  20  39  58  81 121 164 193 241 303 360
#
# _framework density 20.917555
#
# number of rings (size 3 to 8) (size 9 to 14) (size 15 to 20)
#    0.000    1.750    2.500    2.250    1.750    1.000 
#    4.500    6.250    0.000    0.000    0.000    0.000 
#    0.000    0.000    0.000    0.000    0.000    0.000 
#
# Total GULP energy -396697.147965 kJ/mol
# GULP energy per Si atom -12396.785874 kJ/mol
# Density = 2.086995 g / cm^3
# Si number density = 20.917555 Si / 1000 Ang^3
#
#
#
# Elastic Constant Matrix: (Units=GPa)
#
#
# Indices 1 2 3 4 5 6 
#
# 1 43.1450 28.5536 3.4118 0.0000 11.6710 0.0000
# 2 28.5536 155.2277 26.2177 0.0000 12.4009 0.0000
# 3 3.4118 26.2177 65.5382 0.0000 9.4599 0.0000
# 4 0.0000 0.0000 0.0000 27.2531 0.0000 1.8169
# 5 11.6710 12.4009 9.4599 0.0000 26.9747 0.0000
# 6 0.0000 0.0000 0.0000 1.8169 0.0000 18.5143
#
#
#
# Elastic Compliance Matrix: (Units=1/GPa)
#
#
# Indices 1 2 3 4 5 6 
#
# 1 0.029224 -0.004827 0.002016 0.000000 -0.011132 0.000000
# 2 -0.004827 0.007847 -0.002811 0.000000 -0.000533 0.000000
# 3 0.002016 -0.002811 0.017082 0.000000 -0.005571 0.000000
# 4 0.000000 0.000000 0.000000 0.036935 0.000000 -0.003625
# 5 -0.011132 -0.000533 -0.005571 0.000000 0.044087 0.000000
# 6 0.000000 0.000000 0.000000 -0.003625 0.000000 0.054368
#
#
# Mechanical properties :
#
#
# Convention : Reuss Voigt Hill
#
# Bulk Modulus (GPa) = 23.30434 42.25299 32.77866
# Shear Modulus (GPa) = 23.24614 28.26362 25.75488
#
# Velocity S-wave (km/s) = 3.33727 3.67984 3.51273
# Velocity P-wave (km/s) = 5.10049 6.18859 5.67070
#
# Compressibility (1/GPa) = 0.04291046
#
# Stress axis : x y z
#
# Youngs Moduli (GPa) = 34.21848 127.43039 58.54150
#
# Poissons Ratio (x) = 0.61509 -0.11805
# Poissons Ratio (y) = 0.16517 0.16456
# Poissons Ratio (z) = -0.06900 0.35820
#
# Static dielectric constant tensor:
#      x y z
#    x 3.520770 0.000000 -0.137240 
#    y 0.000000 4.097800 0.000000 
#    z -0.137240 0.000000 3.807890 
# 
# 
# High freq. dielectric constant tensor:
#      x y z
#    x 1.798760 0.000000 -0.011100 
#    y 0.000000 1.838550 0.000000 
#    z -0.011100 0.000000 1.814670 
# 
# From -- ./inp_files/46516.got.cif
#   From: 2010.03.12/outbox.cif.g09.slc.cpg/sg14_24_cif.got.tgz:46516.got - 2010.03.31 13:35:05.
