data_PCOD8125110
_publ_section_title
;
Structure prediction by ZEFSAII (Michael W. Deem and Ramdas Pophale) SiO2 
 PCOD8125110
Probable space group: P 21/C
;
_chemical_formula_sum "Si O2"
_cell_formula_units_Z 32
_cell_length_a 5.205534
_cell_length_b 22.490366
_cell_length_c 9.779376
_cell_angle_alpha 90.000000
_cell_angle_beta 81.051058
_cell_angle_gamma 90.000000
_cell_volume 1130.977596
_symmetry_space_group_name_H-M "P 21/C"
_symmetry_group_IT_number 14
_symmetry_cell_setting 'monoclinic'
loop_
_space_group_symop_operation_xyz
x,y,z
-x,1/2+y,1/2-z
-x,-y,-z
x,1/2-y,1/2+z
loop_
_atom_site_type_symbol
_atom_site_label
_atom_site_fract_x
_atom_site_fract_y
_atom_site_fract_z
Si Si1 0.511055 0.013754 0.220409
Si Si2 0.189331 0.275108 0.845131
Si Si3 0.024986 0.646701 0.342125
Si Si4 0.052964 0.367942 0.079842
Si Si5 0.432448 0.406362 0.480868
Si Si6 0.047175 0.951526 0.636775
Si Si7 0.323098 0.787383 0.025842
Si Si8 0.508354 0.312273 0.170104
O O1 0.698510 0.011013 0.338972
O O2 0.212964 0.017719 0.289694
O O3 0.548471 0.951902 0.143196
O O4 0.578227 0.067417 0.106729
O O5 0.453368 0.232911 0.809283
O O6 0.173431 0.301557 0.692830
O O7 0.185455 0.328890 0.950502
O O8 0.950370 0.229963 0.884119
O O9 0.115760 0.611650 0.199954
O O10 0.268794 0.679943 0.385317
O O11 0.871599 0.603231 0.458444
O O12 0.991765 0.435134 0.023376
O O13 0.790065 0.341167 0.163028
O O14 0.280782 0.362733 0.176098
O O15 0.544635 0.344894 0.408500
O O16 0.495188 0.729419 0.967996
#
# Coordination Sequence:
#
# PCOD8125110 Si02
#       8
#     4   4   4   4   4   4   4   4
#     4  10  21  34  59  85 115 151 190 236 296 349
#     4  10  21  35  54  80 111 158 191 227 279 349
#     4  10  20  37  52  79 121 151 185 234 282 338
#     4  10  23  37  58  80 115 151 194 238 282 339
#     4  10  21  34  55  83 121 152 186 238 294 345
#     4  10  20  37  58  85 111 151 191 234 292 341
#     4  11  22  36  57  80 121 159 191 233 288 341
#     4  11  22  38  53  82 113 155 195 229 278 346
#
# _framework density 28.294107
#
# number of rings (size 3 to 8) (size 9 to 14) (size 15 to 20)
#    0.000    1.750    2.500    2.250    1.750    6.500 
#    0.000    0.000    0.000    0.000    0.000    5.250 
#    0.000    0.000    0.000    0.000    0.000    0.000 
#
# Total GULP energy -396545.489686 kJ/mol
# GULP energy per Si atom -12392.046553 kJ/mol
# Density = 2.822971 g / cm^3
# Si number density = 28.294107 Si / 1000 Ang^3
#
#
#
# Elastic Constant Matrix: (Units=GPa)
#
#
# Indices 1 2 3 4 5 6 
#
# 1 120.6596 4.5061 1.5584 0.0000 -3.1354 0.0000
# 2 4.5061 44.9144 3.2437 0.0000 2.4704 0.0000
# 3 1.5584 3.2437 52.9869 0.0000 -0.7065 0.0000
# 4 0.0000 0.0000 0.0000 36.5382 0.0000 -3.4455
# 5 -3.1354 2.4704 -0.7065 0.0000 40.6115 0.0000
# 6 0.0000 0.0000 0.0000 -3.4455 0.0000 35.6197
#
#
#
# Elastic Compliance Matrix: (Units=1/GPa)
#
#
# Indices 1 2 3 4 5 6 
#
# 1 0.008340 -0.000862 -0.000183 0.000000 0.000693 0.000000
# 2 -0.000862 0.022531 -0.001373 0.000000 -0.001461 0.000000
# 3 -0.000183 -0.001373 0.018967 0.000000 0.000399 0.000000
# 4 0.000000 0.000000 0.000000 0.027621 0.000000 0.002672
# 5 0.000693 -0.001461 0.000399 0.000000 0.024773 0.000000
# 6 0.000000 0.000000 0.000000 0.002672 0.000000 0.028333
#
#
# Mechanical properties :
#
#
# Convention : Reuss Voigt Hill
#
# Bulk Modulus (GPa) = 22.22143 26.35302 24.28723
# Shear Modulus (GPa) = 33.24430 36.50405 34.87417
#
# Velocity S-wave (km/s) = 3.43148 3.59578 3.51459
# Velocity P-wave (km/s) = 4.85498 5.15497 5.00722
#
# Compressibility (1/GPa) = 0.04500161
#
# Stress axis : x y z
#
# Youngs Moduli (GPa) = 119.89920 44.38419 52.72208
#
# Poissons Ratio (x) = 0.03824 0.00966
# Poissons Ratio (y) = 0.10331 0.07241
# Poissons Ratio (z) = 0.02198 0.06096
#
# Static dielectric constant tensor:
#      x y z
#    x 5.107410 0.000000 0.488300 
#    y 0.000000 5.573080 0.000000 
#    z 0.488300 0.000000 5.433950 
# 
# 
# High freq. dielectric constant tensor:
#      x y z
#    x 2.150090 0.000000 0.020330 
#    y 0.000000 2.159980 0.000000 
#    z 0.020330 0.000000 2.154760 
# 
# From -- ./inp_files/22180.got.cif
#   From: 2010.03.12/outbox.cif.g09.slc.cpg/sg14_12_cif.got.tgz:22180.got - 2010.03.31 13:35:05.
