data_PCOD8125634
_publ_section_title
;
Structure prediction by ZEFSAII (Michael W. Deem and Ramdas Pophale) SiO2 
 PCOD8125634
Probable space group: P 21/C
;
_chemical_formula_sum "Si O2"
_cell_formula_units_Z 28
_cell_length_a 20.391525
_cell_length_b 5.248705
_cell_length_c 13.860920
_cell_angle_alpha 90.000000
_cell_angle_beta 52.421465
_cell_angle_gamma 90.000000
_cell_volume 1175.717967
_symmetry_space_group_name_H-M "P 21/C"
_symmetry_group_IT_number 14
_symmetry_cell_setting 'monoclinic'
loop_
_space_group_symop_operation_xyz
x,y,z
-x,1/2+y,1/2-z
-x,-y,-z
x,1/2-y,1/2+z
loop_
_atom_site_type_symbol
_atom_site_label
_atom_site_fract_x
_atom_site_fract_y
_atom_site_fract_z
Si Si1 0.808831 0.781329 0.971780
Si Si2 0.019157 0.499066 0.674925
Si Si3 0.727234 0.766150 0.733854
Si Si4 0.595106 0.438996 0.112170
Si Si5 0.856234 0.021592 0.243563
Si Si6 0.589163 0.941970 0.239999
Si Si7 0.273879 0.878436 0.098748
O O1 0.886540 0.947713 0.942117
O O2 0.841435 0.588130 0.863899
O O3 0.737043 0.961765 0.990038
O O4 0.764535 0.626842 0.098966
O O5 0.012997 0.784670 0.721374
O O6 0.955645 0.478568 0.639533
O O7 0.806341 0.625290 0.707133
O O8 0.649851 0.583913 0.777312
O O9 0.689190 0.966978 0.843489
O O10 0.607801 0.720790 0.143467
O O11 0.506081 0.413109 0.139807
O O12 0.601143 0.224790 0.189014
O O13 0.668583 0.371949 0.969845
O O14 0.818897 0.305707 0.282613
#
# Coordination Sequence:
#
# PCOD8125634 Si02
#       7
#     4   4   4   4   4   4   4
#     4  10  21  41  64  86 127 173 207 263 319 374
#     4  10  20  40  66  90 123 172 214 257 317 373
#     4  11  24  38  63  96 129 163 219 258 323 375
#     4  10  22  41  69  90 128 169 216 253 317 377
#     4  10  23  39  62  94 127 163 217 260 318 382
#     4  10  22  42  65  96 124 172 210 260 314 383
#     4  11  22  39  63  93 126 170 210 267 309 390
#
# _framework density 23.815235999999999
#
# number of rings (size 3 to 8) (size 9 to 14) (size 15 to 20)
#    0.000    1.714    2.857    0.857    4.000    2.286 
#    0.000    1.429    0.000    0.000    0.000    0.000 
#    0.000    0.000    0.000    0.000    0.000    0.000 
#
# Total GULP energy -346918.668696 kJ/mol
# GULP energy per Si atom -12389.952453 kJ/mol
# Density = 2.376103 g / cm^3
# Si number density = 23.815236 Si / 1000 Ang^3
#
#
#
# Elastic Constant Matrix: (Units=GPa)
#
#
# Indices 1 2 3 4 5 6 
#
# 1 124.6679 -4.2618 20.8065 0.0000 3.2497 0.0000
# 2 -4.2618 57.3145 -2.8531 0.0000 2.7551 0.0000
# 3 20.8065 -2.8531 65.5552 0.0000 1.1352 0.0000
# 4 0.0000 0.0000 0.0000 16.3244 0.0000 -11.2542
# 5 3.2497 2.7551 1.1352 0.0000 31.9837 0.0000
# 6 0.0000 0.0000 0.0000 -11.2542 0.0000 35.4571
#
#
#
# Elastic Compliance Matrix: (Units=1/GPa)
#
#
# Indices 1 2 3 4 5 6 
#
# 1 0.008505 0.000539 -0.002662 0.000000 -0.000816 0.000000
# 2 0.000539 0.017595 0.000622 0.000000 -0.001593 0.000000
# 3 -0.002662 0.000622 0.016132 0.000000 -0.000356 0.000000
# 4 0.000000 0.000000 0.000000 0.078418 0.000000 0.024890
# 5 -0.000816 -0.001593 -0.000356 0.000000 0.031499 0.000000
# 6 0.000000 0.000000 0.000000 0.024890 0.000000 0.036103
#
#
# Mechanical properties :
#
#
# Convention : Reuss Voigt Hill
#
# Bulk Modulus (GPa) = 25.48946 30.54677 28.01811
# Shear Modulus (GPa) = 24.47011 32.34276 28.40644
#
# Velocity S-wave (km/s) = 3.20894 3.68920 3.45742
# Velocity P-wave (km/s) = 4.94530 5.56788 5.26580
#
# Compressibility (1/GPa) = 0.03923190
#
# Stress axis : x y z
#
# Youngs Moduli (GPa) = 117.57417 56.83364 61.98704
#
# Poissons Ratio (x) = -0.03064 0.16500
# Poissons Ratio (y) = -0.06339 -0.03857
# Poissons Ratio (z) = 0.31297 -0.03536
#
# Static dielectric constant tensor:
#      x y z
#    x 5.190390 0.000000 -0.240770 
#    y 0.000000 4.114710 0.000000 
#    z -0.240770 0.000000 3.835380 
# 
# 
# High freq. dielectric constant tensor:
#      x y z
#    x 1.975490 0.000000 -0.014190 
#    y 0.000000 1.935920 0.000000 
#    z -0.014190 0.000000 1.905610 
# 
# From -- ./inp_files/34699.got.cif
#   From: 2010.03.12/outbox.cif.g09.slc.cpg/sg14_18_cif.got.tgz:34699.got - 2010.03.31 13:35:05.
