data_PCOD8125102
_publ_section_title
;
Structure prediction by ZEFSAII (Michael W. Deem and Ramdas Pophale) SiO2 
 PCOD8125102
Probable space group: P 21/C
;
_chemical_formula_sum "Si O2"
_cell_formula_units_Z 32
_cell_length_a 29.024710
_cell_length_b 7.407345
_cell_length_c 20.065411
_cell_angle_alpha 90.000000
_cell_angle_beta 20.819875
_cell_angle_gamma 90.000000
_cell_volume 1533.324555
_symmetry_space_group_name_H-M "P 21/C"
_symmetry_group_IT_number 14
_symmetry_cell_setting 'monoclinic'
loop_
_space_group_symop_operation_xyz
x,y,z
-x,1/2+y,1/2-z
-x,-y,-z
x,1/2-y,1/2+z
loop_
_atom_site_type_symbol
_atom_site_label
_atom_site_fract_x
_atom_site_fract_y
_atom_site_fract_z
Si Si1 0.274437 0.164549 0.468838
Si Si2 0.440402 0.416344 0.938152
Si Si3 0.806896 0.507588 0.647408
Si Si4 0.025398 0.279855 0.887932
Si Si5 0.695263 0.998635 0.155316
Si Si6 0.765912 0.267711 0.950885
Si Si7 0.031168 0.181041 0.534095
Si Si8 0.498463 0.792375 0.254616
O O1 0.158406 0.246871 0.669584
O O2 0.288627 0.284957 0.382582
O O3 0.411610 0.160633 0.322046
O O4 0.245677 0.955562 0.492222
O O5 0.544725 0.436355 0.856492
O O6 0.438036 0.214216 0.907637
O O7 0.500278 0.520092 0.792013
O O8 0.304139 0.493850 0.145894
O O9 0.747847 0.453429 0.656658
O O10 0.918986 0.371133 0.516642
O O11 0.862246 0.710592 0.567129
O O12 0.963611 0.472549 0.951174
O O13 0.064025 0.285900 0.912733
O O14 0.776713 0.110101 0.990799
O O15 0.892715 0.270301 0.734623
O O16 0.651242 0.232896 0.052715
#
# Coordination Sequence:
#
# PCOD8125102 Si02
#       8
#     4   4   4   4   4   4   4   4
#     4  11  21  40  63  93 128 166 209 264 311 372
#     4  10  21  41  65  93 123 157 209 262 314 369
#     4  12  24  44  64  89 131 178 200 256 323 376
#     4  11  24  40  63  96 127 160 213 267 315 375
#     4  10  25  41  62  92 129 167 223 252 300 383
#     4  11  21  40  63  93 128 166 209 264 311 372
#     4  11  24  40  63  96 127 160 213 267 315 375
#     4  10  20  36  66  94 116 156 204 258 320 368
#
# _framework density 20.869683999999999
#
# number of rings (size 3 to 8) (size 9 to 14) (size 15 to 20)
#    0.000    1.250    3.750    2.250    0.000    2.000 
#    2.250    0.000    0.000    4.500    0.000    0.000 
#    0.000    0.000    0.000    0.000    0.000    0.000 
#
# Total GULP energy -396509.480303 kJ/mol
# GULP energy per Si atom -12390.921259 kJ/mol
# Density = 2.082218 g / cm^3
# Si number density = 20.869684 Si / 1000 Ang^3
#
#
#
# Elastic Constant Matrix: (Units=GPa)
#
#
# Indices 1 2 3 4 5 6 
#
# 1 72.3582 20.4123 21.1347 0.0000 -10.8276 0.0000
# 2 20.4123 98.4912 16.5059 0.0000 -5.7507 0.0000
# 3 21.1347 16.5059 88.7862 0.0000 -3.6387 0.0000
# 4 0.0000 0.0000 0.0000 26.6493 0.0000 -2.7181
# 5 -10.8276 -5.7507 -3.6387 0.0000 17.3599 0.0000
# 6 0.0000 0.0000 0.0000 -2.7181 0.0000 25.7786
#
#
#
# Elastic Compliance Matrix: (Units=1/GPa)
#
#
# Indices 1 2 3 4 5 6 
#
# 1 0.016776 -0.002420 -0.003175 0.000000 0.008997 0.000000
# 2 -0.002420 0.010996 -0.001393 0.000000 0.001841 0.000000
# 3 -0.003175 -0.001393 0.012283 0.000000 0.000133 0.000000
# 4 0.000000 0.000000 0.000000 0.037932 0.000000 0.004000
# 5 0.008997 0.001841 0.000133 0.000000 0.063853 0.000000
# 6 0.000000 0.000000 0.000000 0.004000 0.000000 0.039214
#
#
# Mechanical properties :
#
#
# Convention : Reuss Voigt Hill
#
# Bulk Modulus (GPa) = 38.34261 41.74903 40.04582
# Shear Modulus (GPa) = 24.54327 27.39642 25.96985
#
# Velocity S-wave (km/s) = 3.43304 3.62710 3.53141
# Velocity P-wave (km/s) = 5.84180 6.13101 5.98815
#
# Compressibility (1/GPa) = 0.02608065
#
# Stress axis : x y z
#
# Youngs Moduli (GPa) = 59.60800 90.94583 81.41246
#
# Poissons Ratio (x) = 0.22004 0.25848
# Poissons Ratio (y) = 0.14422 0.11339
# Poissons Ratio (z) = 0.18925 0.12666
#
# Static dielectric constant tensor:
#      x y z
#    x 3.544110 0.000000 -0.089630 
#    y 0.000000 4.058400 0.000000 
#    z -0.089630 0.000000 3.833150 
# 
# 
# High freq. dielectric constant tensor:
#      x y z
#    x 1.795480 0.000000 -0.012490 
#    y 0.000000 1.823570 0.000000 
#    z -0.012490 0.000000 1.823870 
# 
# From -- ./inp_files/70707.got.cif
#   From: 2010.03.12/outbox.cif.g09.slc.cpg/sg14_36_cif.got.tgz:70707.got - 2010.03.31 13:35:05.
