data_PCOD8125205
_publ_section_title
;
Structure prediction by ZEFSAII (Michael W. Deem and Ramdas Pophale) SiO2 
 PCOD8125205
Probable space group: P 21/C
;
_chemical_formula_sum "Si O2"
_cell_formula_units_Z 24
_cell_length_a 10.346479
_cell_length_b 7.359565
_cell_length_c 20.474570
_cell_angle_alpha 90.000000
_cell_angle_beta 127.401456
_cell_angle_gamma 90.000000
_cell_volume 1238.506545
_symmetry_space_group_name_H-M "P 21/C"
_symmetry_group_IT_number 14
_symmetry_cell_setting 'monoclinic'
loop_
_space_group_symop_operation_xyz
x,y,z
-x,1/2+y,1/2-z
-x,-y,-z
x,1/2-y,1/2+z
loop_
_atom_site_type_symbol
_atom_site_label
_atom_site_fract_x
_atom_site_fract_y
_atom_site_fract_z
Si Si1 0.494331 0.899748 0.665284
Si Si2 0.603493 0.550485 0.629764
Si Si3 0.259724 0.509191 0.465029
Si Si4 0.834901 0.128406 0.507128
Si Si5 0.997849 0.269757 0.928041
Si Si6 0.662513 0.238150 0.254745
O O1 0.595222 0.754860 0.654014
O O2 0.324244 0.947860 0.578575
O O3 0.463922 0.818097 0.727756
O O4 0.601299 0.079885 0.701287
O O5 0.426251 0.476229 0.555489
O O6 0.723582 0.549965 0.604809
O O7 0.677708 0.421441 0.707249
O O8 0.211523 0.721828 0.453148
O O9 0.123898 0.392088 0.458784
O O10 0.955793 0.219385 0.491716
O O11 0.922653 0.961061 0.570339
O O12 0.840383 0.224111 0.837413
#
# Coordination Sequence:
#
# PCOD8125205 Si02
#       6
#     4   4   4   4   4   4
#     4  10  20  37  62  85 114 151 195 242 285 344
#     4  10  22  39  60  86 115 155 197 231 287 351
#     4  10  21  40  60  83 119 155 192 235 285 350
#     4   9  20  38  61  87 114 149 196 238 282 346
#     4  10  21  37  58  90 116 150 193 238 291 336
#     4  11  21  37  59  87 116 151 193 243 292 337
#
# _framework density 19.378176
#
# number of rings (size 3 to 8) (size 9 to 14) (size 15 to 20)
#    0.000    2.000    1.667    1.500    0.000    2.667 
#    9.000    5.000    0.000    0.000    0.000    0.000 
#    0.000    0.000    0.000    0.000    0.000    0.000 
#
# Total GULP energy -297725.720977 kJ/mol
# GULP energy per Si atom -12405.238374 kJ/mol
# Density = 1.933407 g / cm^3
# Si number density = 19.378176 Si / 1000 Ang^3
#
#
#
# Elastic Constant Matrix: (Units=GPa)
#
#
# Indices 1 2 3 4 5 6 
#
# 1 54.6713 35.6105 27.0113 0.0000 3.7039 0.0000
# 2 35.6105 90.8413 27.3825 0.0000 7.6294 0.0000
# 3 27.0113 27.3825 41.4558 0.0000 -0.5674 0.0000
# 4 0.0000 0.0000 0.0000 33.7527 0.0000 5.7467
# 5 3.7039 7.6294 -0.5674 0.0000 24.7772 0.0000
# 6 0.0000 0.0000 0.0000 5.7467 0.0000 30.2828
#
#
#
# Elastic Compliance Matrix: (Units=1/GPa)
#
#
# Indices 1 2 3 4 5 6 
#
# 1 0.030728 -0.007205 -0.015300 0.000000 -0.002725 0.000000
# 2 -0.007205 0.015941 -0.005889 0.000000 -0.003966 0.000000
# 3 -0.015300 -0.005889 0.038049 0.000000 0.004972 0.000000
# 4 0.000000 0.000000 0.000000 0.030616 0.000000 -0.005810
# 5 -0.002725 -0.003966 0.004972 0.000000 0.042102 0.000000
# 6 0.000000 0.000000 0.000000 -0.005810 0.000000 0.034125
#
#
# Mechanical properties :
#
#
# Convention : Reuss Voigt Hill
#
# Bulk Modulus (GPa) = 35.80348 40.77524 38.28936
# Shear Modulus (GPa) = 19.40556 24.22681 21.81619
#
# Velocity S-wave (km/s) = 3.16794 3.53967 3.35895
# Velocity P-wave (km/s) = 5.64778 6.14762 5.90299
#
# Compressibility (1/GPa) = 0.02793024
#
# Stress axis : x y z
#
# Youngs Moduli (GPa) = 32.54387 62.73184 26.28201
#
# Poissons Ratio (x) = 0.45197 0.40210
# Poissons Ratio (y) = 0.23447 0.15478
# Poissons Ratio (z) = 0.49791 0.36944
#
# Static dielectric constant tensor:
#      x y z
#    x 3.522870 0.000000 0.021340 
#    y 0.000000 3.497460 0.000000 
#    z 0.021340 0.000000 3.438840 
# 
# 
# High freq. dielectric constant tensor:
#      x y z
#    x 1.750160 0.000000 0.003430 
#    y 0.000000 1.761610 0.000000 
#    z 0.003430 0.000000 1.745240 
# 
# From -- ./inp_files/72679.got.cif
#   From: 2010.03.12/outbox.cif.g09.slc.cpg/sg14_37_cif.got.tgz:72679.got - 2010.03.31 13:35:05.
