data_PCOD8125360
_publ_section_title
;
Structure prediction by ZEFSAII (Michael W. Deem and Ramdas Pophale) SiO2 
 PCOD8125360
Probable space group: P 21/C
;
_chemical_formula_sum "Si O2"
_cell_formula_units_Z 32
_cell_length_a 9.344449
_cell_length_b 12.210554
_cell_length_c 23.462625
_cell_angle_alpha 90.000000
_cell_angle_beta 150.051790
_cell_angle_gamma 90.000000
_cell_volume 1336.457104
_symmetry_space_group_name_H-M "P 21/C"
_symmetry_group_IT_number 14
_symmetry_cell_setting 'monoclinic'
loop_
_space_group_symop_operation_xyz
x,y,z
-x,1/2+y,1/2-z
-x,-y,-z
x,1/2-y,1/2+z
loop_
_atom_site_type_symbol
_atom_site_label
_atom_site_fract_x
_atom_site_fract_y
_atom_site_fract_z
Si Si1 0.522020 0.381940 0.882498
Si Si2 0.317540 0.453017 0.595738
Si Si3 0.851867 0.870187 0.371131
Si Si4 0.744869 0.412248 0.324994
Si Si5 0.334589 0.840514 0.690328
Si Si6 0.241947 0.276746 0.043610
Si Si7 0.797870 0.409300 0.217254
Si Si8 0.301858 0.150325 0.807525
O O1 0.484047 0.386605 0.800790
O O2 0.310583 0.470269 0.838303
O O3 0.458341 0.260041 0.883745
O O4 0.838527 0.420727 0.009862
O O5 0.110946 0.507078 0.576428
O O6 0.559529 0.378783 0.711053
O O7 0.183354 0.354904 0.507730
O O8 0.470701 0.550194 0.614303
O O9 0.595009 0.961470 0.292176
O O10 0.793203 0.776828 0.399295
O O11 0.849231 0.827047 0.305229
O O12 0.652879 0.292098 0.314816
O O13 0.901523 0.417192 0.318848
O O14 0.989473 0.857811 0.565500
O O15 0.549707 0.317339 0.128144
O O16 0.060287 0.376212 0.269727
#
# Coordination Sequence:
#
# PCOD8125360 Si02
#       8
#     4   4   4   4   4   4   4   4
#     4  11  22  39  65  90 119 162 203 256 306 362
#     4  11  20  40  65  87 125 159 203 254 301 361
#     4   9  20  40  61  89 117 153 207 249 296 357
#     4  10  20  38  62  93 119 162 201 249 306 352
#     4  11  20  39  65  94 121 152 207 262 299 357
#     4  10  23  38  63  98 118 155 207 254 305 357
#     4  11  24  38  61  88 125 160 203 251 304 362
#     4  11  25  42  58  90 128 165 201 246 312 367
#
# _framework density 23.943904
#
# number of rings (size 3 to 8) (size 9 to 14) (size 15 to 20)
#    0.000    1.500    6.250    0.000    5.250    2.500 
#    2.250    0.000    0.000    1.500    0.000    0.000 
#    0.000    0.000    0.000    0.000    0.000    0.000 
#
# Total GULP energy -396566.599697 kJ/mol
# GULP energy per Si atom -12392.706241 kJ/mol
# Density = 2.388941 g / cm^3
# Si number density = 23.943904 Si / 1000 Ang^3
#
#
#
# Elastic Constant Matrix: (Units=GPa)
#
#
# Indices 1 2 3 4 5 6 
#
# 1 152.6648 45.4070 38.2209 0.0000 20.2077 0.0000
# 2 45.4070 151.0484 24.6111 0.0000 18.8818 0.0000
# 3 38.2209 24.6111 83.7000 0.0000 -1.6507 0.0000
# 4 0.0000 0.0000 0.0000 30.6234 0.0000 7.7018
# 5 20.2077 18.8818 -1.6507 0.0000 30.5452 0.0000
# 6 0.0000 0.0000 0.0000 7.7018 0.0000 28.7163
#
#
#
# Elastic Compliance Matrix: (Units=1/GPa)
#
#
# Indices 1 2 3 4 5 6 
#
# 1 0.008511 -0.001350 -0.003588 0.000000 -0.004990 0.000000
# 2 -0.001350 0.007818 -0.001762 0.000000 -0.004035 0.000000
# 3 -0.003588 -0.001762 0.014187 0.000000 0.004229 0.000000
# 4 0.000000 0.000000 0.000000 0.035017 0.000000 -0.009392
# 5 -0.004990 -0.004035 0.004229 0.000000 0.038762 0.000000
# 6 0.000000 0.000000 0.000000 -0.009392 0.000000 0.037342
#
#
# Mechanical properties :
#
#
# Convention : Reuss Voigt Hill
#
# Bulk Modulus (GPa) = 58.42395 67.09900 62.76147
# Shear Modulus (GPa) = 31.10601 36.58861 33.84731
#
# Velocity S-wave (km/s) = 3.60824 3.91333 3.76388
# Velocity P-wave (km/s) = 6.46626 6.96442 6.71996
#
# Compressibility (1/GPa) = 0.01711627
#
# Stress axis : x y z
#
# Youngs Moduli (GPa) = 117.50181 127.91592 70.48638
#
# Poissons Ratio (x) = 0.17270 0.25288
# Poissons Ratio (y) = 0.15864 0.12418
# Poissons Ratio (z) = 0.42156 0.22536
#
# Static dielectric constant tensor:
#      x y z
#    x 3.754120 0.000000 0.095060 
#    y 0.000000 4.823680 0.000000 
#    z 0.095060 0.000000 5.439840 
# 
# 
# High freq. dielectric constant tensor:
#      x y z
#    x 1.895500 0.000000 0.007160 
#    y 0.000000 1.986380 0.000000 
#    z 0.007160 0.000000 1.986530 
# 
# From -- ./inp_files/40337.got.cif
#   From: 2010.03.12/outbox.cif.g09.slc.cpg/sg14_21_cif.got.tgz:40337.got - 2010.03.31 13:35:05.
