data_PCOD8125663
_publ_section_title
;
Structure prediction by ZEFSAII (Michael W. Deem and Ramdas Pophale) SiO2 
 PCOD8125663
Probable space group: P 21/C
;
_chemical_formula_sum "Si O2"
_cell_formula_units_Z 32
_cell_length_a 5.250000
_cell_length_b 24.229737
_cell_length_c 12.056534
_cell_angle_alpha 90.000000
_cell_angle_beta 70.166371
_cell_angle_gamma 90.000000
_cell_volume 1442.690644
_symmetry_space_group_name_H-M "P 21/C"
_symmetry_group_IT_number 14
_symmetry_cell_setting 'monoclinic'
loop_
_space_group_symop_operation_xyz
x,y,z
-x,1/2+y,1/2-z
-x,-y,-z
x,1/2-y,1/2+z
loop_
_atom_site_type_symbol
_atom_site_label
_atom_site_fract_x
_atom_site_fract_y
_atom_site_fract_z
Si Si1 0.744522 0.421052 0.513218
Si Si2 0.863525 0.071629 0.231518
Si Si3 0.421002 0.096797 0.695429
Si Si4 0.164547 0.203745 0.358151
Si Si5 0.722294 0.656627 0.378096
Si Si6 0.405128 0.642474 0.065360
Si Si7 0.177797 0.173601 0.901777
Si Si8 0.857812 0.034304 0.767511
O O1 0.807411 0.455333 0.617612
O O2 0.453682 0.398042 0.586243
O O3 0.729238 0.461255 0.409961
O O4 0.936141 0.369364 0.455413
O O5 0.612389 0.088951 0.348861
O O6 0.979926 0.132137 0.186364
O O7 0.060180 0.029283 0.267329
O O8 0.518534 0.121259 0.566470
O O9 0.402293 0.146014 0.788792
O O10 0.636610 0.051885 0.708781
O O11 0.128583 0.070373 0.718566
O O12 0.337806 0.195030 0.218731
O O13 0.364547 0.185064 0.427550
O O14 0.081096 0.267979 0.369100
O O15 0.887309 0.170321 0.405410
O O16 0.694795 0.689490 0.497371
#
# Coordination Sequence:
#
# PCOD8125663 Si02
#       8
#     4   4   4   4   4   4   4   4
#     4  10  20  41  61  94 128 160 209 269 315 371
#     4  10  23  40  65  93 128 164 214 264 312 380
#     4  11  25  43  61  94 132 164 211 262 311 378
#     4  11  25  41  67  92 120 171 211 253 323 368
#     4  10  21  42  64  92 129 159 209 267 308 370
#     4  11  25  45  62  93 130 167 214 264 307 379
#     4  10  24  40  62  93 127 162 210 261 312 380
#     4  11  24  40  67  95 123 173 209 256 329 371
#
# _framework density 22.180779000000001
#
# number of rings (size 3 to 8) (size 9 to 14) (size 15 to 20)
#    0.000    1.500    2.500    1.125    5.250    1.500 
#    0.000    0.000    0.000    0.000    0.000    0.000 
#    0.000    0.000    0.000    0.000    0.000    0.000 
#
# Total GULP energy -396539.984095 kJ/mol
# GULP energy per Si atom -12391.874503 kJ/mol
# Density = 2.213029 g / cm^3
# Si number density = 22.180779 Si / 1000 Ang^3
#
#
#
# Elastic Constant Matrix: (Units=GPa)
#
#
# Indices 1 2 3 4 5 6 
#
# 1 68.6970 -14.2323 15.8846 0.0000 -2.0114 0.0000
# 2 -14.2323 55.7210 32.2546 0.0000 -2.0718 0.0000
# 3 15.8846 32.2546 145.6504 0.0000 0.5578 0.0000
# 4 0.0000 0.0000 0.0000 -0.1471 0.0000 -6.8099
# 5 -2.0114 -2.0718 0.5578 0.0000 29.3188 0.0000
# 6 0.0000 0.0000 0.0000 -6.8099 0.0000 17.4973
#
#
#
# Elastic Compliance Matrix: (Units=1/GPa)
#
#
# Indices 1 2 3 4 5 6 
#
# 1 0.016612 0.006144 -0.003179 0.000000 0.001634 0.000000
# 2 0.006144 0.022927 -0.005756 0.000000 0.002151 0.000000
# 3 -0.003179 -0.005756 0.008490 0.000000 -0.000786 0.000000
# 4 0.000000 0.000000 0.000000 -0.357471 0.000000 -0.139126
# 5 0.001634 0.002151 -0.000786 0.000000 0.034387 0.000000
# 6 0.000000 0.000000 0.000000 -0.139126 0.000000 0.003005
#
#
# Mechanical properties :
#
#
# Convention : Reuss Voigt Hill
#
# Bulk Modulus (GPa) = 23.55759 37.54246 30.55002
# Shear Modulus (GPa) = -19.81616 25.07791 2.63087
#
# Velocity S-wave (km/s) = -2.99221 3.36611 1.09027
# Velocity P-wave (km/s) = 1.13754 5.66304 3.92275
#
# Compressibility (1/GPa) = 0.04244917
#
# Stress axis : x y z
#
# Youngs Moduli (GPa) = 60.19618 43.61576 117.78545
#
# Poissons Ratio (x) = -0.26797 0.37439
# Poissons Ratio (y) = -0.36984 0.67793
# Poissons Ratio (z) = 0.19134 0.25104
#
# Static dielectric constant tensor:
#      x y z
#    x 3.925180 0.000000 0.084350 
#    y 0.000000 3.791420 0.000000 
#    z 0.084350 0.000000 4.460480 
# 
# 
# High freq. dielectric constant tensor:
#      x y z
#    x 1.866980 0.000000 -0.001060 
#    y 0.000000 1.859290 0.000000 
#    z -0.001060 0.000000 1.889070 
# 
# From -- ./inp_files/22082.got.cif
#   From: 2010.03.12/outbox.cif.g09.slc.cpg/sg14_12_cif.got.tgz:22082.got - 2010.03.31 13:35:05.
