data_PCOD8125270
_publ_section_title
;
Structure prediction by ZEFSAII (Michael W. Deem and Ramdas Pophale) SiO2 
 PCOD8125270
Probable space group: P 21/C
;
_chemical_formula_sum "Si O2"
_cell_formula_units_Z 28
_cell_length_a 9.634281
_cell_length_b 19.784673
_cell_length_c 16.157616
_cell_angle_alpha 90.000000
_cell_angle_beta 154.020084
_cell_angle_gamma 90.000000
_cell_volume 1349.134241
_symmetry_space_group_name_H-M "P 21/C"
_symmetry_group_IT_number 14
_symmetry_cell_setting 'monoclinic'
loop_
_space_group_symop_operation_xyz
x,y,z
-x,1/2+y,1/2-z
-x,-y,-z
x,1/2-y,1/2+z
loop_
_atom_site_type_symbol
_atom_site_label
_atom_site_fract_x
_atom_site_fract_y
_atom_site_fract_z
Si Si1 0.648966 0.681329 0.662268
Si Si2 0.543533 0.696923 0.794654
Si Si3 0.028270 0.970110 0.104871
Si Si4 0.267423 0.808063 0.392693
Si Si5 0.743270 0.447261 0.595578
Si Si6 0.354062 0.094967 0.510015
Si Si7 0.080525 0.181161 0.958689
O O1 0.667565 0.677240 0.771059
O O2 0.498945 0.751008 0.551175
O O3 0.425676 0.623815 0.506467
O O4 0.008256 0.672264 0.822853
O O5 0.711945 0.649545 0.953099
O O6 0.612831 0.775731 0.853009
O O7 0.165630 0.687259 0.596701
O O8 0.398379 0.960971 0.324894
O O9 0.873232 0.026159 0.078937
O O10 0.842018 0.898093 0.014070
O O11 0.000000 0.000000 0.000000
O O12 0.494175 0.871068 0.491162
O O13 0.081413 0.786170 0.209724
O O14 0.500000 0.500000 0.500000
O O15 0.026403 0.440616 0.813086
#
# Coordination Sequence:
#
# PCOD8125270 Si02
#       7
#     4   4   4   4   4   4   4
#     4  12  22  37  60  96 121 152 201 256 305 354
#     4  10  21  37  60  88 119 148 195 258 306 352
#     4  10  22  41  62  87 122 162 204 250 304 373
#     4  10  21  38  63  89 120 155 201 255 306 362
#     4  12  24  40  62  87 123 166 208 248 296 371
#     4  10  23  43  63  85 120 166 207 251 308 364
#     4  10  20  38  58  84 115 157 193 238 308 364
#
# _framework density 20.754051
#
# number of rings (size 3 to 8) (size 9 to 14) (size 15 to 20)
#    0.000    1.714    0.000    8.143    0.000    2.286 
#    0.000    5.714    0.000    0.000    0.000    0.000 
#    0.000    0.000    0.000    0.000    0.000    0.000 
#
# Total GULP energy -347209.825743 kJ/mol
# GULP energy per Si atom -12400.350919 kJ/mol
# Density = 2.070681 g / cm^3
# Si number density = 20.754051 Si / 1000 Ang^3
#
#
#
# Elastic Constant Matrix: (Units=GPa)
#
#
# Indices 1 2 3 4 5 6 
#
# 1 132.6820 33.0142 40.5212 0.0000 -9.9136 0.0000
# 2 33.0142 75.6471 52.8791 0.0000 7.0045 0.0000
# 3 40.5212 52.8791 81.5230 0.0000 10.3302 0.0000
# 4 0.0000 0.0000 0.0000 31.2232 0.0000 -1.7070
# 5 -9.9136 7.0045 10.3302 0.0000 22.2651 0.0000
# 6 0.0000 0.0000 0.0000 -1.7070 0.0000 30.1468
#
#
#
# Elastic Compliance Matrix: (Units=1/GPa)
#
#
# Indices 1 2 3 4 5 6 
#
# 1 0.009944 -0.001671 -0.004766 0.000000 0.007165 0.000000
# 2 -0.001671 0.024469 -0.014844 0.000000 -0.001555 0.000000
# 3 -0.004766 -0.014844 0.025436 0.000000 -0.009254 0.000000
# 4 0.000000 0.000000 0.000000 0.032127 0.000000 0.001819
# 5 0.007165 -0.001555 -0.009254 0.000000 0.052886 0.000000
# 6 0.000000 0.000000 0.000000 0.001819 0.000000 0.033274
#
#
# Mechanical properties :
#
#
# Convention : Reuss Voigt Hill
#
# Bulk Modulus (GPa) = 57.84938 60.29792 59.07365
# Shear Modulus (GPa) = 22.07894 27.62286 24.85090
#
# Velocity S-wave (km/s) = 3.26519 3.65219 3.46410
# Velocity P-wave (km/s) = 6.49227 6.84845 6.67274
#
# Compressibility (1/GPa) = 0.01728627
#
# Stress axis : x y z
#
# Youngs Moduli (GPa) = 100.56700 40.86854 39.31382
#
# Poissons Ratio (x) = 0.06830 0.18738
# Poissons Ratio (y) = 0.16808 0.58356
# Poissons Ratio (z) = 0.47933 0.60664
#
# Static dielectric constant tensor:
#      x y z
#    x 4.134540 0.000000 0.094420 
#    y 0.000000 3.727350 0.000000 
#    z 0.094420 0.000000 3.659620 
# 
# 
# High freq. dielectric constant tensor:
#      x y z
#    x 1.823100 0.000000 0.000110 
#    y 0.000000 1.813360 0.000000 
#    z 0.000110 0.000000 1.801960 
# 
# From -- ./inp_files/42179.got.cif
#   From: 2010.03.12/outbox.cif.g09.slc.cpg/sg14_22_cif.got.tgz:42179.got - 2010.03.31 13:35:05.
