data_PCOD8125889
_publ_section_title
;
Structure prediction by ZEFSAII (Michael W. Deem and Ramdas Pophale) SiO2 
 PCOD8125889
Probable space group: P 21/C
;
_chemical_formula_sum "Si O2"
_cell_formula_units_Z 32
_cell_length_a 13.894425
_cell_length_b 7.976474
_cell_length_c 14.372172
_cell_angle_alpha 90.000000
_cell_angle_beta 62.212172
_cell_angle_gamma 90.000000
_cell_volume 1409.159540
_symmetry_space_group_name_H-M "P 21/C"
_symmetry_group_IT_number 14
_symmetry_cell_setting 'monoclinic'
loop_
_space_group_symop_operation_xyz
x,y,z
-x,1/2+y,1/2-z
-x,-y,-z
x,1/2-y,1/2+z
loop_
_atom_site_type_symbol
_atom_site_label
_atom_site_fract_x
_atom_site_fract_y
_atom_site_fract_z
Si Si1 0.508060 0.866987 0.856941
Si Si2 0.660087 0.453739 0.425379
Si Si3 0.767343 0.694224 0.512475
Si Si4 0.624765 0.542211 0.734153
Si Si5 0.819952 0.025218 0.568185
Si Si6 0.008256 0.219725 0.172160
Si Si7 0.228581 0.774319 0.756993
Si Si8 0.985518 0.599877 0.131337
O O1 0.572314 0.695356 0.813228
O O2 0.584479 0.003259 0.871928
O O3 0.471700 0.945123 0.775225
O O4 0.403336 0.839772 0.970331
O O5 0.700998 0.628193 0.452571
O O6 0.757754 0.339243 0.341958
O O7 0.722288 0.598392 0.622434
O O8 0.749871 0.896850 0.534843
O O9 0.894211 0.647460 0.435664
O O10 0.680331 0.417997 0.783374
O O11 0.885365 0.891844 0.604494
O O12 0.751545 0.155685 0.660776
O O13 0.901671 0.143387 0.472015
O O14 0.891570 0.140362 0.195147
O O15 0.035544 0.212615 0.269513
O O16 0.996262 0.413252 0.161289
#
# Coordination Sequence:
#
# PCOD8125889 Si02
#       8
#     4   4   4   4   4   4   4   4
#     4  10  23  44  66  90 121 156 209 268 313 363
#     4  10  22  43  66  91 124 160 204 262 317 363
#     4  10  21  38  63  91 122 165 205 242 304 370
#     4  11  24  41  66  93 117 161 208 256 319 367
#     4   9  19  36  56  83 121 164 209 248 288 355
#     4  10  21  36  56  89 131 165 200 248 296 366
#     4  11  23  38  61  93 129 165 201 250 310 371
#     4   9  19  34  54  80 121 174 206 240 293 338
#
# _framework density 22.708572
#
# number of rings (size 3 to 8) (size 9 to 14) (size 15 to 20)
#    0.000    2.000    0.000    3.750    0.000    7.000 
#    0.000    1.250    0.000    0.000    0.000    0.000 
#    0.000    0.000    0.000    0.000    0.000    0.000 
#
# Total GULP energy -396661.456607 kJ/mol
# GULP energy per Si atom -12395.670519 kJ/mol
# Density = 2.265689 g / cm^3
# Si number density = 22.708572 Si / 1000 Ang^3
#
#
#
# Elastic Constant Matrix: (Units=GPa)
#
#
# Indices 1 2 3 4 5 6 
#
# 1 76.1521 23.2960 35.0626 0.0000 -10.1589 0.0000
# 2 23.2960 60.0502 45.3384 0.0000 -8.9847 0.0000
# 3 35.0626 45.3384 112.4187 0.0000 -10.7875 0.0000
# 4 0.0000 0.0000 0.0000 25.2955 0.0000 1.3102
# 5 -10.1589 -8.9847 -10.7875 0.0000 31.1142 0.0000
# 6 0.0000 0.0000 0.0000 1.3102 0.0000 36.0874
#
#
#
# Elastic Compliance Matrix: (Units=1/GPa)
#
#
# Indices 1 2 3 4 5 6 
#
# 1 0.016108 -0.003182 -0.003439 0.000000 0.003148 0.000000
# 2 -0.003182 0.024988 -0.008785 0.000000 0.003131 0.000000
# 3 -0.003439 -0.008785 0.013613 0.000000 0.001060 0.000000
# 4 0.000000 0.000000 0.000000 0.039607 0.000000 -0.001438
# 5 0.003148 0.003131 0.001060 0.000000 0.034439 0.000000
# 6 0.000000 0.000000 0.000000 -0.001438 0.000000 0.027763
#
#
# Mechanical properties :
#
#
# Convention : Reuss Voigt Hill
#
# Bulk Modulus (GPa) = 41.84420 50.66835 46.25627
# Shear Modulus (GPa) = 25.60229 28.16102 26.88165
#
# Velocity S-wave (km/s) = 3.36136 3.52533 3.44432
# Velocity P-wave (km/s) = 5.79065 6.23951 6.01927
#
# Compressibility (1/GPa) = 0.02389818
#
# Stress axis : x y z
#
# Youngs Moduli (GPa) = 62.08002 40.01885 73.46182
#
# Poissons Ratio (x) = 0.12733 0.25262
# Poissons Ratio (y) = 0.19752 0.64536
# Poissons Ratio (z) = 0.21348 0.35156
#
# Static dielectric constant tensor:
#      x y z
#    x 4.973130 0.000000 0.506190 
#    y 0.000000 3.792240 0.000000 
#    z 0.506190 0.000000 5.362280 
# 
# 
# High freq. dielectric constant tensor:
#      x y z
#    x 1.886940 0.000000 -0.005530 
#    y 0.000000 1.870770 0.000000 
#    z -0.005530 0.000000 1.909270 
# 
# From -- ./inp_files/46501.got.cif
#   From: 2010.03.12/outbox.cif.g09.slc.cpg/sg14_24_cif.got.tgz:46501.got - 2010.03.31 13:35:05.
