data_PCOD8125304
_publ_section_title
;
Structure prediction by ZEFSAII (Michael W. Deem and Ramdas Pophale) SiO2 
 PCOD8125304
Probable space group: P 21/C
;
_chemical_formula_sum "Si O2"
_cell_formula_units_Z 28
_cell_length_a 17.179724
_cell_length_b 17.585044
_cell_length_c 9.405401
_cell_angle_alpha 90.000000
_cell_angle_beta 151.819403
_cell_angle_gamma 90.000000
_cell_volume 1341.871808
_symmetry_space_group_name_H-M "P 21/C"
_symmetry_group_IT_number 14
_symmetry_cell_setting 'monoclinic'
loop_
_space_group_symop_operation_xyz
x,y,z
-x,1/2+y,1/2-z
-x,-y,-z
x,1/2-y,1/2+z
loop_
_atom_site_type_symbol
_atom_site_label
_atom_site_fract_x
_atom_site_fract_y
_atom_site_fract_z
Si Si1 0.982393 0.828631 0.637100
Si Si2 0.391244 0.105395 0.411515
Si Si3 0.143252 0.300105 0.364065
Si Si4 0.383753 0.969715 0.605700
Si Si5 0.318718 0.425239 0.245993
Si Si6 0.672083 0.343772 0.173756
Si Si7 0.548378 0.705679 0.726539
O O1 0.981427 0.819955 0.464635
O O2 0.945292 0.751287 0.661260
O O3 0.854946 0.894010 0.479320
O O4 0.166583 0.852034 0.971605
O O5 0.528770 0.104868 0.511937
O O6 0.451975 0.171155 0.617208
O O7 0.373060 0.024148 0.452670
O O8 0.212389 0.125942 0.057002
O O9 0.294996 0.259898 0.530324
O O10 0.300736 0.888124 0.433090
O O11 0.283838 0.008098 0.575252
O O12 0.576907 0.959472 0.956046
O O13 0.435864 0.360210 0.365716
O O14 0.617133 0.255943 0.062823
#
# Coordination Sequence:
#
# PCOD8125304 Si02
#       7
#     4   4   4   4   4   4   4
#     4  11  23  37  59  91 123 158 192 254 304 353
#     4  10  20  39  60  85 116 161 206 243 288 361
#     4  10  20  38  60  85 118 157 203 240 297 357
#     4  10  21  39  62  87 114 161 206 247 289 363
#     4   9  20  40  64  84 119 158 207 238 301 360
#     4  11  24  33  60  90 125 148 197 253 305 344
#     4   9  19  36  62  87 111 157 203 244 286 350
#
# _framework density 20.866375000000001
#
# number of rings (size 3 to 8) (size 9 to 14) (size 15 to 20)
#    0.000    2.000    1.429    2.143    6.000    0.571 
#    0.000    2.857    3.143    0.000    0.000    0.000 
#    0.000    0.000    0.000    0.000    0.000    0.000 
#
# Total GULP energy -347171.725028 kJ/mol
# GULP energy per Si atom -12398.990180 kJ/mol
# Density = 2.081888 g / cm^3
# Si number density = 20.866375 Si / 1000 Ang^3
#
#
#
# Elastic Constant Matrix: (Units=GPa)
#
#
# Indices 1 2 3 4 5 6 
#
# 1 37.3526 14.3631 21.5839 0.0000 -16.3595 0.0000
# 2 14.3631 69.9581 27.3428 0.0000 -11.4174 0.0000
# 3 21.5839 27.3428 111.9730 0.0000 -19.1430 0.0000
# 4 0.0000 0.0000 0.0000 33.7008 0.0000 -14.7079
# 5 -16.3595 -11.4174 -19.1430 0.0000 29.4680 0.0000
# 6 0.0000 0.0000 0.0000 -14.7079 0.0000 23.5463
#
#
#
# Elastic Compliance Matrix: (Units=1/GPa)
#
#
# Indices 1 2 3 4 5 6 
#
# 1 0.037719 -0.003574 -0.003436 0.000000 0.017323 0.000000
# 2 -0.003574 0.016587 -0.002927 0.000000 0.002541 0.000000
# 3 -0.003436 -0.002927 0.011011 0.000000 0.004111 0.000000
# 4 0.000000 0.000000 0.000000 0.040793 0.000000 0.025481
# 5 0.017323 0.002541 0.004111 0.000000 0.047207 0.000000
# 6 0.000000 0.000000 0.000000 0.025481 0.000000 0.058386
#
#
# Mechanical properties :
#
#
# Convention : Reuss Voigt Hill
#
# Bulk Modulus (GPa) = 22.00613 38.42925 30.21769
# Shear Modulus (GPa) = 20.26549 27.74261 24.00405
#
# Velocity S-wave (km/s) = 3.11979 3.65024 3.39539
# Velocity P-wave (km/s) = 4.85248 6.01851 5.46667
#
# Compressibility (1/GPa) = 0.04544189
#
# Stress axis : x y z
#
# Youngs Moduli (GPa) = 26.51187 60.28910 90.82083
#
# Poissons Ratio (x) = 0.21546 0.31210
# Poissons Ratio (y) = 0.09475 0.26584
# Poissons Ratio (z) = 0.09111 0.17647
#
# Static dielectric constant tensor:
#      x y z
#    x 3.597630 0.000000 -0.270930 
#    y 0.000000 3.865550 0.000000 
#    z -0.270930 0.000000 3.695750 
# 
# 
# High freq. dielectric constant tensor:
#      x y z
#    x 1.802780 0.000000 -0.027220 
#    y 0.000000 1.817280 0.000000 
#    z -0.027220 0.000000 1.812640 
# 
# From -- ./inp_files/18178.got.cif
#   From: 2010.03.12/outbox.cif.g09.slc.cpg/sg14_10_cif.got.tgz:18178.got - 2010.03.31 13:35:05.
