data_PCOD8125235
_publ_section_title
;
Structure prediction by ZEFSAII (Michael W. Deem and Ramdas Pophale) SiO2 
 PCOD8125235
Probable space group: P 21/C
;
_chemical_formula_sum "Si O2"
_cell_formula_units_Z 32
_cell_length_a 8.894347
_cell_length_b 8.643549
_cell_length_c 27.047377
_cell_angle_alpha 90.000000
_cell_angle_beta 49.827832
_cell_angle_gamma 90.000000
_cell_volume 1588.864667
_symmetry_space_group_name_H-M "P 21/C"
_symmetry_group_IT_number 14
_symmetry_cell_setting 'monoclinic'
loop_
_space_group_symop_operation_xyz
x,y,z
-x,1/2+y,1/2-z
-x,-y,-z
x,1/2-y,1/2+z
loop_
_atom_site_type_symbol
_atom_site_label
_atom_site_fract_x
_atom_site_fract_y
_atom_site_fract_z
Si Si1 0.417473 0.187960 0.929734
Si Si2 0.890861 0.702710 0.674575
Si Si3 0.495738 0.973685 0.419834
Si Si4 0.196247 0.009635 0.147519
Si Si5 0.234521 0.992743 0.886770
Si Si6 0.175382 0.961622 0.569661
Si Si7 0.612664 0.709272 0.316973
Si Si8 0.104348 0.207714 0.072178
O O1 0.466962 0.359838 0.898868
O O2 0.600968 0.080599 0.903619
O O3 0.259299 0.108260 0.927344
O O4 0.320787 0.211345 0.003327
O O5 0.792681 0.588688 0.656836
O O6 0.703940 0.759581 0.744332
O O7 0.024102 0.616258 0.687467
O O8 0.026797 0.824798 0.616038
O O9 0.302884 0.919792 0.492932
O O10 0.544665 0.851707 0.366130
O O11 0.680399 0.993805 0.416479
O O12 0.217749 0.108937 0.192340
O O13 0.134926 0.125476 0.117477
O O14 0.425979 0.889634 0.841977
O O15 0.046645 0.880489 0.932047
O O16 0.037591 0.113040 0.590955
#
# Coordination Sequence:
#
# PCOD8125235 Si02
#       8
#     4   4   4   4   4   4   4   4
#     4  10  20  37  63  92 127 164 206 257 315 373
#     4  11  25  42  64  91 127 170 210 260 317 380
#     4  10  21  39  64  95 125 161 207 263 316 365
#     4  10  21  36  60  92 123 158 208 262 312 368
#     4  10  25  42  56  92 129 172 212 254 316 382
#     4  10  21  39  64  95 125 161 207 263 316 365
#     4  11  25  42  64  91 127 170 210 260 317 380
#     4  10  20  37  63  92 127 164 206 257 315 373
#
# _framework density 20.140167000000002
#
# number of rings (size 3 to 8) (size 9 to 14) (size 15 to 20)
#    0.000    1.750    2.500    0.750    1.750    8.000 
#    0.000    7.500    0.000    0.000    0.000    0.000 
#    0.000    0.000    0.000    0.000    0.000    0.000 
#
# Total GULP energy -396543.162738 kJ/mol
# GULP energy per Si atom -12391.973836 kJ/mol
# Density = 2.009433 g / cm^3
# Si number density = 20.140167 Si / 1000 Ang^3
#
#
#
# Elastic Constant Matrix: (Units=GPa)
#
#
# Indices 1 2 3 4 5 6 
#
# 1 76.3931 24.2513 4.9363 0.0000 -5.4194 0.0000
# 2 24.2513 103.7656 27.6943 0.0000 -7.4737 0.0000
# 3 4.9363 27.6943 75.8193 0.0000 -4.1254 0.0000
# 4 0.0000 0.0000 0.0000 24.8377 0.0000 -2.3458
# 5 -5.4194 -7.4737 -4.1254 0.0000 9.4043 0.0000
# 6 0.0000 0.0000 0.0000 -2.3458 0.0000 21.6150
#
#
#
# Elastic Compliance Matrix: (Units=1/GPa)
#
#
# Indices 1 2 3 4 5 6 
#
# 1 0.014468 -0.003078 0.000515 0.000000 0.006117 0.000000
# 2 -0.003078 0.011794 -0.003785 0.000000 0.005939 0.000000
# 3 0.000515 -0.003785 0.014742 0.000000 0.003756 0.000000
# 4 0.000000 0.000000 0.000000 0.040678 0.000000 0.004415
# 5 0.006117 0.005939 0.003756 0.000000 0.116227 0.000000
# 6 0.000000 0.000000 0.000000 0.004415 0.000000 0.046743
#
#
# Mechanical properties :
#
#
# Convention : Reuss Voigt Hill
#
# Bulk Modulus (GPa) = 35.32353 41.08245 38.20299
# Shear Modulus (GPa) = 18.74166 24.44445 21.59306
#
# Velocity S-wave (km/s) = 3.05382 3.48762 3.27791
# Velocity P-wave (km/s) = 5.47826 6.05480 5.77373
#
# Compressibility (1/GPa) = 0.02830974
#
# Stress axis : x y z
#
# Youngs Moduli (GPa) = 69.11778 84.78625 67.83129
#
# Poissons Ratio (x) = 0.26100 -0.03495
# Poissons Ratio (y) = 0.21277 0.25671
# Poissons Ratio (z) = -0.03561 0.32088
#
# Static dielectric constant tensor:
#      x y z
#    x 3.799550 0.000000 -0.078980 
#    y 0.000000 4.247930 0.000000 
#    z -0.078980 0.000000 3.390630 
# 
# 
# High freq. dielectric constant tensor:
#      x y z
#    x 1.790960 0.000000 -0.003600 
#    y 0.000000 1.806420 0.000000 
#    z -0.003600 0.000000 1.768280 
# 
# From -- ./inp_files/64808.got.cif
#   From: 2010.03.12/outbox.cif.g09.slc.cpg/sg14_33_cif.got.tgz:64808.got - 2010.03.31 13:35:05.
