data_PCOD8125830
_publ_section_title
;
Structure prediction by ZEFSAII (Michael W. Deem and Ramdas Pophale) SiO2 
 PCOD8125830
Probable space group: P 21/C
;
_chemical_formula_sum "Si O2"
_cell_formula_units_Z 32
_cell_length_a 10.159812
_cell_length_b 13.256461
_cell_length_c 20.790291
_cell_angle_alpha 90.000000
_cell_angle_beta 39.523581
_cell_angle_gamma 90.000000
_cell_volume 1781.972932
_symmetry_space_group_name_H-M "P 21/C"
_symmetry_group_IT_number 14
_symmetry_cell_setting 'monoclinic'
loop_
_space_group_symop_operation_xyz
x,y,z
-x,1/2+y,1/2-z
-x,-y,-z
x,1/2-y,1/2+z
loop_
_atom_site_type_symbol
_atom_site_label
_atom_site_fract_x
_atom_site_fract_y
_atom_site_fract_z
Si Si1 0.481392 0.381050 0.433826
Si Si2 0.867281 0.756759 0.488606
Si Si3 0.451782 0.115852 0.321377
Si Si4 0.132719 0.756759 0.511394
Si Si5 0.261465 0.295406 0.769151
Si Si6 0.518607 0.118950 0.066174
Si Si7 0.548218 0.115852 0.678623
Si Si8 0.738535 0.204594 0.730849
O O1 0.276688 0.334957 0.478874
O O2 0.461928 0.500000 0.436361
O O3 0.500000 0.344175 0.500000
O O4 0.688135 0.342435 0.319454
O O5 0.728779 0.852428 0.561050
O O6 1.000000 0.719059 0.500000
O O7 0.015870 0.792500 0.374435
O O8 0.376609 0.133464 0.277113
O O9 0.656990 0.180748 0.256919
O O10 0.508644 0.000000 0.311099
O O11 0.276689 0.665043 0.478873
O O12 0.271221 0.852428 0.438950
O O13 0.984130 0.792500 0.625565
O O14 0.311864 0.342435 0.680546
O O15 0.343010 0.180748 0.743080
O O16 0.623390 0.133464 0.722887
#
# Coordination Sequence:
#
# PCOD8125830 Si02
#       8
#     4   4   4   4   4   4   4   4
#     4  10  21  35  50  71 100 132 164 198 239 289
#     4   9  19  33  51  76  98 123 162 203 244 287
#     4   9  17  30  49  75 102 125 157 202 247 288
#     4   9  19  33  51  76  98 123 162 203 244 287
#     4   9  18  31  49  72  99 130 160 198 244 285
#     4  10  21  35  50  71 100 132 164 198 239 289
#     4   9  17  30  49  75 102 125 157 202 247 288
#     4   9  18  31  49  72  99 130 160 198 244 285
#
# _framework density 17.957625
#
# number of rings (size 3 to 8) (size 9 to 14) (size 15 to 20)
#    0.000    2.750    0.000    2.250    0.000    8.000 
#    0.000    0.000    0.000   12.000    0.000    0.000 
#    0.000    0.000    0.000    0.000    0.000    0.000 
#
# Total GULP energy -396799.097321 kJ/mol
# GULP energy per Si atom -12399.971791 kJ/mol
# Density = 1.791675 g / cm^3
# Si number density = 17.957625 Si / 1000 Ang^3
#
#
#
# Elastic Constant Matrix: (Units=GPa)
#
#
# Indices 1 2 3 4 5 6 
#
# 1 40.3887 23.2648 24.7880 0.0000 9.0301 0.0000
# 2 23.2648 106.0137 30.7792 0.0000 12.7520 0.0000
# 3 24.7880 30.7792 144.1968 0.0000 18.1985 0.0000
# 4 0.0000 0.0000 0.0000 18.6508 0.0000 2.5596
# 5 9.0301 12.7520 18.1985 0.0000 19.5003 0.0000
# 6 0.0000 0.0000 0.0000 2.5596 0.0000 17.0049
#
#
#
# Elastic Compliance Matrix: (Units=1/GPa)
#
#
# Indices 1 2 3 4 5 6 
#
# 1 0.031493 -0.004957 -0.003315 0.000000 -0.008249 0.000000
# 2 -0.004957 0.011321 -0.001043 0.000000 -0.004135 0.000000
# 3 -0.003315 -0.001043 0.008442 0.000000 -0.005662 0.000000
# 4 0.000000 0.000000 0.000000 0.054748 0.000000 -0.008241
# 5 -0.008249 -0.004135 -0.005662 0.000000 0.063089 0.000000
# 6 0.000000 0.000000 0.000000 -0.008241 0.000000 0.060047
#
#
# Mechanical properties :
#
#
# Convention : Reuss Voigt Hill
#
# Bulk Modulus (GPa) = 30.64866 49.80701 40.22783
# Shear Modulus (GPa) = 19.33168 25.14901 22.24034
#
# Velocity S-wave (km/s) = 3.28459 3.74634 3.52304
# Velocity P-wave (km/s) = 5.61150 6.81978 6.24494
#
# Compressibility (1/GPa) = 0.03262786
#
# Stress axis : x y z
#
# Youngs Moduli (GPa) = 31.75289 88.33531 118.45763
#
# Poissons Ratio (x) = 0.43784 0.39266
# Poissons Ratio (y) = 0.15739 0.12349
# Poissons Ratio (z) = 0.10525 0.09209
#
# Static dielectric constant tensor:
#      x y z
#    x 3.046020 0.000000 0.056890 
#    y 0.000000 3.084480 0.000000 
#    z 0.056890 0.000000 3.719690 
# 
# 
# High freq. dielectric constant tensor:
#      x y z
#    x 1.657100 0.000000 -0.001140 
#    y 0.000000 1.685340 0.000000 
#    z -0.001140 0.000000 1.718320 
# 
# From -- ./inp_files/67242.got.cif
#   From: 2010.03.12/outbox.cif.g09.slc.cpg/sg14_34_cif.got.tgz:67242.got - 2010.03.31 13:35:05.
