data_PCOD8125213
_publ_section_title
;
Structure prediction by ZEFSAII (Michael W. Deem and Ramdas Pophale) SiO2 
 PCOD8125213
Probable space group: P 21/C
;
_chemical_formula_sum "Si O2"
_cell_formula_units_Z 32
_cell_length_a 26.181717
_cell_length_b 11.146245
_cell_length_c 14.377608
_cell_angle_alpha 90.000000
_cell_angle_beta 21.742816
_cell_angle_gamma 90.000000
_cell_volume 1554.291127
_symmetry_space_group_name_H-M "P 21/C"
_symmetry_group_IT_number 14
_symmetry_cell_setting 'monoclinic'
loop_
_space_group_symop_operation_xyz
x,y,z
-x,1/2+y,1/2-z
-x,-y,-z
x,1/2-y,1/2+z
loop_
_atom_site_type_symbol
_atom_site_label
_atom_site_fract_x
_atom_site_fract_y
_atom_site_fract_z
Si Si1 0.394457 0.123622 0.755155
Si Si2 0.398397 0.340036 0.626308
Si Si3 0.319055 0.934237 0.377757
Si Si4 0.013202 0.833719 0.275433
Si Si5 0.690243 0.075744 0.233823
Si Si6 0.038845 0.927853 0.752615
Si Si7 0.255887 0.315929 0.674082
Si Si8 0.764786 0.548575 0.795835
O O1 0.337044 0.222603 0.780413
O O2 0.558066 0.152565 0.492502
O O3 0.364233 0.994187 0.763763
O O4 0.316886 0.112687 0.984386
O O5 0.563432 0.331558 0.327526
O O6 0.374300 0.444823 0.739746
O O7 0.320148 0.362739 0.662048
O O8 0.183896 0.893610 0.552350
O O9 0.289760 0.955271 0.536337
O O10 0.910578 0.835576 0.538544
O O11 0.000131 0.694496 0.257474
O O12 0.958548 0.943770 0.304250
O O13 0.174566 0.850442 0.026653
O O14 0.730038 0.989192 0.250277
O O15 0.930788 0.942401 0.019878
O O16 0.300690 0.179146 0.578289
#
# Coordination Sequence:
#
# PCOD8125213 Si02
#       8
#     4   4   4   4   4   4   4   4
#     4  11  22  39  64  84 122 164 204 258 316 375
#     4  11  22  36  59  88 122 160 203 262 310 371
#     4  11  21  36  60  91 121 158 210 255 310 371
#     4  10  22  40  65  92 127 167 208 264 307 375
#     4  10  22  40  61  88 122 162 206 255 317 368
#     4  10  21  39  65  90 128 163 211 257 318 368
#     4  11  21  39  61  89 121 162 209 253 315 374
#     4  10  20  37  62  89 118 163 209 254 310 380
#
# _framework density 20.588165
#
# number of rings (size 3 to 8) (size 9 to 14) (size 15 to 20)
#    0.000    1.500    3.750    1.875    0.000    0.500 
#    0.000    0.000   13.750    0.000    0.000    0.000 
#    0.000    0.000    0.000    0.000    0.000    0.000 
#
# Total GULP energy -396418.228510 kJ/mol
# GULP energy per Si atom -12388.069641 kJ/mol
# Density = 2.054131 g / cm^3
# Si number density = 20.588165 Si / 1000 Ang^3
#
#
#
# Elastic Constant Matrix: (Units=GPa)
#
#
# Indices 1 2 3 4 5 6 
#
# 1 71.7970 13.9201 45.1051 0.0000 9.2683 0.0000
# 2 13.9201 71.9833 13.1014 0.0000 12.0099 0.0000
# 3 45.1051 13.1014 136.5659 0.0000 7.1116 0.0000
# 4 0.0000 0.0000 0.0000 26.8476 0.0000 3.6338
# 5 9.2683 12.0099 7.1116 0.0000 30.9500 0.0000
# 6 0.0000 0.0000 0.0000 3.6338 0.0000 23.0001
#
#
#
# Elastic Compliance Matrix: (Units=1/GPa)
#
#
# Indices 1 2 3 4 5 6 
#
# 1 0.018318 -0.001936 -0.005686 0.000000 -0.003428 0.000000
# 2 -0.001936 0.015235 -0.000551 0.000000 -0.005206 0.000000
# 3 -0.005686 -0.000551 0.009264 0.000000 -0.000212 0.000000
# 4 0.000000 0.000000 0.000000 0.038061 0.000000 -0.006013
# 5 -0.003428 -0.005206 -0.000212 0.000000 0.035405 0.000000
# 6 0.000000 0.000000 0.000000 -0.006013 0.000000 0.044428
#
#
# Mechanical properties :
#
#
# Convention : Reuss Voigt Hill
#
# Bulk Modulus (GPa) = 37.77535 47.17771 42.47653
# Shear Modulus (GPa) = 26.89881 30.04084 28.46983
#
# Velocity S-wave (km/s) = 3.61850 3.82400 3.72267
# Velocity P-wave (km/s) = 5.98715 6.51629 6.25732
#
# Compressibility (1/GPa) = 0.02647229
#
# Stress axis : x y z
#
# Youngs Moduli (GPa) = 54.59111 65.63721 107.94070
#
# Poissons Ratio (x) = 0.12704 0.61374
# Poissons Ratio (y) = 0.10566 0.05950
# Poissons Ratio (z) = 0.31040 0.03618
#
# Static dielectric constant tensor:
#      x y z
#    x 3.361200 0.000000 -0.119560 
#    y 0.000000 3.692850 0.000000 
#    z -0.119560 0.000000 4.246200 
# 
# 
# High freq. dielectric constant tensor:
#      x y z
#    x 1.775050 0.000000 -0.005740 
#    y 0.000000 1.802300 0.000000 
#    z -0.005740 0.000000 1.828560 
# 
# From -- ./inp_files/52046.got.cif
#   From: 2010.03.12/outbox.cif.g09.slc.cpg/sg14_27_cif.got.tgz:52046.got - 2010.03.31 13:35:05.
