data_PCOD8125968
_publ_section_title
;
Structure prediction by ZEFSAII (Michael W. Deem and Ramdas Pophale) SiO2 
 PCOD8125968
Probable space group: P 21/C
;
_chemical_formula_sum "Si O2"
_cell_formula_units_Z 20
_cell_length_a 7.716517
_cell_length_b 10.231220
_cell_length_c 23.533838
_cell_angle_alpha 90.000000
_cell_angle_beta 34.488412
_cell_angle_gamma 90.000000
_cell_volume 1052.062881
_symmetry_space_group_name_H-M "P 21/C"
_symmetry_group_IT_number 14
_symmetry_cell_setting 'monoclinic'
loop_
_space_group_symop_operation_xyz
x,y,z
-x,1/2+y,1/2-z
-x,-y,-z
x,1/2-y,1/2+z
loop_
_atom_site_type_symbol
_atom_site_label
_atom_site_fract_x
_atom_site_fract_y
_atom_site_fract_z
Si Si1 0.120483 0.057848 0.329684
Si Si2 0.546604 0.435168 0.814989
Si Si3 0.563915 0.177959 0.432513
Si Si4 0.023937 0.220581 0.658481
Si Si5 0.165942 0.207596 0.744124
O O1 0.233877 0.075465 0.363586
O O2 0.293216 0.161937 0.241585
O O3 0.751561 0.082392 0.425418
O O4 0.179781 0.911106 0.291496
O O5 0.475348 0.400277 0.899203
O O6 0.673788 0.581255 0.773787
O O7 0.798669 0.342708 0.718267
O O8 0.255897 0.233273 0.542938
O O9 0.794358 0.297425 0.353851
O O10 0.228295 0.219605 0.660276
#
# Coordination Sequence:
#
# PCOD8125968 Si02
#       5
#     4   4   4   4   4
#     4  10  21  37  57  83 112 140 190 226 270 329
#     4  11  21  37  57  83 114 146 181 231 275 323
#     4   9  22  37  57  84 111 143 191 221 274 328
#     4  11  19  39  62  77 115 149 181 228 275 325
#     4   9  20  37  57  80 112 144 182 228 276 320
#
# _framework density 19.010270999999999
#
# number of rings (size 3 to 8) (size 9 to 14) (size 15 to 20)
#    1.200    0.800    2.000    1.800    0.000    1.600 
#    3.600    0.000    0.000    4.800    0.000    0.000 
#    0.000    0.000    0.000    0.000    0.000    0.000 
#
# Total GULP energy -247846.693661 kJ/mol
# GULP energy per Si atom -12392.334683 kJ/mol
# Density = 1.896700 g / cm^3
# Si number density = 19.010271 Si / 1000 Ang^3
#
#
#
# Elastic Constant Matrix: (Units=GPa)
#
#
# Indices 1 2 3 4 5 6 
#
# 1 151.5571 21.1286 34.3032 0.0000 20.6075 0.0000
# 2 21.1286 55.0952 36.5788 0.0000 11.7750 0.0000
# 3 34.3032 36.5788 89.2884 0.0000 13.3390 0.0000
# 4 0.0000 0.0000 0.0000 12.3544 0.0000 6.2832
# 5 20.6075 11.7750 13.3390 0.0000 14.7431 0.0000
# 6 0.0000 0.0000 0.0000 6.2832 0.0000 20.4233
#
#
#
# Elastic Compliance Matrix: (Units=1/GPa)
#
#
# Indices 1 2 3 4 5 6 
#
# 1 0.008363 0.000133 -0.001740 0.000000 -0.010221 0.000000
# 2 0.000133 0.027039 -0.009105 0.000000 -0.013543 0.000000
# 3 -0.001740 -0.009105 0.016360 0.000000 -0.005097 0.000000
# 4 0.000000 0.000000 0.000000 0.095957 0.000000 -0.029521
# 5 -0.010221 -0.013543 -0.005097 0.000000 0.097544 0.000000
# 6 0.000000 0.000000 0.000000 -0.029521 0.000000 0.058046
#
#
# Mechanical properties :
#
#
# Convention : Reuss Voigt Hill
#
# Bulk Modulus (GPa) = 32.96301 53.32910 43.14605
# Shear Modulus (GPa) = 14.93225 23.09950 19.01587
#
# Velocity S-wave (km/s) = 2.80569 3.48962 3.16617
# Velocity P-wave (km/s) = 5.27950 6.65960 6.00930
#
# Compressibility (1/GPa) = 0.03033704
#
# Stress axis : x y z
#
# Youngs Moduli (GPa) = 119.56817 36.98389 61.12558
#
# Poissons Ratio (x) = -0.00491 0.10639
# Poissons Ratio (y) = -0.01587 0.55653
# Poissons Ratio (z) = 0.20811 0.33673
#
# Static dielectric constant tensor:
#      x y z
#    x 3.468080 0.000000 0.146360 
#    y 0.000000 3.458670 0.000000 
#    z 0.146360 0.000000 3.077630 
# 
# 
# High freq. dielectric constant tensor:
#      x y z
#    x 1.744760 0.000000 0.015620 
#    y 0.000000 1.737730 0.000000 
#    z 0.015620 0.000000 1.709420 
# 
# From -- ./inp_files/23076.got.cif
#   From: 2010.03.12/outbox.cif.g09.slc.cpg/sg14_12_cif.got.tgz:23076.got - 2010.03.31 13:35:05.
