data_PCOD8125203
_publ_section_title
;
Structure prediction by ZEFSAII (Michael W. Deem and Ramdas Pophale) SiO2 
 PCOD8125203
Probable space group: P 21/C
;
_chemical_formula_sum "Si O2"
_cell_formula_units_Z 28
_cell_length_a 10.188723
_cell_length_b 4.946619
_cell_length_c 26.801629
_cell_angle_alpha 90.000000
_cell_angle_beta 83.659330
_cell_angle_gamma 90.000000
_cell_volume 1342.531821
_symmetry_space_group_name_H-M "P 21/C"
_symmetry_group_IT_number 14
_symmetry_cell_setting 'monoclinic'
loop_
_space_group_symop_operation_xyz
x,y,z
-x,1/2+y,1/2-z
-x,-y,-z
x,1/2-y,1/2+z
loop_
_atom_site_type_symbol
_atom_site_label
_atom_site_fract_x
_atom_site_fract_y
_atom_site_fract_z
Si Si1 0.912301 0.957366 0.455005
Si Si2 0.040210 0.865888 0.777050
Si Si3 0.912826 0.469682 0.385349
Si Si4 0.617843 0.607891 0.962013
Si Si5 0.669234 0.229198 0.721647
Si Si6 0.458724 0.222034 0.814046
Si Si7 0.618853 0.391842 0.399356
O O1 0.954018 0.685209 0.425367
O O2 0.761566 0.924146 0.481880
O O3 0.935182 0.185916 0.412125
O O4 0.000000 0.000000 0.500000
O O5 0.055275 0.125658 0.739525
O O6 0.998936 0.985502 0.832376
O O7 0.176448 0.697312 0.774770
O O8 0.760625 0.496029 0.373454
O O9 0.628797 0.422157 0.912785
O O10 0.583223 0.915053 0.947718
O O11 0.500000 0.500000 0.000000
O O12 0.592282 0.198902 0.776640
O O13 0.654785 0.530017 0.701715
O O14 0.607601 0.018279 0.684050
O O15 0.499148 0.103837 0.865710
#
# Coordination Sequence:
#
# PCOD8125203 Si02
#       7
#     4   4   4   4   4   4   4
#     4  10  21  41  63  86 120 165 196 253 315 356
#     4  12  24  40  62  90 125 162 202 250 302 347
#     4  10  22  39  62  91 119 155 211 241 289 385
#     4  10  21  38  58  88 117 143 203 248 293 365
#     4  10  22  37  57  85 123 153 197 247 282 358
#     4  10  20  38  58  83 117 158 196 236 302 345
#     4  10  20  37  62  83 113 155 193 238 298 351
#
# _framework density 20.856116
#
# number of rings (size 3 to 8) (size 9 to 14) (size 15 to 20)
#    0.000    1.714    0.000    4.286    0.000    4.571 
#    7.714    0.000    0.000    0.000    0.000    0.000 
#    0.000    0.000    0.000    0.000    0.000    0.000 
#
# Total GULP energy -347039.493596 kJ/mol
# GULP energy per Si atom -12394.267628 kJ/mol
# Density = 2.080865 g / cm^3
# Si number density = 20.856116 Si / 1000 Ang^3
#
#
#
# Elastic Constant Matrix: (Units=GPa)
#
#
# Indices 1 2 3 4 5 6 
#
# 1 100.3720 21.9953 50.9638 0.0000 4.4396 0.0000
# 2 21.9953 92.8613 19.1205 0.0000 1.3483 0.0000
# 3 50.9638 19.1205 78.5942 0.0000 7.2973 0.0000
# 4 0.0000 0.0000 0.0000 24.6811 0.0000 -1.5330
# 5 4.4396 1.3483 7.2973 0.0000 30.8120 0.0000
# 6 0.0000 0.0000 0.0000 -1.5330 0.0000 19.3567
#
#
#
# Elastic Compliance Matrix: (Units=1/GPa)
#
#
# Indices 1 2 3 4 5 6 
#
# 1 0.015088 -0.001641 -0.009396 0.000000 0.000123 0.000000
# 2 -0.001641 0.011516 -0.001751 0.000000 0.000147 0.000000
# 3 -0.009396 -0.001751 0.019539 0.000000 -0.003197 0.000000
# 4 0.000000 0.000000 0.000000 0.040717 0.000000 0.003225
# 5 0.000123 0.000147 -0.003197 0.000000 0.033188 0.000000
# 6 0.000000 0.000000 0.000000 0.003225 0.000000 0.051917
#
#
# Mechanical properties :
#
#
# Convention : Reuss Voigt Hill
#
# Bulk Modulus (GPa) = 48.62183 50.66522 49.64353
# Shear Modulus (GPa) = 24.46228 26.95315 25.70772
#
# Velocity S-wave (km/s) = 3.42849 3.59881 3.51468
# Velocity P-wave (km/s) = 6.24790 6.45090 6.35021
#
# Compressibility (1/GPa) = 0.02056689
#
# Stress axis : x y z
#
# Youngs Moduli (GPa) = 66.27881 86.83677 51.17942
#
# Poissons Ratio (x) = 0.14249 0.48087
# Poissons Ratio (y) = 0.10876 0.08963
# Poissons Ratio (z) = 0.62274 0.15207
#
# Static dielectric constant tensor:
#      x y z
#    x 3.745490 0.000000 0.010210 
#    y 0.000000 4.117170 0.000000 
#    z 0.010210 0.000000 3.438190 
# 
# 
# High freq. dielectric constant tensor:
#      x y z
#    x 1.813790 0.000000 0.007630 
#    y 0.000000 1.839910 0.000000 
#    z 0.007630 0.000000 1.794260 
# 
# From -- ./inp_files/70053.got.cif
#   From: 2010.03.12/outbox.cif.g09.slc.cpg/sg14_36_cif.got.tgz:70053.got - 2010.03.31 13:35:05.
