data_PCOD8125487
_publ_section_title
;
Structure prediction by ZEFSAII (Michael W. Deem and Ramdas Pophale) SiO2 
 PCOD8125487
Probable space group: P 21/C
;
_chemical_formula_sum "Si O2"
_cell_formula_units_Z 32
_cell_length_a 8.212416
_cell_length_b 12.713797
_cell_length_c 13.844077
_cell_angle_alpha 90.000000
_cell_angle_beta 89.687593
_cell_angle_gamma 90.000000
_cell_volume 1445.452297
_symmetry_space_group_name_H-M "P 21/C"
_symmetry_group_IT_number 14
_symmetry_cell_setting 'monoclinic'
loop_
_space_group_symop_operation_xyz
x,y,z
-x,1/2+y,1/2-z
-x,-y,-z
x,1/2-y,1/2+z
loop_
_atom_site_type_symbol
_atom_site_label
_atom_site_fract_x
_atom_site_fract_y
_atom_site_fract_z
Si Si1 0.425481 0.010756 0.324977
Si Si2 0.742925 0.599112 0.352324
Si Si3 0.671881 0.317394 0.816063
Si Si4 0.736161 0.239314 0.014140
Si Si5 0.095911 0.560477 0.915495
Si Si6 0.475049 0.211257 0.652939
Si Si7 0.072330 0.522093 0.263657
Si Si8 0.178453 0.503182 0.459814
O O1 0.270147 0.995952 0.395639
O O2 0.552323 0.912519 0.327967
O O3 0.374151 0.027053 0.213325
O O4 0.524464 0.112422 0.359965
O O5 0.691275 0.721926 0.340629
O O6 0.713595 0.564515 0.464918
O O7 0.926686 0.586037 0.316371
O O8 0.737669 0.239594 0.898192
O O9 0.614540 0.247919 0.727133
O O10 0.819861 0.391262 0.787554
O O11 0.875177 0.318763 0.054175
O O12 0.556629 0.274213 0.048214
O O13 0.764559 0.122545 0.050655
O O14 0.992508 0.559601 0.816335
O O15 0.000000 0.500000 0.000000
O O16 0.173660 0.460239 0.348388
O O17 0.000000 0.500000 0.500000
#
# Coordination Sequence:
#
# PCOD8125487 Si02
#       8
#     4   4   4   4   4   4   4   4
#     4   9  21  39  62  94 126 161 206 258 307 363
#     4   9  20  40  66  86 127 163 206 258 301 372
#     4  11  21  40  65  90 125 164 203 259 305 372
#     4  11  22  38  66  89 121 167 204 250 319 369
#     4  10  20  39  63  89 124 164 201 255 310 367
#     4  10  21  40  61  93 125 163 206 252 304 369
#     4  10  20  41  61  88 121 162 203 253 311 355
#     4  10  21  41  61  89 123 161 208 254 306 366
#
# _framework density 22.138397000000001
#
# number of rings (size 3 to 8) (size 9 to 14) (size 15 to 20)
#    0.000    2.000    2.500    0.750    0.000    3.500 
#    6.750    0.000    0.000    0.000    0.000    0.000 
#    0.000    0.000    0.000    0.000    0.000    0.000 
#
# Total GULP energy -396636.326910 kJ/mol
# GULP energy per Si atom -12394.885216 kJ/mol
# Density = 2.208801 g / cm^3
# Si number density = 22.138397 Si / 1000 Ang^3
#
#
#
# Elastic Constant Matrix: (Units=GPa)
#
#
# Indices 1 2 3 4 5 6 
#
# 1 51.5123 12.8496 28.4976 0.0000 5.4686 0.0000
# 2 12.8496 54.7769 14.8284 0.0000 5.3479 0.0000
# 3 28.4976 14.8284 132.6697 0.0000 14.7626 0.0000
# 4 0.0000 0.0000 0.0000 29.3767 0.0000 -1.6048
# 5 5.4686 5.3479 14.7626 0.0000 27.2680 0.0000
# 6 0.0000 0.0000 0.0000 -1.6048 0.0000 28.8616
#
#
#
# Elastic Compliance Matrix: (Units=1/GPa)
#
#
# Indices 1 2 3 4 5 6 
#
# 1 0.022973 -0.004077 -0.004315 0.000000 -0.001471 0.000000
# 2 -0.004077 0.019740 -0.001054 0.000000 -0.002483 0.000000
# 3 -0.004315 -0.001054 0.009005 0.000000 -0.003803 0.000000
# 4 0.000000 0.000000 0.000000 0.034144 0.000000 0.001899
# 5 -0.001471 -0.002483 -0.003803 0.000000 0.039514 0.000000
# 6 0.000000 0.000000 0.000000 0.001899 0.000000 0.034754
#
#
# Mechanical properties :
#
#
# Convention : Reuss Voigt Hill
#
# Bulk Modulus (GPa) = 30.46419 39.03445 34.74932
# Shear Modulus (GPa) = 26.32042 29.28681 27.80361
#
# Velocity S-wave (km/s) = 3.45179 3.64111 3.54771
# Velocity P-wave (km/s) = 5.44767 5.94535 5.70194
#
# Compressibility (1/GPa) = 0.03282542
#
# Stress axis : x y z
#
# Youngs Moduli (GPa) = 43.52858 50.65825 111.04358
#
# Poissons Ratio (x) = 0.20655 0.47918
# Poissons Ratio (y) = 0.17748 0.11707
# Poissons Ratio (z) = 0.18784 0.05341
#
# Static dielectric constant tensor:
#      x y z
#    x 3.918400 0.000000 0.240420 
#    y 0.000000 3.822980 0.000000 
#    z 0.240420 0.000000 4.526070 
# 
# 
# High freq. dielectric constant tensor:
#      x y z
#    x 1.863120 0.000000 0.005300 
#    y 0.000000 1.851380 0.000000 
#    z 0.005300 0.000000 1.888300 
# 
# From -- ./inp_files/40081.got.cif
#   From: 2010.03.12/outbox.cif.g09.slc.cpg/sg14_21_cif.got.tgz:40081.got - 2010.03.31 13:35:05.
