data_PCOD8125424
_publ_section_title
;
Structure prediction by ZEFSAII (Michael W. Deem and Ramdas Pophale) SiO2 
 PCOD8125424
Probable space group: P 21/C
;
_chemical_formula_sum "Si O2"
_cell_formula_units_Z 28
_cell_length_a 7.755714
_cell_length_b 26.200386
_cell_length_c 12.819028
_cell_angle_alpha 90.000000
_cell_angle_beta 31.994320
_cell_angle_gamma 90.000000
_cell_volume 1380.147081
_symmetry_space_group_name_H-M "P 21/C"
_symmetry_group_IT_number 14
_symmetry_cell_setting 'monoclinic'
loop_
_space_group_symop_operation_xyz
x,y,z
-x,1/2+y,1/2-z
-x,-y,-z
x,1/2-y,1/2+z
loop_
_atom_site_type_symbol
_atom_site_label
_atom_site_fract_x
_atom_site_fract_y
_atom_site_fract_z
Si Si1 0.709039 0.082528 0.288405
Si Si2 0.425404 0.693597 0.159742
Si Si3 0.135431 0.499999 0.646259
Si Si4 0.709048 0.917474 0.288395
Si Si5 0.719429 0.500001 0.062487
Si Si6 0.425376 0.193596 0.659766
Si Si7 0.000014 0.727612 0.999988
O O1 0.765216 0.140252 0.221029
O O2 0.499996 0.087104 0.500005
O O3 0.502061 0.050329 0.309624
O O4 0.054695 0.052447 0.124853
O O5 0.500019 0.703001 0.999986
O O6 0.758329 0.692342 0.056340
O O7 0.194858 0.738605 0.316759
O O8 0.500000 0.500000 0.500000
O O9 0.054700 0.552445 0.624847
O O10 0.867972 0.500000 0.872439
O O11 0.765232 0.859751 0.221012
O O12 0.502069 0.949673 0.309617
O O13 0.000000 0.500000 0.000000
O O14 0.758306 0.192343 0.556358
O O15 0.194820 0.238603 0.816791
#
# Coordination Sequence:
#
# PCOD8125424 Si02
#       7
#     4   4   4   4   4   4   4
#     4   8  17  34  54  72 107 144 175 212 273 337
#     4  10  20  39  58  81 114 149 183 235 285 323
#     4   9  17  35  52  78 108 137 177 219 270 330
#     4   8  17  34  54  72 107 144 175 212 273 337
#     4   9  17  31  52  78 102 137 173 213 264 333
#     4  10  20  39  58  81 114 149 183 235 285 323
#     4  10  22  36  58  86 110 144 198 232 272 344
#
# _framework density 20.287693999999998
#
# number of rings (size 3 to 8) (size 9 to 14) (size 15 to 20)
#    0.000    2.857    0.000    2.571    2.000    0.000 
#    5.143    8.571    0.000    0.000    0.000    0.000 
#    0.000    0.000    0.000    0.000    0.000    0.000 
#
# Total GULP energy -346948.525871 kJ/mol
# GULP energy per Si atom -12391.018781 kJ/mol
# Density = 2.024152 g / cm^3
# Si number density = 20.287694 Si / 1000 Ang^3
#
#
#
# Elastic Constant Matrix: (Units=GPa)
#
#
# Indices 1 2 3 4 5 6 
#
# 1 136.9396 63.5236 32.0423 0.0000 -30.3295 0.0000
# 2 63.5236 129.9723 23.8376 0.0000 -13.8915 0.0000
# 3 32.0423 23.8376 59.2544 0.0000 -10.7912 0.0000
# 4 0.0000 0.0000 0.0000 6.0599 0.0000 -6.9387
# 5 -30.3295 -13.8915 -10.7912 0.0000 43.5367 0.0000
# 6 0.0000 0.0000 0.0000 -6.9387 0.0000 20.8563
#
#
#
# Elastic Compliance Matrix: (Units=1/GPa)
#
#
# Indices 1 2 3 4 5 6 
#
# 1 0.011358 -0.004325 -0.003364 0.000000 0.005699 0.000000
# 2 -0.004325 0.010108 -0.001769 0.000000 -0.000226 0.000000
# 3 -0.003364 -0.001769 0.019770 0.000000 0.001992 0.000000
# 4 0.000000 0.000000 0.000000 0.266561 0.000000 0.088682
# 5 0.005699 -0.000226 0.001992 0.000000 0.027361 0.000000
# 6 0.000000 0.000000 0.000000 0.088682 0.000000 0.077451
#
#
# Mechanical properties :
#
#
# Convention : Reuss Voigt Hill
#
# Bulk Modulus (GPa) = 44.80293 62.77482 53.78888
# Shear Modulus (GPa) = 11.39044 27.87478 19.63261
#
# Velocity S-wave (km/s) = 2.37206 3.71074 3.11418
# Velocity P-wave (km/s) = 5.44371 7.02630 6.28502
#
# Compressibility (1/GPa) = 0.02231997
#
# Stress axis : x y z
#
# Youngs Moduli (GPa) = 88.04217 98.93072 50.58169
#
# Poissons Ratio (x) = 0.42789 0.17017
# Poissons Ratio (y) = 0.38080 0.08947
# Poissons Ratio (z) = 0.29619 0.17498
#
# Static dielectric constant tensor:
#      x y z
#    x 3.500580 0.000000 -0.068660 
#    y 0.000000 3.941790 0.000000 
#    z -0.068660 0.000000 3.448040 
# 
# 
# High freq. dielectric constant tensor:
#      x y z
#    x 1.795110 0.000000 -0.002790 
#    y 0.000000 1.794330 0.000000 
#    z -0.002790 0.000000 1.777740 
# 
# From -- ./inp_files/42169.got.cif
#   From: 2010.03.12/outbox.cif.g09.slc.cpg/sg14_22_cif.got.tgz:42169.got - 2010.03.31 13:35:05.
