data_PCOD8125194
_publ_section_title
;
Structure prediction by ZEFSAII (Michael W. Deem and Ramdas Pophale) SiO2 
 PCOD8125194
Probable space group: P 21/C
;
_chemical_formula_sum "Si O2"
_cell_formula_units_Z 32
_cell_length_a 20.716802
_cell_length_b 13.147317
_cell_length_c 15.298046
_cell_angle_alpha 90.000000
_cell_angle_beta 19.611609
_cell_angle_gamma 90.000000
_cell_volume 1398.532874
_symmetry_space_group_name_H-M "P 21/C"
_symmetry_group_IT_number 14
_symmetry_cell_setting 'monoclinic'
loop_
_space_group_symop_operation_xyz
x,y,z
-x,1/2+y,1/2-z
-x,-y,-z
x,1/2-y,1/2+z
loop_
_atom_site_type_symbol
_atom_site_label
_atom_site_fract_x
_atom_site_fract_y
_atom_site_fract_z
Si Si1 0.477163 0.414546 0.955055
Si Si2 0.154757 0.425549 0.762442
Si Si3 0.340245 0.782605 0.213548
Si Si4 0.061653 0.947849 0.629306
Si Si5 0.551944 0.069688 0.160067
Si Si6 0.103875 0.156837 0.011877
Si Si7 0.288742 0.351015 0.849562
Si Si8 0.875138 0.216279 0.689828
O O1 0.628675 0.323071 0.775598
O O2 0.499177 0.455745 0.827879
O O3 0.500000 0.500000 0.000000
O O4 0.264799 0.370376 0.236456
O O5 0.376960 0.465838 0.482718
O O6 0.106744 0.418064 0.721731
O O7 0.000000 0.500000 0.000000
O O8 0.098366 0.321968 0.885359
O O9 0.223275 0.860270 0.422589
O O10 0.229438 0.754100 0.265928
O O11 0.536426 0.841804 0.941035
O O12 0.957465 0.943861 0.856255
O O13 0.150360 0.057868 0.495179
O O14 0.371716 0.122446 0.340815
O O15 0.742187 0.139395 0.914581
O O16 0.911384 0.187095 0.204472
O O17 0.169920 0.245459 0.996873
#
# Coordination Sequence:
#
# PCOD8125194 Si02
#       8
#     4   4   4   4   4   4   4   4
#     4  11  24  41  56  81 124 165 196 238 297 361
#     4   9  18  34  59  87 113 147 192 245 294 340
#     4   9  21  39  63  88 115 150 195 251 302 348
#     4  11  21  37  62  88 116 152 195 248 298 347
#     4  10  20  37  61  86 116 157 196 243 299 352
#     4  11  24  39  59  88 122 160 197 241 295 357
#     4  10  22  39  59  89 118 148 198 246 293 354
#     4   9  19  38  61  89 117 147 199 252 296 347
#
# _framework density 22.881121
#
# number of rings (size 3 to 8) (size 9 to 14) (size 15 to 20)
#    0.000    2.000    0.000    4.125    0.000    6.000 
#    0.000    5.000    0.000    0.000    0.000    0.000 
#    0.000    0.000    0.000    0.000    0.000    0.000 
#
# Total GULP energy -396495.018151 kJ/mol
# GULP energy per Si atom -12390.469317 kJ/mol
# Density = 2.282904 g / cm^3
# Si number density = 22.881121 Si / 1000 Ang^3
#
#
#
# Elastic Constant Matrix: (Units=GPa)
#
#
# Indices 1 2 3 4 5 6 
#
# 1 56.8971 -6.0435 24.2178 0.0000 13.5855 0.0000
# 2 -6.0435 52.8947 12.4811 0.0000 -0.6786 0.0000
# 3 24.2178 12.4811 66.1307 0.0000 4.9737 0.0000
# 4 0.0000 0.0000 0.0000 22.9561 0.0000 3.8694
# 5 13.5855 -0.6786 4.9737 0.0000 34.8611 0.0000
# 6 0.0000 0.0000 0.0000 3.8694 0.0000 32.3502
#
#
#
# Elastic Compliance Matrix: (Units=1/GPa)
#
#
# Indices 1 2 3 4 5 6 
#
# 1 0.023805 0.004747 -0.009019 0.000000 -0.007898 0.000000
# 2 0.004747 0.020763 -0.005608 0.000000 -0.000645 0.000000
# 3 -0.009019 -0.005608 0.019435 0.000000 0.000633 0.000000
# 4 0.000000 0.000000 0.000000 0.044458 0.000000 -0.005318
# 5 -0.007898 -0.000645 0.000633 0.000000 0.031660 0.000000
# 6 0.000000 0.000000 0.000000 -0.005318 0.000000 0.031548
#
#
# Mechanical properties :
#
#
# Convention : Reuss Voigt Hill
#
# Bulk Modulus (GPa) = 22.60360 26.35924 24.48142
# Shear Modulus (GPa) = 24.25094 27.71796 25.98445
#
# Velocity S-wave (km/s) = 3.25909 3.48428 3.37356
# Velocity P-wave (km/s) = 4.90534 5.26612 5.08893
#
# Compressibility (1/GPa) = 0.04424074
#
# Stress axis : x y z
#
# Youngs Moduli (GPa) = 42.00881 48.16286 51.45232
#
# Poissons Ratio (x) = -0.22861 0.46407
# Poissons Ratio (y) = -0.19940 0.28856
# Poissons Ratio (z) = 0.37889 0.27012
#
# Static dielectric constant tensor:
#      x y z
#    x 3.906960 0.000000 0.048640 
#    y 0.000000 4.039620 0.000000 
#    z 0.048640 0.000000 4.099010 
# 
# 
# High freq. dielectric constant tensor:
#      x y z
#    x 1.901970 0.000000 0.001250 
#    y 0.000000 1.883890 0.000000 
#    z 0.001250 0.000000 1.901250 
# 
# From -- ./inp_files/50675.got.cif
#   From: 2010.03.12/outbox.cif.g09.slc.cpg/sg14_26_cif.got.tgz:50675.got - 2010.03.31 13:35:05.
