data_PCOD8125719
_publ_section_title
;
Structure prediction by ZEFSAII (Michael W. Deem and Ramdas Pophale) SiO2 
 PCOD8125719
Probable space group: P 21/C
;
_chemical_formula_sum "Si O2"
_cell_formula_units_Z 20
_cell_length_a 11.591823
_cell_length_b 8.256223
_cell_length_c 9.809048
_cell_angle_alpha 90.000000
_cell_angle_beta 70.391748
_cell_angle_gamma 90.000000
_cell_volume 884.331566
_symmetry_space_group_name_H-M "P 21/C"
_symmetry_group_IT_number 14
_symmetry_cell_setting 'monoclinic'
loop_
_space_group_symop_operation_xyz
x,y,z
-x,1/2+y,1/2-z
-x,-y,-z
x,1/2-y,1/2+z
loop_
_atom_site_type_symbol
_atom_site_label
_atom_site_fract_x
_atom_site_fract_y
_atom_site_fract_z
Si Si1 0.032232 0.836454 0.164024
Si Si2 0.339944 0.098459 0.821433
Si Si3 0.895048 0.813499 0.942920
Si Si4 0.727542 0.152290 0.356176
Si Si5 0.411072 0.755600 0.836517
O O1 0.135685 0.708763 0.167617
O O2 0.924267 0.824826 0.319875
O O3 0.087120 0.015047 0.139168
O O4 0.986963 0.788889 0.032159
O O5 0.445491 0.220040 0.733466
O O6 0.268695 0.025618 0.716689
O O7 0.396539 0.945887 0.882803
O O8 0.245061 0.199013 0.951682
O O9 0.648104 0.141647 0.525266
O O10 0.659972 0.276308 0.277993
#
# Coordination Sequence:
#
# PCOD8125719 Si02
#       5
#     4   4   4   4   4
#     4  11  22  45  71  95 137 174 217 275 336 385
#     4  10  23  44  65  98 135 170 228 268 327 390
#     4  11  24  44  68 100 132 175 221 277 325 404
#     4  10  20  41  68  93 133 175 216 273 330 382
#     4  10  22  40  69  93 134 179 218 276 326 390
#
# _framework density 22.615952
#
# number of rings (size 3 to 8) (size 9 to 14) (size 15 to 20)
#    1.200    0.400    2.000    4.200    0.000    3.200 
#    7.200    0.000    0.000    0.000    0.000    0.000 
#    0.000    0.000    0.000    0.000    0.000    0.000 
#
# Total GULP energy -247942.376329 kJ/mol
# GULP energy per Si atom -12397.118816 kJ/mol
# Density = 2.256448 g / cm^3
# Si number density = 22.615952 Si / 1000 Ang^3
#
#
#
# Elastic Constant Matrix: (Units=GPa)
#
#
# Indices 1 2 3 4 5 6 
#
# 1 117.7197 39.2651 51.0176 0.0000 -23.8443 0.0000
# 2 39.2651 17.2328 18.9247 0.0000 -3.4402 0.0000
# 3 51.0176 18.9247 134.6536 0.0000 -28.5710 0.0000
# 4 0.0000 0.0000 0.0000 27.2809 0.0000 -14.4201
# 5 -23.8443 -3.4402 -28.5710 0.0000 48.6048 0.0000
# 6 0.0000 0.0000 0.0000 -14.4201 0.0000 32.6943
#
#
#
# Elastic Compliance Matrix: (Units=1/GPa)
#
#
# Indices 1 2 3 4 5 6 
#
# 1 0.043657 -0.096728 0.000166 0.000000 0.014668 0.000000
# 2 -0.096728 0.282969 -0.010214 0.000000 -0.033428 0.000000
# 3 0.000166 -0.010214 0.009897 0.000000 0.005176 0.000000
# 4 0.000000 0.000000 0.000000 0.047799 0.000000 0.021082
# 5 0.014668 -0.033428 0.005176 0.000000 0.028447 0.000000
# 6 0.000000 0.000000 0.000000 0.021082 0.000000 0.039885
#
#
# Mechanical properties :
#
#
# Convention : Reuss Voigt Hill
#
# Bulk Modulus (GPa) = 8.13196 54.22453 31.17825
# Shear Modulus (GPa) = 7.07017 32.40924 19.73970
#
# Velocity S-wave (km/s) = 1.77002 3.78964 2.95756
# Velocity P-wave (km/s) = 2.78940 6.57090 5.04765
#
# Compressibility (1/GPa) = 0.12297153
#
# Stress axis : x y z
#
# Youngs Moduli (GPa) = 22.90564 3.53396 101.03640
#
# Poissons Ratio (x) = 0.34183 -0.01677
# Poissons Ratio (y) = 2.21562 1.03197
# Poissons Ratio (z) = -0.00380 0.03610
#
# Static dielectric constant tensor:
#      x y z
#    x 3.941430 0.000000 -0.075960 
#    y 0.000000 3.669550 0.000000 
#    z -0.075960 0.000000 4.159000 
# 
# 
# High freq. dielectric constant tensor:
#      x y z
#    x 1.895970 0.000000 -0.009940 
#    y 0.000000 1.861870 0.000000 
#    z -0.009940 0.000000 1.901010 
# 
# From -- ./inp_files/12043.got.cif
#   From: 2010.03.12/outbox.cif.g09.slc.cpg/sg14_7_cif.got.tgz:12043.got - 2010.03.31 13:35:05.
