data_PCOD8125762
_publ_section_title
;
Structure prediction by ZEFSAII (Michael W. Deem and Ramdas Pophale) SiO2 
 PCOD8125762
Probable space group: P 21/C
;
_chemical_formula_sum "Si O2"
_cell_formula_units_Z 28
_cell_length_a 8.970389
_cell_length_b 8.397865
_cell_length_c 20.100508
_cell_angle_alpha 90.000000
_cell_angle_beta 118.336466
_cell_angle_gamma 90.000000
_cell_volume 1332.773796
_symmetry_space_group_name_H-M "P 21/C"
_symmetry_group_IT_number 14
_symmetry_cell_setting 'monoclinic'
loop_
_space_group_symop_operation_xyz
x,y,z
-x,1/2+y,1/2-z
-x,-y,-z
x,1/2-y,1/2+z
loop_
_atom_site_type_symbol
_atom_site_label
_atom_site_fract_x
_atom_site_fract_y
_atom_site_fract_z
Si Si1 0.152044 0.655322 0.597120
Si Si2 0.805074 0.371256 0.663971
Si Si3 0.140567 0.167312 0.726102
Si Si4 0.362277 0.424466 0.719569
Si Si5 0.441426 0.240494 0.101789
Si Si6 0.289884 0.503677 0.140855
Si Si7 0.210512 0.463232 0.476568
O O1 0.246945 0.580970 0.681853
O O2 0.205615 0.835861 0.598972
O O3 0.195738 0.572633 0.537576
O O4 0.952796 0.647479 0.568859
O O5 0.826151 0.529398 0.713048
O O6 0.643601 0.265902 0.651258
O O7 0.766130 0.424421 0.581195
O O8 0.961689 0.251262 0.702075
O O9 0.282151 0.308750 0.759390
O O10 0.147609 0.091826 0.653406
O O11 0.357393 0.334732 0.649006
O O12 0.551323 0.474235 0.776377
O O13 0.363847 0.418967 0.089744
O O14 0.373094 0.152163 0.021061
#
# Coordination Sequence:
#
# PCOD8125762 Si02
#       7
#     4   4   4   4   4   4   4
#     4  10  21  41  70  93 127 176 221 267 317 391
#     4  12  25  45  63  99 137 167 213 275 340 394
#     4  11  26  39  68  98 128 171 211 275 340 383
#     4  10  20  42  66  95 124 165 222 270 320 377
#     4  10  23  41  64  95 126 173 219 261 320 393
#     4  11  23  41  70  98 127 167 227 276 309 389
#     4  10  23  43  65  90 135 178 215 262 332 387
#
# _framework density 21.008818000000002
#
# number of rings (size 3 to 8) (size 9 to 14) (size 15 to 20)
#    0.000    1.429    2.857    2.143    8.000    0.571 
#    0.000    0.714    0.000    0.000    0.000    0.000 
#    0.000    0.000    0.000    0.000    0.000    0.000 
#
# Total GULP energy -347076.766191 kJ/mol
# GULP energy per Si atom -12395.598793 kJ/mol
# Density = 2.096100 g / cm^3
# Si number density = 21.008818 Si / 1000 Ang^3
#
#
#
# Elastic Constant Matrix: (Units=GPa)
#
#
# Indices 1 2 3 4 5 6 
#
# 1 110.4404 49.8843 20.9165 0.0000 2.3766 0.0000
# 2 49.8843 106.2524 14.5703 0.0000 3.1792 0.0000
# 3 20.9165 14.5703 53.6807 0.0000 2.6159 0.0000
# 4 0.0000 0.0000 0.0000 4.7078 0.0000 13.0192
# 5 2.3766 3.1792 2.6159 0.0000 13.6225 0.0000
# 6 0.0000 0.0000 0.0000 13.0192 0.0000 36.6256
#
#
#
# Elastic Compliance Matrix: (Units=1/GPa)
#
#
# Indices 1 2 3 4 5 6 
#
# 1 0.012022 -0.005189 -0.003263 0.000000 -0.000260 0.000000
# 2 -0.005189 0.012058 -0.001169 0.000000 -0.001684 0.000000
# 3 -0.003263 -0.001169 0.020367 0.000000 -0.003069 0.000000
# 4 0.000000 0.000000 0.000000 12.518146 0.000000 -4.449790
# 5 -0.000260 -0.001684 -0.003069 0.000000 0.074436 0.000000
# 6 0.000000 0.000000 0.000000 -4.449790 0.000000 1.609057
#
#
# Mechanical properties :
#
#
# Convention : Reuss Voigt Hill
#
# Bulk Modulus (GPa) = 39.67466 49.01286 44.34376
# Shear Modulus (GPa) = 0.35029 23.32465 11.83747
#
# Velocity S-wave (km/s) = 0.40878 3.33563 2.37629
# Velocity P-wave (km/s) = 4.37591 6.18187 5.35556
#
# Compressibility (1/GPa) = 0.02520501
#
# Stress axis : x y z
#
# Youngs Moduli (GPa) = 83.18037 82.92957 49.09892
#
# Poissons Ratio (x) = 0.43032 0.16022
# Poissons Ratio (y) = 0.43162 0.05740
# Poissons Ratio (z) = 0.27144 0.09695
#
# Static dielectric constant tensor:
#      x y z
#    x 3.900990 0.000000 0.044360 
#    y 0.000000 4.045880 0.000000 
#    z 0.044360 0.000000 3.689520 
# 
# 
# High freq. dielectric constant tensor:
#      x y z
#    x 1.829640 0.000000 0.007740 
#    y 0.000000 1.828950 0.000000 
#    z 0.007740 0.000000 1.805150 
# 
# From -- ./inp_files/64620.got.cif
#   From: 2010.03.12/outbox.cif.g09.slc.cpg/sg14_33_cif.got.tgz:64620.got - 2010.03.31 13:35:05.
