data_PCOD8125314
_publ_section_title
;
Structure prediction by ZEFSAII (Michael W. Deem and Ramdas Pophale) SiO2 
 PCOD8125314
Probable space group: P 21/C
;
_chemical_formula_sum "Si O2"
_cell_formula_units_Z 32
_cell_length_a 8.869032
_cell_length_b 22.936324
_cell_length_c 13.728047
_cell_angle_alpha 90.000000
_cell_angle_beta 32.406096
_cell_angle_gamma 90.000000
_cell_volume 1496.600974
_symmetry_space_group_name_H-M "P 21/C"
_symmetry_group_IT_number 14
_symmetry_cell_setting 'monoclinic'
loop_
_space_group_symop_operation_xyz
x,y,z
-x,1/2+y,1/2-z
-x,-y,-z
x,1/2-y,1/2+z
loop_
_atom_site_type_symbol
_atom_site_label
_atom_site_fract_x
_atom_site_fract_y
_atom_site_fract_z
Si Si1 0.386076 0.538369 0.148271
Si Si2 0.682747 0.521733 0.179607
Si Si3 0.268426 0.433607 0.477812
Si Si4 0.865919 0.851151 0.609623
Si Si5 0.658652 0.740666 0.073759
Si Si6 0.506749 0.844998 0.288547
Si Si7 0.447556 0.843363 0.536937
Si Si8 0.829234 0.665353 0.339091
O O1 0.510066 0.508679 0.176267
O O2 0.540962 0.600654 0.048565
O O3 0.046149 0.540547 0.341841
O O4 0.500000 0.500000 0.000000
O O5 0.501445 0.485026 0.357723
O O6 0.680183 0.590532 0.202045
O O7 0.000000 0.500000 0.000000
O O8 0.285741 0.393559 0.370258
O O9 0.353530 0.388364 0.518315
O O10 0.834503 0.808673 0.534243
O O11 0.745480 0.819308 0.773408
O O12 0.190844 0.868734 0.445240
O O13 0.508602 0.782055 0.233812
O O14 0.447712 0.711032 0.110988
O O15 0.850770 0.778797 0.897328
O O16 0.609955 0.834893 0.344676
O O17 0.140939 0.859629 0.666666
#
# Coordination Sequence:
#
# PCOD8125314 Si02
#       8
#     4   4   4   4   4   4   4   4
#     4  11  24  43  67  92 128 172 220 265 322 397
#     4  12  24  41  67  95 133 170 215 276 329 379
#     4  10  22  42  67  93 129 176 219 262 326 404
#     4  11  22  40  63  97 131 168 217 272 330 379
#     4  11  20  38  62  92 127 167 219 271 315 386
#     4  10  21  39  67  90 130 177 212 265 333 377
#     4  10  20  38  60  89 123 166 215 258 318 384
#     4   9  22  38  60  89 125 170 210 262 329 383
#
# _framework density 21.381785000000001
#
# number of rings (size 3 to 8) (size 9 to 14) (size 15 to 20)
#    0.000    1.500    2.500    2.625    3.500    0.500 
#    0.000    0.000   11.000    0.000    0.000    0.000 
#    0.000    0.000    0.000    0.000    0.000    0.000 
#
# Total GULP energy -396429.569000 kJ/mol
# GULP energy per Si atom -12388.424031 kJ/mol
# Density = 2.133312 g / cm^3
# Si number density = 21.381785 Si / 1000 Ang^3
#
#
#
# Elastic Constant Matrix: (Units=GPa)
#
#
# Indices 1 2 3 4 5 6 
#
# 1 87.8248 33.5381 45.5260 0.0000 13.4528 0.0000
# 2 33.5381 120.1483 52.9927 0.0000 7.9381 0.0000
# 3 45.5260 52.9927 111.2542 0.0000 8.4919 0.0000
# 4 0.0000 0.0000 0.0000 33.5916 0.0000 2.3287
# 5 13.4528 7.9381 8.4919 0.0000 34.5342 0.0000
# 6 0.0000 0.0000 0.0000 2.3287 0.0000 32.2710
#
#
#
# Elastic Compliance Matrix: (Units=1/GPa)
#
#
# Indices 1 2 3 4 5 6 
#
# 1 0.015374 -0.001743 -0.005131 0.000000 -0.004327 0.000000
# 2 -0.001743 0.010784 -0.004368 0.000000 -0.000726 0.000000
# 3 -0.005131 -0.004368 0.013187 0.000000 -0.000240 0.000000
# 4 0.000000 0.000000 0.000000 0.029919 0.000000 -0.002159
# 5 -0.004327 -0.000726 -0.000240 0.000000 0.030868 0.000000
# 6 0.000000 0.000000 0.000000 -0.002159 0.000000 0.031143
#
#
# Mechanical properties :
#
#
# Convention : Reuss Voigt Hill
#
# Bulk Modulus (GPa) = 59.30551 64.81566 62.06059
# Shear Modulus (GPa) = 31.37155 32.55738 31.96447
#
# Velocity S-wave (km/s) = 3.83457 3.90637 3.87064
# Velocity P-wave (km/s) = 6.88491 7.12219 7.00455
#
# Compressibility (1/GPa) = 0.01686184
#
# Stress axis : x y z
#
# Youngs Moduli (GPa) = 65.04366 92.72935 75.83224
#
# Poissons Ratio (x) = 0.16159 0.38909
# Poissons Ratio (y) = 0.11335 0.33125
# Poissons Ratio (z) = 0.33374 0.40506
#
# Static dielectric constant tensor:
#      x y z
#    x 3.951240 0.000000 0.467060 
#    y 0.000000 4.437080 0.000000 
#    z 0.467060 0.000000 3.917800 
# 
# 
# High freq. dielectric constant tensor:
#      x y z
#    x 1.833720 0.000000 0.025100 
#    y 0.000000 1.851150 0.000000 
#    z 0.025100 0.000000 1.824940 
# 
# From -- ./inp_files/42187.got.cif
#   From: 2010.03.12/outbox.cif.g09.slc.cpg/sg14_22_cif.got.tgz:42187.got - 2010.03.31 13:35:05.
