data_PCOD8125850
_publ_section_title
;
Structure prediction by ZEFSAII (Michael W. Deem and Ramdas Pophale) SiO2 
 PCOD8125850
Probable space group: P 21/C
;
_chemical_formula_sum "Si O2"
_cell_formula_units_Z 28
_cell_length_a 5.202123
_cell_length_b 22.837185
_cell_length_c 12.572941
_cell_angle_alpha 90.000000
_cell_angle_beta 114.119998
_cell_angle_gamma 90.000000
_cell_volume 1363.277034
_symmetry_space_group_name_H-M "P 21/C"
_symmetry_group_IT_number 14
_symmetry_cell_setting 'monoclinic'
loop_
_space_group_symop_operation_xyz
x,y,z
-x,1/2+y,1/2-z
-x,-y,-z
x,1/2-y,1/2+z
loop_
_atom_site_type_symbol
_atom_site_label
_atom_site_fract_x
_atom_site_fract_y
_atom_site_fract_z
Si Si1 0.873301 0.693898 0.117442
Si Si2 0.713032 0.700868 0.453964
Si Si3 0.322451 0.518922 0.573060
Si Si4 0.298239 0.846965 0.041217
Si Si5 0.464595 0.763253 0.710866
Si Si6 0.215538 0.430841 0.954465
Si Si7 0.397731 0.983240 0.657986
O O1 0.205368 0.693663 0.193043
O O2 0.823945 0.757667 0.063191
O O3 0.681742 0.693335 0.189183
O O4 0.792132 0.639001 0.030033
O O5 0.469705 0.659341 0.460323
O O6 0.604673 0.747320 0.348586
O O7 0.969362 0.660423 0.457103
O O8 0.500000 0.500000 0.500000
O O9 0.346015 0.588567 0.595258
O O10 0.450001 0.491439 0.702729
O O11 0.000000 0.500000 0.500000
O O12 0.398876 0.798512 0.144220
O O13 0.408710 0.443883 0.885082
O O14 0.904503 0.453899 0.874614
O O15 0.343802 0.455825 0.085730
#
# Coordination Sequence:
#
# PCOD8125850 Si02
#       7
#     4   4   4   4   4   4   4
#     4  10  21  35  58  88 111 147 195 232 291 352
#     4  10  21  38  59  86 118 153 189 235 295 352
#     4  12  26  42  62  89 121 166 206 239 298 359
#     4  10  23  40  57  87 120 150 196 240 283 350
#     4  10  21  37  58  86 115 150 188 234 295 344
#     4  10  21  40  62  88 118 152 200 254 296 342
#     4  10  23  40  60  88 119 156 202 246 296 345
#
# _framework density 20.538747999999998
#
# number of rings (size 3 to 8) (size 9 to 14) (size 15 to 20)
#    0.000    1.714    0.000    3.429    2.000    6.857 
#    0.000    0.000    0.000    0.000    0.000    0.000 
#    0.000    0.000    0.000    0.000    0.000    0.000 
#
# Total GULP energy -346973.849314 kJ/mol
# GULP energy per Si atom -12391.923190 kJ/mol
# Density = 2.049200 g / cm^3
# Si number density = 20.538748 Si / 1000 Ang^3
#
#
#
# Elastic Constant Matrix: (Units=GPa)
#
#
# Indices 1 2 3 4 5 6 
#
# 1 159.4946 18.5198 35.3320 0.0000 10.5367 0.0000
# 2 18.5198 85.2060 5.5405 0.0000 8.9306 0.0000
# 3 35.3320 5.5405 106.7584 0.0000 6.1923 0.0000
# 4 0.0000 0.0000 0.0000 12.8682 0.0000 -0.4842
# 5 10.5367 8.9306 6.1923 0.0000 30.1387 0.0000
# 6 0.0000 0.0000 0.0000 -0.4842 0.0000 15.5514
#
#
#
# Elastic Compliance Matrix: (Units=1/GPa)
#
#
# Indices 1 2 3 4 5 6 
#
# 1 0.006997 -0.001208 -0.002157 0.000000 -0.001645 0.000000
# 2 -0.001208 0.012340 -0.000054 0.000000 -0.003223 0.000000
# 3 -0.002157 -0.000054 0.010160 0.000000 -0.001317 0.000000
# 4 0.000000 0.000000 0.000000 0.077802 0.000000 0.002422
# 5 -0.001645 -0.003223 -0.001317 0.000000 0.034981 0.000000
# 6 0.000000 0.000000 0.000000 0.002422 0.000000 0.064378
#
#
# Mechanical properties :
#
#
# Convention : Reuss Voigt Hill
#
# Bulk Modulus (GPa) = 44.13332 52.24929 48.19131
# Shear Modulus (GPa) = 22.61941 31.18279 26.90110
#
# Velocity S-wave (km/s) = 3.32219 3.90069 3.62301
# Velocity P-wave (km/s) = 6.02083 6.76622 6.40438
#
# Compressibility (1/GPa) = 0.02265861
#
# Stress axis : x y z
#
# Youngs Moduli (GPa) = 142.92507 81.03628 98.42371
#
# Poissons Ratio (x) = 0.09790 0.21235
# Poissons Ratio (y) = 0.17266 0.00528
# Poissons Ratio (z) = 0.30836 0.00435
#
# Static dielectric constant tensor:
#      x y z
#    x 3.973170 0.000000 0.001300 
#    y 0.000000 3.537500 0.000000 
#    z 0.001300 0.000000 3.540630 
# 
# 
# High freq. dielectric constant tensor:
#      x y z
#    x 1.832030 0.000000 0.001540 
#    y 0.000000 1.798840 0.000000 
#    z 0.001540 0.000000 1.791350 
# 
# From -- ./inp_files/21877.got.cif
#   From: 2010.03.12/outbox.cif.g09.slc.cpg/sg14_11_cif.got.tgz:21877.got - 2010.03.31 13:35:05.
