data_PCOD8125070
_publ_section_title
;
Structure prediction by ZEFSAII (Michael W. Deem and Ramdas Pophale) SiO2 
 PCOD8125070
Probable space group: P 21/C
;
_chemical_formula_sum "Si O2"
_cell_formula_units_Z 32
_cell_length_a 22.050205
_cell_length_b 16.730310
_cell_length_c 9.718823
_cell_angle_alpha 90.000000
_cell_angle_beta 28.173839
_cell_angle_gamma 90.000000
_cell_volume 1692.812034
_symmetry_space_group_name_H-M "P 21/C"
_symmetry_group_IT_number 14
_symmetry_cell_setting 'monoclinic'
loop_
_space_group_symop_operation_xyz
x,y,z
-x,1/2+y,1/2-z
-x,-y,-z
x,1/2-y,1/2+z
loop_
_atom_site_type_symbol
_atom_site_label
_atom_site_fract_x
_atom_site_fract_y
_atom_site_fract_z
Si Si1 0.499979 0.967612 0.651153
Si Si2 0.279111 0.808948 0.452636
Si Si3 0.499979 0.924634 0.099333
Si Si4 0.279901 0.156454 0.739606
Si Si5 0.999965 0.705751 0.480915
Si Si6 0.279191 0.308903 0.930826
Si Si7 0.000015 0.160685 0.315050
Si Si8 0.720131 0.343529 0.359110
O O1 0.625346 0.916040 0.428594
O O2 0.500000 0.000000 0.500000
O O3 0.499934 0.045778 0.745370
O O4 0.374641 0.916004 0.929949
O O5 0.372039 0.873538 0.333325
O O6 0.307441 0.801361 0.232824
O O7 0.300079 0.723068 0.482493
O O8 0.130655 0.838737 0.769694
O O9 0.627814 0.873457 0.821692
O O10 0.500000 0.000000 0.000000
O O11 0.300131 0.223013 0.817180
O O12 0.307467 0.198669 0.537437
O O13 0.136841 0.114829 0.032470
O O14 0.999975 0.720192 0.316830
O O15 0.999989 0.794013 0.541386
O O16 0.869249 0.661286 0.792492
O O17 0.863184 0.114837 0.579773
#
# Coordination Sequence:
#
# PCOD8125070 Si02
#       8
#     4   4   4   4   4   4   4   4
#     4  12  27  40  54  78 117 150 190 230 279 327
#     4  10  20  36  62  84 112 144 186 227 275 329
#     4  12  23  40  54  78 115 150 182 229 273 325
#     4  10  20  38  60  87 109 145 186 227 275 330
#     4   8  16  32  54  87 108 137 179 228 271 323
#     4  10  20  36  62  84 112 144 186 227 275 329
#     4   8  16  32  58  82 112 135 177 231 271 321
#     4  10  20  38  60  87 109 145 186 227 275 330
#
# _framework density 18.903458000000001
#
# number of rings (size 3 to 8) (size 9 to 14) (size 15 to 20)
#    0.000    2.000    2.500    0.750    3.500    0.000 
#    0.000    2.500    0.000    0.000    0.000    0.000 
#    0.000    0.000    0.000    0.000    0.000    0.000 
#
# Total GULP energy -396426.077195 kJ/mol
# GULP energy per Si atom -12388.314912 kJ/mol
# Density = 1.886043 g / cm^3
# Si number density = 18.903458 Si / 1000 Ang^3
#
#
#
# Elastic Constant Matrix: (Units=GPa)
#
#
# Indices 1 2 3 4 5 6 
#
# 1 105.7300 30.5748 57.1408 0.0000 -0.0138 0.0000
# 2 30.5748 53.4265 42.0773 0.0000 -10.3980 0.0000
# 3 57.1408 42.0773 125.8529 0.0000 -18.1527 0.0000
# 4 0.0000 0.0000 0.0000 -0.0421 0.0000 21.5753
# 5 -0.0138 -10.3980 -18.1527 0.0000 40.7068 0.0000
# 6 0.0000 0.0000 0.0000 21.5753 0.0000 23.8337
#
#
#
# Elastic Compliance Matrix: (Units=1/GPa)
#
#
# Indices 1 2 3 4 5 6 
#
# 1 0.013505 -0.004310 -0.005182 0.000000 -0.003407 0.000000
# 2 -0.004310 0.027105 -0.006526 0.000000 0.004012 0.000000
# 3 -0.005182 -0.006526 0.013081 0.000000 0.004165 0.000000
# 4 0.000000 0.000000 0.000000 -0.051091 0.000000 0.046250
# 5 -0.003407 0.004012 0.004165 0.000000 0.027447 0.000000
# 6 0.000000 0.000000 0.000000 0.046250 0.000000 0.000090
#
#
# Mechanical properties :
#
#
# Convention : Reuss Voigt Hill
#
# Bulk Modulus (GPa) = 46.18234 60.51056 53.34645
# Shear Modulus (GPa) = 72.05458 23.24744 47.65101
#
# Velocity S-wave (km/s) = 6.18061 3.51065 5.02616
# Velocity P-wave (km/s) = 8.68429 6.96511 7.87177
#
# Compressibility (1/GPa) = 0.02165330
#
# Stress axis : x y z
#
# Youngs Moduli (GPa) = 74.04931 36.89361 76.44579
#
# Poissons Ratio (x) = 0.15903 0.39612
# Poissons Ratio (y) = 0.31919 0.49892
# Poissons Ratio (z) = 0.38370 0.24079
#
# Static dielectric constant tensor:
#      x y z
#    x 3.815680 0.000000 -0.165030 
#    y 0.000000 7.798820 0.000000 
#    z -0.165030 0.000000 3.998530 
# 
# 
# High freq. dielectric constant tensor:
#      x y z
#    x 1.756190 0.000000 -0.007350 
#    y 0.000000 1.678890 0.000000 
#    z -0.007350 0.000000 1.764320 
# 
# From -- ./inp_files/16580.got.cif
#   From: 2010.03.12/outbox.cif.g09.slc.cpg/sg14_9_cif.got.tgz:16580.got - 2010.03.31 13:35:05.
