data_PCOD8125744
_publ_section_title
;
Structure prediction by ZEFSAII (Michael W. Deem and Ramdas Pophale) SiO2 
 PCOD8125744
Probable space group: P 21/C
;
_chemical_formula_sum "Si O2"
_cell_formula_units_Z 32
_cell_length_a 10.307255
_cell_length_b 11.775439
_cell_length_c 13.269609
_cell_angle_alpha 90.000000
_cell_angle_beta 107.624753
_cell_angle_gamma 90.000000
_cell_volume 1534.964985
_symmetry_space_group_name_H-M "P 21/C"
_symmetry_group_IT_number 14
_symmetry_cell_setting 'monoclinic'
loop_
_space_group_symop_operation_xyz
x,y,z
-x,1/2+y,1/2-z
-x,-y,-z
x,1/2-y,1/2+z
loop_
_atom_site_type_symbol
_atom_site_label
_atom_site_fract_x
_atom_site_fract_y
_atom_site_fract_z
Si Si1 0.200339 0.356065 0.489086
Si Si2 0.793060 0.289328 0.092957
Si Si3 0.726498 0.401328 0.433948
Si Si4 0.514072 0.127311 0.535337
Si Si5 0.570314 0.681158 0.618524
Si Si6 0.874340 0.437187 0.925606
Si Si7 0.712274 0.841287 0.357116
Si Si8 0.078152 0.785518 0.172108
O O1 0.210234 0.472968 0.552571
O O2 0.333007 0.361225 0.449017
O O3 0.189998 0.252989 0.568152
O O4 0.061772 0.346381 0.392479
O O5 0.658110 0.335605 0.115712
O O6 0.912123 0.297498 0.204078
O O7 0.776721 0.160792 0.048461
O O8 0.807621 0.370891 0.001472
O O9 0.560128 0.401138 0.390576
O O10 0.791260 0.340593 0.351697
O O11 0.487854 0.196838 0.426382
O O12 0.414874 0.155215 0.600994
O O13 0.500000 0.000000 0.500000
O O14 0.663975 0.700264 0.737309
O O15 0.775398 0.533629 0.858087
O O16 0.920853 0.349694 0.849896
O O17 0.000000 0.500000 0.000000
#
# Coordination Sequence:
#
# PCOD8125744 Si02
#       8
#     4   4   4   4   4   4   4   4
#     4  11  24  43  61  94 130 159 214 261 311 378
#     4  10  23  40  66  91 128 165 212 261 318 383
#     4  10  23  45  60  94 130 163 207 267 310 375
#     4  10  20  42  63  93 130 159 213 271 314 374
#     4  10  24  39  65  96 121 172 215 247 330 378
#     4  11  23  42  62  91 132 162 212 267 313 376
#     4  11  23  41  66  92 127 168 208 267 315 382
#     4  11  24  40  66  94 121 173 210 255 327 380
#
# _framework density 20.847380000000001
#
# number of rings (size 3 to 8) (size 9 to 14) (size 15 to 20)
#    0.000    1.500    2.500    1.500    3.500    2.000 
#    0.000    0.000    0.000    0.000    0.000    0.000 
#    0.000    0.000    0.000    0.000    0.000    0.000 
#
# Total GULP energy -396702.300033 kJ/mol
# GULP energy per Si atom -12396.946876 kJ/mol
# Density = 2.079993 g / cm^3
# Si number density = 20.847380 Si / 1000 Ang^3
#
#
#
# Elastic Constant Matrix: (Units=GPa)
#
#
# Indices 1 2 3 4 5 6 
#
# 1 72.8927 14.8221 5.8408 0.0000 14.8452 0.0000
# 2 14.8221 113.2223 23.8716 0.0000 2.3894 0.0000
# 3 5.8408 23.8716 105.4357 0.0000 18.8365 0.0000
# 4 0.0000 0.0000 0.0000 13.1260 0.0000 4.0270
# 5 14.8452 2.3894 18.8365 0.0000 25.3263 0.0000
# 6 0.0000 0.0000 0.0000 4.0270 0.0000 30.6803
#
#
#
# Elastic Compliance Matrix: (Units=1/GPa)
#
#
# Indices 1 2 3 4 5 6 
#
# 1 0.016157 -0.002203 0.001451 0.000000 -0.010342 0.000000
# 2 -0.002203 0.009589 -0.002443 0.000000 0.002203 0.000000
# 3 0.001451 -0.002443 0.011611 0.000000 -0.009256 0.000000
# 4 0.000000 0.000000 0.000000 0.079381 0.000000 -0.010419
# 5 -0.010342 0.002203 -0.009256 0.000000 0.052223 0.000000
# 6 0.000000 0.000000 0.000000 -0.010419 0.000000 0.033962
#
#
# Mechanical properties :
#
#
# Convention : Reuss Voigt Hill
#
# Bulk Modulus (GPa) = 32.29124 42.29106 37.29115
# Shear Modulus (GPa) = 22.76524 30.29426 26.52975
#
# Velocity S-wave (km/s) = 3.30812 3.81615 3.57118
# Velocity P-wave (km/s) = 5.48767 6.30455 5.91024
#
# Compressibility (1/GPa) = 0.03096815
#
# Stress axis : x y z
#
# Youngs Moduli (GPa) = 61.89403 104.28554 86.12769
#
# Poissons Ratio (x) = 0.22972 -0.12500
# Poissons Ratio (y) = 0.13634 0.21038
# Poissons Ratio (z) = -0.08983 0.25473
#
# Static dielectric constant tensor:
#      x y z
#    x 4.137020 0.000000 0.051960 
#    y 0.000000 4.322190 0.000000 
#    z 0.051960 0.000000 3.641940 
# 
# 
# High freq. dielectric constant tensor:
#      x y z
#    x 1.826830 0.000000 0.003170 
#    y 0.000000 1.819400 0.000000 
#    z 0.003170 0.000000 1.809200 
# 
# From -- ./inp_files/29404.got.cif
#   From: 2010.03.12/outbox.cif.g09.slc.cpg/sg14_15_cif.got.tgz:29404.got - 2010.03.31 13:35:05.
