data_PCOD8125955
_publ_section_title
;
Structure prediction by ZEFSAII (Michael W. Deem and Ramdas Pophale) SiO2 
 PCOD8125955
Probable space group: P 21/C
;
_chemical_formula_sum "Si O2"
_cell_formula_units_Z 28
_cell_length_a 8.323636
_cell_length_b 15.444167
_cell_length_c 10.422604
_cell_angle_alpha 90.000000
_cell_angle_beta 99.510908
_cell_angle_gamma 90.000000
_cell_volume 1321.425414
_symmetry_space_group_name_H-M "P 21/C"
_symmetry_group_IT_number 14
_symmetry_cell_setting 'monoclinic'
loop_
_space_group_symop_operation_xyz
x,y,z
-x,1/2+y,1/2-z
-x,-y,-z
x,1/2-y,1/2+z
loop_
_atom_site_type_symbol
_atom_site_label
_atom_site_fract_x
_atom_site_fract_y
_atom_site_fract_z
Si Si1 0.936142 0.232221 0.397449
Si Si2 0.252726 0.698050 0.382934
Si Si3 0.366489 0.990628 0.875390
Si Si4 0.225884 0.168556 0.819467
Si Si5 0.523921 0.792048 0.544119
Si Si6 0.613751 0.463252 0.905084
Si Si7 0.826075 0.887518 0.464202
O O1 0.094956 0.290195 0.396233
O O2 0.008258 0.135243 0.436332
O O3 0.824140 0.233427 0.257724
O O4 0.845988 0.273708 0.505321
O O5 0.258232 0.594582 0.380262
O O6 0.434245 0.738133 0.419990
O O7 0.450117 0.990651 0.744744
O O8 0.249915 0.072378 0.875868
O O9 0.500000 0.000000 0.000000
O O10 0.395187 0.224213 0.845248
O O11 0.157864 0.163976 0.667049
O O12 0.386351 0.857429 0.590085
O O13 0.663304 0.853301 0.509674
O O14 0.794506 0.508145 0.946171
O O15 0.500000 0.500000 0.000000
#
# Coordination Sequence:
#
# PCOD8125955 Si02
#       7
#     4   4   4   4   4   4   4
#     4  11  24  43  63  93 132 174 220 258 337 388
#     4  12  25  41  64  96 130 168 218 277 319 388
#     4  11  23  41  64  98 131 165 219 273 326 378
#     4  10  21  42  65  90 130 172 210 267 326 394
#     4  10  21  36  68  95 122 165 220 264 322 381
#     4   9  20  39  64  97 123 162 214 267 321 383
#     4   9  20  41  64  90 128 168 215 259 324 388
#
# _framework density 21.189240000000002
#
# number of rings (size 3 to 8) (size 9 to 14) (size 15 to 20)
#    0.000    1.714    2.857    0.857    4.000    1.714 
#    5.143    2.143    0.000    0.000    0.000    0.000 
#    0.000    0.000    0.000    0.000    0.000    0.000 
#
# Total GULP energy -346990.664879 kJ/mol
# GULP energy per Si atom -12392.523746 kJ/mol
# Density = 2.114101 g / cm^3
# Si number density = 21.189240 Si / 1000 Ang^3
#
#
#
# Elastic Constant Matrix: (Units=GPa)
#
#
# Indices 1 2 3 4 5 6 
#
# 1 49.7211 28.7222 33.2903 0.0000 -2.9237 0.0000
# 2 28.7222 125.5439 24.6306 0.0000 -1.4153 0.0000
# 3 33.2903 24.6306 128.1348 0.0000 -3.3558 0.0000
# 4 0.0000 0.0000 0.0000 26.3320 0.0000 3.1170
# 5 -2.9237 -1.4153 -3.3558 0.0000 32.6401 0.0000
# 6 0.0000 0.0000 0.0000 3.1170 0.0000 27.6758
#
#
#
# Elastic Compliance Matrix: (Units=1/GPa)
#
#
# Indices 1 2 3 4 5 6 
#
# 1 0.027148 -0.005006 -0.006049 0.000000 0.001593 0.000000
# 2 -0.005006 0.009202 -0.000471 0.000000 -0.000098 0.000000
# 3 -0.006049 -0.000471 0.009477 0.000000 0.000412 0.000000
# 4 0.000000 0.000000 0.000000 0.038490 0.000000 -0.004335
# 5 0.001593 -0.000098 0.000412 0.000000 0.030818 0.000000
# 6 0.000000 0.000000 0.000000 -0.004335 0.000000 0.036621
#
#
# Mechanical properties :
#
#
# Convention : Reuss Voigt Hill
#
# Bulk Modulus (GPa) = 43.90825 52.96511 48.43668
# Shear Modulus (GPa) = 27.41233 31.78001 29.59617
#
# Velocity S-wave (km/s) = 3.60069 3.87695 3.74137
# Velocity P-wave (km/s) = 6.16876 6.71502 6.44768
#
# Compressibility (1/GPa) = 0.02277476
#
# Stress axis : x y z
#
# Youngs Moduli (GPa) = 36.83518 108.67294 105.51656
#
# Poissons Ratio (x) = 0.54404 0.63829
# Poissons Ratio (y) = 0.18440 0.04967
# Poissons Ratio (z) = 0.22282 0.05116
#
# Static dielectric constant tensor:
#      x y z
#    x 3.563410 0.000000 0.337390 
#    y 0.000000 4.317510 0.000000 
#    z 0.337390 0.000000 3.723470 
# 
# 
# High freq. dielectric constant tensor:
#      x y z
#    x 1.817830 0.000000 0.001390 
#    y 0.000000 1.846620 0.000000 
#    z 0.001390 0.000000 1.835690 
# 
# From -- ./inp_files/25319.got.cif
#   From: 2010.03.12/outbox.cif.g09.slc.cpg/sg14_13_cif.got.tgz:25319.got - 2010.03.31 13:35:05.
