data_PCOD8125558
_publ_section_title
;
Structure prediction by ZEFSAII (Michael W. Deem and Ramdas Pophale) SiO2 
 PCOD8125558
Probable space group: P 21/C
;
_chemical_formula_sum "Si O2"
_cell_formula_units_Z 32
_cell_length_a 15.077589
_cell_length_b 13.151119
_cell_length_c 18.152181
_cell_angle_alpha 90.000000
_cell_angle_beta 26.901183
_cell_angle_gamma 90.000000
_cell_volume 1628.534679
_symmetry_space_group_name_H-M "P 21/C"
_symmetry_group_IT_number 14
_symmetry_cell_setting 'monoclinic'
loop_
_space_group_symop_operation_xyz
x,y,z
-x,1/2+y,1/2-z
-x,-y,-z
x,1/2-y,1/2+z
loop_
_atom_site_type_symbol
_atom_site_label
_atom_site_fract_x
_atom_site_fract_y
_atom_site_fract_z
Si Si1 0.964918 0.650950 0.351995
Si Si2 0.721516 0.168615 0.040367
Si Si3 0.004061 0.645660 0.159460
Si Si4 0.692488 0.775367 0.642562
Si Si5 0.689072 0.773142 0.310725
Si Si6 0.284818 0.821843 0.122002
Si Si7 0.038507 0.461093 0.388090
Si Si8 0.005915 0.950613 0.415766
O O1 0.760173 0.681019 0.542142
O O2 0.074671 0.557656 0.309850
O O3 0.908778 0.627983 0.309765
O O4 0.108264 0.744631 0.251132
O O5 0.510003 0.176386 0.236431
O O6 0.809084 0.281807 0.973926
O O7 0.698288 0.128644 0.972855
O O8 0.845669 0.094735 0.000220
O O9 0.845858 0.690362 0.220202
O O10 0.072955 0.535995 0.081274
O O11 0.653968 0.729150 0.750589
O O12 0.856309 0.859746 0.524023
O O13 0.481547 0.739648 0.501452
O O14 0.772423 0.887169 0.264290
O O15 0.221843 0.909411 0.228433
O O16 0.000000 0.500000 0.500000
O O17 0.000000 0.000000 0.500000
#
# Coordination Sequence:
#
# PCOD8125558 Si02
#       8
#     4   4   4   4   4   4   4   4
#     4  10  21  39  60  85 119 156 197 249 302 362
#     4   9  21  39  59  86 122 158 196 250 305 367
#     4  10  21  39  59  86 118 154 195 251 305 357
#     4  10  20  40  60  86 120 157 200 246 306 367
#     4  10  20  40  61  86 119 158 198 247 309 369
#     4   9  21  39  60  85 122 158 196 250 307 361
#     4  11  21  37  63  88 121 158 202 250 301 365
#     4  11  21  37  61  88 118 157 203 252 294 364
#
# _framework density 19.649566
#
# number of rings (size 3 to 8) (size 9 to 14) (size 15 to 20)
#    0.000    2.000    2.500    0.750    0.000    3.000 
#    9.000    0.000    0.000    0.000    0.000    0.000 
#    0.000    0.000    0.000    0.000    0.000    0.000 
#
# Total GULP energy -396572.391399 kJ/mol
# GULP energy per Si atom -12392.887231 kJ/mol
# Density = 1.960484 g / cm^3
# Si number density = 19.649566 Si / 1000 Ang^3
#
#
#
# Elastic Constant Matrix: (Units=GPa)
#
#
# Indices 1 2 3 4 5 6 
#
# 1 80.0131 26.1595 36.3211 0.0000 5.4380 0.0000
# 2 26.1595 68.6030 25.0185 0.0000 21.0949 0.0000
# 3 36.3211 25.0185 106.9234 0.0000 3.2061 0.0000
# 4 0.0000 0.0000 0.0000 22.9332 0.0000 4.6134
# 5 5.4380 21.0949 3.2061 0.0000 25.7836 0.0000
# 6 0.0000 0.0000 0.0000 4.6134 0.0000 33.2052
#
#
#
# Elastic Compliance Matrix: (Units=1/GPa)
#
#
# Indices 1 2 3 4 5 6 
#
# 1 0.015973 -0.004869 -0.004321 0.000000 0.001152 0.000000
# 2 -0.004869 0.022927 -0.003191 0.000000 -0.017334 0.000000
# 3 -0.004321 -0.003191 0.011504 0.000000 0.002091 0.000000
# 4 0.000000 0.000000 0.000000 0.044859 0.000000 -0.006232
# 5 0.001152 -0.017334 0.002091 0.000000 0.052463 0.000000
# 6 0.000000 0.000000 0.000000 -0.006232 0.000000 0.030982
#
#
# Mechanical properties :
#
#
# Convention : Reuss Voigt Hill
#
# Bulk Modulus (GPa) = 38.99846 47.83751 43.41798
# Shear Modulus (GPa) = 23.58293 27.58711 25.58502
#
# Velocity S-wave (km/s) = 3.46811 3.75100 3.61233
# Velocity P-wave (km/s) = 5.99393 6.56949 6.28830
#
# Compressibility (1/GPa) = 0.02564204
#
# Stress axis : x y z
#
# Youngs Moduli (GPa) = 62.60502 43.61652 86.92442
#
# Poissons Ratio (x) = 0.21238 0.37562
# Poissons Ratio (y) = 0.30484 0.27736
# Poissons Ratio (z) = 0.27053 0.13917
#
# Static dielectric constant tensor:
#      x y z
#    x 3.859790 0.000000 0.428200 
#    y 0.000000 11.755790 0.000000 
#    z 0.428200 0.000000 4.137000 
# 
# 
# High freq. dielectric constant tensor:
#      x y z
#    x 1.762030 0.000000 0.007700 
#    y 0.000000 1.770370 0.000000 
#    z 0.007700 0.000000 1.762560 
# 
# From -- ./inp_files/55573.got.cif
#   From: 2010.03.12/outbox.cif.g09.slc.cpg/sg14_28_cif.got.tgz:55573.got - 2010.03.31 13:35:05.
