data_PCOD8125880
_publ_section_title
;
Structure prediction by ZEFSAII (Michael W. Deem and Ramdas Pophale) SiO2 
 PCOD8125880
Probable space group: P 21/C
;
_chemical_formula_sum "Si O2"
_cell_formula_units_Z 24
_cell_length_a 8.882618
_cell_length_b 17.100995
_cell_length_c 8.433197
_cell_angle_alpha 90.000000
_cell_angle_beta 116.418965
_cell_angle_gamma 90.000000
_cell_volume 1147.232650
_symmetry_space_group_name_H-M "P 21/C"
_symmetry_group_IT_number 14
_symmetry_cell_setting 'monoclinic'
loop_
_space_group_symop_operation_xyz
x,y,z
-x,1/2+y,1/2-z
-x,-y,-z
x,1/2-y,1/2+z
loop_
_atom_site_type_symbol
_atom_site_label
_atom_site_fract_x
_atom_site_fract_y
_atom_site_fract_z
Si Si1 0.959796 0.527316 0.244117
Si Si2 0.873730 0.297376 0.222327
Si Si3 0.490006 0.069874 0.260995
Si Si4 0.836350 0.137997 0.352869
Si Si5 0.142332 0.393942 0.491104
Si Si6 0.357431 0.928206 0.346512
O O1 0.941102 0.588167 0.378841
O O2 0.786032 0.481284 0.131496
O O3 0.014567 0.576603 0.114643
O O4 0.106403 0.465741 0.355304
O O5 0.833028 0.206434 0.219983
O O6 0.734054 0.348933 0.254232
O O7 0.058621 0.315250 0.381097
O O8 0.865016 0.322170 0.035180
O O9 0.661885 0.090620 0.253756
O O10 0.502794 0.091641 0.454788
O O11 0.438491 0.976635 0.237134
O O12 0.342206 0.118810 0.106281
#
# Coordination Sequence:
#
# PCOD8125880 Si02
#       6
#     4   4   4   4   4   4
#     4   9  18  34  59  81 109 148 183 218 271 337
#     4  10  21  36  56  78 111 150 185 223 277 336
#     4   9  18  33  57  85 111 139 184 233 275 318
#     4  11  22  37  57  82 112 147 186 229 277 329
#     4   9  18  36  57  81 110 144 183 226 272 328
#     4   8  17  36  58  80 109 147 183 224 274 326
#
# _framework density 20.919906999999998
#
# number of rings (size 3 to 8) (size 9 to 14) (size 15 to 20)
#    0.000    2.667    0.000    2.000    0.000    6.667 
#    0.000   11.667    0.000    4.000    0.000    0.000 
#    0.000    0.000    0.000    0.000    0.000    0.000 
#
# Total GULP energy -297406.250645 kJ/mol
# GULP energy per Si atom -12391.927110 kJ/mol
# Density = 2.087229 g / cm^3
# Si number density = 20.919907 Si / 1000 Ang^3
#
#
#
# Elastic Constant Matrix: (Units=GPa)
#
#
# Indices 1 2 3 4 5 6 
#
# 1 80.1572 49.7954 31.7839 0.0000 12.1311 0.0000
# 2 49.7954 81.2432 14.4449 0.0000 -2.0971 0.0000
# 3 31.7839 14.4449 74.1243 0.0000 19.9090 0.0000
# 4 0.0000 0.0000 0.0000 27.7628 0.0000 -6.9537
# 5 12.1311 -2.0971 19.9090 0.0000 32.5701 0.0000
# 6 0.0000 0.0000 0.0000 -6.9537 0.0000 34.4732
#
#
#
# Elastic Compliance Matrix: (Units=1/GPa)
#
#
# Indices 1 2 3 4 5 6 
#
# 1 0.024691 -0.014213 -0.006104 0.000000 -0.006380 0.000000
# 2 -0.014213 0.021149 0.000222 0.000000 0.006520 0.000000
# 3 -0.006104 0.000222 0.018485 0.000000 -0.009012 0.000000
# 4 0.000000 0.000000 0.000000 0.037936 0.000000 0.007652
# 5 -0.006380 0.006520 -0.009012 0.000000 0.039008 0.000000
# 6 0.000000 0.000000 0.000000 0.007652 0.000000 0.030552
#
#
# Mechanical properties :
#
#
# Convention : Reuss Voigt Hill
#
# Bulk Modulus (GPa) = 41.43293 47.50813 44.47053
# Shear Modulus (GPa) = 22.72158 28.26124 25.49141
#
# Velocity S-wave (km/s) = 3.29921 3.67948 3.49452
# Velocity P-wave (km/s) = 5.86187 6.38829 6.13074
#
# Compressibility (1/GPa) = 0.02413539
#
# Stress axis : x y z
#
# Youngs Moduli (GPa) = 40.50108 47.28383 54.09694
#
# Poissons Ratio (x) = 0.67204 0.33019
# Poissons Ratio (y) = 0.57564 -0.01200
# Poissons Ratio (z) = 0.24721 -0.01049
#
# Static dielectric constant tensor:
#      x y z
#    x 3.651730 0.000000 0.200230 
#    y 0.000000 3.824590 0.000000 
#    z 0.200230 0.000000 3.694320 
# 
# 
# High freq. dielectric constant tensor:
#      x y z
#    x 1.796870 0.000000 0.018620 
#    y 0.000000 1.799720 0.000000 
#    z 0.018620 0.000000 1.816330 
# 
# From -- ./inp_files/9211.got.cif
#   From: 2010.03.12/outbox.cif.g09.slc.cpg/sg14_5_cif.got.tgz:9211.got - 2010.03.31 13:35:05.
