data_PCOD8125471
_publ_section_title
;
Structure prediction by ZEFSAII (Michael W. Deem and Ramdas Pophale) SiO2 
 PCOD8125471
Probable space group: P 21/C
;
_chemical_formula_sum "Si O2"
_cell_formula_units_Z 28
_cell_length_a 15.397762
_cell_length_b 9.803896
_cell_length_c 14.807085
_cell_angle_alpha 90.000000
_cell_angle_beta 36.884660
_cell_angle_gamma 90.000000
_cell_volume 1341.609959
_symmetry_space_group_name_H-M "P 21/C"
_symmetry_group_IT_number 14
_symmetry_cell_setting 'monoclinic'
loop_
_space_group_symop_operation_xyz
x,y,z
-x,1/2+y,1/2-z
-x,-y,-z
x,1/2-y,1/2+z
loop_
_atom_site_type_symbol
_atom_site_label
_atom_site_fract_x
_atom_site_fract_y
_atom_site_fract_z
Si Si1 0.728979 0.462245 0.769338
Si Si2 0.047218 0.781942 0.401373
Si Si3 0.626154 0.573018 0.221763
Si Si4 0.157455 0.438998 0.811168
Si Si5 0.365557 0.102542 0.981015
Si Si6 0.227059 0.154023 0.919221
Si Si7 0.580032 0.587311 0.058901
O O1 0.818128 0.321532 0.699768
O O2 0.815928 0.564126 0.632121
O O3 0.576751 0.453527 0.844741
O O4 0.703656 0.529703 0.888691
O O5 0.968193 0.827621 0.562104
O O6 0.926408 0.726639 0.432222
O O7 0.101618 0.922419 0.311374
O O8 0.765709 0.514654 0.158247
O O9 0.483409 0.518062 0.392788
O O10 0.643961 0.738212 0.212251
O O11 0.617495 0.520683 0.125354
O O12 0.272804 0.376514 0.647838
O O13 0.269233 0.067922 0.972658
O O14 0.433071 0.251592 0.914812
#
# Coordination Sequence:
#
# PCOD8125471 Si02
#       7
#     4   4   4   4   4   4   4
#     4  11  21  41  62  90 124 162 200 260 311 365
#     4  10  22  42  60  87 124 165 209 246 308 368
#     4  10  20  39  62  88 122 155 206 264 306 366
#     4  10  22  41  63  87 124 166 204 254 304 378
#     4  11  21  40  61  91 120 164 201 256 319 360
#     4  10  22  39  60  90 125 156 210 257 300 383
#     4  10  22  36  62  95 120 154 211 259 311 365
#
# _framework density 20.870446000000001
#
# number of rings (size 3 to 8) (size 9 to 14) (size 15 to 20)
#    0.000    1.714    1.429    3.429    0.000    2.286 
#   12.857    0.000    0.000    0.000    0.000    0.000 
#    0.000    0.000    0.000    0.000    0.000    0.000 
#
# Total GULP energy -346896.303757 kJ/mol
# GULP energy per Si atom -12389.153706 kJ/mol
# Density = 2.082294 g / cm^3
# Si number density = 20.870446 Si / 1000 Ang^3
#
#
#
# Elastic Constant Matrix: (Units=GPa)
#
#
# Indices 1 2 3 4 5 6 
#
# 1 61.2528 22.7516 34.1412 0.0000 3.2847 0.0000
# 2 22.7516 74.9550 22.2139 0.0000 -6.7573 0.0000
# 3 34.1412 22.2139 76.7643 0.0000 3.5681 0.0000
# 4 0.0000 0.0000 0.0000 39.5312 0.0000 -10.1735
# 5 3.2847 -6.7573 3.5681 0.0000 29.9094 0.0000
# 6 0.0000 0.0000 0.0000 -10.1735 0.0000 29.4607
#
#
#
# Elastic Compliance Matrix: (Units=1/GPa)
#
#
# Indices 1 2 3 4 5 6 
#
# 1 0.023092 -0.004625 -0.008814 0.000000 -0.002529 0.000000
# 2 -0.004625 0.015967 -0.002770 0.000000 0.004446 0.000000
# 3 -0.008814 -0.002770 0.017832 0.000000 -0.001785 0.000000
# 4 0.000000 0.000000 0.000000 0.027764 0.000000 0.009588
# 5 -0.002529 0.004446 -0.001785 0.000000 0.034929 0.000000
# 6 0.000000 0.000000 0.000000 0.009588 0.000000 0.037254
#
#
# Mechanical properties :
#
#
# Convention : Reuss Voigt Hill
#
# Bulk Modulus (GPa) = 40.86347 41.24285 41.05316
# Shear Modulus (GPa) = 25.32731 28.70462 27.01596
#
# Velocity S-wave (km/s) = 3.48738 3.71262 3.60176
# Velocity P-wave (km/s) = 5.98647 6.17919 6.08359
#
# Compressibility (1/GPa) = 0.02447174
#
# Stress axis : x y z
#
# Youngs Moduli (GPa) = 43.30425 62.62922 56.07983
#
# Poissons Ratio (x) = 0.28967 0.49431
# Poissons Ratio (y) = 0.20029 0.15535
# Poissons Ratio (z) = 0.38170 0.17349
#
# Static dielectric constant tensor:
#      x y z
#    x 3.875300 0.000000 -0.002570 
#    y 0.000000 3.683480 0.000000 
#    z -0.002570 0.000000 3.712300 
# 
# 
# High freq. dielectric constant tensor:
#      x y z
#    x 1.816270 0.000000 -0.005380 
#    y 0.000000 1.814950 0.000000 
#    z -0.005380 0.000000 1.807200 
# 
# From -- ./inp_files/46703.got.cif
#   From: 2010.03.12/outbox.cif.g09.slc.cpg/sg14_24_cif.got.tgz:46703.got - 2010.03.31 13:35:05.
