data_PCOD8125604
_publ_section_title
;
Structure prediction by ZEFSAII (Michael W. Deem and Ramdas Pophale) SiO2 
 PCOD8125604
Probable space group: P 21/C
;
_chemical_formula_sum "Si O2"
_cell_formula_units_Z 28
_cell_length_a 13.178155
_cell_length_b 8.680341
_cell_length_c 11.197133
_cell_angle_alpha 90.000000
_cell_angle_beta 102.060008
_cell_angle_gamma 90.000000
_cell_volume 1252.580648
_symmetry_space_group_name_H-M "P 21/C"
_symmetry_group_IT_number 14
_symmetry_cell_setting 'monoclinic'
loop_
_space_group_symop_operation_xyz
x,y,z
-x,1/2+y,1/2-z
-x,-y,-z
x,1/2-y,1/2+z
loop_
_atom_site_type_symbol
_atom_site_label
_atom_site_fract_x
_atom_site_fract_y
_atom_site_fract_z
Si Si1 0.244355 0.273851 0.690192
Si Si2 0.255657 0.498595 0.038820
Si Si3 0.420432 0.791139 0.670156
Si Si4 0.955297 0.071059 0.612971
Si Si5 0.388334 0.277411 0.929735
Si Si6 0.971369 0.915694 0.868128
Si Si7 0.440518 0.437583 0.626001
O O1 0.282347 0.240348 0.833228
O O2 0.152168 0.396144 0.662805
O O3 0.342046 0.337716 0.643595
O O4 0.203441 0.110657 0.626945
O O5 0.305825 0.654335 0.104651
O O6 0.169117 0.542209 0.920138
O O7 0.355693 0.406592 0.015960
O O8 0.517617 0.856816 0.617931
O O9 0.422169 0.607837 0.667705
O O10 0.449451 0.862448 0.806288
O O11 0.970988 0.253152 0.619102
O O12 0.000921 0.003387 0.750163
O O13 0.000000 0.000000 0.500000
O O14 0.434075 0.108412 0.983577
O O15 0.000000 0.000000 0.000000
#
# Coordination Sequence:
#
# PCOD8125604 Si02
#       7
#     4   4   4   4   4   4   4
#     4  10  22  43  66  93 136 179 224 289 356 421
#     4  11  23  41  65  96 137 175 230 286 353 423
#     4  11  22  39  61  98 131 176 226 279 345 426
#     4  12  26  49  74 109 143 191 242 305 366 438
#     4  10  20  40  64  92 131 181 219 283 352 414
#     4  12  27  49  77 104 145 192 245 307 372 440
#     4  10  22  38  63  92 135 173 226 278 347 421
#
# _framework density 22.353850000000001
#
# number of rings (size 3 to 8) (size 9 to 14) (size 15 to 20)
#    0.000    1.143    2.857    4.286    2.000    1.143 
#    0.000    0.000    0.000    0.000    0.000    0.000 
#    0.000    0.000    0.000    0.000    0.000    0.000 
#
# Total GULP energy -346867.299198 kJ/mol
# GULP energy per Si atom -12388.117829 kJ/mol
# Density = 2.230297 g / cm^3
# Si number density = 22.353850 Si / 1000 Ang^3
#
#
#
# Elastic Constant Matrix: (Units=GPa)
#
#
# Indices 1 2 3 4 5 6 
#
# 1 52.9792 15.5767 25.5841 0.0000 18.3741 0.0000
# 2 15.5767 143.0317 63.2239 0.0000 13.5828 0.0000
# 3 25.5841 63.2239 157.2107 0.0000 15.9056 0.0000
# 4 0.0000 0.0000 0.0000 40.7894 0.0000 10.3288
# 5 18.3741 13.5828 15.9056 0.0000 33.2132 0.0000
# 6 0.0000 0.0000 0.0000 10.3288 0.0000 31.7614
#
#
#
# Elastic Compliance Matrix: (Units=1/GPa)
#
#
# Indices 1 2 3 4 5 6 
#
# 1 0.024446 -0.000358 -0.002607 0.000000 -0.012129 0.000000
# 2 -0.000358 0.008628 -0.003231 0.000000 -0.001783 0.000000
# 3 -0.002607 -0.003231 0.008202 0.000000 -0.001164 0.000000
# 4 0.000000 0.000000 0.000000 0.026716 0.000000 -0.008688
# 5 -0.012129 -0.001783 -0.001164 0.000000 0.038105 0.000000
# 6 0.000000 0.000000 0.000000 -0.008688 0.000000 0.034310
#
#
# Mechanical properties :
#
#
# Convention : Reuss Voigt Hill
#
# Bulk Modulus (GPa) = 34.62139 62.44345 48.53242
# Shear Modulus (GPa) = 30.78265 37.74192 34.26229
#
# Velocity S-wave (km/s) = 3.71491 4.11345 3.91925
# Velocity P-wave (km/s) = 5.82428 7.11023 6.49914
#
# Compressibility (1/GPa) = 0.02888388
#
# Stress axis : x y z
#
# Youngs Moduli (GPa) = 40.90612 115.90098 121.91492
#
# Poissons Ratio (x) = 0.04149 0.31786
# Poissons Ratio (y) = 0.01464 0.39393
# Poissons Ratio (z) = 0.10665 0.37450
#
# Static dielectric constant tensor:
#      x y z
#    x 3.913740 0.000000 0.002470 
#    y 0.000000 3.998570 0.000000 
#    z 0.002470 0.000000 4.625140 
# 
# 
# High freq. dielectric constant tensor:
#      x y z
#    x 1.875250 0.000000 0.008960 
#    y 0.000000 1.881640 0.000000 
#    z 0.008960 0.000000 1.894150 
# 
# From -- ./inp_files/31605.got.cif
#   From: 2010.03.12/outbox.cif.g09.slc.cpg/sg14_16_cif.got.tgz:31605.got - 2010.03.31 13:35:05.
