data_PCOD8125635
_publ_section_title
;
Structure prediction by ZEFSAII (Michael W. Deem and Ramdas Pophale) SiO2 
 PCOD8125635
Probable space group: P 21/C
;
_chemical_formula_sum "Si O2"
_cell_formula_units_Z 32
_cell_length_a 6.666448
_cell_length_b 8.246924
_cell_length_c 27.101964
_cell_angle_alpha 90.000000
_cell_angle_beta 88.529968
_cell_angle_gamma 90.000000
_cell_volume 1489.512985
_symmetry_space_group_name_H-M "P 21/C"
_symmetry_group_IT_number 14
_symmetry_cell_setting 'monoclinic'
loop_
_space_group_symop_operation_xyz
x,y,z
-x,1/2+y,1/2-z
-x,-y,-z
x,1/2-y,1/2+z
loop_
_atom_site_type_symbol
_atom_site_label
_atom_site_fract_x
_atom_site_fract_y
_atom_site_fract_z
Si Si1 0.591078 0.476089 0.599616
Si Si2 0.016260 0.067099 0.613734
Si Si3 0.637838 0.778238 0.330577
Si Si4 0.922837 0.296469 0.534867
Si Si5 0.915920 0.795712 0.139737
Si Si6 0.775889 0.158690 0.700950
Si Si7 0.934451 0.668623 0.243931
Si Si8 0.197428 0.922518 0.060653
O O1 0.466830 0.366930 0.638964
O O2 0.734459 0.369682 0.565007
O O3 0.707098 0.620832 0.626503
O O4 0.435252 0.567036 0.564727
O O5 0.242424 0.098393 0.633791
O O6 0.991779 0.124058 0.557187
O O7 0.865651 0.183924 0.645585
O O8 0.939512 0.884768 0.617971
O O9 0.461170 0.872619 0.301887
O O10 0.778570 0.706824 0.287773
O O11 0.861032 0.278122 0.477548
O O12 0.117193 0.410891 0.537765
O O13 0.923519 0.796383 0.198839
O O14 0.099431 0.896753 0.115233
O O15 0.840343 0.314145 0.733945
O O16 0.898354 0.009248 0.723630
#
# Coordination Sequence:
#
# PCOD8125635 Si02
#       8
#     4   4   4   4   4   4   4   4
#     4  11  22  39  65  92 120 162 214 258 303 383
#     4  10  21  43  59  89 124 162 198 258 313 373
#     4  11  23  37  68  87 119 168 212 243 318 375
#     4  10  20  40  66  90 125 160 210 259 312 378
#     4  10  25  40  60  89 132 157 204 265 314 365
#     4  10  23  40  59  88 119 160 202 252 304 364
#     4  10  25  38  61  88 125 156 204 254 305 370
#     4  10  22  39  64  95 121 166 207 258 314 373
#
# _framework density 21.483530999999999
#
# number of rings (size 3 to 8) (size 9 to 14) (size 15 to 20)
#    0.000    1.750    2.500    0.375    5.250    4.500 
#    0.000    0.625    0.000    0.000    0.000    0.000 
#    0.000    0.000    0.000    0.000    0.000    0.000 
#
# Total GULP energy -396603.327639 kJ/mol
# GULP energy per Si atom -12393.853989 kJ/mol
# Density = 2.143463 g / cm^3
# Si number density = 21.483531 Si / 1000 Ang^3
#
#
#
# Elastic Constant Matrix: (Units=GPa)
#
#
# Indices 1 2 3 4 5 6 
#
# 1 125.6499 18.8596 31.7935 0.0000 14.3908 0.0000
# 2 18.8596 52.2586 9.8712 0.0000 3.4733 0.0000
# 3 31.7935 9.8712 74.6952 0.0000 0.9085 0.0000
# 4 0.0000 0.0000 0.0000 30.4392 0.0000 0.2273
# 5 14.3908 3.4733 0.9085 0.0000 24.6286 0.0000
# 6 0.0000 0.0000 0.0000 0.2273 0.0000 28.4673
#
#
#
# Elastic Compliance Matrix: (Units=1/GPa)
#
#
# Indices 1 2 3 4 5 6 
#
# 1 0.009908 -0.002502 -0.003822 0.000000 -0.005295 0.000000
# 2 -0.002502 0.020435 -0.001619 0.000000 -0.001360 0.000000
# 3 -0.003822 -0.001619 0.015205 0.000000 0.001901 0.000000
# 4 0.000000 0.000000 0.000000 0.032854 0.000000 -0.000262
# 5 -0.005295 -0.001360 0.001901 0.000000 0.043819 0.000000
# 6 0.000000 0.000000 0.000000 -0.000262 0.000000 0.035130
#
#
# Mechanical properties :
#
#
# Convention : Reuss Voigt Hill
#
# Bulk Modulus (GPa) = 33.71321 41.51691 37.61506
# Shear Modulus (GPa) = 27.30379 29.51230 28.40804
#
# Velocity S-wave (km/s) = 3.56886 3.71039 3.64031
# Velocity P-wave (km/s) = 5.71918 6.14190 5.93430
#
# Compressibility (1/GPa) = 0.02966197
#
# Stress axis : x y z
#
# Youngs Moduli (GPa) = 100.93133 48.93635 65.76580
#
# Poissons Ratio (x) = 0.12242 0.25137
# Poissons Ratio (y) = 0.25250 0.10649
# Poissons Ratio (z) = 0.38577 0.07924
#
# Static dielectric constant tensor:
#      x y z
#    x 4.054660 0.000000 0.133270 
#    y 0.000000 3.644660 0.000000 
#    z 0.133270 0.000000 4.306420 
# 
# 
# High freq. dielectric constant tensor:
#      x y z
#    x 1.844970 0.000000 0.007590 
#    y 0.000000 1.823060 0.000000 
#    z 0.007590 0.000000 1.857020 
# 
# From -- ./inp_files/78831.got.cif
#   From: 2010.03.12/outbox.cif.g09.slc.cpg/sg14_40_cif.got.tgz:78831.got - 2010.03.31 13:35:05.
