data_PCOD8125393
_publ_section_title
;
Structure prediction by ZEFSAII (Michael W. Deem and Ramdas Pophale) SiO2 
 PCOD8125393
Probable space group: P 21/C
;
_chemical_formula_sum "Si O2"
_cell_formula_units_Z 28
_cell_length_a 9.376057
_cell_length_b 10.722279
_cell_length_c 14.168973
_cell_angle_alpha 90.000000
_cell_angle_beta 100.822015
_cell_angle_gamma 90.000000
_cell_volume 1399.111599
_symmetry_space_group_name_H-M "P 21/C"
_symmetry_group_IT_number 14
_symmetry_cell_setting 'monoclinic'
loop_
_space_group_symop_operation_xyz
x,y,z
-x,1/2+y,1/2-z
-x,-y,-z
x,1/2-y,1/2+z
loop_
_atom_site_type_symbol
_atom_site_label
_atom_site_fract_x
_atom_site_fract_y
_atom_site_fract_z
Si Si1 0.083240 0.566593 0.296427
Si Si2 0.560275 0.829828 0.718195
Si Si3 0.214529 0.730694 0.935992
Si Si4 0.777093 0.451046 0.226114
Si Si5 0.235353 0.706122 0.151168
Si Si6 0.334175 0.100901 0.884176
Si Si7 0.492584 0.141168 0.084282
O O1 0.098193 0.677006 0.374133
O O2 0.142892 0.610254 0.202187
O O3 0.171849 0.446694 0.344679
O O4 0.916217 0.533212 0.268249
O O5 0.397745 0.845811 0.659535
O O6 0.646622 0.722972 0.675317
O O7 0.556789 0.787926 0.827676
O O8 0.637091 0.961988 0.713633
O O9 0.210422 0.600916 0.878764
O O10 0.375633 0.788916 0.951150
O O11 0.166703 0.711754 0.038203
O O12 0.760192 0.341430 0.300164
O O13 0.454145 0.995719 0.874902
O O14 0.355016 0.133823 0.997517
#
# Coordination Sequence:
#
# PCOD8125393 Si02
#       7
#     4   4   4   4   4   4   4
#     4  10  24  44  64  90 133 173 200 270 317 384
#     4  12  22  38  66  96 122 169 210 269 315 370
#     4  10  22  43  65  92 127 165 212 270 317 377
#     4  11  26  42  63  96 134 165 215 259 325 388
#     4  11  23  43  68  91 128 167 217 266 318 368
#     4  10  21  38  63  89 125 160 220 252 319 370
#     4  10  20  38  65  93 120 163 213 273 308 368
#
# _framework density 20.012699000000001
#
# number of rings (size 3 to 8) (size 9 to 14) (size 15 to 20)
#    0.000    1.429    5.714    0.857    8.000    1.714 
#    2.571    0.000    0.000    0.000    0.000    0.000 
#    0.000    0.000    0.000    0.000    0.000    0.000 
#
# Total GULP energy -347277.619621 kJ/mol
# GULP energy per Si atom -12402.772129 kJ/mol
# Density = 1.996715 g / cm^3
# Si number density = 20.012699 Si / 1000 Ang^3
#
#
#
# Elastic Constant Matrix: (Units=GPa)
#
#
# Indices 1 2 3 4 5 6 
#
# 1 79.5689 35.2104 20.3503 0.0000 14.4551 0.0000
# 2 35.2104 58.7626 27.7211 0.0000 9.2787 0.0000
# 3 20.3503 27.7211 141.2130 0.0000 0.3806 0.0000
# 4 0.0000 0.0000 0.0000 26.1479 0.0000 2.9366
# 5 14.4551 9.2787 0.3806 0.0000 14.0796 0.0000
# 6 0.0000 0.0000 0.0000 2.9366 0.0000 23.8791
#
#
#
# Elastic Compliance Matrix: (Units=1/GPa)
#
#
# Indices 1 2 3 4 5 6 
#
# 1 0.019283 -0.008887 -0.000997 0.000000 -0.013914 0.000000
# 2 -0.008887 0.025236 -0.003653 0.000000 -0.007408 0.000000
# 3 -0.000997 -0.003653 0.007934 0.000000 0.003216 0.000000
# 4 0.000000 0.000000 0.000000 0.038780 0.000000 -0.004769
# 5 -0.013914 -0.007408 0.003216 0.000000 0.090104 0.000000
# 6 0.000000 0.000000 0.000000 -0.004769 0.000000 0.042464
#
#
# Mechanical properties :
#
#
# Convention : Reuss Voigt Hill
#
# Bulk Modulus (GPa) = 39.40396 49.56757 44.48577
# Shear Modulus (GPa) = 19.28014 25.90552 22.59283
#
# Velocity S-wave (km/s) = 3.10723 3.60176 3.36359
# Velocity P-wave (km/s) = 5.71011 6.48989 6.11245
#
# Compressibility (1/GPa) = 0.02537816
#
# Stress axis : x y z
#
# Youngs Moduli (GPa) = 51.85919 39.62606 126.04548
#
# Poissons Ratio (x) = 0.35216 0.12564
# Poissons Ratio (y) = 0.46088 0.46048
# Poissons Ratio (z) = 0.05169 0.14477
#
# Static dielectric constant tensor:
#      x y z
#    x 3.371590 0.000000 0.060600 
#    y 0.000000 3.660030 0.000000 
#    z 0.060600 0.000000 3.791110 
# 
# 
# High freq. dielectric constant tensor:
#      x y z
#    x 1.760490 0.000000 0.003680 
#    y 0.000000 1.778430 0.000000 
#    z 0.003680 0.000000 1.791460 
# 
# From -- ./inp_files/39749.got.cif
#   From: 2010.03.12/outbox.cif.g09.slc.cpg/sg14_20_cif.got.tgz:39749.got - 2010.03.31 13:35:05.
