data_PCOD8125319
_publ_section_title
;
Structure prediction by ZEFSAII (Michael W. Deem and Ramdas Pophale) SiO2 
 PCOD8125319
Probable space group: P 21/C
;
_chemical_formula_sum "Si O2"
_cell_formula_units_Z 32
_cell_length_a 9.418839
_cell_length_b 14.233881
_cell_length_c 13.245507
_cell_angle_alpha 90.000000
_cell_angle_beta 116.541880
_cell_angle_gamma 90.000000
_cell_volume 1588.627430
_symmetry_space_group_name_H-M "P 21/C"
_symmetry_group_IT_number 14
_symmetry_cell_setting 'monoclinic'
loop_
_space_group_symop_operation_xyz
x,y,z
-x,1/2+y,1/2-z
-x,-y,-z
x,1/2-y,1/2+z
loop_
_atom_site_type_symbol
_atom_site_label
_atom_site_fract_x
_atom_site_fract_y
_atom_site_fract_z
Si Si1 0.175579 0.677533 0.865799
Si Si2 0.840342 0.380830 0.594816
Si Si3 0.635575 0.421693 0.922527
Si Si4 0.497497 0.282232 0.143282
Si Si5 0.658236 0.895938 0.556843
Si Si6 0.126721 0.501222 0.734456
Si Si7 0.368319 0.916093 0.156156
Si Si8 0.586652 0.076691 0.181425
O O1 0.089554 0.778460 0.849937
O O2 0.344573 0.692397 0.867500
O O3 0.074719 0.601212 0.768914
O O4 0.211049 0.633761 0.986975
O O5 0.753945 0.367000 0.459761
O O6 0.720966 0.420484 0.639993
O O7 0.981208 0.456152 0.627338
O O8 0.469296 0.369502 0.895914
O O9 0.669726 0.436265 0.816020
O O10 0.606484 0.520162 0.967290
O O11 0.517890 0.337382 0.256532
O O12 0.482156 0.171303 0.154094
O O13 0.342874 0.310518 0.025810
O O14 0.822910 0.924396 0.663725
O O15 0.275071 0.521285 0.708784
O O16 0.474705 0.987615 0.124332
#
# Coordination Sequence:
#
# PCOD8125319 Si02
#       8
#     4   4   4   4   4   4   4   4
#     4   8  18  35  57  81 104 150 190 222 274 328
#     4  11  23  36  52  83 121 147 175 228 286 336
#     4   9  14  30  60  78 100 134 190 229 256 321
#     4   9  18  32  59  85 107 141 191 231 269 325
#     4   9  15  32  57  82  98 134 189 235 256 308
#     4  10  20  38  61  79 108 151 190 223 268 337
#     4  11  20  38  59  82 108 151 191 224 269 331
#     4  11  20  34  55  87 114 144 180 231 288 319
#
# _framework density 20.143173999999998
#
# number of rings (size 3 to 8) (size 9 to 14) (size 15 to 20)
#    0.000    2.250    2.500    3.000    0.000    0.000 
#    2.250    3.750    0.000    0.000    0.000    0.000 
#    0.000    0.000    0.000    0.000    0.000    0.000 
#
# Total GULP energy -396462.923010 kJ/mol
# GULP energy per Si atom -12389.466344 kJ/mol
# Density = 2.009733 g / cm^3
# Si number density = 20.143174 Si / 1000 Ang^3
#
#
#
# Elastic Constant Matrix: (Units=GPa)
#
#
# Indices 1 2 3 4 5 6 
#
# 1 22.7323 4.9350 -0.6470 0.0000 -4.1544 0.0000
# 2 4.9350 59.6868 -9.9404 0.0000 7.3309 0.0000
# 3 -0.6470 -9.9404 65.1180 0.0000 -12.6183 0.0000
# 4 0.0000 0.0000 0.0000 21.4682 0.0000 -0.1266
# 5 -4.1544 7.3309 -12.6183 0.0000 17.5036 0.0000
# 6 0.0000 0.0000 0.0000 -0.1266 0.0000 21.7352
#
#
#
# Elastic Compliance Matrix: (Units=1/GPa)
#
#
# Indices 1 2 3 4 5 6 
#
# 1 0.048106 -0.005452 0.002674 0.000000 0.015629 0.000000
# 2 -0.005452 0.018402 0.001175 0.000000 -0.008154 0.000000
# 3 0.002674 0.001175 0.018122 0.000000 0.013207 0.000000
# 4 0.000000 0.000000 0.000000 0.046582 0.000000 0.000271
# 5 0.015629 -0.008154 0.013207 0.000000 0.073776 0.000000
# 6 0.000000 0.000000 0.000000 0.000271 0.000000 0.046010
#
#
# Mechanical properties :
#
#
# Convention : Reuss Voigt Hill
#
# Bulk Modulus (GPa) = 12.28124 15.13693 13.70908
# Shear Modulus (GPa) = 17.77178 22.35405 20.06292
#
# Velocity S-wave (km/s) = 2.97353 3.33492 3.15940
# Velocity P-wave (km/s) = 4.23077 4.72862 4.48661
#
# Compressibility (1/GPa) = 0.08142502
#
# Stress axis : x y z
#
# Youngs Moduli (GPa) = 20.78730 54.34182 55.18228
#
# Poissons Ratio (x) = 0.29626 -0.14758
# Poissons Ratio (y) = 0.11333 -0.06483
# Poissons Ratio (z) = -0.05559 -0.06384
#
# Static dielectric constant tensor:
#      x y z
#    x 3.117820 0.000000 -0.266180 
#    y 0.000000 3.834660 0.000000 
#    z -0.266180 0.000000 3.765030 
# 
# 
# High freq. dielectric constant tensor:
#      x y z
#    x 1.729190 0.000000 -0.023500 
#    y 0.000000 1.789130 0.000000 
#    z -0.023500 0.000000 1.790360 
# 
# From -- ./inp_files/41234.got.cif
#   From: 2010.03.12/outbox.cif.g09.slc.cpg/sg14_21_cif.got.tgz:41234.got - 2010.03.31 13:35:05.
