data_PCOD8125520
_publ_section_title
;
Structure prediction by ZEFSAII (Michael W. Deem and Ramdas Pophale) SiO2 
 PCOD8125520
Probable space group: P 21/C
;
_chemical_formula_sum "Si O2"
_cell_formula_units_Z 24
_cell_length_a 15.195773
_cell_length_b 5.883171
_cell_length_c 14.722377
_cell_angle_alpha 90.000000
_cell_angle_beta 129.847441
_cell_angle_gamma 90.000000
_cell_volume 1010.494296
_symmetry_space_group_name_H-M "P 21/C"
_symmetry_group_IT_number 14
_symmetry_cell_setting 'monoclinic'
loop_
_space_group_symop_operation_xyz
x,y,z
-x,1/2+y,1/2-z
-x,-y,-z
x,1/2-y,1/2+z
loop_
_atom_site_type_symbol
_atom_site_label
_atom_site_fract_x
_atom_site_fract_y
_atom_site_fract_z
Si Si1 0.647432 0.109056 0.943492
Si Si2 0.754945 0.666550 0.756879
Si Si3 0.931032 0.321230 0.899290
Si Si4 0.420599 0.860609 0.777021
Si Si5 0.630174 0.063270 0.597524
Si Si6 0.140081 0.050023 0.017176
O O1 0.604175 0.301135 0.844028
O O2 0.555636 0.902169 0.885520
O O3 0.768023 0.985409 0.001965
O O4 0.664318 0.237098 0.050344
O O5 0.834048 0.452535 0.772963
O O6 0.637437 0.591596 0.727314
O O7 0.826846 0.772010 0.884735
O O8 0.718688 0.847142 0.653338
O O9 0.867291 0.189262 0.937627
O O10 0.000000 0.500000 0.000000
O O11 0.016086 0.149688 0.898295
O O12 0.364748 0.654838 0.796388
O O13 0.500000 0.000000 0.500000
#
# Coordination Sequence:
#
# PCOD8125520 Si02
#       6
#     4   4   4   4   4   4
#     4  12  23  39  67  98 142 188 242 286 356 443
#     4  11  20  41  64  95 141 182 227 292 362 418
#     4   9  19  37  68 100 125 169 234 294 353 418
#     4  12  24  44  62 101 144 181 227 292 354 428
#     4  12  25  41  60 103 143 194 232 282 361 440
#     4  10  20  39  65 105 123 181 235 291 356 425
#
# _framework density 23.750751000000001
#
# number of rings (size 3 to 8) (size 9 to 14) (size 15 to 20)
#    0.000    1.000    5.000    2.500    0.000    0.000 
#    0.000    0.000    0.000    0.000   73.667    0.000 
#    0.000    0.000    0.000    0.000    0.000    0.000 
#
# Total GULP energy -297313.559680 kJ/mol
# GULP energy per Si atom -12388.064987 kJ/mol
# Density = 2.369669 g / cm^3
# Si number density = 23.750751 Si / 1000 Ang^3
#
#
#
# Elastic Constant Matrix: (Units=GPa)
#
#
# Indices 1 2 3 4 5 6 
#
# 1 132.3790 53.2068 50.8676 0.0000 27.6300 0.0000
# 2 53.2068 103.1136 28.8580 0.0000 17.0920 0.0000
# 3 50.8676 28.8580 65.7666 0.0000 8.9384 0.0000
# 4 0.0000 0.0000 0.0000 56.5502 0.0000 23.2748
# 5 27.6300 17.0920 8.9384 0.0000 32.4452 0.0000
# 6 0.0000 0.0000 0.0000 23.2748 0.0000 42.8545
#
#
#
# Elastic Compliance Matrix: (Units=1/GPa)
#
#
# Indices 1 2 3 4 5 6 
#
# 1 0.013603 -0.003549 -0.007941 0.000000 -0.007527 0.000000
# 2 -0.003549 0.012705 -0.002422 0.000000 -0.003003 0.000000
# 3 -0.007941 -0.002422 0.022147 0.000000 0.001937 0.000000
# 4 0.000000 0.000000 0.000000 0.022774 0.000000 -0.012369
# 5 -0.007527 -0.003003 0.001937 0.000000 0.038280 0.000000
# 6 0.000000 0.000000 0.000000 -0.012369 0.000000 0.030052
#
#
# Mechanical properties :
#
#
# Convention : Reuss Voigt Hill
#
# Bulk Modulus (GPa) = 48.47038 63.01378 55.74208
# Shear Modulus (GPa) = 28.69262 37.59179 33.14220
#
# Velocity S-wave (km/s) = 3.47950 3.98271 3.73958
# Velocity P-wave (km/s) = 6.04937 6.90928 6.49357
#
# Compressibility (1/GPa) = 0.02063116
#
# Stress axis : x y z
#
# Youngs Moduli (GPa) = 73.51384 78.70954 45.15370
#
# Poissons Ratio (x) = 0.27935 0.35856
# Poissons Ratio (y) = 0.26091 0.10934
# Poissons Ratio (z) = 0.58377 0.19060
#
# Static dielectric constant tensor:
#      x y z
#    x 4.631860 0.000000 0.672710 
#    y 0.000000 4.863910 0.000000 
#    z 0.672710 0.000000 4.718780 
# 
# 
# High freq. dielectric constant tensor:
#      x y z
#    x 1.935080 0.000000 0.038120 
#    y 0.000000 1.960960 0.000000 
#    z 0.038120 0.000000 1.919300 
# 
# From -- ./inp_files/45991.got.cif
#   From: 2010.03.12/outbox.cif.g09.slc.cpg/sg14_23_cif.got.tgz:45991.got - 2010.03.31 13:35:05.
