data_PCOD8125904
_publ_section_title
;
Structure prediction by ZEFSAII (Michael W. Deem and Ramdas Pophale) SiO2 
 PCOD8125904
Probable space group: P 21/C
;
_chemical_formula_sum "Si O2"
_cell_formula_units_Z 24
_cell_length_a 21.577944
_cell_length_b 8.061709
_cell_length_c 10.076819
_cell_angle_alpha 90.000000
_cell_angle_beta 32.105915
_cell_angle_gamma 90.000000
_cell_volume 931.649362
_symmetry_space_group_name_H-M "P 21/C"
_symmetry_group_IT_number 14
_symmetry_cell_setting 'monoclinic'
loop_
_space_group_symop_operation_xyz
x,y,z
-x,1/2+y,1/2-z
-x,-y,-z
x,1/2-y,1/2+z
loop_
_atom_site_type_symbol
_atom_site_label
_atom_site_fract_x
_atom_site_fract_y
_atom_site_fract_z
Si Si1 0.985012 0.499449 0.736185
Si Si2 0.633194 0.858644 0.140476
Si Si3 0.830463 0.290147 0.501292
Si Si4 0.492134 0.319506 0.857730
Si Si5 0.708235 0.136425 0.489187
Si Si6 0.850728 0.829154 0.267612
O O1 0.061397 0.580419 0.714951
O O2 0.070873 0.377484 0.499046
O O3 0.937829 0.658861 0.735831
O O4 0.876890 0.386437 0.974795
O O5 0.593616 0.850432 0.364824
O O6 0.582642 0.709221 0.140126
O O7 0.586567 0.031843 0.164229
O O8 0.776448 0.842097 0.882943
O O9 0.768266 0.278613 0.472176
O O10 0.742376 0.354095 0.772559
O O11 0.569197 0.155615 0.747911
O O12 0.746948 0.962419 0.479981
#
# Coordination Sequence:
#
# PCOD8125904 Si02
#       6
#     4   4   4   4   4   4
#     4   9  20  37  58  88 123 157 205 256 309 370
#     4  11  25  42  65  93 125 165 210 258 316 377
#     4  10  21  36  58  85 117 160 202 254 312 367
#     4  11  25  43  63  95 128 163 213 262 310 380
#     4  10  21  38  59  84 119 160 202 251 311 367
#     4   9  20  40  61  84 122 168 202 249 314 375
#
# _framework density 25.760762
#
# number of rings (size 3 to 8) (size 9 to 14) (size 15 to 20)
#    0.000    2.000    0.000    3.000    0.000   14.000 
#    0.000    0.000    0.000    0.000    0.000    0.000 
#    0.000    0.000    0.000    0.000    0.000    0.000 
#
# Total GULP energy -297386.143150 kJ/mol
# GULP energy per Si atom -12391.089298 kJ/mol
# Density = 2.570213 g / cm^3
# Si number density = 25.760762 Si / 1000 Ang^3
#
#
#
# Elastic Constant Matrix: (Units=GPa)
#
#
# Indices 1 2 3 4 5 6 
#
# 1 92.1750 -0.1804 33.0960 0.0000 -12.3800 0.0000
# 2 -0.1804 22.3662 4.0520 0.0000 5.0251 0.0000
# 3 33.0960 4.0520 40.4508 0.0000 -17.9467 0.0000
# 4 0.0000 0.0000 0.0000 43.6690 0.0000 -15.8540
# 5 -12.3800 5.0251 -17.9467 0.0000 29.1890 0.0000
# 6 0.0000 0.0000 0.0000 -15.8540 0.0000 28.8700
#
#
#
# Elastic Compliance Matrix: (Units=1/GPa)
#
#
# Indices 1 2 3 4 5 6 
#
# 1 0.015640 0.003352 -0.014363 0.000000 -0.002775 0.000000
# 2 0.003352 0.051307 -0.015360 0.000000 -0.016855 0.000000
# 3 -0.014363 -0.015360 0.050167 0.000000 0.027397 0.000000
# 4 0.000000 0.000000 0.000000 0.028602 0.000000 0.015707
# 5 -0.002775 -0.016855 0.027397 0.000000 0.052829 0.000000
# 6 0.000000 0.000000 0.000000 0.015707 0.000000 0.043263
#
#
# Mechanical properties :
#
#
# Convention : Reuss Voigt Hill
#
# Bulk Modulus (GPa) = 15.53489 25.43637 20.48563
# Shear Modulus (GPa) = 15.82237 28.21386 22.01811
#
# Velocity S-wave (km/s) = 2.48100 3.31301 2.92672
# Velocity P-wave (km/s) = 3.77501 4.95280 4.40346
#
# Compressibility (1/GPa) = 0.06437121
#
# Stress axis : x y z
#
# Youngs Moduli (GPa) = 63.93867 19.49053 19.93346
#
# Poissons Ratio (x) = -0.06533 0.28631
# Poissons Ratio (y) = -0.21430 0.30618
# Poissons Ratio (z) = 0.91836 0.29937
#
# Static dielectric constant tensor:
#      x y z
#    x 4.610870 0.000000 -0.431830 
#    y 0.000000 4.737070 0.000000 
#    z -0.431830 0.000000 4.380690 
# 
# 
# High freq. dielectric constant tensor:
#      x y z
#    x 2.033620 0.000000 -0.026980 
#    y 0.000000 2.021610 0.000000 
#    z -0.026980 0.000000 2.012390 
# 
# From -- ./inp_files/35677.got.cif
#   From: 2010.03.12/outbox.cif.g09.slc.cpg/sg14_18_cif.got.tgz:35677.got - 2010.03.31 13:35:05.
