data_PCOD8125870
_publ_section_title
;
Structure prediction by ZEFSAII (Michael W. Deem and Ramdas Pophale) SiO2 
 PCOD8125870
Probable space group: P 21/C
;
_chemical_formula_sum "Si O2"
_cell_formula_units_Z 32
_cell_length_a 25.376090
_cell_length_b 4.947545
_cell_length_c 12.408034
_cell_angle_alpha 90.000000
_cell_angle_beta 115.625415
_cell_angle_gamma 90.000000
_cell_volume 1404.594545
_symmetry_space_group_name_H-M "P 21/C"
_symmetry_group_IT_number 14
_symmetry_cell_setting 'monoclinic'
loop_
_space_group_symop_operation_xyz
x,y,z
-x,1/2+y,1/2-z
-x,-y,-z
x,1/2-y,1/2+z
loop_
_atom_site_type_symbol
_atom_site_label
_atom_site_fract_x
_atom_site_fract_y
_atom_site_fract_z
Si Si1 0.002825 0.968453 0.179617
Si Si2 0.250126 0.029488 0.500259
Si Si3 0.391073 0.944584 0.032975
Si Si4 0.508530 0.416168 0.685166
Si Si5 0.905748 0.545507 0.417791
Si Si6 0.266634 0.970929 0.872466
Si Si7 0.829659 0.452110 0.882832
Si Si8 0.625372 0.554711 0.841411
O O1 0.000411 0.663431 0.220331
O O2 0.063272 0.011948 0.169927
O O3 0.949107 0.028076 0.053047
O O4 0.248458 0.331484 0.453295
O O5 0.307020 0.994994 0.630037
O O6 0.254088 0.830260 0.402473
O O7 0.190294 0.974016 0.511003
O O8 0.389174 0.633073 0.067155
O O9 0.457516 0.016621 0.050347
O O10 0.381234 0.133488 0.130179
O O11 0.336231 0.003566 0.903744
O O12 0.496878 0.609257 0.779412
O O13 0.576073 0.478341 0.706202
O O14 0.849975 0.350169 0.374576
O O15 0.884018 0.852081 0.407951
O O16 0.226988 0.035073 0.735427
#
# Coordination Sequence:
#
# PCOD8125870 Si02
#       8
#     4   4   4   4   4   4   4   4
#     4  11  24  45  70  92 122 155 182 229 280 318
#     4  10  21  36  54  79 112 151 192 233 282 336
#     4   8  14  25  42  66  96 132 178 227 277 332
#     4   8  12  20  38  63  90 125 172 226 278 327
#     4  11  26  42  62  96 120 147 196 226 266 337
#     4  10  21  36  54  79 112 151 192 233 282 336
#     4  12  24  39  60  87 122 154 188 234 272 324
#     4   8  14  25  42  66  96 132 178 227 277 332
#
# _framework density 22.782374000000001
#
# number of rings (size 3 to 8) (size 9 to 14) (size 15 to 20)
#    0.000    2.250    0.000    3.000    0.000    8.000 
#    0.000    0.000    0.000    0.750    0.000    0.000 
#    0.000   32.000    0.000    0.000    0.000    4.250 
#
# Total GULP energy -396531.503920 kJ/mol
# GULP energy per Si atom -12391.609498 kJ/mol
# Density = 2.273052 g / cm^3
# Si number density = 22.782374 Si / 1000 Ang^3
#
#
#
# Elastic Constant Matrix: (Units=GPa)
#
#
# Indices 1 2 3 4 5 6 
#
# 1 82.4356 3.6662 20.0018 0.0000 14.2241 0.0000
# 2 3.6662 77.0429 5.4496 0.0000 5.7506 0.0000
# 3 20.0018 5.4496 40.6653 0.0000 12.9028 0.0000
# 4 0.0000 0.0000 0.0000 24.8960 0.0000 7.8345
# 5 14.2241 5.7506 12.9028 0.0000 21.3661 0.0000
# 6 0.0000 0.0000 0.0000 7.8345 0.0000 33.7653
#
#
#
# Elastic Compliance Matrix: (Units=1/GPa)
#
#
# Indices 1 2 3 4 5 6 
#
# 1 0.014494 0.000163 -0.005041 0.000000 -0.006648 0.000000
# 2 0.000163 0.013269 -0.000855 0.000000 -0.003164 0.000000
# 3 -0.005041 -0.000855 0.032221 0.000000 -0.015872 0.000000
# 4 0.000000 0.000000 0.000000 0.043331 0.000000 -0.010054
# 5 -0.006648 -0.003164 -0.015872 0.000000 0.061666 0.000000
# 6 0.000000 0.000000 0.000000 -0.010054 0.000000 0.031949
#
#
# Mechanical properties :
#
#
# Convention : Reuss Voigt Hill
#
# Bulk Modulus (GPa) = 20.61086 28.70876 24.65981
# Shear Modulus (GPa) = 22.26503 27.40722 24.83613
#
# Velocity S-wave (km/s) = 3.12956 3.47219 3.30532
# Velocity P-wave (km/s) = 4.70376 5.35756 5.04127
#
# Compressibility (1/GPa) = 0.04851811
#
# Stress axis : x y z
#
# Youngs Moduli (GPa) = 68.99496 75.36583 31.03550
#
# Poissons Ratio (x) = -0.01230 0.15646
# Poissons Ratio (y) = -0.01126 0.02652
# Poissons Ratio (z) = 0.34783 0.06440
#
# Static dielectric constant tensor:
#      x y z
#    x 4.224630 0.000000 0.588260 
#    y 0.000000 3.976910 0.000000 
#    z 0.588260 0.000000 3.672920 
# 
# 
# High freq. dielectric constant tensor:
#      x y z
#    x 1.900210 0.000000 0.045150 
#    y 0.000000 1.910210 0.000000 
#    z 0.045150 0.000000 1.862340 
# 
# From -- ./inp_files/35607.got.cif
#   From: 2010.03.12/outbox.cif.g09.slc.cpg/sg14_18_cif.got.tgz:35607.got - 2010.03.31 13:35:05.
