data_PCOD8125498
_publ_section_title
;
Structure prediction by ZEFSAII (Michael W. Deem and Ramdas Pophale) SiO2 
 PCOD8125498
Probable space group: P 21/C
;
_chemical_formula_sum "Si O2"
_cell_formula_units_Z 28
_cell_length_a 25.905264
_cell_length_b 13.267941
_cell_length_c 20.531999
_cell_angle_alpha 90.000000
_cell_angle_beta 168.001399
_cell_angle_gamma 90.000000
_cell_volume 1467.073279
_symmetry_space_group_name_H-M "P 21/C"
_symmetry_group_IT_number 14
_symmetry_cell_setting 'monoclinic'
loop_
_space_group_symop_operation_xyz
x,y,z
-x,1/2+y,1/2-z
-x,-y,-z
x,1/2-y,1/2+z
loop_
_atom_site_type_symbol
_atom_site_label
_atom_site_fract_x
_atom_site_fract_y
_atom_site_fract_z
Si Si1 0.036191 0.072129 0.145169
Si Si2 0.123394 0.133027 0.108415
Si Si3 0.385846 0.775357 0.346802
Si Si4 0.908738 0.568347 0.829219
Si Si5 0.249798 0.782710 0.812447
Si Si6 0.568277 0.536011 0.757516
Si Si7 0.286558 0.949683 0.693605
O O1 0.149506 0.113141 0.217676
O O2 0.267225 0.055124 0.477280
O O3 0.842176 0.146119 0.941954
O O4 0.899627 0.967239 0.962552
O O5 0.366199 0.187102 0.381489
O O6 0.871138 0.200531 0.787957
O O7 0.434080 0.762667 0.484551
O O8 0.327378 0.670174 0.238382
O O9 0.612570 0.560872 0.455306
O O10 0.000000 0.500000 0.000000
O O11 0.012663 0.678249 0.976377
O O12 0.024967 0.529224 0.905227
O O13 0.396916 0.865743 0.034811
O O14 0.735547 0.506703 0.902228
O O15 0.500000 0.000000 0.000000
#
# Coordination Sequence:
#
# PCOD8125498 Si02
#       7
#     4   4   4   4   4   4   4
#     4  10  24  42  57  88 119 160 203 250 284 361
#     4  10  21  42  64  77 114 170 208 228 304 350
#     4  10  20  39  64  82 116 160 199 241 297 364
#     4   9  17  31  57  84 116 154 183 234 306 348
#     4   9  19  35  60  88 114 152 198 247 295 362
#     4  11  21  37  57  89 128 145 200 256 298 351
#     4  11  19  35  60  91 117 153 195 243 307 353
#
# _framework density 19.085616999999999
#
# number of rings (size 3 to 8) (size 9 to 14) (size 15 to 20)
#    0.000    2.000    4.286    1.286    2.000    1.143 
#   12.857    0.000    0.000    0.000    0.000    0.000 
#    0.000    0.000    0.000    0.000    0.000    0.000 
#
# Total GULP energy -347005.064310 kJ/mol
# GULP energy per Si atom -12393.038011 kJ/mol
# Density = 1.904218 g / cm^3
# Si number density = 19.085617 Si / 1000 Ang^3
#
#
#
# Elastic Constant Matrix: (Units=GPa)
#
#
# Indices 1 2 3 4 5 6 
#
# 1 94.7489 43.6764 57.7701 0.0000 10.3169 0.0000
# 2 43.6764 106.1354 34.2089 0.0000 1.1383 0.0000
# 3 57.7701 34.2089 74.3374 0.0000 -0.7014 0.0000
# 4 0.0000 0.0000 0.0000 28.8895 0.0000 15.8097
# 5 10.3169 1.1383 -0.7014 0.0000 36.8186 0.0000
# 6 0.0000 0.0000 0.0000 15.8097 0.0000 10.4753
#
#
#
# Elastic Compliance Matrix: (Units=1/GPa)
#
#
# Indices 1 2 3 4 5 6 
#
# 1 0.022948 -0.004232 -0.015949 0.000000 -0.006603 0.000000
# 2 -0.004232 0.011850 -0.002157 0.000000 0.000778 0.000000
# 3 -0.015949 -0.002157 0.026887 0.000000 0.005048 0.000000
# 4 0.000000 0.000000 0.000000 0.198852 0.000000 -0.300114
# 5 -0.006603 0.000778 0.005048 0.000000 0.029083 0.000000
# 6 0.000000 0.000000 0.000000 -0.300114 0.000000 0.548404
#
#
# Mechanical properties :
#
#
# Convention : Reuss Voigt Hill
#
# Bulk Modulus (GPa) = 58.79019 60.72583 59.75801
# Shear Modulus (GPa) = 5.62829 24.54110 15.08469
#
# Velocity S-wave (km/s) = 1.71912 3.58975 2.81440
# Velocity P-wave (km/s) = 5.90006 7.00489 6.47608
#
# Compressibility (1/GPa) = 0.01700964
#
# Stress axis : x y z
#
# Youngs Moduli (GPa) = 43.57611 84.38482 37.19325
#
# Poissons Ratio (x) = 0.35715 0.59318
# Poissons Ratio (y) = 0.18443 0.08022
# Poissons Ratio (z) = 0.69498 0.18201
#
# Static dielectric constant tensor:
#      x y z
#    x 3.591230 0.000000 0.419570 
#    y 0.000000 3.987900 0.000000 
#    z 0.419570 0.000000 3.504780 
# 
# 
# High freq. dielectric constant tensor:
#      x y z
#    x 1.740140 0.000000 0.030540 
#    y 0.000000 1.754440 0.000000 
#    z 0.030540 0.000000 1.716450 
# 
# From -- ./inp_files/75336.got.cif
#   From: 2010.03.12/outbox.cif.g09.slc.cpg/sg14_38_cif.got.tgz:75336.got - 2010.03.31 13:35:05.
