data_PCOD8125851
_publ_section_title
;
Structure prediction by ZEFSAII (Michael W. Deem and Ramdas Pophale) SiO2 
 PCOD8125851
Probable space group: P 21/C
;
_chemical_formula_sum "Si O2"
_cell_formula_units_Z 32
_cell_length_a 14.040063
_cell_length_b 13.065068
_cell_length_c 8.564108
_cell_angle_alpha 90.000000
_cell_angle_beta 86.790088
_cell_angle_gamma 90.000000
_cell_volume 1568.487144
_symmetry_space_group_name_H-M "P 21/C"
_symmetry_group_IT_number 14
_symmetry_cell_setting 'monoclinic'
loop_
_space_group_symop_operation_xyz
x,y,z
-x,1/2+y,1/2-z
-x,-y,-z
x,1/2-y,1/2+z
loop_
_atom_site_type_symbol
_atom_site_label
_atom_site_fract_x
_atom_site_fract_y
_atom_site_fract_z
Si Si1 0.914701 0.403428 0.896927
Si Si2 0.653974 0.538580 0.528025
Si Si3 0.063985 0.946718 0.275845
Si Si4 0.461789 0.617489 0.652122
Si Si5 0.157665 0.125756 0.089811
Si Si6 0.728971 0.136543 0.238282
Si Si7 0.051176 0.269525 0.331961
Si Si8 0.375299 0.791165 0.458249
O O1 0.837785 0.358821 0.784188
O O2 0.961464 0.501039 0.810726
O O3 0.999569 0.322955 0.926846
O O4 0.873864 0.438536 0.069240
O O5 0.574300 0.596441 0.636308
O O6 0.602062 0.479595 0.391313
O O7 0.728165 0.619325 0.445153
O O8 0.710247 0.465022 0.641447
O O9 0.039236 0.831824 0.226991
O O10 0.124967 0.012268 0.146949
O O11 0.443077 0.707663 0.531093
O O12 0.437687 0.642660 0.833199
O O13 0.127538 0.218128 0.207005
O O14 0.108581 0.151185 0.931433
O O15 0.709364 0.235869 0.132287
O O16 0.665195 0.136902 0.401323
#
# Coordination Sequence:
#
# PCOD8125851 Si02
#       8
#     4   4   4   4   4   4   4   4
#     4  10  22  37  59  87 121 159 201 256 297 359
#     4  10  22  40  58  88 121 160 195 252 307 371
#     4  10  22  39  59  84 122 162 203 252 305 354
#     4   9  20  40  62  84 123 150 196 252 318 361
#     4  11  24  39  63  87 121 161 209 252 300 371
#     4  10  21  35  59  89 117 152 204 246 302 364
#     4  11  22  41  59  89 121 162 205 249 308 356
#     4   9  20  37  61  91 114 152 199 254 301 372
#
# _framework density 20.401826
#
# number of rings (size 3 to 8) (size 9 to 14) (size 15 to 20)
#    0.000    2.000    1.250    1.125    3.500    4.500 
#    0.000    0.000    0.000    0.000    0.000    0.000 
#    0.000    0.000    0.000    0.000    0.000    0.000 
#
# Total GULP energy -396689.852545 kJ/mol
# GULP energy per Si atom -12396.557892 kJ/mol
# Density = 2.035539 g / cm^3
# Si number density = 20.401826 Si / 1000 Ang^3
#
#
#
# Elastic Constant Matrix: (Units=GPa)
#
#
# Indices 1 2 3 4 5 6 
#
# 1 88.1406 19.5968 26.0332 0.0000 4.5912 0.0000
# 2 19.5968 61.4270 20.8906 0.0000 -3.0000 0.0000
# 3 26.0332 20.8906 90.6954 0.0000 -8.1079 0.0000
# 4 0.0000 0.0000 0.0000 24.2867 0.0000 -7.8030
# 5 4.5912 -3.0000 -8.1079 0.0000 17.4027 0.0000
# 6 0.0000 0.0000 0.0000 -7.8030 0.0000 26.1188
#
#
#
# Elastic Compliance Matrix: (Units=1/GPa)
#
#
# Indices 1 2 3 4 5 6 
#
# 1 0.013460 -0.003350 -0.003611 0.000000 -0.005811 0.000000
# 2 -0.003350 0.018521 -0.003068 0.000000 0.002647 0.000000
# 3 -0.003611 -0.003068 0.013364 0.000000 0.006650 0.000000
# 4 0.000000 0.000000 0.000000 0.045547 0.000000 0.013607
# 5 -0.005811 0.002647 0.006650 0.000000 0.062550 0.000000
# 6 0.000000 0.000000 0.000000 0.013607 0.000000 0.042352
#
#
# Mechanical properties :
#
#
# Convention : Reuss Voigt Hill
#
# Bulk Modulus (GPa) = 39.54719 41.47826 40.51272
# Shear Modulus (GPa) = 22.29371 25.14448 23.71909
#
# Velocity S-wave (km/s) = 3.30923 3.51445 3.41339
# Velocity P-wave (km/s) = 5.83332 6.06987 5.95277
#
# Compressibility (1/GPa) = 0.02528625
#
# Stress axis : x y z
#
# Youngs Moduli (GPa) = 74.29653 53.99349 74.82963
#
# Poissons Ratio (x) = 0.18085 0.27024
# Poissons Ratio (y) = 0.24886 0.22957
# Poissons Ratio (z) = 0.26831 0.16565
#
# Static dielectric constant tensor:
#      x y z
#    x 3.460500 0.000000 -0.025120 
#    y 0.000000 3.692610 0.000000 
#    z -0.025120 0.000000 3.750460 
# 
# 
# High freq. dielectric constant tensor:
#      x y z
#    x 1.779970 0.000000 -0.001460 
#    y 0.000000 1.795470 0.000000 
#    z -0.001460 0.000000 1.806110 
# 
# From -- ./inp_files/13356.got.cif
#   From: 2010.03.12/outbox.cif.g09.slc.cpg/sg14_7_cif.got.tgz:13356.got - 2010.03.31 13:35:05.
