data_PCOD8125915
_publ_section_title
;
Structure prediction by ZEFSAII (Michael W. Deem and Ramdas Pophale) SiO2 
 PCOD8125915
Probable space group: P 21/C
;
_chemical_formula_sum "Si O2"
_cell_formula_units_Z 32
_cell_length_a 8.352117
_cell_length_b 31.923396
_cell_length_c 5.363914
_cell_angle_alpha 90.000000
_cell_angle_beta 80.503156
_cell_angle_gamma 90.000000
_cell_volume 1410.568420
_symmetry_space_group_name_H-M "P 21/C"
_symmetry_group_IT_number 14
_symmetry_cell_setting 'monoclinic'
loop_
_space_group_symop_operation_xyz
x,y,z
-x,1/2+y,1/2-z
-x,-y,-z
x,1/2-y,1/2+z
loop_
_atom_site_type_symbol
_atom_site_label
_atom_site_fract_x
_atom_site_fract_y
_atom_site_fract_z
Si Si1 0.237599 0.134851 0.134527
Si Si2 0.788536 0.060050 0.173474
Si Si3 0.945820 0.590907 0.712778
Si Si4 0.448223 0.443347 0.588594
Si Si5 0.704542 0.525659 0.891449
Si Si6 0.873204 0.271192 0.859613
Si Si7 0.884995 0.365350 0.947372
Si Si8 0.741735 0.728585 0.285730
O O1 0.377134 0.102247 0.172874
O O2 0.312000 0.181133 0.143401
O O3 0.077544 0.130480 0.341961
O O4 0.180128 0.124888 0.867513
O O5 0.642467 0.058842 0.009371
O O6 0.768054 0.103713 0.328245
O O7 0.780791 0.020562 0.361610
O O8 0.968764 0.060103 0.010021
O O9 0.846708 0.559439 0.917955
O O10 0.101381 0.617504 0.774470
O O11 0.372861 0.462954 0.358875
O O12 0.419559 0.472600 0.843145
O O13 0.802471 0.255881 0.610516
O O14 0.818651 0.318715 0.928765
O O15 0.065263 0.267242 0.784243
O O16 0.671807 0.755963 0.536347
#
# Coordination Sequence:
#
# PCOD8125915 Si02
#       8
#     4   4   4   4   4   4   4   4
#     4   9  20  37  56  84 118 155 193 244 298 352
#     4  11  25  38  61  90 121 159 204 249 298 358
#     4  10  22  38  59  88 123 159 198 249 299 355
#     4  11  24  42  62  86 118 162 205 248 296 354
#     4  11  24  43  62  86 120 164 203 251 297 351
#     4   9  19  32  53  83 115 148 188 238 290 346
#     4  10  21  36  60  86 121 153 196 244 299 355
#     4   9  18  28  52  84 112 141 188 242 292 344
#
# _framework density 22.685891999999999
#
# number of rings (size 3 to 8) (size 9 to 14) (size 15 to 20)
#    0.000    2.000    1.250    1.125   14.000    0.500 
#    0.000    0.000    0.000    1.500    0.000    0.000 
#    0.000    0.000    0.000    0.000    0.000    0.000 
#
# Total GULP energy -396515.514028 kJ/mol
# GULP energy per Si atom -12391.109813 kJ/mol
# Density = 2.263426 g / cm^3
# Si number density = 22.685892 Si / 1000 Ang^3
#
#
#
# Elastic Constant Matrix: (Units=GPa)
#
#
# Indices 1 2 3 4 5 6 
#
# 1 30.2385 20.7019 9.8996 0.0000 4.0425 0.0000
# 2 20.7019 163.8205 42.4058 0.0000 4.5655 0.0000
# 3 9.8996 42.4058 107.4218 0.0000 8.5993 0.0000
# 4 0.0000 0.0000 0.0000 28.0507 0.0000 -1.1062
# 5 4.0425 4.5655 8.5993 0.0000 18.5351 0.0000
# 6 0.0000 0.0000 0.0000 -1.1062 0.0000 17.4299
#
#
#
# Elastic Compliance Matrix: (Units=1/GPa)
#
#
# Indices 1 2 3 4 5 6 
#
# 1 0.037224 -0.004199 -0.001252 0.000000 -0.006503 0.000000
# 2 -0.004199 0.007276 -0.002508 0.000000 0.000287 0.000000
# 3 -0.001252 -0.002508 0.010742 0.000000 -0.004093 0.000000
# 4 0.000000 0.000000 0.000000 0.035739 0.000000 0.002268
# 5 -0.006503 0.000287 -0.004093 0.000000 0.057198 0.000000
# 6 0.000000 0.000000 0.000000 0.002268 0.000000 0.057517
#
#
# Mechanical properties :
#
#
# Convention : Reuss Voigt Hill
#
# Bulk Modulus (GPa) = 25.42975 49.72171 37.57573
# Shear Modulus (GPa) = 21.30165 28.03471 24.66818
#
# Velocity S-wave (km/s) = 3.06761 3.51918 3.30112
# Velocity P-wave (km/s) = 4.87655 6.20305 5.57936
#
# Compressibility (1/GPa) = 0.03932402
#
# Stress axis : x y z
#
# Youngs Moduli (GPa) = 26.86418 137.43594 93.08943
#
# Poissons Ratio (x) = 0.57704 0.11659
# Poissons Ratio (y) = 0.11279 0.23350
# Poissons Ratio (z) = 0.03365 0.34474
#
# Static dielectric constant tensor:
#      x y z
#    x 3.570820 0.000000 0.006040 
#    y 0.000000 4.219060 0.000000 
#    z 0.006040 0.000000 4.164570 
# 
# 
# High freq. dielectric constant tensor:
#      x y z
#    x 1.849300 0.000000 0.004170 
#    y 0.000000 1.905640 0.000000 
#    z 0.004170 0.000000 1.897250 
# 
# From -- ./inp_files/2139.got.cif
#   From: 2010.03.12/outbox.cif.g09.slc.cpg/sg14_2_cif.got.tgz:2139.got - 2010.03.31 13:35:05.
