data_PCOD8125389
_publ_section_title
;
Structure prediction by ZEFSAII (Michael W. Deem and Ramdas Pophale) SiO2 
 PCOD8125389
Probable space group: P 21/C
;
_chemical_formula_sum "Si O2"
_cell_formula_units_Z 20
_cell_length_a 11.575074
_cell_length_b 8.514708
_cell_length_c 11.902655
_cell_angle_alpha 90.000000
_cell_angle_beta 128.096796
_cell_angle_gamma 90.000000
_cell_volume 923.198938
_symmetry_space_group_name_H-M "P 21/C"
_symmetry_group_IT_number 14
_symmetry_cell_setting 'monoclinic'
loop_
_space_group_symop_operation_xyz
x,y,z
-x,1/2+y,1/2-z
-x,-y,-z
x,1/2-y,1/2+z
loop_
_atom_site_type_symbol
_atom_site_label
_atom_site_fract_x
_atom_site_fract_y
_atom_site_fract_z
Si Si1 0.172919 0.203488 0.429939
Si Si2 0.172931 0.512348 0.115413
Si Si3 0.068024 0.525335 0.689051
Si Si4 0.664252 0.975209 0.059989
Si Si5 0.195618 0.649270 0.557255
O O1 0.308427 0.292675 0.452846
O O2 0.032531 0.319913 0.352302
O O3 0.231192 0.144466 0.586974
O O4 0.135174 0.040689 0.344132
O O5 0.221912 0.521552 0.274038
O O6 0.231369 0.667713 0.088115
O O7 0.000000 0.500000 0.000000
O O8 0.202258 0.567837 0.685032
O O9 0.972059 0.381645 0.582099
O O10 0.500000 0.000000 0.000000
O O11 0.690985 0.076827 0.963841
#
# Coordination Sequence:
#
# PCOD8125389 Si02
#       5
#     4   4   4   4   4
#     4  11  23  38  70  98 139 174 224 279 343 397
#     4  12  23  41  72 102 129 172 226 279 341 390
#     4  10  20  38  65 104 137 164 218 287 341 381
#     4  11  28  47  63  94 142 182 224 272 333 402
#     4  10  22  39  64  96 136 169 220 274 332 393
#
# _framework density 21.663802
#
# number of rings (size 3 to 8) (size 9 to 14) (size 15 to 20)
#    0.000    1.200    2.000    4.800    8.400    1.600 
#    0.000    1.000    0.000    0.000    0.000    0.000 
#    0.000    0.000    0.000    0.000    0.000    0.000 
#
# Total GULP energy -247894.180445 kJ/mol
# GULP energy per Si atom -12394.709022 kJ/mol
# Density = 2.161449 g / cm^3
# Si number density = 21.663802 Si / 1000 Ang^3
#
#
#
# Elastic Constant Matrix: (Units=GPa)
#
#
# Indices 1 2 3 4 5 6 
#
# 1 164.6043 55.6245 42.5746 0.0000 -12.3819 0.0000
# 2 55.6245 128.9908 28.7086 0.0000 -20.7256 0.0000
# 3 42.5746 28.7086 64.5235 0.0000 -15.7539 0.0000
# 4 0.0000 0.0000 0.0000 30.5611 0.0000 -18.4954
# 5 -12.3819 -20.7256 -15.7539 0.0000 31.7647 0.0000
# 6 0.0000 0.0000 0.0000 -18.4954 0.0000 35.7630
#
#
#
# Elastic Compliance Matrix: (Units=1/GPa)
#
#
# Indices 1 2 3 4 5 6 
#
# 1 0.008018 -0.002615 -0.004301 0.000000 -0.000714 0.000000
# 2 -0.002615 0.009987 -0.001566 0.000000 0.004720 0.000000
# 3 -0.004301 -0.001566 0.020906 0.000000 0.007670 0.000000
# 4 0.000000 0.000000 0.000000 0.047628 0.000000 0.024632
# 5 -0.000714 0.004720 0.007670 0.000000 0.038087 0.000000
# 6 0.000000 0.000000 0.000000 0.024632 0.000000 0.040701
#
#
# Mechanical properties :
#
#
# Convention : Reuss Voigt Hill
#
# Bulk Modulus (GPa) = 45.56453 67.99265 56.77859
# Shear Modulus (GPa) = 26.37058 35.03180 30.70119
#
# Velocity S-wave (km/s) = 3.49272 4.02564 3.76861
# Velocity P-wave (km/s) = 6.11095 7.28431 6.72327
#
# Compressibility (1/GPa) = 0.02194689
#
# Stress axis : x y z
#
# Youngs Moduli (GPa) = 124.72584 100.13005 47.83410
#
# Poissons Ratio (x) = 0.26183 0.20574
# Poissons Ratio (y) = 0.32614 0.07489
# Poissons Ratio (z) = 0.53646 0.15677
#
# Static dielectric constant tensor:
#      x y z
#    x 4.109170 0.000000 -0.868080 
#    y 0.000000 4.301710 0.000000 
#    z -0.868080 0.000000 4.236270 
# 
# 
# High freq. dielectric constant tensor:
#      x y z
#    x 1.837100 0.000000 -0.050630 
#    y 0.000000 1.865500 0.000000 
#    z -0.050630 0.000000 1.824660 
# 
# From -- ./inp_files/27748.got.cif
#   From: 2010.03.12/outbox.cif.g09.slc.cpg/sg14_14_cif.got.tgz:27748.got - 2010.03.31 13:35:05.
