data_PCOD8125996
_publ_section_title
;
Structure prediction by ZEFSAII (Michael W. Deem and Ramdas Pophale) SiO2 
 PCOD8125996
Probable space group: P 21/C
;
_chemical_formula_sum "Si O2"
_cell_formula_units_Z 28
_cell_length_a 13.203952
_cell_length_b 21.439933
_cell_length_c 13.326768
_cell_angle_alpha 90.000000
_cell_angle_beta 21.740290
_cell_angle_gamma 90.000000
_cell_volume 1397.407938
_symmetry_space_group_name_H-M "P 21/C"
_symmetry_group_IT_number 14
_symmetry_cell_setting 'monoclinic'
loop_
_space_group_symop_operation_xyz
x,y,z
-x,1/2+y,1/2-z
-x,-y,-z
x,1/2-y,1/2+z
loop_
_atom_site_type_symbol
_atom_site_label
_atom_site_fract_x
_atom_site_fract_y
_atom_site_fract_z
Si Si1 0.355384 0.375331 0.386512
Si Si2 0.190898 0.952765 0.613318
Si Si3 0.564773 0.210743 0.520266
Si Si4 0.565120 0.764923 0.060131
Si Si5 0.057804 0.083354 0.784537
Si Si6 0.352308 0.592578 0.166009
Si Si7 0.121157 0.712443 0.610784
O O1 0.432702 0.338972 0.417959
O O2 0.051590 0.402517 0.669433
O O3 0.573965 0.431624 0.179780
O O4 0.377696 0.327953 0.270846
O O5 0.335142 0.957030 0.590647
O O6 0.088824 0.022830 0.684068
O O7 0.397594 0.251931 0.592751
O O8 0.739439 0.159426 0.296975
O O9 0.750862 0.260959 0.405381
O O10 0.293189 0.731898 0.354212
O O11 0.820474 0.739417 0.885745
O O12 0.347909 0.103912 0.563617
O O13 0.914308 0.137640 0.851575
O O14 0.856386 0.066712 0.060504
#
# Coordination Sequence:
#
# PCOD8125996 Si02
#       7
#     4   4   4   4   4   4   4
#     4  10  22  37  56  85 108 152 192 222 286 332
#     4  11  22  36  55  80 117 150 186 230 271 343
#     4  10  21  37  59  81 119 142 187 240 279 336
#     4  11  21  38  58  79 116 146 187 238 278 339
#     4  12  21  36  54  82 117 146 187 226 281 337
#     4  11  20  34  53  83 109 151 181 227 285 342
#     4  11  23  36  56  88 110 153 186 228 292 331
#
# _framework density 20.037096999999999
#
# number of rings (size 3 to 8) (size 9 to 14) (size 15 to 20)
#    0.000    1.143    2.857    6.000    0.000    3.429 
#    0.000    0.000    0.000    1.714    0.000    0.000 
#    0.000    0.000    0.000    0.000    0.000    0.000 
#
# Total GULP energy -347076.796485 kJ/mol
# GULP energy per Si atom -12395.599874 kJ/mol
# Density = 1.999149 g / cm^3
# Si number density = 20.037097 Si / 1000 Ang^3
#
#
#
# Elastic Constant Matrix: (Units=GPa)
#
#
# Indices 1 2 3 4 5 6 
#
# 1 78.9010 34.0724 17.7452 0.0000 -10.2451 0.0000
# 2 34.0724 81.5811 3.4046 0.0000 -11.1439 0.0000
# 3 17.7452 3.4046 89.5822 0.0000 -13.4943 0.0000
# 4 0.0000 0.0000 0.0000 28.3631 0.0000 -0.4644
# 5 -10.2451 -11.1439 -13.4943 0.0000 20.2076 0.0000
# 6 0.0000 0.0000 0.0000 -0.4644 0.0000 19.6669
#
#
#
# Elastic Compliance Matrix: (Units=1/GPa)
#
#
# Indices 1 2 3 4 5 6 
#
# 1 0.016373 -0.006304 -0.002532 0.000000 0.003134 0.000000
# 2 -0.006304 0.015720 0.001641 0.000000 0.006568 0.000000
# 3 -0.002532 0.001641 0.012836 0.000000 0.008193 0.000000
# 4 0.000000 0.000000 0.000000 0.035271 0.000000 0.000833
# 5 0.003134 0.006568 0.008193 0.000000 0.060169 0.000000
# 6 0.000000 0.000000 0.000000 0.000833 0.000000 0.050866
#
#
# Mechanical properties :
#
#
# Convention : Reuss Voigt Hill
#
# Bulk Modulus (GPa) = 32.74591 40.05653 36.40122
# Shear Modulus (GPa) = 23.16915 26.63700 24.90308
#
# Velocity S-wave (km/s) = 3.40415 3.65003 3.52923
# Velocity P-wave (km/s) = 5.64173 6.14802 5.90031
#
# Compressibility (1/GPa) = 0.03053816
#
# Stress axis : x y z
#
# Youngs Moduli (GPa) = 61.07670 63.61517 77.90433
#
# Poissons Ratio (x) = 0.40106 0.19723
# Poissons Ratio (y) = 0.38505 -0.12783
# Poissons Ratio (z) = 0.15462 -0.10438
#
# Static dielectric constant tensor:
#      x y z
#    x 3.417820 0.000000 -0.090160 
#    y 0.000000 3.919520 0.000000 
#    z -0.090160 0.000000 3.684320 
# 
# 
# High freq. dielectric constant tensor:
#      x y z
#    x 1.739820 0.000000 -0.014460 
#    y 0.000000 1.787570 0.000000 
#    z -0.014460 0.000000 1.788980 
# 
# From -- ./inp_files/47581.got.cif
#   From: 2010.03.12/outbox.cif.g09.slc.cpg/sg14_24_cif.got.tgz:47581.got - 2010.03.31 13:35:05.
