data_PCOD8125341
_publ_section_title
;
Structure prediction by ZEFSAII (Michael W. Deem and Ramdas Pophale) SiO2 
 PCOD8125341
Probable space group: P 21/C
;
_chemical_formula_sum "Si O2"
_cell_formula_units_Z 28
_cell_length_a 9.555647
_cell_length_b 14.573284
_cell_length_c 20.969479
_cell_angle_alpha 90.000000
_cell_angle_beta 151.491102
_cell_angle_gamma 90.000000
_cell_volume 1393.773698
_symmetry_space_group_name_H-M "P 21/C"
_symmetry_group_IT_number 14
_symmetry_cell_setting 'monoclinic'
loop_
_space_group_symop_operation_xyz
x,y,z
-x,1/2+y,1/2-z
-x,-y,-z
x,1/2-y,1/2+z
loop_
_atom_site_type_symbol
_atom_site_label
_atom_site_fract_x
_atom_site_fract_y
_atom_site_fract_z
Si Si1 0.610393 0.896993 0.044706
Si Si2 0.382786 0.235517 0.839024
Si Si3 0.976882 0.162879 0.574069
Si Si4 0.770696 0.983455 0.562696
Si Si5 0.278741 0.335721 0.067928
Si Si6 0.047138 0.844549 0.755565
Si Si7 0.942965 0.199428 0.850062
O O1 0.664907 0.855642 0.136714
O O2 0.893468 0.892102 0.110965
O O3 0.356959 0.832803 0.913769
O O4 0.500000 0.000000 0.000000
O O5 0.250169 0.212608 0.717001
O O6 0.215341 0.324835 0.799943
O O7 0.719999 0.262247 0.964909
O O8 0.079103 0.126950 0.545802
O O9 0.876570 0.077209 0.575352
O O10 0.694151 0.910813 0.476674
O O11 0.019329 0.943653 0.710124
O O12 0.500000 0.000000 0.500000
O O13 0.601226 0.317534 0.226694
O O14 0.119912 0.241624 0.981093
O O15 0.020847 0.768610 0.692449
#
# Coordination Sequence:
#
# PCOD8125341 Si02
#       7
#     4   4   4   4   4   4   4
#     4  11  22  36  63  94 127 157 210 269 310 359
#     4  11  23  38  66  90 127 167 207 259 315 374
#     4  12  24  43  64  94 130 166 212 259 318 384
#     4  11  24  39  67  96 125 164 214 263 314 373
#     4  11  24  43  65  93 129 171 207 260 318 381
#     4  10  20  38  61  95 120 160 210 260 313 361
#     4  10  22  40  66  88 126 167 210 256 316 376
#
# _framework density 20.089345000000002
#
# number of rings (size 3 to 8) (size 9 to 14) (size 15 to 20)
#    0.000    1.143    4.286    2.143    6.000    0.000 
#    0.000    0.000    0.000    2.571    0.000    0.000 
#    0.000    0.000    0.000    0.000    0.000    0.000 
#
# Total GULP energy -347126.328568 kJ/mol
# GULP energy per Si atom -12397.368877 kJ/mol
# Density = 2.004362 g / cm^3
# Si number density = 20.089345 Si / 1000 Ang^3
#
#
#
# Elastic Constant Matrix: (Units=GPa)
#
#
# Indices 1 2 3 4 5 6 
#
# 1 131.5208 33.1504 33.6056 0.0000 6.1747 0.0000
# 2 33.1504 78.1493 25.2987 0.0000 0.4121 0.0000
# 3 33.6056 25.2987 116.1391 0.0000 8.5284 0.0000
# 4 0.0000 0.0000 0.0000 13.2850 0.0000 8.4382
# 5 6.1747 0.4121 8.5284 0.0000 23.8228 0.0000
# 6 0.0000 0.0000 0.0000 8.4382 0.0000 19.7686
#
#
#
# Elastic Compliance Matrix: (Units=1/GPa)
#
#
# Indices 1 2 3 4 5 6 
#
# 1 0.008941 -0.003212 -0.001768 0.000000 -0.001629 0.000000
# 2 -0.003212 0.014938 -0.002431 0.000000 0.001444 0.000000
# 3 -0.001768 -0.002431 0.009874 0.000000 -0.003035 0.000000
# 4 0.000000 0.000000 0.000000 0.103271 0.000000 -0.044081
# 5 -0.001629 0.001444 -0.003035 0.000000 0.043460 0.000000
# 6 0.000000 0.000000 0.000000 -0.044081 0.000000 0.069401
#
#
# Mechanical properties :
#
#
# Convention : Reuss Voigt Hill
#
# Bulk Modulus (GPa) = 52.81967 56.65763 54.73865
# Shear Modulus (GPa) = 18.44904 26.95893 22.70399
#
# Velocity S-wave (km/s) = 3.03372 3.66724 3.36542
# Velocity P-wave (km/s) = 6.21456 6.79673 6.51215
#
# Compressibility (1/GPa) = 0.01893234
#
# Stress axis : x y z
#
# Youngs Moduli (GPa) = 111.84266 66.94472 101.27388
#
# Poissons Ratio (x) = 0.21502 0.17904
# Poissons Ratio (y) = 0.35922 0.24615
# Poissons Ratio (z) = 0.19773 0.16271
#
# Static dielectric constant tensor:
#      x y z
#    x 3.746520 0.000000 0.030830 
#    y 0.000000 3.688200 0.000000 
#    z 0.030830 0.000000 4.649530 
# 
# 
# High freq. dielectric constant tensor:
#      x y z
#    x 1.779790 0.000000 -0.002010 
#    y 0.000000 1.772430 0.000000 
#    z -0.002010 0.000000 1.800170 
# 
# From -- ./inp_files/19106.got.cif
#   From: 2010.03.12/outbox.cif.g09.slc.cpg/sg14_10_cif.got.tgz:19106.got - 2010.03.31 13:35:05.
