data_PCOD8125039
_publ_section_title
;
Structure prediction by ZEFSAII (Michael W. Deem and Ramdas Pophale) SiO2 
 PCOD8125039
Probable space group: P 21/C
;
_chemical_formula_sum "Si O2"
_cell_formula_units_Z 28
_cell_length_a 7.933352
_cell_length_b 19.345936
_cell_length_c 8.920883
_cell_angle_alpha 90.000000
_cell_angle_beta 90.000000
_cell_angle_gamma 90.000000
_cell_volume 1369.160352
_symmetry_space_group_name_H-M "P 21/C"
_symmetry_group_IT_number 14
_symmetry_cell_setting 'monoclinic'
loop_
_space_group_symop_operation_xyz
x,y,z
-x,1/2+y,1/2-z
-x,-y,-z
x,1/2-y,1/2+z
loop_
_atom_site_type_symbol
_atom_site_label
_atom_site_fract_x
_atom_site_fract_y
_atom_site_fract_z
Si Si1 0.536599 0.500000 0.750000
Si Si2 0.371342 0.909779 0.493426
Si Si3 0.628657 0.909779 0.993425
Si Si4 0.821684 0.287018 0.132473
Si Si5 0.632976 0.302176 0.420804
Si Si6 0.178317 0.287018 0.632473
Si Si7 0.367025 0.302175 0.920804
O O1 0.663305 0.461456 0.867116
O O2 0.410045 0.449200 0.660960
O O3 0.663305 0.538545 0.632884
O O4 0.410046 0.550801 0.839040
O O5 0.215038 0.856082 0.469642
O O6 0.547490 0.874447 0.541695
O O7 0.784961 0.856082 0.969640
O O8 0.452507 0.874448 0.041692
O O9 0.788607 0.308521 0.304493
O O10 0.000000 0.250000 0.111884
O O11 0.692010 0.228721 0.079132
O O12 0.500000 0.250001 0.344346
O O13 0.211394 0.308520 0.804494
O O14 0.307991 0.228721 0.579132
#
# Coordination Sequence:
#
# PCOD8125039 Si02
#       7
#     4   4   4   4   4   4   4
#     4  10  20  36  64  94 120 162 218 246 290 362
#     4  10  20  37  63  93 117 163 209 253 295 372
#     4  10  20  37  63  93 117 163 209 253 295 372
#     4  11  22  36  58  91 126 157 196 263 324 359
#     4  10  20  36  59  89 116 156 207 261 305 359
#     4  11  22  36  58  91 126 157 196 263 324 359
#     4  10  20  36  59  89 116 156 207 261 305 359
#
# _framework density 20.450489000000001
#
# number of rings (size 3 to 8) (size 9 to 14) (size 15 to 20)
#    0.000    1.714    2.857    3.429    4.000    0.000 
#    0.000    0.000    0.000   10.286    0.000    0.000 
#    0.000    0.000    0.000    0.000    0.000    0.000 
#
# Total GULP energy -346866.131295 kJ/mol
# GULP energy per Si atom -12388.076118 kJ/mol
# Density = 2.040394 g / cm^3
# Si number density = 20.450489 Si / 1000 Ang^3
#
#
#
# Elastic Constant Matrix: (Units=GPa)
#
#
# Indices 1 2 3 4 5 6 
#
# 1 95.3683 50.1183 38.5622 0.0000 0.0002 0.0000
# 2 50.1183 107.2006 49.4044 0.0000 0.0005 0.0000
# 3 38.5622 49.4044 122.5868 0.0000 0.0004 0.0000
# 4 0.0000 0.0000 0.0000 31.3118 0.0000 0.0001
# 5 0.0002 0.0005 0.0004 0.0000 20.0816 0.0000
# 6 0.0000 0.0000 0.0000 0.0001 0.0000 34.2996
#
#
#
# Elastic Compliance Matrix: (Units=1/GPa)
#
#
# Indices 1 2 3 4 5 6 
#
# 1 0.014380 -0.005696 -0.002228 0.000000 0.000000 0.000000
# 2 -0.005696 0.013712 -0.003734 0.000000 0.000000 0.000000
# 3 -0.002228 -0.003734 0.010363 0.000000 0.000000 0.000000
# 4 0.000000 0.000000 0.000000 0.031937 0.000000 0.000000
# 5 0.000000 0.000000 0.000000 0.000000 0.049797 0.000000
# 6 0.000000 0.000000 0.000000 0.000000 0.000000 0.029155
#
#
# Mechanical properties :
#
#
# Convention : Reuss Voigt Hill
#
# Bulk Modulus (GPa) = 66.05571 66.81393 66.43482
# Shear Modulus (GPa) = 28.13610 29.60999 28.87304
#
# Velocity S-wave (km/s) = 3.71322 3.80924 3.76154
# Velocity P-wave (km/s) = 7.12422 7.21728 7.17090
#
# Compressibility (1/GPa) = 0.01513874
#
# Stress axis : x y z
#
# Youngs Moduli (GPa) = 69.54110 72.92644 96.49378
#
# Poissons Ratio (x) = 0.41540 0.21498
# Poissons Ratio (y) = 0.39612 0.36035
# Poissons Ratio (z) = 0.15493 0.27234
#
# Static dielectric constant tensor:
#      x y z
#    x 3.408990 0.000000 0.000000 
#    y 0.000000 3.866830 0.000000 
#    z 0.000000 0.000000 3.792930 
# 
# 
# High freq. dielectric constant tensor:
#      x y z
#    x 1.743700 0.000000 0.000000 
#    y 0.000000 1.805270 0.000000 
#    z 0.000000 0.000000 1.821360 
# 
# From -- ./inp_files/9942.got.cif
#   From: 2010.03.12/outbox.cif.g09.slc.cpg/sg14_5_cif.got.tgz:9942.got - 2010.03.31 13:35:05.
