data_PCOD8125951
_publ_section_title
;
Structure prediction by ZEFSAII (Michael W. Deem and Ramdas Pophale) SiO2 
 PCOD8125951
Probable space group: P 21/C
;
_chemical_formula_sum "Si O2"
_cell_formula_units_Z 28
_cell_length_a 11.006614
_cell_length_b 16.506413
_cell_length_c 8.473655
_cell_angle_alpha 90.000000
_cell_angle_beta 119.757621
_cell_angle_gamma 90.000000
_cell_volume 1336.482845
_symmetry_space_group_name_H-M "P 21/C"
_symmetry_group_IT_number 14
_symmetry_cell_setting 'monoclinic'
loop_
_space_group_symop_operation_xyz
x,y,z
-x,1/2+y,1/2-z
-x,-y,-z
x,1/2-y,1/2+z
loop_
_atom_site_type_symbol
_atom_site_label
_atom_site_fract_x
_atom_site_fract_y
_atom_site_fract_z
Si Si1 0.435358 0.191675 0.345402
Si Si2 0.695480 0.294128 0.452154
Si Si3 0.242309 0.217693 0.951711
Si Si4 0.195595 0.642371 0.149567
Si Si5 0.877815 0.645965 0.927006
Si Si6 0.324435 0.009388 0.575503
Si Si7 0.603163 0.424502 0.164195
O O1 0.534325 0.269161 0.373325
O O2 0.327574 0.215669 0.410498
O O3 0.525462 0.117203 0.464481
O O4 0.350719 0.167749 0.132126
O O5 0.785825 0.217066 0.457799
O O6 0.763417 0.331089 0.649984
O O7 0.701644 0.362417 0.320139
O O8 0.162909 0.155954 0.784122
O O9 0.134135 0.267338 0.992471
O O10 0.035359 0.613771 0.040152
O O11 0.293749 0.567834 0.165249
O O12 0.777823 0.581592 0.944852
O O13 0.302984 0.989827 0.372575
O O14 0.486876 0.036682 0.705444
#
# Coordination Sequence:
#
# PCOD8125951 Si02
#       7
#     4   4   4   4   4   4   4
#     4  11  17  37  63  91 115 147 196 272 303 350
#     4  12  22  40  66  98 116 164 215 258 308 365
#     4  10  21  36  67  89 116 156 212 257 302 357
#     4  12  24  40  65  87 131 167 208 251 303 377
#     4  11  23  43  59  92 124 170 211 250 301 376
#     4  11  24  43  61  90 132 166 195 262 325 361
#     4  11  22  41  64  91 127 153 204 264 318 363
#
# _framework density 20.950513000000001
#
# number of rings (size 3 to 8) (size 9 to 14) (size 15 to 20)
#    0.000    0.857    5.714    2.143    0.000    0.571 
#    5.143    0.714    0.000    0.000    0.000    0.000 
#    0.000    0.000    0.000    0.000    0.000    0.000 
#
# Total GULP energy -347188.604305 kJ/mol
# GULP energy per Si atom -12399.593011 kJ/mol
# Density = 2.090283 g / cm^3
# Si number density = 20.950513 Si / 1000 Ang^3
#
#
#
# Elastic Constant Matrix: (Units=GPa)
#
#
# Indices 1 2 3 4 5 6 
#
# 1 67.5604 32.1889 45.5720 0.0000 -2.6728 0.0000
# 2 32.1889 90.4428 48.9909 0.0000 -6.6986 0.0000
# 3 45.5720 48.9909 134.5475 0.0000 -4.2194 0.0000
# 4 0.0000 0.0000 0.0000 29.5413 0.0000 -14.5359
# 5 -2.6728 -6.6986 -4.2194 0.0000 23.3034 0.0000
# 6 0.0000 0.0000 0.0000 -14.5359 0.0000 33.2226
#
#
#
# Elastic Compliance Matrix: (Units=1/GPa)
#
#
# Indices 1 2 3 4 5 6 
#
# 1 0.020503 -0.004395 -0.005340 0.000000 0.000121 0.000000
# 2 -0.004395 0.014937 -0.003853 0.000000 0.003092 0.000000
# 3 -0.005340 -0.003853 0.010651 0.000000 0.000208 0.000000
# 4 0.000000 0.000000 0.000000 0.043138 0.000000 0.018874
# 5 0.000121 0.003092 0.000208 0.000000 0.043853 0.000000
# 6 0.000000 0.000000 0.000000 0.018874 0.000000 0.038358
#
#
# Mechanical properties :
#
#
# Convention : Reuss Voigt Hill
#
# Bulk Modulus (GPa) = 52.87339 60.67269 56.77304
# Shear Modulus (GPa) = 24.39967 28.26671 26.33319
#
# Velocity S-wave (km/s) = 3.41637 3.67715 3.54916
# Velocity P-wave (km/s) = 6.39173 6.85940 6.62969
#
# Compressibility (1/GPa) = 0.01891311
#
# Stress axis : x y z
#
# Youngs Moduli (GPa) = 48.77423 66.94690 93.89138
#
# Poissons Ratio (x) = 0.29425 0.50139
# Poissons Ratio (y) = 0.21438 0.36178
# Poissons Ratio (z) = 0.26046 0.25796
#
# Static dielectric constant tensor:
#      x y z
#    x 3.919040 0.000000 -0.184170 
#    y 0.000000 3.832510 0.000000 
#    z -0.184170 0.000000 3.753010 
# 
# 
# High freq. dielectric constant tensor:
#      x y z
#    x 1.824550 0.000000 -0.019260 
#    y 0.000000 1.817900 0.000000 
#    z -0.019260 0.000000 1.808080 
# 
# From -- ./inp_files/13181.got.cif
#   From: 2010.03.12/outbox.cif.g09.slc.cpg/sg14_7_cif.got.tgz:13181.got - 2010.03.31 13:35:05.
