data_PCOD8125358
_publ_section_title
;
Structure prediction by ZEFSAII (Michael W. Deem and Ramdas Pophale) SiO2 
 PCOD8125358
Probable space group: P 21/C
;
_chemical_formula_sum "Si O2"
_cell_formula_units_Z 32
_cell_length_a 14.105074
_cell_length_b 13.781907
_cell_length_c 11.809277
_cell_angle_alpha 90.000000
_cell_angle_beta 136.379941
_cell_angle_gamma 90.000000
_cell_volume 1583.715477
_symmetry_space_group_name_H-M "P 21/C"
_symmetry_group_IT_number 14
_symmetry_cell_setting 'monoclinic'
loop_
_space_group_symop_operation_xyz
x,y,z
-x,1/2+y,1/2-z
-x,-y,-z
x,1/2-y,1/2+z
loop_
_atom_site_type_symbol
_atom_site_label
_atom_site_fract_x
_atom_site_fract_y
_atom_site_fract_z
Si Si1 0.974698 0.252424 0.469290
Si Si2 0.517800 0.845277 0.620033
Si Si3 0.226312 0.897253 0.308107
Si Si4 0.207739 0.116789 0.277585
Si Si5 0.433700 0.135524 0.859811
Si Si6 0.831806 0.407061 0.987428
Si Si7 0.159433 0.125098 0.494566
Si Si8 0.519439 0.427412 0.671061
O O1 0.839429 0.315085 0.327334
O O2 0.936629 0.165303 0.519421
O O3 0.083076 0.323165 0.620094
O O4 0.037368 0.202192 0.410563
O O5 0.391895 0.894885 0.444618
O O6 0.651029 0.852673 0.657865
O O7 0.483922 0.731240 0.608627
O O8 0.543653 0.894874 0.763942
O O9 0.179574 0.872839 0.393964
O O10 0.177544 0.003598 0.227367
O O11 0.221887 0.137523 0.423466
O O12 0.275575 0.147178 0.687906
O O13 0.503897 0.043247 0.859883
O O14 0.439160 0.126281 0.000957
O O15 0.894939 0.515310 0.035812
O O16 0.681290 0.404231 0.800065
#
# Coordination Sequence:
#
# PCOD8125358 Si02
#       8
#     4   4   4   4   4   4   4   4
#     4  12  21  39  63  90 116 166 206 244 302 358
#     4  11  22  40  66  91 118 169 198 245 316 365
#     4  10  23  41  59  86 128 155 201 252 302 363
#     4  11  24  41  62  92 124 159 201 252 303 359
#     4  10  20  38  62  90 123 158 200 259 295 353
#     4   9  20  40  61  87 120 161 199 254 303 357
#     4  10  22  39  62  88 125 157 204 252 299 361
#     4   9  21  40  60  92 129 152 206 259 299 356
#
# _framework density 20.205649999999999
#
# number of rings (size 3 to 8) (size 9 to 14) (size 15 to 20)
#    0.000    1.750    1.250    3.375    1.750    0.000 
#    6.750    0.000    8.250    0.000    0.000    0.000 
#    0.000    0.000    0.000    0.000    0.000    0.000 
#
# Total GULP energy -396872.343919 kJ/mol
# GULP energy per Si atom -12402.260747 kJ/mol
# Density = 2.015966 g / cm^3
# Si number density = 20.205650 Si / 1000 Ang^3
#
#
#
# Elastic Constant Matrix: (Units=GPa)
#
#
# Indices 1 2 3 4 5 6 
#
# 1 98.6832 56.3661 45.2962 0.0000 -7.9806 0.0000
# 2 56.3661 126.3064 49.9462 0.0000 -9.7091 0.0000
# 3 45.2962 49.9462 99.3804 0.0000 -6.4453 0.0000
# 4 0.0000 0.0000 0.0000 27.1331 0.0000 1.3135
# 5 -7.9806 -9.7091 -6.4453 0.0000 20.2349 0.0000
# 6 0.0000 0.0000 0.0000 1.3135 0.0000 29.8670
#
#
#
# Elastic Compliance Matrix: (Units=1/GPa)
#
#
# Indices 1 2 3 4 5 6 
#
# 1 0.015049 -0.004853 -0.004275 0.000000 0.002245 0.000000
# 2 -0.004853 0.011657 -0.003480 0.000000 0.002571 0.000000
# 3 -0.004275 -0.003480 0.013827 0.000000 0.001049 0.000000
# 4 0.000000 0.000000 0.000000 0.036934 0.000000 -0.001624
# 5 0.002245 0.002571 0.001049 0.000000 0.051873 0.000000
# 6 0.000000 0.000000 0.000000 -0.001624 0.000000 0.033553
#
#
# Mechanical properties :
#
#
# Convention : Reuss Voigt Hill
#
# Bulk Modulus (GPa) = 65.27979 69.73188 67.50584
# Shear Modulus (GPa) = 25.87813 26.96442 26.42128
#
# Velocity S-wave (km/s) = 3.58262 3.65704 3.62002
# Velocity P-wave (km/s) = 7.03501 7.24002 7.13825
#
# Compressibility (1/GPa) = 0.01531868
#
# Stress axis : x y z
#
# Youngs Moduli (GPa) = 66.44983 85.78864 72.31997
#
# Poissons Ratio (x) = 0.41633 0.30913
# Poissons Ratio (y) = 0.32248 0.25165
# Poissons Ratio (z) = 0.28404 0.29852
#
# Static dielectric constant tensor:
#      x y z
#    x 3.420390 0.000000 -0.058480 
#    y 0.000000 3.957580 0.000000 
#    z -0.058480 0.000000 3.658900 
# 
# 
# High freq. dielectric constant tensor:
#      x y z
#    x 1.772200 0.000000 -0.006490 
#    y 0.000000 1.810890 0.000000 
#    z -0.006490 0.000000 1.786100 
# 
# From -- ./inp_files/32790.got.cif
#   From: 2010.03.12/outbox.cif.g09.slc.cpg/sg14_17_cif.got.tgz:32790.got - 2010.03.31 13:35:05.
