data_PCOD8125966
_publ_section_title
;
Structure prediction by ZEFSAII (Michael W. Deem and Ramdas Pophale) SiO2 
 PCOD8125966
Probable space group: P 21/C
;
_chemical_formula_sum "Si O2"
_cell_formula_units_Z 24
_cell_length_a 13.537982
_cell_length_b 13.062268
_cell_length_c 11.002663
_cell_angle_alpha 90.000000
_cell_angle_beta 146.131947
_cell_angle_gamma 90.000000
_cell_volume 1084.290178
_symmetry_space_group_name_H-M "P 21/C"
_symmetry_group_IT_number 14
_symmetry_cell_setting 'monoclinic'
loop_
_space_group_symop_operation_xyz
x,y,z
-x,1/2+y,1/2-z
-x,-y,-z
x,1/2-y,1/2+z
loop_
_atom_site_type_symbol
_atom_site_label
_atom_site_fract_x
_atom_site_fract_y
_atom_site_fract_z
Si Si1 0.627690 0.350783 0.074181
Si Si2 0.721610 0.960498 0.824716
Si Si3 0.959604 0.664636 0.869456
Si Si4 0.988795 0.194295 0.844856
Si Si5 0.651248 0.139664 0.213105
Si Si6 0.649803 0.983781 0.009328
O O1 0.700906 0.458958 0.196982
O O2 0.773397 0.317969 0.120806
O O3 0.624278 0.261753 0.172719
O O4 0.426086 0.369158 0.826305
O O5 0.701411 0.023167 0.929215
O O6 0.916243 0.911389 0.020092
O O7 0.809793 0.579920 0.732904
O O8 0.941474 0.726623 0.720219
O O9 0.956608 0.729577 0.990347
O O10 0.148833 0.609107 0.049274
O O11 0.600455 0.084552 0.033967
O O12 0.518632 0.092820 0.177172
#
# Coordination Sequence:
#
# PCOD8125966 Si02
#       6
#     4   4   4   4   4   4
#     4  10  21  37  57  82 112 150 192 234 282 338
#     4  10  21  37  57  83 115 150 190 236 284 336
#     4  10  21  38  60  87 118 151 189 232 281 337
#     4  10  21  38  60  87 118 151 189 232 281 337
#     4  10  21  37  57  82 112 150 192 234 282 338
#     4  10  21  37  57  83 115 150 190 236 284 336
#
# _framework density 22.134295000000002
#
# number of rings (size 3 to 8) (size 9 to 14) (size 15 to 20)
#    0.000    2.000    0.000    3.000    0.000    6.667 
#    0.000   11.667    0.000    0.000    0.000    0.000 
#    0.000    0.000    0.000    0.000    0.000    0.000 
#
# Total GULP energy -297369.165912 kJ/mol
# GULP energy per Si atom -12390.381913 kJ/mol
# Density = 2.208392 g / cm^3
# Si number density = 22.134295 Si / 1000 Ang^3
#
#
#
# Elastic Constant Matrix: (Units=GPa)
#
#
# Indices 1 2 3 4 5 6 
#
# 1 63.9849 12.0833 9.1182 0.0000 -4.5402 0.0000
# 2 12.0833 54.8998 11.5259 0.0000 7.3182 0.0000
# 3 9.1182 11.5259 65.3524 0.0000 14.3499 0.0000
# 4 0.0000 0.0000 0.0000 22.4805 0.0000 0.2399
# 5 -4.5402 7.3182 14.3499 0.0000 38.7913 0.0000
# 6 0.0000 0.0000 0.0000 0.2399 0.0000 18.7412
#
#
#
# Elastic Compliance Matrix: (Units=1/GPa)
#
#
# Indices 1 2 3 4 5 6 
#
# 1 0.016937 -0.003682 -0.002505 0.000000 0.003604 0.000000
# 2 -0.003682 0.019949 -0.002268 0.000000 -0.003356 0.000000
# 3 -0.002505 -0.002268 0.017438 0.000000 -0.006316 0.000000
# 4 0.000000 0.000000 0.000000 0.044489 0.000000 -0.000569
# 5 0.003604 -0.003356 -0.006316 0.000000 0.029170 0.000000
# 6 0.000000 0.000000 0.000000 -0.000569 0.000000 0.053366
#
#
# Mechanical properties :
#
#
# Convention : Reuss Voigt Hill
#
# Bulk Modulus (GPa) = 26.72809 27.74353 27.23581
# Shear Modulus (GPa) = 23.72711 26.10326 24.91518
#
# Velocity S-wave (km/s) = 3.27763 3.43784 3.35869
# Velocity P-wave (km/s) = 5.14057 5.32163 5.23188
#
# Compressibility (1/GPa) = 0.03741383
#
# Stress axis : x y z
#
# Youngs Moduli (GPa) = 59.04331 50.12824 57.34614
#
# Poissons Ratio (x) = 0.18458 0.14365
# Poissons Ratio (y) = 0.21741 0.13005
# Poissons Ratio (z) = 0.14790 0.11368
#
# Static dielectric constant tensor:
#      x y z
#    x 4.135360 0.000000 0.194770 
#    y 0.000000 3.642550 0.000000 
#    z 0.194770 0.000000 4.120380 
# 
# 
# High freq. dielectric constant tensor:
#      x y z
#    x 1.879840 0.000000 0.009540 
#    y 0.000000 1.843540 0.000000 
#    z 0.009540 0.000000 1.878610 
# 
# From -- ./inp_files/32644.got.cif
#   From: 2010.03.12/outbox.cif.g09.slc.cpg/sg14_17_cif.got.tgz:32644.got - 2010.03.31 13:35:05.
