data_PCOD8125787
_publ_section_title
;
Structure prediction by ZEFSAII (Michael W. Deem and Ramdas Pophale) SiO2 
 PCOD8125787
Probable space group: P 21/C
;
_chemical_formula_sum "Si O2"
_cell_formula_units_Z 28
_cell_length_a 9.624387
_cell_length_b 13.725399
_cell_length_c 21.565251
_cell_angle_alpha 90.000000
_cell_angle_beta 152.992856
_cell_angle_gamma 90.000000
_cell_volume 1293.616655
_symmetry_space_group_name_H-M "P 21/C"
_symmetry_group_IT_number 14
_symmetry_cell_setting 'monoclinic'
loop_
_space_group_symop_operation_xyz
x,y,z
-x,1/2+y,1/2-z
-x,-y,-z
x,1/2-y,1/2+z
loop_
_atom_site_type_symbol
_atom_site_label
_atom_site_fract_x
_atom_site_fract_y
_atom_site_fract_z
Si Si1 0.310833 0.468705 0.724135
Si Si2 0.215492 0.335337 0.301966
Si Si3 0.886118 0.150482 0.482195
Si Si4 0.122449 0.808045 0.916457
Si Si5 0.738778 0.346566 0.210667
Si Si6 0.949800 0.825288 0.590248
Si Si7 0.713609 0.518353 0.779946
O O1 0.551455 0.395903 0.851906
O O2 0.306377 0.572580 0.755296
O O3 0.392120 0.481899 0.682732
O O4 0.987250 0.415484 0.606127
O O5 0.522034 0.311954 0.462552
O O6 0.326084 0.406923 0.291400
O O7 0.069869 0.235955 0.217080
O O8 0.966928 0.385897 0.247800
O O9 0.911062 0.239973 0.537740
O O10 0.958253 0.194781 0.443945
O O11 0.125159 0.066916 0.596139
O O12 0.893734 0.252558 0.302861
O O13 0.417288 0.320465 0.050232
O O14 0.078677 0.930188 0.662587
#
# Coordination Sequence:
#
# PCOD8125787 Si02
#       7
#     4   4   4   4   4   4   4
#     4  11  22  41  69  97 130 168 221 275 325 379
#     4  11  26  44  65  97 134 176 219 264 332 395
#     4  10  20  43  68  99 126 170 221 273 324 388
#     4  11  24  42  71  96 130 174 219 273 327 389
#     4  12  26  43  65  98 136 180 214 270 324 394
#     4  11  24  40  68  97 132 172 223 269 326 384
#     4  10  22  42  68  97 127 170 224 271 324 391
#
# _framework density 21.644742999999998
#
# number of rings (size 3 to 8) (size 9 to 14) (size 15 to 20)
#    0.000    1.143    4.286    1.714    6.000    4.000 
#    0.000    0.000    0.000    0.000    0.000    0.000 
#    0.000    0.000    0.000    0.000    0.000    0.000 
#
# Total GULP energy -347211.734797 kJ/mol
# GULP energy per Si atom -12400.419100 kJ/mol
# Density = 2.159548 g / cm^3
# Si number density = 21.644743 Si / 1000 Ang^3
#
#
#
# Elastic Constant Matrix: (Units=GPa)
#
#
# Indices 1 2 3 4 5 6 
#
# 1 92.7280 24.5595 35.2522 0.0000 19.7675 0.0000
# 2 24.5595 77.1526 35.8581 0.0000 3.4211 0.0000
# 3 35.2522 35.8581 109.6866 0.0000 31.8334 0.0000
# 4 0.0000 0.0000 0.0000 25.7561 0.0000 9.2028
# 5 19.7675 3.4211 31.8334 0.0000 32.7259 0.0000
# 6 0.0000 0.0000 0.0000 9.2028 0.0000 25.2444
#
#
#
# Elastic Compliance Matrix: (Units=1/GPa)
#
#
# Indices 1 2 3 4 5 6 
#
# 1 0.013596 -0.003406 -0.001360 0.000000 -0.006534 0.000000
# 2 -0.003406 0.016638 -0.006182 0.000000 0.006332 0.000000
# 3 -0.001360 -0.006182 0.015534 0.000000 -0.013643 0.000000
# 4 0.000000 0.000000 0.000000 0.044640 0.000000 -0.016273
# 5 -0.006534 0.006332 -0.013643 0.000000 0.047112 0.000000
# 6 0.000000 0.000000 0.000000 -0.016273 0.000000 0.045545
#
#
# Mechanical properties :
#
#
# Convention : Reuss Voigt Hill
#
# Bulk Modulus (GPa) = 41.88958 52.32297 47.10628
# Shear Modulus (GPa) = 23.48294 29.00512 26.24403
#
# Velocity S-wave (km/s) = 3.29739 3.66465 3.48586
# Velocity P-wave (km/s) = 5.82171 6.49093 6.16541
#
# Compressibility (1/GPa) = 0.02387228
#
# Stress axis : x y z
#
# Youngs Moduli (GPa) = 73.54989 60.10314 64.37292
#
# Poissons Ratio (x) = 0.20472 0.08755
# Poissons Ratio (y) = 0.25053 0.39796
# Poissons Ratio (z) = 0.10003 0.37156
#
# Static dielectric constant tensor:
#      x y z
#    x 3.811820 0.000000 0.146620 
#    y 0.000000 3.887080 0.000000 
#    z 0.146620 0.000000 4.048710 
# 
# 
# High freq. dielectric constant tensor:
#      x y z
#    x 1.848170 0.000000 0.012140 
#    y 0.000000 1.849920 0.000000 
#    z 0.012140 0.000000 1.851410 
# 
# From -- ./inp_files/65875.got.cif
#   From: 2010.03.12/outbox.cif.g09.slc.cpg/sg14_33_cif.got.tgz:65875.got - 2010.03.31 13:35:05.
