data_PCOD8125962
_publ_section_title
;
Structure prediction by ZEFSAII (Michael W. Deem and Ramdas Pophale) SiO2 
 PCOD8125962
Probable space group: P 21/C
;
_chemical_formula_sum "Si O2"
_cell_formula_units_Z 32
_cell_length_a 18.990312
_cell_length_b 14.725872
_cell_length_c 5.201606
_cell_angle_alpha 90.000000
_cell_angle_beta 90.000000
_cell_angle_gamma 90.000000
_cell_volume 1454.623416
_symmetry_space_group_name_H-M "P 21/C"
_symmetry_group_IT_number 14
_symmetry_cell_setting 'monoclinic'
loop_
_space_group_symop_operation_xyz
x,y,z
-x,1/2+y,1/2-z
-x,-y,-z
x,1/2-y,1/2+z
loop_
_atom_site_type_symbol
_atom_site_label
_atom_site_fract_x
_atom_site_fract_y
_atom_site_fract_z
Si Si1 0.824422 0.193069 0.894055
Si Si2 0.470030 0.898124 0.028107
Si Si3 0.035392 0.394835 0.775330
Si Si4 0.175578 0.193069 0.394055
Si Si5 0.529970 0.898124 0.528107
Si Si6 0.035392 0.605165 0.724670
Si Si7 0.667273 0.808752 0.644731
Si Si8 0.667273 0.191247 0.855268
O O1 0.834516 0.273151 0.685826
O O2 0.881904 0.116601 0.832131
O O3 0.746208 0.150538 0.870414
O O4 0.487341 0.848165 0.759092
O O5 0.512659 0.848165 0.259092
O O6 0.386914 0.891723 0.092478
O O7 0.500000 0.000000 0.000000
O O8 0.118096 0.383400 0.832131
O O9 0.017379 0.500000 0.750000
O O10 0.010617 0.349465 0.506309
O O11 0.989383 0.349465 0.006309
O O12 0.165484 0.226849 0.685826
O O13 0.253793 0.150538 0.370415
O O14 0.613085 0.891723 0.592478
O O15 0.500000 0.000000 0.500000
O O16 0.655276 0.731613 0.428784
O O17 0.655276 0.231613 0.571216
#
# Coordination Sequence:
#
# PCOD8125962 Si02
#       8
#     4   4   4   4   4   4   4   4
#     4  10  21  37  58  85 116 147 192 236 282 338
#     4  10  21  37  56  81 114 143 185 238 275 339
#     4  10  21  37  57  83 118 152 192 233 280 336
#     4  10  21  37  58  85 116 147 192 236 282 338
#     4  10  21  37  56  81 114 143 185 238 275 339
#     4  10  21  37  57  83 118 152 192 233 280 336
#     4  10  21  37  58  83 114 149 186 233 286 339
#     4  10  21  37  58  83 114 149 186 233 286 339
#
# _framework density 21.998823000000002
#
# number of rings (size 3 to 8) (size 9 to 14) (size 15 to 20)
#    0.000    2.000    0.000    3.000    0.000    6.000 
#    4.500    0.000   11.000    0.000    0.000    0.000 
#    0.000    0.000    0.000    0.000    0.000    0.000 
#
# Total GULP energy -396542.282728 kJ/mol
# GULP energy per Si atom -12391.946335 kJ/mol
# Density = 2.194875 g / cm^3
# Si number density = 21.998823 Si / 1000 Ang^3
#
#
#
# Elastic Constant Matrix: (Units=GPa)
#
#
# Indices 1 2 3 4 5 6 
#
# 1 187.0006 33.7413 56.1301 0.0000 0.0000 0.0000
# 2 33.7413 27.5725 9.2785 0.0000 0.0000 0.0000
# 3 56.1301 9.2785 180.3236 0.0000 0.0000 0.0000
# 4 0.0000 0.0000 0.0000 12.0899 0.0000 0.0000
# 5 0.0000 0.0000 0.0000 0.0000 37.2960 0.0000
# 6 0.0000 0.0000 0.0000 0.0000 0.0000 42.0921
#
#
#
# Elastic Compliance Matrix: (Units=1/GPa)
#
#
# Indices 1 2 3 4 5 6 
#
# 1 0.007441 -0.008473 -0.001880 0.000000 0.000000 0.000000
# 2 -0.008473 0.046555 0.000242 0.000000 0.000000 0.000000
# 3 -0.001880 0.000242 0.006118 0.000000 0.000000 0.000000
# 4 0.000000 0.000000 0.000000 0.082713 0.000000 0.000000
# 5 0.000000 0.000000 0.000000 0.000000 0.026812 0.000000
# 6 0.000000 0.000000 0.000000 0.000000 0.000000 0.023757
#
#
# Mechanical properties :
#
#
# Convention : Reuss Voigt Hill
#
# Bulk Modulus (GPa) = 25.06770 65.91074 45.48922
# Shear Modulus (GPa) = 22.03454 38.01208 30.02331
#
# Velocity S-wave (km/s) = 3.16828 4.16133 3.69829
# Velocity P-wave (km/s) = 4.98033 7.28800 6.24174
#
# Compressibility (1/GPa) = 0.03989198
#
# Stress axis : x y z
#
# Youngs Moduli (GPa) = 134.39638 21.48004 163.44209
#
# Poissons Ratio (x) = 0.18199 0.30729
# Poissons Ratio (y) = 1.13870 -0.03953
# Poissons Ratio (z) = 0.25268 -0.00520
#
# Static dielectric constant tensor:
#      x y z
#    x 4.179670 0.000000 0.000000 
#    y 0.000000 3.093420 0.000000 
#    z 0.000000 0.000000 11.305030 
# 
# 
# High freq. dielectric constant tensor:
#      x y z
#    x 1.877350 0.000000 0.000000 
#    y 0.000000 1.805580 0.000000 
#    z 0.000000 0.000000 1.906750 
# 
# From -- ./inp_files/3798.got.cif
#   From: 2010.03.12/outbox.cif.g09.slc.cpg/sg14_2_cif.got.tgz:3798.got - 2010.03.31 13:35:05.
