data_PCOD8125082
_publ_section_title
;
Structure prediction by ZEFSAII (Michael W. Deem and Ramdas Pophale) SiO2 
 PCOD8125082
Probable space group: P 21/C
;
_chemical_formula_sum "Si O2"
_cell_formula_units_Z 32
_cell_length_a 11.805400
_cell_length_b 8.842758
_cell_length_c 28.264000
_cell_angle_alpha 90.000000
_cell_angle_beta 31.733688
_cell_angle_gamma 90.000000
_cell_volume 1551.902877
_symmetry_space_group_name_H-M "P 21/C"
_symmetry_group_IT_number 14
_symmetry_cell_setting 'monoclinic'
loop_
_space_group_symop_operation_xyz
x,y,z
-x,1/2+y,1/2-z
-x,-y,-z
x,1/2-y,1/2+z
loop_
_atom_site_type_symbol
_atom_site_label
_atom_site_fract_x
_atom_site_fract_y
_atom_site_fract_z
Si Si1 0.798966 0.971681 0.988385
Si Si2 0.397918 0.211271 0.384364
Si Si3 0.894666 0.647909 0.353584
Si Si4 0.703277 0.514941 0.800549
Si Si5 0.368246 0.147367 0.143550
Si Si6 0.806209 0.087830 0.723450
Si Si7 0.261194 0.444759 0.318194
Si Si8 0.671418 0.607281 0.191580
O O1 0.767393 0.817414 0.029116
O O2 0.614343 0.095343 0.062368
O O3 0.802345 0.939776 0.931415
O O4 0.025893 0.040802 0.925660
O O5 0.592946 0.311023 0.294439
O O6 0.279817 0.124564 0.382174
O O7 0.494392 0.088148 0.387635
O O8 0.694633 0.662202 0.389052
O O9 0.072545 0.552753 0.259217
O O10 0.985853 0.811100 0.337861
O O11 0.659051 0.686735 0.826042
O O12 0.740423 0.477280 0.731994
O O13 0.216195 0.033409 0.226325
O O14 0.839210 0.000043 0.661084
O O15 0.436723 0.535401 0.286564
O O16 0.326409 0.272161 0.286538
#
# Coordination Sequence:
#
# PCOD8125082 Si02
#       8
#     4   4   4   4   4   4   4   4
#     4  10  23  40  57  89 127 159 190 245 309 364
#     4   9  20  38  57  86 122 158 185 244 305 356
#     4  10  21  39  61  85 120 162 202 245 300 350
#     4   9  19  37  59  88 115 150 206 248 280 351
#     4  11  20  38  63  89 117 156 203 256 297 344
#     4  10  20  36  63  88 116 155 207 245 290 358
#     4  10  21  37  63  85 118 151 198 239 295 358
#     4  11  19  37  62  86 112 157 195 244 290 354
#
# _framework density 20.619848000000001
#
# number of rings (size 3 to 8) (size 9 to 14) (size 15 to 20)
#    0.000    2.000    2.500    1.875    0.000    0.500 
#    2.250    1.250    0.000    0.000    0.000    0.000 
#    0.000    0.000    0.000    0.000    0.000    0.000 
#
# Total GULP energy -396531.849770 kJ/mol
# GULP energy per Si atom -12391.620305 kJ/mol
# Density = 2.057292 g / cm^3
# Si number density = 20.619848 Si / 1000 Ang^3
#
#
#
# Elastic Constant Matrix: (Units=GPa)
#
#
# Indices 1 2 3 4 5 6 
#
# 1 73.8950 24.0670 24.4002 0.0000 0.2782 0.0000
# 2 24.0670 134.6720 38.3886 0.0000 -9.0048 0.0000
# 3 24.4002 38.3886 58.5578 0.0000 -11.6669 0.0000
# 4 0.0000 0.0000 0.0000 23.1895 0.0000 2.2215
# 5 0.2782 -9.0048 -11.6669 0.0000 24.0520 0.0000
# 6 0.0000 0.0000 0.0000 2.2215 0.0000 25.9161
#
#
#
# Elastic Compliance Matrix: (Units=1/GPa)
#
#
# Indices 1 2 3 4 5 6 
#
# 1 0.016163 -0.001240 -0.006700 0.000000 -0.003901 0.000000
# 2 -0.001240 0.009234 -0.005364 0.000000 0.000870 0.000000
# 3 -0.006700 -0.005364 0.025461 0.000000 0.010420 0.000000
# 4 0.000000 0.000000 0.000000 0.043480 0.000000 -0.003727
# 5 -0.003901 0.000870 0.010420 0.000000 0.047002 0.000000
# 6 0.000000 0.000000 0.000000 -0.003727 0.000000 0.038905
#
#
# Mechanical properties :
#
#
# Convention : Reuss Voigt Hill
#
# Bulk Modulus (GPa) = 41.23270 48.98182 45.10726
# Shear Modulus (GPa) = 23.26278 26.64946 24.95612
#
# Velocity S-wave (km/s) = 3.36247 3.59892 3.48271
# Velocity P-wave (km/s) = 5.92579 6.40905 6.17215
#
# Compressibility (1/GPa) = 0.02425259
#
# Stress axis : x y z
#
# Youngs Moduli (GPa) = 61.86838 108.29448 39.27569
#
# Poissons Ratio (x) = 0.13424 0.26313
# Poissons Ratio (y) = 0.07669 0.21067
# Poissons Ratio (z) = 0.41449 0.58086
#
# Static dielectric constant tensor:
#      x y z
#    x 3.777820 0.000000 -0.143270 
#    y 0.000000 3.844650 0.000000 
#    z -0.143270 0.000000 3.495980 
# 
# 
# High freq. dielectric constant tensor:
#      x y z
#    x 1.808010 0.000000 -0.006630 
#    y 0.000000 1.821370 0.000000 
#    z -0.006630 0.000000 1.769470 
# 
# From -- ./inp_files/43453.got.cif
#   From: 2010.03.12/outbox.cif.g09.slc.cpg/sg14_22_cif.got.tgz:43453.got - 2010.03.31 13:35:05.
