data_PCOD8125147
_publ_section_title
;
Structure prediction by ZEFSAII (Michael W. Deem and Ramdas Pophale) SiO2 
 PCOD8125147
Probable space group: P 21/C
;
_chemical_formula_sum "Si O2"
_cell_formula_units_Z 32
_cell_length_a 11.936622
_cell_length_b 8.926006
_cell_length_c 28.544356
_cell_angle_alpha 90.000000
_cell_angle_beta 147.129742
_cell_angle_gamma 90.000000
_cell_volume 1650.629193
_symmetry_space_group_name_H-M "P 21/C"
_symmetry_group_IT_number 14
_symmetry_cell_setting 'monoclinic'
loop_
_space_group_symop_operation_xyz
x,y,z
-x,1/2+y,1/2-z
-x,-y,-z
x,1/2-y,1/2+z
loop_
_atom_site_type_symbol
_atom_site_label
_atom_site_fract_x
_atom_site_fract_y
_atom_site_fract_z
Si Si1 0.665828 0.581952 0.836957
Si Si2 0.044227 0.916780 0.902007
Si Si3 0.686161 0.563408 0.344122
Si Si4 0.400648 0.925848 0.092413
Si Si5 0.564961 0.423391 0.897433
Si Si6 0.958574 0.433489 0.090002
Si Si7 0.098316 0.104052 0.247417
Si Si8 0.126814 0.044060 0.746482
O O1 0.515976 0.520715 0.744546
O O2 0.650875 0.760038 0.831862
O O3 0.605658 0.520739 0.866135
O O4 0.893385 0.523930 0.901703
O O5 0.011692 0.740661 0.890557
O O6 0.876562 0.987426 0.878389
O O7 0.003958 0.971737 0.834778
O O8 0.274657 0.959195 0.000141
O O9 0.725057 0.507329 0.410490
O O10 0.402270 0.749531 0.104399
O O11 0.629621 0.991246 0.167911
O O12 0.334345 0.451444 0.834841
O O13 0.723694 0.475163 0.993900
O O14 0.026278 0.513018 0.162213
O O15 0.085167 0.282430 0.241183
O O16 0.973668 0.053413 0.248489
#
# Coordination Sequence:
#
# PCOD8125147 Si02
#       8
#     4   4   4   4   4   4   4   4
#     4  11  20  34  57  85 115 146 179 219 270 329
#     4   9  19  36  57  81 111 145 179 221 275 327
#     4  11  20  34  57  85 115 146 179 219 270 329
#     4  10  20  37  59  81 110 146 180 223 276 324
#     4  10  20  37  59  81 110 146 180 223 276 324
#     4   9  19  36  57  81 111 145 179 221 275 327
#     4  10  21  38  56  78 108 145 186 227 271 320
#     4  10  21  38  56  78 108 145 186 227 271 320
#
# _framework density 19.386548000000001
#
# number of rings (size 3 to 8) (size 9 to 14) (size 15 to 20)
#    0.000    2.000    2.500    1.500    0.000    2.000 
#    0.000    2.500    0.000    0.000    0.000    0.000 
#    0.000    0.000    0.000    0.000    0.000    0.000 
#
# Total GULP energy -396782.607758 kJ/mol
# GULP energy per Si atom -12399.456492 kJ/mol
# Density = 1.934242 g / cm^3
# Si number density = 19.386548 Si / 1000 Ang^3
#
#
#
# Elastic Constant Matrix: (Units=GPa)
#
#
# Indices 1 2 3 4 5 6 
#
# 1 89.6992 16.5459 16.7443 0.0000 -0.1005 0.0000
# 2 16.5459 33.3842 13.7339 0.0000 -0.6024 0.0000
# 3 16.7443 13.7339 109.1527 0.0000 -3.8539 0.0000
# 4 0.0000 0.0000 0.0000 16.4166 0.0000 -3.3845
# 5 -0.1005 -0.6024 -3.8539 0.0000 20.8226 0.0000
# 6 0.0000 0.0000 0.0000 -3.3845 0.0000 32.1030
#
#
#
# Elastic Compliance Matrix: (Units=1/GPa)
#
#
# Indices 1 2 3 4 5 6 
#
# 1 0.012418 -0.005665 -0.001204 0.000000 -0.000327 0.000000
# 2 -0.005665 0.034175 -0.003419 0.000000 0.000329 0.000000
# 3 -0.001204 -0.003419 0.009837 0.000000 0.001716 0.000000
# 4 0.000000 0.000000 0.000000 0.062267 0.000000 0.006565
# 5 -0.000327 0.000329 0.001716 0.000000 0.048350 0.000000
# 6 0.000000 0.000000 0.000000 0.006565 0.000000 0.031842
#
#
# Mechanical properties :
#
#
# Convention : Reuss Voigt Hill
#
# Bulk Modulus (GPa) = 27.89167 36.25383 32.07275
# Shear Modulus (GPa) = 21.60612 26.21590 23.91101
#
# Velocity S-wave (km/s) = 3.34202 3.68132 3.51576
# Velocity P-wave (km/s) = 5.41392 6.06717 5.74983
#
# Compressibility (1/GPa) = 0.03585300
#
# Stress axis : x y z
#
# Youngs Moduli (GPa) = 80.53018 29.26144 101.65780
#
# Poissons Ratio (x) = 0.16577 0.12236
# Poissons Ratio (y) = 0.45622 0.34760
# Poissons Ratio (z) = 0.09693 0.10005
#
# Static dielectric constant tensor:
#      x y z
#    x 3.536140 0.000000 -0.116880 
#    y 0.000000 3.223120 0.000000 
#    z -0.116880 0.000000 3.989510 
# 
# 
# High freq. dielectric constant tensor:
#      x y z
#    x 1.751580 0.000000 -0.002710 
#    y 0.000000 1.725020 0.000000 
#    z -0.002710 0.000000 1.771950 
# 
# From -- ./inp_files/80043.got.cif
#   From: 2010.03.12/outbox.cif.g09.slc.cpg/sg14_41_cif.got.tgz:80043.got - 2010.03.31 13:35:05.
