data_PCOD8125153
_publ_section_title
;
Structure prediction by ZEFSAII (Michael W. Deem and Ramdas Pophale) SiO2 
 PCOD8125153
Probable space group: P 21/C
;
_chemical_formula_sum "Si O2"
_cell_formula_units_Z 32
_cell_length_a 13.901011
_cell_length_b 8.915830
_cell_length_c 21.398004
_cell_angle_alpha 90.000000
_cell_angle_beta 141.177143
_cell_angle_gamma 90.000000
_cell_volume 1662.607970
_symmetry_space_group_name_H-M "P 21/C"
_symmetry_group_IT_number 14
_symmetry_cell_setting 'monoclinic'
loop_
_space_group_symop_operation_xyz
x,y,z
-x,1/2+y,1/2-z
-x,-y,-z
x,1/2-y,1/2+z
loop_
_atom_site_type_symbol
_atom_site_label
_atom_site_fract_x
_atom_site_fract_y
_atom_site_fract_z
Si Si1 0.027453 0.325600 0.089311
Si Si2 0.440862 0.723772 0.336885
Si Si3 0.475040 0.933169 0.056988
Si Si4 0.776489 0.313790 0.057019
Si Si5 0.348125 0.939652 0.390261
Si Si6 0.673914 0.816576 0.719810
Si Si7 0.185440 0.889610 0.624934
Si Si8 0.406838 0.993275 0.635624
O O1 0.178891 0.225181 0.164461
O O2 0.072509 0.500968 0.106149
O O3 0.944965 0.289068 0.113655
O O4 0.914092 0.287680 0.973684
O O5 0.525871 0.565942 0.391908
O O6 0.402851 0.787856 0.385385
O O7 0.277059 0.714274 0.218898
O O8 0.550701 0.833168 0.352978
O O9 0.612938 0.823121 0.147824
O O10 0.315233 0.843152 0.982927
O O11 0.500000 0.000000 0.000000
O O12 0.785540 0.394410 0.128908
O O13 0.695617 0.436497 0.972922
O O14 0.500000 0.000000 0.500000
O O15 0.279667 0.055699 0.306208
O O16 0.554831 0.883541 0.710206
O O17 0.315190 0.985356 0.653842
#
# Coordination Sequence:
#
# PCOD8125153 Si02
#       8
#     4   4   4   4   4   4   4   4
#     4  10  22  41  57  82 124 162 193 238 310 360
#     4  11  20  34  65  94 110 147 211 248 294 341
#     4  11  19  33  62  90 116 142 200 253 276 348
#     4  10  20  38  61  83 123 163 185 238 316 354
#     4  11  18  38  61  86 120 153 191 251 298 351
#     4  10  20  37  59  83 115 158 195 237 302 354
#     4  10  22  38  61  84 119 158 202 251 292 356
#     4   9  21  36  63  87 112 156 199 249 294 348
#
# _framework density 19.246870000000001
#
# number of rings (size 3 to 8) (size 9 to 14) (size 15 to 20)
#    0.000    1.750    6.250    0.000    1.750    1.000 
#    4.500    2.500   16.500    0.000    0.000    0.000 
#    0.000    0.000    0.000    0.000    0.000    0.000 
#
# Total GULP energy -396641.596986 kJ/mol
# GULP energy per Si atom -12395.049906 kJ/mol
# Density = 1.920306 g / cm^3
# Si number density = 19.246870 Si / 1000 Ang^3
#
#
#
# Elastic Constant Matrix: (Units=GPa)
#
#
# Indices 1 2 3 4 5 6 
#
# 1 108.0647 26.0775 28.4104 0.0000 5.1240 0.0000
# 2 26.0775 95.6554 31.4161 0.0000 2.1675 0.0000
# 3 28.4104 31.4161 77.7298 0.0000 4.8641 0.0000
# 4 0.0000 0.0000 0.0000 31.7661 0.0000 -1.0343
# 5 5.1240 2.1675 4.8641 0.0000 22.9754 0.0000
# 6 0.0000 0.0000 0.0000 -1.0343 0.0000 26.7867
#
#
#
# Elastic Compliance Matrix: (Units=1/GPa)
#
#
# Indices 1 2 3 4 5 6 
#
# 1 0.010568 -0.001855 -0.003016 0.000000 -0.001543 0.000000
# 2 -0.001855 0.012380 -0.004336 0.000000 0.000164 0.000000
# 3 -0.003016 -0.004336 0.015862 0.000000 -0.002277 0.000000
# 4 0.000000 0.000000 0.000000 0.031520 0.000000 0.001217
# 5 -0.001543 0.000164 -0.002277 0.000000 0.044335 0.000000
# 6 0.000000 0.000000 0.000000 0.001217 0.000000 0.037379
#
#
# Mechanical properties :
#
#
# Convention : Reuss Voigt Hill
#
# Bulk Modulus (GPa) = 49.03000 50.36200 49.69600
# Shear Modulus (GPa) = 28.20757 29.34204 28.77480
#
# Velocity S-wave (km/s) = 3.83243 3.90873 3.87077
# Velocity P-wave (km/s) = 6.71661 6.82598 6.77152
#
# Compressibility (1/GPa) = 0.02039567
#
# Stress axis : x y z
#
# Youngs Moduli (GPa) = 94.62945 80.77335 63.04248
#
# Poissons Ratio (x) = 0.14987 0.19014
# Poissons Ratio (y) = 0.17558 0.27334
# Poissons Ratio (z) = 0.28540 0.35022
#
# Static dielectric constant tensor:
#      x y z
#    x 4.044810 0.000000 -0.094110 
#    y 0.000000 3.558350 0.000000 
#    z -0.094110 0.000000 3.492570 
# 
# 
# High freq. dielectric constant tensor:
#      x y z
#    x 1.743860 0.000000 -0.012650 
#    y 0.000000 1.745060 0.000000 
#    z -0.012650 0.000000 1.740030 
# 
# From -- ./inp_files/68216.got.cif
#   From: 2010.03.12/outbox.cif.g09.slc.cpg/sg14_35_cif.got.tgz:68216.got - 2010.03.31 13:35:05.
