data_PCOD8125894
_publ_section_title
;
Structure prediction by ZEFSAII (Michael W. Deem and Ramdas Pophale) SiO2 
 PCOD8125894
Probable space group: P 21/C
;
_chemical_formula_sum "Si O2"
_cell_formula_units_Z 28
_cell_length_a 20.161751
_cell_length_b 8.716150
_cell_length_c 21.607641
_cell_angle_alpha 90.000000
_cell_angle_beta 21.079166
_cell_angle_gamma 90.000000
_cell_volume 1365.681637
_symmetry_space_group_name_H-M "P 21/C"
_symmetry_group_IT_number 14
_symmetry_cell_setting 'monoclinic'
loop_
_space_group_symop_operation_xyz
x,y,z
-x,1/2+y,1/2-z
-x,-y,-z
x,1/2-y,1/2+z
loop_
_atom_site_type_symbol
_atom_site_label
_atom_site_fract_x
_atom_site_fract_y
_atom_site_fract_z
Si Si1 0.747192 0.500000 0.502808
Si Si2 0.107360 0.171370 0.483161
Si Si3 0.948928 0.014107 0.161628
Si Si4 0.547946 0.750000 0.250000
Si Si5 0.573682 0.171370 0.516839
Si Si6 0.227770 0.250000 0.750000
Si Si7 0.772184 0.014107 0.838372
O O1 0.623150 0.350732 0.624318
O O2 0.628214 0.649268 0.624318
O O3 0.810300 0.518976 0.377127
O O4 0.935446 0.481024 0.377127
O O5 0.291501 0.140142 0.362707
O O6 0.147660 0.144217 0.375485
O O7 0.047921 0.349763 0.538864
O O8 0.959137 0.056793 0.640003
O O9 0.739142 0.056793 0.359997
O O10 0.936303 0.860635 0.131448
O O11 0.483085 0.859858 0.362707
O O12 0.398629 0.144217 0.624516
O O13 0.625650 0.349763 0.461136
O O14 0.300802 0.360635 0.631448
#
# Coordination Sequence:
#
# PCOD8125894 Si02
#       7
#     4   4   4   4   4   4   4
#     4  10  22  38  56  84 112 144 186 224 284 336
#     4   9  20  38  55  77 115 148 175 229 288 315
#     4  10  21  36  57  83 113 144 181 231 273 332
#     4   9  20  38  58  78 110 149 182 226 276 337
#     4   9  20  38  55  77 115 148 175 229 288 315
#     4  11  20  34  58  84 104 145 196 222 264 333
#     4  10  21  36  57  83 113 144 181 231 273 332
#
# _framework density 20.502583000000001
#
# number of rings (size 3 to 8) (size 9 to 14) (size 15 to 20)
#    0.000    2.286    0.000    1.714    0.000    8.000 
#    0.000    5.714    0.000    0.000    0.000    0.000 
#    0.000    0.000    0.000    0.000    0.000    0.000 
#
# Total GULP energy -347179.519736 kJ/mol
# GULP energy per Si atom -12399.268562 kJ/mol
# Density = 2.045592 g / cm^3
# Si number density = 20.502583 Si / 1000 Ang^3
#
#
#
# Elastic Constant Matrix: (Units=GPa)
#
#
# Indices 1 2 3 4 5 6 
#
# 1 139.3070 44.3318 52.2535 0.0000 -3.5578 0.0000
# 2 44.3318 59.4691 15.9212 0.0000 -2.7304 0.0000
# 3 52.2535 15.9212 103.0652 0.0000 0.0751 0.0000
# 4 0.0000 0.0000 0.0000 26.2675 0.0000 0.9562
# 5 -3.5578 -2.7304 0.0751 0.0000 25.3649 0.0000
# 6 0.0000 0.0000 0.0000 0.9562 0.0000 16.3185
#
#
#
# Elastic Compliance Matrix: (Units=1/GPa)
#
#
# Indices 1 2 3 4 5 6 
#
# 1 0.011159 -0.007058 -0.004568 0.000000 0.000819 0.000000
# 2 -0.007058 0.022097 0.000164 0.000000 0.001388 0.000000
# 3 -0.004568 0.000164 0.011994 0.000000 -0.000659 0.000000
# 4 0.000000 0.000000 0.000000 0.038151 0.000000 -0.002236
# 5 0.000819 0.001388 -0.000659 0.000000 0.039691 0.000000
# 6 0.000000 0.000000 0.000000 -0.002236 0.000000 0.061411
#
#
# Mechanical properties :
#
#
# Convention : Reuss Voigt Hill
#
# Bulk Modulus (GPa) = 44.79185 58.53936 51.66560
# Shear Modulus (GPa) = 23.27016 26.21249 24.74132
#
# Velocity S-wave (km/s) = 3.37261 3.57949 3.47759
# Velocity P-wave (km/s) = 6.08772 6.76001 6.43266
#
# Compressibility (1/GPa) = 0.02232549
#
# Stress axis : x y z
#
# Youngs Moduli (GPa) = 89.61650 45.25569 83.37801
#
# Poissons Ratio (x) = 0.31941 0.38085
# Poissons Ratio (y) = 0.63250 -0.01366
# Poissons Ratio (z) = 0.40934 -0.00741
#
# Static dielectric constant tensor:
#      x y z
#    x 3.705200 0.000000 0.006050 
#    y 0.000000 3.396170 0.000000 
#    z 0.006050 0.000000 3.768110 
# 
# 
# High freq. dielectric constant tensor:
#      x y z
#    x 1.807590 0.000000 0.000220 
#    y 0.000000 1.778880 0.000000 
#    z 0.000220 0.000000 1.809880 
# 
# From -- ./inp_files/64612.got.cif
#   From: 2010.03.12/outbox.cif.g09.slc.cpg/sg14_33_cif.got.tgz:64612.got - 2010.03.31 13:35:05.
