data_PCOD8125247
_publ_section_title
;
Structure prediction by ZEFSAII (Michael W. Deem and Ramdas Pophale) SiO2 
 PCOD8125247
Probable space group: P 21/C
;
_chemical_formula_sum "Si O2"
_cell_formula_units_Z 28
_cell_length_a 8.733739
_cell_length_b 12.320380
_cell_length_c 14.482325
_cell_angle_alpha 90.000000
_cell_angle_beta 119.552570
_cell_angle_gamma 90.000000
_cell_volume 1355.606650
_symmetry_space_group_name_H-M "P 21/C"
_symmetry_group_IT_number 14
_symmetry_cell_setting 'monoclinic'
loop_
_space_group_symop_operation_xyz
x,y,z
-x,1/2+y,1/2-z
-x,-y,-z
x,1/2-y,1/2+z
loop_
_atom_site_type_symbol
_atom_site_label
_atom_site_fract_x
_atom_site_fract_y
_atom_site_fract_z
Si Si1 0.424133 0.016500 0.607884
Si Si2 0.261748 0.422454 0.504496
Si Si3 0.573008 0.356883 0.480057
Si Si4 0.250011 0.114151 0.216397
Si Si5 0.303708 0.634537 0.926716
Si Si6 0.000412 0.558981 0.718019
Si Si7 0.295353 0.133778 0.745848
O O1 0.516234 0.107817 0.572964
O O2 0.318728 0.082167 0.653042
O O3 0.563909 0.928795 0.689104
O O4 0.280685 0.953823 0.502047
O O5 0.429034 0.352561 0.520104
O O6 0.292983 0.543556 0.474030
O O7 0.237657 0.417299 0.605776
O O8 0.078815 0.387029 0.399717
O O9 0.690207 0.250585 0.523093
O O10 0.481244 0.365207 0.353135
O O11 0.226179 0.242754 0.220521
O O12 0.090088 0.057563 0.224262
O O13 0.146105 0.636927 0.806333
O O14 0.839418 0.553208 0.742435
#
# Coordination Sequence:
#
# PCOD8125247 Si02
#       7
#     4   4   4   4   4   4   4
#     4  10  21  39  66  88 122 162 217 249 303 373
#     4  10  21  39  64  93 123 162 207 261 301 374
#     4  10  20  37  65  92 122 161 214 251 305 366
#     4  11  21  41  64  89 125 164 206 262 306 367
#     4  10  21  41  61  91 126 166 201 257 306 375
#     4  10  25  40  59  91 131 160 206 255 316 366
#     4  11  22  41  63  95 121 167 210 257 311 366
#
# _framework density 20.654959999999999
#
# number of rings (size 3 to 8) (size 9 to 14) (size 15 to 20)
#    0.000    1.714    2.857    1.286    2.000    0.571 
#    0.000    1.429    0.000    0.000    0.000    0.000 
#    0.000    0.000    0.000    0.000    0.000    0.000 
#
# Total GULP energy -347130.967508 kJ/mol
# GULP energy per Si atom -12397.534554 kJ/mol
# Density = 2.060795 g / cm^3
# Si number density = 20.654960 Si / 1000 Ang^3
#
#
#
# Elastic Constant Matrix: (Units=GPa)
#
#
# Indices 1 2 3 4 5 6 
#
# 1 57.7544 36.7667 33.5612 0.0000 -10.0723 0.0000
# 2 36.7667 90.3369 37.4296 0.0000 -6.4857 0.0000
# 3 33.5612 37.4296 111.7605 0.0000 -1.1931 0.0000
# 4 0.0000 0.0000 0.0000 20.4349 0.0000 0.0503
# 5 -10.0723 -6.4857 -1.1931 0.0000 37.0088 0.0000
# 6 0.0000 0.0000 0.0000 0.0503 0.0000 18.3914
#
#
#
# Elastic Compliance Matrix: (Units=1/GPa)
#
#
# Indices 1 2 3 4 5 6 
#
# 1 0.026546 -0.008271 -0.005142 0.000000 0.005610 0.000000
# 2 -0.008271 0.015598 -0.002736 0.000000 0.000394 0.000000
# 3 -0.005142 -0.002736 0.011392 0.000000 -0.001512 0.000000
# 4 0.000000 0.000000 0.000000 0.048936 0.000000 -0.000134
# 5 0.005610 0.000394 -0.001512 0.000000 0.028568 0.000000
# 6 0.000000 0.000000 0.000000 -0.000134 0.000000 0.054374
#
#
# Mechanical properties :
#
#
# Convention : Reuss Voigt Hill
#
# Bulk Modulus (GPa) = 47.08422 52.81855 49.95138
# Shear Modulus (GPa) = 22.24293 25.30664 23.77478
#
# Velocity S-wave (km/s) = 3.28515 3.50410 3.39639
# Velocity P-wave (km/s) = 6.10202 6.48066 6.29419
#
# Compressibility (1/GPa) = 0.02123854
#
# Stress axis : x y z
#
# Youngs Moduli (GPa) = 37.66997 64.11150 87.78157
#
# Poissons Ratio (x) = 0.53027 0.45136
# Poissons Ratio (y) = 0.31157 0.24016
# Poissons Ratio (z) = 0.19369 0.17540
#
# Static dielectric constant tensor:
#      x y z
#    x 3.527130 0.000000 0.000960 
#    y 0.000000 3.641360 0.000000 
#    z 0.000960 0.000000 4.018090 
# 
# 
# High freq. dielectric constant tensor:
#      x y z
#    x 1.789550 0.000000 -0.002890 
#    y 0.000000 1.797570 0.000000 
#    z -0.002890 0.000000 1.826870 
# 
# From -- ./inp_files/40102.got.cif
#   From: 2010.03.12/outbox.cif.g09.slc.cpg/sg14_21_cif.got.tgz:40102.got - 2010.03.31 13:35:05.
