data_PCOD8125285
_publ_section_title
;
Structure prediction by ZEFSAII (Michael W. Deem and Ramdas Pophale) SiO2 
 PCOD8125285
Probable space group: P 21/C
;
_chemical_formula_sum "Si O2"
_cell_formula_units_Z 32
_cell_length_a 24.906427
_cell_length_b 8.424261
_cell_length_c 18.087970
_cell_angle_alpha 90.000000
_cell_angle_beta 24.310076
_cell_angle_gamma 90.000000
_cell_volume 1562.381821
_symmetry_space_group_name_H-M "P 21/C"
_symmetry_group_IT_number 14
_symmetry_cell_setting 'monoclinic'
loop_
_space_group_symop_operation_xyz
x,y,z
-x,1/2+y,1/2-z
-x,-y,-z
x,1/2-y,1/2+z
loop_
_atom_site_type_symbol
_atom_site_label
_atom_site_fract_x
_atom_site_fract_y
_atom_site_fract_z
Si Si1 0.663590 0.664687 0.655692
Si Si2 0.151991 0.875917 0.298054
Si Si3 0.878917 0.721238 0.145383
Si Si4 0.772721 0.599197 0.911247
Si Si5 0.362694 0.620638 0.028306
Si Si6 0.904570 0.004650 0.791648
Si Si7 0.031758 0.836562 0.143977
Si Si8 0.241480 0.452511 0.312477
O O1 0.697640 0.836592 0.578200
O O2 0.756394 0.536279 0.500624
O O3 0.686191 0.651875 0.715543
O O4 0.514208 0.637078 0.823042
O O5 0.289863 0.788132 0.132337
O O6 0.031484 0.769685 0.481127
O O7 0.161835 0.043242 0.328807
O O8 0.101892 0.911872 0.278517
O O9 0.786846 0.764616 0.330427
O O10 0.861388 0.838325 0.098756
O O11 0.698587 0.450292 0.969734
O O12 0.918128 0.549944 0.753355
O O13 0.346910 0.510559 0.120226
O O14 0.996551 0.847833 0.675256
O O15 0.963311 0.132751 0.774428
O O16 0.168091 0.891908 0.936384
#
# Coordination Sequence:
#
# PCOD8125285 Si02
#       8
#     4   4   4   4   4   4   4   4
#     4  10  22  41  60  83 125 158 205 248 294 360
#     4  11  22  37  60  91 120 157 196 258 303 360
#     4  10  21  38  61  87 124 146 199 253 310 356
#     4  10  21  39  58  88 115 159 195 253 302 363
#     4  11  24  37  65  85 121 163 212 238 301 371
#     4  10  23  37  60  89 124 156 196 260 309 357
#     4  10  20  38  59  89 122 151 199 254 313 362
#     4  10  22  41  63  88 117 167 197 252 309 361
#
# _framework density 20.481548
#
# number of rings (size 3 to 8) (size 9 to 14) (size 15 to 20)
#    0.000    1.750    2.500    1.875   10.500    2.000 
#    0.000    0.625    0.000    0.000    0.000    0.000 
#    0.000    0.000    0.000    0.000    0.000    0.000 
#
# Total GULP energy -396649.664156 kJ/mol
# GULP energy per Si atom -12395.302005 kJ/mol
# Density = 2.043493 g / cm^3
# Si number density = 20.481548 Si / 1000 Ang^3
#
#
#
# Elastic Constant Matrix: (Units=GPa)
#
#
# Indices 1 2 3 4 5 6 
#
# 1 76.2096 14.2757 10.9558 0.0000 8.7597 0.0000
# 2 14.2757 61.7068 23.7839 0.0000 2.0289 0.0000
# 3 10.9558 23.7839 87.8359 0.0000 -9.5059 0.0000
# 4 0.0000 0.0000 0.0000 17.2200 0.0000 -1.8713
# 5 8.7597 2.0289 -9.5059 0.0000 26.2733 0.0000
# 6 0.0000 0.0000 0.0000 -1.8713 0.0000 27.4411
#
#
#
# Elastic Compliance Matrix: (Units=1/GPa)
#
#
# Indices 1 2 3 4 5 6 
#
# 1 0.014437 -0.002519 -0.001685 0.000000 -0.005228 0.000000
# 2 -0.002519 0.018813 -0.005044 0.000000 -0.002438 0.000000
# 3 -0.001685 -0.005044 0.013596 0.000000 0.005870 0.000000
# 4 0.000000 0.000000 0.000000 0.058506 0.000000 0.003990
# 5 -0.005228 -0.002438 0.005870 0.000000 0.042117 0.000000
# 6 0.000000 0.000000 0.000000 0.003990 0.000000 0.036714
#
#
# Mechanical properties :
#
#
# Convention : Reuss Voigt Hill
#
# Bulk Modulus (GPa) = 35.27165 35.97592 35.62379
# Shear Modulus (GPa) = 23.57097 25.96934 24.77015
#
# Velocity S-wave (km/s) = 3.39608 3.56468 3.48140
# Velocity P-wave (km/s) = 5.71283 5.87756 5.79578
#
# Compressibility (1/GPa) = 0.02835138
#
# Stress axis : x y z
#
# Youngs Moduli (GPa) = 69.26829 53.15606 73.55118
#
# Poissons Ratio (x) = 0.13388 0.12390
# Poissons Ratio (y) = 0.17447 0.37097
# Poissons Ratio (z) = 0.11668 0.26810
#
# Static dielectric constant tensor:
#      x y z
#    x 3.955210 0.000000 0.147050 
#    y 0.000000 3.575440 0.000000 
#    z 0.147050 0.000000 3.548250 
# 
# 
# High freq. dielectric constant tensor:
#      x y z
#    x 1.809920 0.000000 0.014970 
#    y 0.000000 1.785990 0.000000 
#    z 0.014970 0.000000 1.788210 
# 
# From -- ./inp_files/70471.got.cif
#   From: 2010.03.12/outbox.cif.g09.slc.cpg/sg14_36_cif.got.tgz:70471.got - 2010.03.31 13:35:05.
