data_PCOD8125808
_publ_section_title
;
Structure prediction by ZEFSAII (Michael W. Deem and Ramdas Pophale) SiO2 
 PCOD8125808
Probable space group: P 21/C
;
_chemical_formula_sum "Si O2"
_cell_formula_units_Z 28
_cell_length_a 5.121332
_cell_length_b 12.824839
_cell_length_c 20.032213
_cell_angle_alpha 90.000000
_cell_angle_beta 107.888137
_cell_angle_gamma 90.000000
_cell_volume 1252.116372
_symmetry_space_group_name_H-M "P 21/C"
_symmetry_group_IT_number 14
_symmetry_cell_setting 'monoclinic'
loop_
_space_group_symop_operation_xyz
x,y,z
-x,1/2+y,1/2-z
-x,-y,-z
x,1/2-y,1/2+z
loop_
_atom_site_type_symbol
_atom_site_label
_atom_site_fract_x
_atom_site_fract_y
_atom_site_fract_z
Si Si1 0.565919 0.815860 0.506976
Si Si2 0.903526 0.937724 0.856878
Si Si3 0.301008 0.245894 0.731497
Si Si4 0.506416 0.591068 0.447663
Si Si5 0.840008 0.358137 0.272901
Si Si6 0.114460 0.914639 0.558931
Si Si7 0.569956 0.910359 0.363258
O O1 0.582758 0.694722 0.492901
O O2 0.514178 0.881735 0.435572
O O3 0.853546 0.849007 0.564964
O O4 0.319468 0.835758 0.538254
O O5 0.908134 0.057702 0.834685
O O6 0.754967 0.866404 0.789442
O O7 0.743802 0.932167 0.913543
O O8 0.213884 0.896446 0.888272
O O9 0.613848 0.226225 0.780964
O O10 0.247543 0.179440 0.658820
O O11 0.111220 0.205303 0.776222
O O12 0.500000 0.500000 0.500000
O O13 0.720083 0.418513 0.198288
O O14 0.274625 0.977872 0.629708
O O15 0.000000 0.000000 0.500000
#
# Coordination Sequence:
#
# PCOD8125808 Si02
#       7
#     4   4   4   4   4   4   4
#     4  11  21  37  60  89 122 167 207 252 313 370
#     4  12  23  46  69  92 124 172 210 265 316 372
#     4  10  21  38  66  93 123 166 211 246 309 388
#     4  12  26  44  68  91 123 171 226 261 305 379
#     4  10  23  37  65  94 126 156 216 257 311 377
#     4  10  21  31  58  91 128 155 199 258 311 365
#     4   9  20  35  61  90 128 152 209 241 320 374
#
# _framework density 22.362141000000001
#
# number of rings (size 3 to 8) (size 9 to 14) (size 15 to 20)
#    0.857    0.571    1.429    5.571    8.000    0.000 
#    0.000    4.286    0.000    0.000    0.000    0.000 
#    0.000    0.000    0.000    0.000    0.000    0.000 
#
# Total GULP energy -347149.572289 kJ/mol
# GULP energy per Si atom -12398.199010 kJ/mol
# Density = 2.231124 g / cm^3
# Si number density = 22.362141 Si / 1000 Ang^3
#
#
#
# Elastic Constant Matrix: (Units=GPa)
#
#
# Indices 1 2 3 4 5 6 
#
# 1 113.9610 7.6220 2.7395 0.0000 -10.2544 0.0000
# 2 7.6220 87.1283 10.4465 0.0000 -11.3610 0.0000
# 3 2.7395 10.4465 8.7955 0.0000 -5.8027 0.0000
# 4 0.0000 0.0000 0.0000 37.5969 0.0000 -3.0162
# 5 -10.2544 -11.3610 -5.8027 0.0000 24.9538 0.0000
# 6 0.0000 0.0000 0.0000 -3.0162 0.0000 32.1401
#
#
#
# Elastic Compliance Matrix: (Units=1/GPa)
#
#
# Indices 1 2 3 4 5 6 
#
# 1 0.009121 -0.000319 -0.000100 0.000000 0.003579 0.000000
# 2 -0.000319 0.013566 -0.014204 0.000000 0.002742 0.000000
# 3 -0.000100 -0.014204 0.149188 0.000000 0.028184 0.000000
# 4 0.000000 0.000000 0.000000 0.026800 0.000000 0.002515
# 5 0.003579 0.002742 0.028184 0.000000 0.049347 0.000000
# 6 0.000000 0.000000 0.000000 0.002515 0.000000 0.031350
#
#
# Mechanical properties :
#
#
# Convention : Reuss Voigt Hill
#
# Bulk Modulus (GPa) = 7.01119 27.94453 17.47786
# Shear Modulus (GPa) = 14.03860 31.54328 22.79094
#
# Velocity S-wave (km/s) = 2.50828 3.75983 3.19592
# Velocity P-wave (km/s) = 3.39569 5.60106 4.63155
#
# Compressibility (1/GPa) = 0.14262909
#
# Stress axis : x y z
#
# Youngs Moduli (GPa) = 109.63989 73.71487 6.70293
#
# Poissons Ratio (x) = 0.02352 0.00067
# Poissons Ratio (y) = 0.03499 0.09521
# Poissons Ratio (z) = 0.01100 1.04701
#
# Static dielectric constant tensor:
#      x y z
#    x 4.212640 0.000000 0.120760 
#    y 0.000000 4.126310 0.000000 
#    z 0.120760 0.000000 3.669920 
# 
# 
# High freq. dielectric constant tensor:
#      x y z
#    x 1.892350 0.000000 0.001320 
#    y 0.000000 1.881060 0.000000 
#    z 0.001320 0.000000 1.850540 
# 
# From -- ./inp_files/71174.got.cif
#   From: 2010.03.12/outbox.cif.g09.slc.cpg/sg14_36_cif.got.tgz:71174.got - 2010.03.31 13:35:05.
