data_PCOD8125770
_publ_section_title
;
Structure prediction by ZEFSAII (Michael W. Deem and Ramdas Pophale) SiO2 
 PCOD8125770
Probable space group: P 21/C
;
_chemical_formula_sum "Si O2"
_cell_formula_units_Z 20
_cell_length_a 24.350251
_cell_length_b 7.726812
_cell_length_c 9.124889
_cell_angle_alpha 90.000000
_cell_angle_beta 152.411639
_cell_angle_gamma 90.000000
_cell_volume 795.098925
_symmetry_space_group_name_H-M "P 21/C"
_symmetry_group_IT_number 14
_symmetry_cell_setting 'monoclinic'
loop_
_space_group_symop_operation_xyz
x,y,z
-x,1/2+y,1/2-z
-x,-y,-z
x,1/2-y,1/2+z
loop_
_atom_site_type_symbol
_atom_site_label
_atom_site_fract_x
_atom_site_fract_y
_atom_site_fract_z
Si Si1 0.950704 0.585472 0.529290
Si Si2 0.752748 0.472721 0.257875
Si Si3 0.631083 0.834236 0.915995
Si Si4 0.486923 0.650987 0.354186
Si Si5 0.144834 0.030787 0.696259
O O1 0.840440 0.470090 0.325987
O O2 0.908132 0.779249 0.398260
O O3 0.000000 0.500000 0.500000
O O4 0.052180 0.591581 0.893465
O O5 0.828190 0.443334 0.583893
O O6 0.684004 0.654556 0.101034
O O7 0.653661 0.320704 0.009389
O O8 0.546715 0.817699 0.572192
O O9 0.554395 0.911407 0.867361
O O10 0.737907 0.961139 0.126681
O O11 0.500000 0.500000 0.500000
#
# Coordination Sequence:
#
# PCOD8125770 Si02
#       5
#     4   4   4   4   4
#     4  11  24  42  70 102 135 182 234 288 347 412
#     4  10  22  42  65  93 137 180 225 277 344 411
#     4  10  20  42  67  97 136 181 217 285 352 405
#     4  10  22  40  67  97 133 178 230 273 340 423
#     4  11  23  44  72  96 139 184 227 286 356 410
#
# _framework density 25.154101000000001
#
# number of rings (size 3 to 8) (size 9 to 14) (size 15 to 20)
#    0.000    1.600    2.000    3.000    5.600    0.800 
#    7.200    0.000    0.000    0.000    0.000    0.000 
#    0.000    0.000    0.000    0.000    0.000    0.000 
#
# Total GULP energy -248032.385450 kJ/mol
# GULP energy per Si atom -12401.619272 kJ/mol
# Density = 2.509685 g / cm^3
# Si number density = 25.154101 Si / 1000 Ang^3
#
#
#
# Elastic Constant Matrix: (Units=GPa)
#
#
# Indices 1 2 3 4 5 6 
#
# 1 209.4256 18.8147 63.6546 0.0000 13.6936 0.0000
# 2 18.8147 19.9327 16.3234 0.0000 4.4587 0.0000
# 3 63.6546 16.3234 176.3330 0.0000 3.0416 0.0000
# 4 0.0000 0.0000 0.0000 21.8789 0.0000 -0.8503
# 5 13.6936 4.4587 3.0416 0.0000 47.9512 0.0000
# 6 0.0000 0.0000 0.0000 -0.8503 0.0000 28.8800
#
#
#
# Elastic Compliance Matrix: (Units=1/GPa)
#
#
# Indices 1 2 3 4 5 6 
#
# 1 0.005701 -0.003733 -0.001692 0.000000 -0.001174 0.000000
# 2 -0.003733 0.057824 -0.003935 0.000000 -0.004061 0.000000
# 3 -0.001692 -0.003935 0.006639 0.000000 0.000428 0.000000
# 4 0.000000 0.000000 0.000000 0.045759 0.000000 0.001347
# 5 -0.001174 -0.004061 0.000428 0.000000 0.021540 0.000000
# 6 0.000000 0.000000 0.000000 0.001347 0.000000 0.034666
#
#
# Mechanical properties :
#
#
# Convention : Reuss Voigt Hill
#
# Bulk Modulus (GPa) = 19.43910 67.03074 43.23492
# Shear Modulus (GPa) = 24.03874 40.20192 32.12033
#
# Velocity S-wave (km/s) = 3.09473 4.00212 3.57731
# Velocity P-wave (km/s) = 4.52930 6.93266 5.85561
#
# Compressibility (1/GPa) = 0.05144271
#
# Stress axis : x y z
#
# Youngs Moduli (GPa) = 175.39271 17.29393 150.62723
#
# Poissons Ratio (x) = 0.06456 0.25491
# Poissons Ratio (y) = 0.65478 0.59274
# Poissons Ratio (z) = 0.29683 0.06805
#
# Static dielectric constant tensor:
#      x y z
#    x 4.655320 0.000000 0.232260 
#    y 0.000000 4.153490 0.000000 
#    z 0.232260 0.000000 5.779050 
# 
# 
# High freq. dielectric constant tensor:
#      x y z
#    x 2.019770 0.000000 0.007190 
#    y 0.000000 1.964290 0.000000 
#    z 0.007190 0.000000 2.024530 
# 
# From -- ./inp_files/11894.got.cif
#   From: 2010.03.12/outbox.cif.g09.slc.cpg/sg14_6_cif.got.tgz:11894.got - 2010.03.31 13:35:05.
