data_PCOD8125529
_publ_section_title
;
Structure prediction by ZEFSAII (Michael W. Deem and Ramdas Pophale) SiO2 
 PCOD8125529
Probable space group: P 21/C
;
_chemical_formula_sum "Si O2"
_cell_formula_units_Z 32
_cell_length_a 9.675685
_cell_length_b 17.716624
_cell_length_c 12.238291
_cell_angle_alpha 90.000000
_cell_angle_beta 133.580724
_cell_angle_gamma 90.000000
_cell_volume 1519.722180
_symmetry_space_group_name_H-M "P 21/C"
_symmetry_group_IT_number 14
_symmetry_cell_setting 'monoclinic'
loop_
_space_group_symop_operation_xyz
x,y,z
-x,1/2+y,1/2-z
-x,-y,-z
x,1/2-y,1/2+z
loop_
_atom_site_type_symbol
_atom_site_label
_atom_site_fract_x
_atom_site_fract_y
_atom_site_fract_z
Si Si1 0.898882 0.276225 0.516828
Si Si2 0.167022 0.327210 0.495994
Si Si3 0.576818 0.055535 0.446996
Si Si4 0.514255 0.778974 0.664543
Si Si5 0.007388 0.477315 0.131407
Si Si6 0.036834 0.928306 0.857129
Si Si7 0.196386 0.327465 0.269547
Si Si8 0.261592 0.020203 0.131314
O O1 0.683567 0.249457 0.395038
O O2 0.960804 0.337158 0.644058
O O3 0.958368 0.311349 0.432800
O O4 0.029162 0.203217 0.602125
O O5 0.341092 0.290807 0.657260
O O6 0.156330 0.297921 0.368703
O O7 0.200665 0.416544 0.511112
O O8 0.507730 0.143834 0.420001
O O9 0.803784 0.056015 0.558574
O O10 0.484838 0.022594 0.284443
O O11 0.500000 0.000000 0.500000
O O12 0.596090 0.707725 0.641925
O O13 0.053966 0.546230 0.239992
O O14 0.179404 0.417580 0.243749
O O15 0.000000 0.500000 0.000000
O O16 0.852340 0.966242 0.815667
O O17 0.215302 0.945384 0.036979
#
# Coordination Sequence:
#
# PCOD8125529 Si02
#       8
#     4   4   4   4   4   4   4   4
#     4  10  22  40  63  95 131 171 221 269 333 401
#     4   9  20  39  66  86 125 170 215 272 321 388
#     4  11  22  43  69  95 127 175 235 270 320 406
#     4  10  23  43  63  98 131 172 222 276 334 402
#     4  12  26  44  67  97 139 176 216 283 351 394
#     4  10  20  39  65  95 126 173 222 268 328 390
#     4  11  23  44  62  96 137 169 217 276 340 392
#     4   9  18  37  66  91 116 164 228 269 303 385
#
# _framework density 21.056480000000001
#
# number of rings (size 3 to 8) (size 9 to 14) (size 15 to 20)
#    0.000    1.750    3.750    0.750    0.000    4.000 
#    6.750    1.250    0.000    0.000    0.000    0.000 
#    0.000    0.000    0.000    0.000    0.000    0.000 
#
# Total GULP energy -396434.518660 kJ/mol
# GULP energy per Si atom -12388.578708 kJ/mol
# Density = 2.100855 g / cm^3
# Si number density = 21.056480 Si / 1000 Ang^3
#
#
#
# Elastic Constant Matrix: (Units=GPa)
#
#
# Indices 1 2 3 4 5 6 
#
# 1 81.7328 23.9714 31.6813 0.0000 5.2946 0.0000
# 2 23.9714 60.5540 15.5107 0.0000 -1.4582 0.0000
# 3 31.6813 15.5107 55.4325 0.0000 0.1193 0.0000
# 4 0.0000 0.0000 0.0000 23.3609 0.0000 3.9184
# 5 5.2946 -1.4582 0.1193 0.0000 39.8494 0.0000
# 6 0.0000 0.0000 0.0000 3.9184 0.0000 28.0860
#
#
#
# Elastic Compliance Matrix: (Units=1/GPa)
#
#
# Indices 1 2 3 4 5 6 
#
# 1 0.017015 -0.004636 -0.008422 0.000000 -0.002405 0.000000
# 2 -0.004636 0.019070 -0.002689 0.000000 0.001322 0.000000
# 3 -0.008422 -0.002689 0.023604 0.000000 0.000950 0.000000
# 4 0.000000 0.000000 0.000000 0.043832 0.000000 -0.006115
# 5 -0.002405 0.001322 0.000950 0.000000 0.025460 0.000000
# 6 0.000000 0.000000 0.000000 -0.006115 0.000000 0.036458
#
#
# Mechanical properties :
#
#
# Convention : Reuss Voigt Hill
#
# Bulk Modulus (GPa) = 35.46856 37.78287 36.62572
# Shear Modulus (GPa) = 24.23270 26.69630 25.46450
#
# Velocity S-wave (km/s) = 3.39609 3.56454 3.48133
# Velocity P-wave (km/s) = 5.67970 5.90964 5.79581
#
# Compressibility (1/GPa) = 0.02819398
#
# Stress axis : x y z
#
# Youngs Moduli (GPa) = 58.77091 52.43778 42.36589
#
# Poissons Ratio (x) = 0.24312 0.35681
# Poissons Ratio (y) = 0.27248 0.11393
# Poissons Ratio (z) = 0.49498 0.14101
#
# Static dielectric constant tensor:
#      x y z
#    x 3.685030 0.000000 0.113320 
#    y 0.000000 3.983060 0.000000 
#    z 0.113320 0.000000 3.728100 
# 
# 
# High freq. dielectric constant tensor:
#      x y z
#    x 1.803910 0.000000 0.006960 
#    y 0.000000 1.828860 0.000000 
#    z 0.006960 0.000000 1.823830 
# 
# From -- ./inp_files/26828.got.cif
#   From: 2010.03.12/outbox.cif.g09.slc.cpg/sg14_14_cif.got.tgz:26828.got - 2010.03.31 13:35:05.
