data_PCOD8125549
_publ_section_title
;
Structure prediction by ZEFSAII (Michael W. Deem and Ramdas Pophale) SiO2 
 PCOD8125549
Probable space group: P 21/C
;
_chemical_formula_sum "Si O2"
_cell_formula_units_Z 28
_cell_length_a 9.922810
_cell_length_b 8.506529
_cell_length_c 20.130739
_cell_angle_alpha 90.000000
_cell_angle_beta 127.152458
_cell_angle_gamma 90.000000
_cell_volume 1354.322731
_symmetry_space_group_name_H-M "P 21/C"
_symmetry_group_IT_number 14
_symmetry_cell_setting 'monoclinic'
loop_
_space_group_symop_operation_xyz
x,y,z
-x,1/2+y,1/2-z
-x,-y,-z
x,1/2-y,1/2+z
loop_
_atom_site_type_symbol
_atom_site_label
_atom_site_fract_x
_atom_site_fract_y
_atom_site_fract_z
Si Si1 0.429388 0.717481 0.119503
Si Si2 0.226515 0.949765 0.129890
Si Si3 0.140839 0.151316 0.986860
Si Si4 0.888874 0.167288 0.655899
Si Si5 0.196036 0.398007 0.763755
Si Si6 0.846044 0.498778 0.004348
Si Si7 0.329010 0.913464 0.964414
O O1 0.385015 0.827602 0.170507
O O2 0.625424 0.683327 0.168390
O O3 0.320216 0.558023 0.085220
O O4 0.357518 0.813192 0.037322
O O5 0.059807 0.851229 0.060079
O O6 0.214263 0.014191 0.199806
O O7 0.241201 0.095420 0.082911
O O8 0.198951 0.325699 0.985440
O O9 0.183410 0.041579 0.936259
O O10 0.738319 0.298618 0.614287
O O11 0.063018 0.255648 0.725014
O O12 0.851757 0.027247 0.695577
O O13 0.899307 0.102111 0.584305
O O14 0.000000 0.500000 0.000000
O O15 0.500000 0.000000 0.000000
#
# Coordination Sequence:
#
# PCOD8125549 Si02
#       7
#     4   4   4   4   4   4   4
#     4  10  25  42  64 100 127 169 226 280 317 404
#     4  10  21  44  64  93 130 176 220 272 339 387
#     4  10  20  39  73  91 124 171 227 279 319 402
#     4  11  28  42  65  99 134 186 214 274 342 407
#     4  12  27  45  63  98 148 172 225 272 351 404
#     4  11  22  41  72  99 126 174 229 271 327 397
#     4  10  23  43  68  93 127 173 227 271 333 391
#
# _framework density 20.674537999999998
#
# number of rings (size 3 to 8) (size 9 to 14) (size 15 to 20)
#    0.000    1.429    2.857    0.857    8.000    3.429 
#    2.571    0.000    0.000    0.000    0.000    0.000 
#    0.000    0.000    0.000    0.000    0.000    0.000 
#
# Total GULP energy -347113.213095 kJ/mol
# GULP energy per Si atom -12396.900468 kJ/mol
# Density = 2.062748 g / cm^3
# Si number density = 20.674538 Si / 1000 Ang^3
#
#
#
# Elastic Constant Matrix: (Units=GPa)
#
#
# Indices 1 2 3 4 5 6 
#
# 1 106.6411 58.7121 37.5623 0.0000 17.3319 0.0000
# 2 58.7121 138.4637 50.5595 0.0000 17.7282 0.0000
# 3 37.5623 50.5595 65.0755 0.0000 15.8708 0.0000
# 4 0.0000 0.0000 0.0000 32.3570 0.0000 4.2759
# 5 17.3319 17.7282 15.8708 0.0000 40.3889 0.0000
# 6 0.0000 0.0000 0.0000 4.2759 0.0000 48.3355
#
#
#
# Elastic Compliance Matrix: (Units=1/GPa)
#
#
# Indices 1 2 3 4 5 6 
#
# 1 0.013337 -0.003839 -0.004126 0.000000 -0.002417 0.000000
# 2 -0.003839 0.011269 -0.006343 0.000000 -0.000807 0.000000
# 3 -0.004126 -0.006343 0.023851 0.000000 -0.004818 0.000000
# 4 0.000000 0.000000 0.000000 0.031271 0.000000 -0.002766
# 5 -0.002417 -0.000807 -0.004818 0.000000 0.028044 0.000000
# 6 0.000000 0.000000 0.000000 -0.002766 0.000000 0.020933
#
#
# Mechanical properties :
#
#
# Convention : Reuss Voigt Hill
#
# Bulk Modulus (GPa) = 50.39937 67.09423 58.74680
# Shear Modulus (GPa) = 30.49979 35.10602 32.80290
#
# Velocity S-wave (km/s) = 3.84504 4.12519 3.98758
# Velocity P-wave (km/s) = 6.64401 7.43052 7.04825
#
# Compressibility (1/GPa) = 0.01984152
#
# Stress axis : x y z
#
# Youngs Moduli (GPa) = 74.97899 88.73614 41.92645
#
# Poissons Ratio (x) = 0.34068 0.17299
# Poissons Ratio (y) = 0.28786 0.26593
# Poissons Ratio (z) = 0.30937 0.56284
#
# Static dielectric constant tensor:
#      x y z
#    x 3.716250 0.000000 0.004080 
#    y 0.000000 4.225410 0.000000 
#    z 0.004080 0.000000 3.616060 
# 
# 
# High freq. dielectric constant tensor:
#      x y z
#    x 1.810290 0.000000 0.004030 
#    y 0.000000 1.827910 0.000000 
#    z 0.004030 0.000000 1.795350 
# 
# From -- ./inp_files/65038.got.cif
#   From: 2010.03.12/outbox.cif.g09.slc.cpg/sg14_33_cif.got.tgz:65038.got - 2010.03.31 13:35:05.
