data_PCOD8125042
_publ_section_title
;
Structure prediction by ZEFSAII (Michael W. Deem and Ramdas Pophale) SiO2 
 PCOD8125042
Probable space group: P 21/C
;
_chemical_formula_sum "Si O2"
_cell_formula_units_Z 20
_cell_length_a 7.599466
_cell_length_b 8.832940
_cell_length_c 13.598372
_cell_angle_alpha 90.000000
_cell_angle_beta 53.436095
_cell_angle_gamma 90.000000
_cell_volume 733.153898
_symmetry_space_group_name_H-M "P 21/C"
_symmetry_group_IT_number 14
_symmetry_cell_setting 'monoclinic'
loop_
_space_group_symop_operation_xyz
x,y,z
-x,1/2+y,1/2-z
-x,-y,-z
x,1/2-y,1/2+z
loop_
_atom_site_type_symbol
_atom_site_label
_atom_site_fract_x
_atom_site_fract_y
_atom_site_fract_z
Si Si1 0.078664 0.794258 0.776338
Si Si2 0.220497 0.567510 0.042936
Si Si3 0.882119 0.740928 0.029377
Si Si4 0.397307 0.220168 0.111304
Si Si5 0.483700 0.907975 0.139685
O O1 0.016380 0.850489 0.908118
O O2 0.858475 0.740361 0.792169
O O3 0.198309 0.921133 0.669392
O O4 0.238142 0.650597 0.740465
O O5 0.203096 0.396618 0.012878
O O6 0.457201 0.628438 0.928474
O O7 0.034233 0.678917 0.063626
O O8 0.671887 0.829277 0.146822
O O9 0.472299 0.088759 0.163931
O O10 0.434751 0.136839 0.995122
#
# Coordination Sequence:
#
# PCOD8125042 Si02
#       5
#     4   4   4   4   4
#     4  10  20  36  60  82 114 154 192 234 288 342
#     4  10  22  39  59  86 118 152 194 241 289 345
#     4  10  22  39  59  86 118 152 194 241 289 345
#     4   9  19  35  56  84 116 151 193 238 287 345
#     4   9  19  35  56  84 116 151 193 238 287 345
#
# _framework density 27.279402999999999
#
# number of rings (size 3 to 8) (size 9 to 14) (size 15 to 20)
#    0.000    2.400    0.000    1.200    0.000   12.800 
#    0.000    0.000    0.000    0.000    0.000    0.000 
#    0.000    0.000    0.000    0.000    0.000    0.000 
#
# Total GULP energy -247814.124273 kJ/mol
# GULP energy per Si atom -12390.706214 kJ/mol
# Density = 2.721731 g / cm^3
# Si number density = 27.279403 Si / 1000 Ang^3
#
#
#
# Elastic Constant Matrix: (Units=GPa)
#
#
# Indices 1 2 3 4 5 6 
#
# 1 55.3341 15.1545 29.8355 0.0000 -32.5354 0.0000
# 2 15.1545 45.9732 27.7051 0.0000 -15.5061 0.0000
# 3 29.8355 27.7051 97.6373 0.0000 -37.7822 0.0000
# 4 0.0000 0.0000 0.0000 14.9451 0.0000 -2.1377
# 5 -32.5354 -15.5061 -37.7822 0.0000 47.2886 0.0000
# 6 0.0000 0.0000 0.0000 -2.1377 0.0000 37.3942
#
#
#
# Elastic Compliance Matrix: (Units=1/GPa)
#
#
# Indices 1 2 3 4 5 6 
#
# 1 0.030882 -0.002983 -0.001081 0.000000 0.019405 0.000000
# 2 -0.002983 0.027018 -0.005965 0.000000 0.002041 0.000000
# 3 -0.001081 -0.005965 0.016242 0.000000 0.010277 0.000000
# 4 0.000000 0.000000 0.000000 0.067463 0.000000 0.003857
# 5 0.019405 0.002041 0.010277 0.000000 0.043378 0.000000
# 6 0.000000 0.000000 0.000000 0.003857 0.000000 0.026963
#
#
# Mechanical properties :
#
#
# Convention : Reuss Voigt Hill
#
# Bulk Modulus (GPa) = 18.49008 38.25943 28.37476
# Shear Modulus (GPa) = 19.99738 28.34221 24.16979
#
# Velocity S-wave (km/s) = 2.71044 3.22679 2.97982
# Velocity P-wave (km/s) = 4.07285 5.28567 4.71839
#
# Compressibility (1/GPa) = 0.05408304
#
# Stress axis : x y z
#
# Youngs Moduli (GPa) = 32.38142 37.01177 61.56940
#
# Poissons Ratio (x) = 0.11041 0.06656
# Poissons Ratio (y) = 0.09660 0.36728
# Poissons Ratio (z) = 0.03501 0.22079
#
# Static dielectric constant tensor:
#      x y z
#    x 5.166110 0.000000 -0.312650 
#    y 0.000000 4.785280 0.000000 
#    z -0.312650 0.000000 5.083090 
# 
# 
# High freq. dielectric constant tensor:
#      x y z
#    x 2.095390 0.000000 -0.023330 
#    y 0.000000 2.075250 0.000000 
#    z -0.023330 0.000000 2.104360 
# 
# From -- ./inp_files/54751.got.cif
#   From: 2010.03.12/outbox.cif.g09.slc.cpg/sg14_28_cif.got.tgz:54751.got - 2010.03.31 13:35:05.
