data_PCOD8125451
_publ_section_title
;
Structure prediction by ZEFSAII (Michael W. Deem and Ramdas Pophale) SiO2 
 PCOD8125451
Probable space group: P 21/C
;
_chemical_formula_sum "Si O2"
_cell_formula_units_Z 28
_cell_length_a 12.486497
_cell_length_b 6.588615
_cell_length_c 20.105278
_cell_angle_alpha 90.000000
_cell_angle_beta 58.522262
_cell_angle_gamma 90.000000
_cell_volume 1410.632800
_symmetry_space_group_name_H-M "P 21/C"
_symmetry_group_IT_number 14
_symmetry_cell_setting 'monoclinic'
loop_
_space_group_symop_operation_xyz
x,y,z
-x,1/2+y,1/2-z
-x,-y,-z
x,1/2-y,1/2+z
loop_
_atom_site_type_symbol
_atom_site_label
_atom_site_fract_x
_atom_site_fract_y
_atom_site_fract_z
Si Si1 0.189533 0.045532 0.974780
Si Si2 0.154972 0.821015 0.239788
Si Si3 0.645316 0.932182 0.888315
Si Si4 0.384591 0.782380 0.979698
Si Si5 0.953512 0.379276 0.845526
Si Si6 0.074375 0.002776 0.873281
Si Si7 0.735554 0.881364 0.463901
O O1 0.170292 0.039156 0.902448
O O2 0.263870 0.845228 0.974345
O O3 0.274012 0.238352 0.967950
O O4 0.058580 0.076883 0.056708
O O5 0.150647 0.714323 0.169625
O O6 0.145355 0.659831 0.303048
O O7 0.278820 0.965209 0.198267
O O8 0.034712 0.964028 0.277712
O O9 0.516466 0.837114 0.900737
O O10 0.724552 0.755026 0.900280
O O11 0.613417 0.110733 0.949735
O O12 0.378408 0.540493 0.993385
O O13 0.869259 0.501652 0.925507
O O14 0.048475 0.217551 0.846850
#
# Coordination Sequence:
#
# PCOD8125451 Si02
#       7
#     4   4   4   4   4   4   4
#     4  10  22  39  58  87 118 156 208 246 295 364
#     4  12  22  36  57  86 125 155 193 247 312 367
#     4  10  22  35  59  93 117 155 202 245 303 365
#     4  10  20  39  61  85 121 155 200 253 295 354
#     4  12  21  34  58  88 118 155 192 248 310 364
#     4  11  23  37  58  88 120 156 199 251 303 362
#     4  11  19  36  60  90 121 155 198 255 303 358
#
# _framework density 19.849249
#
# number of rings (size 3 to 8) (size 9 to 14) (size 15 to 20)
#    0.000    1.143    5.714    2.143    0.000    1.714 
#    0.000    0.000    3.143    0.000    0.000    0.000 
#    0.000    0.000    0.000    0.000    0.000    0.000 
#
# Total GULP energy -347066.367379 kJ/mol
# GULP energy per Si atom -12395.227406 kJ/mol
# Density = 1.980407 g / cm^3
# Si number density = 19.849249 Si / 1000 Ang^3
#
#
#
# Elastic Constant Matrix: (Units=GPa)
#
#
# Indices 1 2 3 4 5 6 
#
# 1 83.4705 36.7378 38.2097 0.0000 3.9539 0.0000
# 2 36.7378 124.7089 39.0581 0.0000 2.4235 0.0000
# 3 38.2097 39.0581 68.0417 0.0000 0.6982 0.0000
# 4 0.0000 0.0000 0.0000 35.1295 0.0000 -8.9600
# 5 3.9539 2.4235 0.6982 0.0000 34.1159 0.0000
# 6 0.0000 0.0000 0.0000 -8.9600 0.0000 16.6969
#
#
#
# Elastic Compliance Matrix: (Units=1/GPa)
#
#
# Indices 1 2 3 4 5 6 
#
# 1 0.016791 -0.002398 -0.008036 0.000000 -0.001611 0.000000
# 2 -0.002398 0.010130 -0.004465 0.000000 -0.000350 0.000000
# 3 -0.008036 -0.004465 0.021764 0.000000 0.000803 0.000000
# 4 0.000000 0.000000 0.000000 0.032980 0.000000 0.017698
# 5 -0.001611 -0.000350 0.000803 0.000000 0.029507 0.000000
# 6 0.000000 0.000000 0.000000 0.017698 0.000000 0.069389
#
#
# Mechanical properties :
#
#
# Convention : Reuss Voigt Hill
#
# Bulk Modulus (GPa) = 52.94508 56.02579 54.48543
# Shear Modulus (GPa) = 23.07826 28.00283 25.54054
#
# Velocity S-wave (km/s) = 3.41350 3.76010 3.59099
# Velocity P-wave (km/s) = 6.50135 6.86572 6.68602
#
# Compressibility (1/GPa) = 0.01888749
#
# Stress axis : x y z
#
# Youngs Moduli (GPa) = 59.55704 98.71358 45.94716
#
# Poissons Ratio (x) = 0.23674 0.36922
# Poissons Ratio (y) = 0.14283 0.20514
# Poissons Ratio (z) = 0.47859 0.44073
#
# Static dielectric constant tensor:
#      x y z
#    x 3.518630 0.000000 -0.199370 
#    y 0.000000 3.864030 0.000000 
#    z -0.199370 0.000000 3.400820 
# 
# 
# High freq. dielectric constant tensor:
#      x y z
#    x 1.753860 0.000000 -0.017630 
#    y 0.000000 1.795220 0.000000 
#    z -0.017630 0.000000 1.742360 
# 
# From -- ./inp_files/66419.got.cif
#   From: 2010.03.12/outbox.cif.g09.slc.cpg/sg14_34_cif.got.tgz:66419.got - 2010.03.31 13:35:05.
