data_PCOD8125028
_publ_section_title
;
Structure prediction by ZEFSAII (Michael W. Deem and Ramdas Pophale) SiO2 
 PCOD8125028
Probable space group: P 21/C
;
_chemical_formula_sum "Si O2"
_cell_formula_units_Z 32
_cell_length_a 16.775777
_cell_length_b 17.698379
_cell_length_c 8.881161
_cell_angle_alpha 90.000000
_cell_angle_beta 142.570886
_cell_angle_gamma 90.000000
_cell_volume 1602.624866
_symmetry_space_group_name_H-M "P 21/C"
_symmetry_group_IT_number 14
_symmetry_cell_setting 'monoclinic'
loop_
_space_group_symop_operation_xyz
x,y,z
-x,1/2+y,1/2-z
-x,-y,-z
x,1/2-y,1/2+z
loop_
_atom_site_type_symbol
_atom_site_label
_atom_site_fract_x
_atom_site_fract_y
_atom_site_fract_z
Si Si1 0.759875 0.602571 0.468687
Si Si2 0.216502 0.575176 0.149761
Si Si3 0.473607 0.920707 0.885208
Si Si4 0.526393 0.079293 0.464388
Si Si5 0.002038 0.328690 0.325985
Si Si6 0.216502 0.575176 0.499745
Si Si7 0.997962 0.828690 0.819870
Si Si8 0.240125 0.102571 0.689061
O O1 0.607645 0.627562 0.216403
O O2 0.847543 0.652096 0.488435
O O3 0.777705 0.514004 0.461385
O O4 0.803860 0.619595 0.705790
O O5 0.346949 0.615874 0.276957
O O6 0.208164 0.595073 0.312246
O O7 0.222295 0.485996 0.128271
O O8 0.088492 0.605219 0.874489
O O9 0.441018 0.932521 0.661526
O O10 0.607645 0.872438 0.106532
O O11 0.500000 0.000000 0.000000
O O12 0.653051 0.115874 0.736110
O O13 0.500000 0.000000 0.500000
O O14 0.985270 0.322958 0.477904
O O15 0.958622 0.250000 0.187934
O O16 0.088492 0.605219 0.390988
O O17 0.847543 0.847905 0.554193
#
# Coordination Sequence:
#
# PCOD8125028 Si02
#       8
#     4   4   4   4   4   4   4   4
#     4   9  19  36  58  84 114 145 178 222 272 322
#     4  10  20  36  59  85 114 145 180 225 274 326
#     4   9  17  31  54  84 115 144 178 223 273 323
#     4   9  17  31  54  84 115 144 178 223 273 323
#     4  12  25  39  56  78 109 147 187 230 274 326
#     4  10  20  36  59  85 114 145 180 225 274 326
#     4  12  25  39  56  78 109 147 187 230 274 326
#     4   9  19  36  58  84 114 145 178 222 272 322
#
# _framework density 19.967241999999999
#
# number of rings (size 3 to 8) (size 9 to 14) (size 15 to 20)
#    0.000    2.000    0.000    6.000    0.000    9.000 
#    0.000    1.250    0.000    6.000    0.000    0.000 
#    0.000    0.000    0.000    0.000    0.000    0.000 
#
# Total GULP energy -396756.186171 kJ/mol
# GULP energy per Si atom -12398.630818 kJ/mol
# Density = 1.992180 g / cm^3
# Si number density = 19.967242 Si / 1000 Ang^3
#
#
#
# Elastic Constant Matrix: (Units=GPa)
#
#
# Indices 1 2 3 4 5 6 
#
# 1 132.1204 18.8786 41.0141 0.0000 -9.0798 0.0000
# 2 18.8786 30.8828 13.4123 0.0000 -6.9427 0.0000
# 3 41.0141 13.4123 116.3742 0.0000 -10.9193 0.0000
# 4 0.0000 0.0000 0.0000 15.3234 0.0000 -8.6440
# 5 -9.0798 -6.9427 -10.9193 0.0000 39.6424 0.0000
# 6 0.0000 0.0000 0.0000 -8.6440 0.0000 22.1293
#
#
#
# Elastic Compliance Matrix: (Units=1/GPa)
#
#
# Indices 1 2 3 4 5 6 
#
# 1 0.009036 -0.004242 -0.002639 0.000000 0.000600 0.000000
# 2 -0.004242 0.037079 -0.002320 0.000000 0.004883 0.000000
# 3 -0.002639 -0.002320 0.009953 0.000000 0.001731 0.000000
# 4 0.000000 0.000000 0.000000 0.083703 0.000000 0.032695
# 5 0.000600 0.004883 0.001731 0.000000 0.026695 0.000000
# 6 0.000000 0.000000 0.000000 0.032695 0.000000 0.057960
#
#
# Mechanical properties :
#
#
# Convention : Reuss Voigt Hill
#
# Bulk Modulus (GPa) = 26.55044 47.33193 36.94119
# Shear Modulus (GPa) = 19.57836 29.15719 24.36777
#
# Velocity S-wave (km/s) = 3.13473 3.82547 3.49719
# Velocity P-wave (km/s) = 5.14081 6.57788 5.90324
#
# Compressibility (1/GPa) = 0.03766416
#
# Stress axis : x y z
#
# Youngs Moduli (GPa) = 110.67391 26.96933 100.47322
#
# Poissons Ratio (x) = 0.11442 0.26517
# Poissons Ratio (y) = 0.46953 0.23310
# Poissons Ratio (z) = 0.29209 0.06257
#
# Static dielectric constant tensor:
#      x y z
#    x 3.967940 0.000000 0.211780 
#    y 0.000000 3.198460 0.000000 
#    z 0.211780 0.000000 4.134690 
# 
# 
# High freq. dielectric constant tensor:
#      x y z
#    x 1.793430 0.000000 0.005290 
#    y 0.000000 1.732190 0.000000 
#    z 0.005290 0.000000 1.797600 
# 
# From -- ./inp_files/16873.got.cif
#   From: 2010.03.12/outbox.cif.g09.slc.cpg/sg14_9_cif.got.tgz:16873.got - 2010.03.31 13:35:05.
