data_PCOD8125317
_publ_section_title
;
Structure prediction by ZEFSAII (Michael W. Deem and Ramdas Pophale) SiO2 
 PCOD8125317
Probable space group: P 21/C
;
_chemical_formula_sum "Si O2"
_cell_formula_units_Z 28
_cell_length_a 27.661158
_cell_length_b 8.645454
_cell_length_c 10.165732
_cell_angle_alpha 90.000000
_cell_angle_beta 145.535118
_cell_angle_gamma 90.000000
_cell_volume 1375.742905
_symmetry_space_group_name_H-M "P 21/C"
_symmetry_group_IT_number 14
_symmetry_cell_setting 'monoclinic'
loop_
_space_group_symop_operation_xyz
x,y,z
-x,1/2+y,1/2-z
-x,-y,-z
x,1/2-y,1/2+z
loop_
_atom_site_type_symbol
_atom_site_label
_atom_site_fract_x
_atom_site_fract_y
_atom_site_fract_z
Si Si1 0.606908 0.035821 0.618799
Si Si2 0.971871 0.932962 0.076614
Si Si3 0.808729 0.117422 0.785396
Si Si4 0.376079 0.527946 0.131719
Si Si5 0.206591 0.893088 0.936057
Si Si6 0.943645 0.571607 0.987749
Si Si7 0.488286 0.248331 0.974285
O O1 0.635702 0.977151 0.543028
O O2 0.540322 0.181098 0.465756
O O3 0.561939 0.889476 0.579371
O O4 0.695189 0.082249 0.888457
O O5 0.968555 0.748911 0.061478
O O6 0.041324 0.984110 0.340408
O O7 0.878987 0.988106 0.915753
O O8 0.000000 0.000000 0.000000
O O9 0.718065 0.058080 0.523005
O O10 0.833348 0.263742 0.750392
O O11 0.803294 0.153778 0.930809
O O12 0.435503 0.680459 0.265365
O O13 0.420165 0.385625 0.302490
O O14 0.154109 0.048581 0.780916
O O15 0.000000 0.500000 0.000000
#
# Coordination Sequence:
#
# PCOD8125317 Si02
#       7
#     4   4   4   4   4   4   4
#     4  10  21  38  61  89 128 169 218 270 326 381
#     4  12  27  45  73  98 133 175 220 269 334 397
#     4  11  24  44  66 100 133 174 220 272 330 396
#     4  10  21  38  62  88 129 167 220 268 326 380
#     4  11  24  43  67  97 136 173 221 274 330 392
#     4  12  25  47  69  98 131 173 220 272 328 398
#     4  10  20  38  60  90 122 171 219 266 327 384
#
# _framework density 20.352640999999998
#
# number of rings (size 3 to 8) (size 9 to 14) (size 15 to 20)
#    0.000    1.143    2.857    3.429    4.000    0.000 
#    0.000    1.429    0.000    0.000    0.000    0.000 
#    0.000    0.000    0.000    0.000    0.000    0.000 
#
# Total GULP energy -346969.581801 kJ/mol
# GULP energy per Si atom -12391.770779 kJ/mol
# Density = 2.030632 g / cm^3
# Si number density = 20.352641 Si / 1000 Ang^3
#
#
#
# Elastic Constant Matrix: (Units=GPa)
#
#
# Indices 1 2 3 4 5 6 
#
# 1 86.5702 50.6431 40.9612 0.0000 4.7508 0.0000
# 2 50.6431 113.4734 36.0800 0.0000 -5.6465 0.0000
# 3 40.9612 36.0800 100.3254 0.0000 2.8202 0.0000
# 4 0.0000 0.0000 0.0000 30.9936 0.0000 2.8303
# 5 4.7508 -5.6465 2.8202 0.0000 36.9262 0.0000
# 6 0.0000 0.0000 0.0000 2.8303 0.0000 22.6187
#
#
#
# Elastic Compliance Matrix: (Units=1/GPa)
#
#
# Indices 1 2 3 4 5 6 
#
# 1 0.017847 -0.006572 -0.004841 0.000000 -0.002931 0.000000
# 2 -0.006572 0.012491 -0.001890 0.000000 0.002900 0.000000
# 3 -0.004841 -0.001890 0.012642 0.000000 -0.000632 0.000000
# 4 0.000000 0.000000 0.000000 0.032638 0.000000 -0.004084
# 5 -0.002931 0.002900 -0.000632 0.000000 0.027950 0.000000
# 6 0.000000 0.000000 0.000000 -0.004084 0.000000 0.044722
#
#
# Mechanical properties :
#
#
# Convention : Reuss Voigt Hill
#
# Bulk Modulus (GPa) = 61.07449 61.74862 61.41156
# Shear Modulus (GPa) = 27.72326 29.62002 28.67164
#
# Velocity S-wave (km/s) = 3.69473 3.81903 3.75739
# Velocity P-wave (km/s) = 6.94800 7.06059 7.00452
#
# Compressibility (1/GPa) = 0.01637345
#
# Stress axis : x y z
#
# Youngs Moduli (GPa) = 56.03131 80.05728 79.10365
#
# Poissons Ratio (x) = 0.52612 0.38293
# Poissons Ratio (y) = 0.36823 0.14955
# Poissons Ratio (z) = 0.27124 0.15135
#
# Static dielectric constant tensor:
#      x y z
#    x 4.028210 0.000000 0.218210 
#    y 0.000000 3.780560 0.000000 
#    z 0.218210 0.000000 4.067010 
# 
# 
# High freq. dielectric constant tensor:
#      x y z
#    x 1.802760 0.000000 0.012430 
#    y 0.000000 1.795290 0.000000 
#    z 0.012430 0.000000 1.804750 
# 
# From -- ./inp_files/19766.got.cif
#   From: 2010.03.12/outbox.cif.g09.slc.cpg/sg14_10_cif.got.tgz:19766.got - 2010.03.31 13:35:05.
