data_PCOD8125380
_publ_section_title
;
Structure prediction by ZEFSAII (Michael W. Deem and Ramdas Pophale) SiO2 
 PCOD8125380
Probable space group: P 21/C
;
_chemical_formula_sum "Si O2"
_cell_formula_units_Z 24
_cell_length_a 15.428214
_cell_length_b 17.102852
_cell_length_c 8.750321
_cell_angle_alpha 90.000000
_cell_angle_beta 30.783598
_cell_angle_gamma 90.000000
_cell_volume 1181.696286
_symmetry_space_group_name_H-M "P 21/C"
_symmetry_group_IT_number 14
_symmetry_cell_setting 'monoclinic'
loop_
_space_group_symop_operation_xyz
x,y,z
-x,1/2+y,1/2-z
-x,-y,-z
x,1/2-y,1/2+z
loop_
_atom_site_type_symbol
_atom_site_label
_atom_site_fract_x
_atom_site_fract_y
_atom_site_fract_z
Si Si1 0.924738 0.501870 0.444729
Si Si2 0.510785 0.134639 0.945432
Si Si3 0.631597 0.058150 0.224820
Si Si4 0.591258 0.740767 0.657368
Si Si5 0.733484 0.004409 0.734359
Si Si6 0.687504 0.649511 0.779575
O O1 0.793108 0.432295 0.595667
O O2 0.814706 0.579605 0.603485
O O3 0.000000 0.500000 0.500000
O O4 0.067557 0.501185 0.099150
O O5 0.531847 0.184707 0.757483
O O6 0.665502 0.074397 0.728930
O O7 0.508903 0.195869 0.088558
O O8 0.342737 0.079849 0.197920
O O9 0.516863 0.135282 0.379649
O O10 0.500000 0.000000 0.500000
O O11 0.695388 0.023383 0.967843
O O12 0.708778 0.683981 0.579203
O O13 0.728515 0.784122 0.341856
#
# Coordination Sequence:
#
# PCOD8125380 Si02
#       6
#     4   4   4   4   4   4
#     4  11  24  37  63  95 127 157 208 268 321 368
#     4  10  21  36  65  90 121 166 211 256 317 379
#     4  10  21  38  62  89 122 157 208 255 315 366
#     4  10  20  38  64  87 123 165 216 255 316 390
#     4  11  22  39  64  94 126 163 218 262 315 372
#     4  10  21  40  63  89 120 170 209 257 317 385
#
# _framework density 20.309788000000001
#
# number of rings (size 3 to 8) (size 9 to 14) (size 15 to 20)
#    0.000    1.667    1.667    3.500    9.333    0.000 
#    0.000    1.667   14.667    0.000    0.000    0.000 
#    0.000    0.000    0.000    0.000    0.000    0.000 
#
# Total GULP energy -297325.556386 kJ/mol
# GULP energy per Si atom -12388.564849 kJ/mol
# Density = 2.026356 g / cm^3
# Si number density = 20.309788 Si / 1000 Ang^3
#
#
#
# Elastic Constant Matrix: (Units=GPa)
#
#
# Indices 1 2 3 4 5 6 
#
# 1 139.6353 51.6192 57.7824 0.0000 5.8850 0.0000
# 2 51.6192 107.2926 31.8613 0.0000 -1.8525 0.0000
# 3 57.7824 31.8613 117.8470 0.0000 -6.3771 0.0000
# 4 0.0000 0.0000 0.0000 16.8323 0.0000 4.5251
# 5 5.8850 -1.8525 -6.3771 0.0000 38.6025 0.0000
# 6 0.0000 0.0000 0.0000 4.5251 0.0000 41.2619
#
#
#
# Elastic Compliance Matrix: (Units=1/GPa)
#
#
# Indices 1 2 3 4 5 6 
#
# 1 0.010414 -0.003802 -0.004212 0.000000 -0.002466 0.000000
# 2 -0.003802 0.011522 -0.001200 0.000000 0.000934 0.000000
# 3 -0.004212 -0.001200 0.011005 0.000000 0.002402 0.000000
# 4 0.000000 0.000000 0.000000 0.061214 0.000000 -0.006713
# 5 -0.002466 0.000934 0.002402 0.000000 0.026723 0.000000
# 6 0.000000 0.000000 0.000000 -0.006713 0.000000 0.024972
#
#
# Mechanical properties :
#
#
# Convention : Reuss Voigt Hill
#
# Bulk Modulus (GPa) = 68.90360 71.92230 70.41295
# Shear Modulus (GPa) = 29.56568 34.24014 31.90291
#
# Velocity S-wave (km/s) = 3.81955 4.11042 3.96765
# Velocity P-wave (km/s) = 7.31108 7.61688 7.46555
#
# Compressibility (1/GPa) = 0.01451303
#
# Stress axis : x y z
#
# Youngs Moduli (GPa) = 96.02721 86.78980 90.86688
#
# Poissons Ratio (x) = 0.32998 0.38269
# Poissons Ratio (y) = 0.36510 0.10907
# Poissons Ratio (z) = 0.40442 0.10418
#
# Static dielectric constant tensor:
#      x y z
#    x 2.614400 0.000000 1.270340 
#    y 0.000000 4.753250 0.000000 
#    z 1.270340 0.000000 2.536150 
# 
# 
# High freq. dielectric constant tensor:
#      x y z
#    x 1.813940 0.000000 0.021410 
#    y 0.000000 1.797470 0.000000 
#    z 0.021410 0.000000 1.764830 
# 
# From -- ./inp_files/16599.got.cif
#   From: 2010.03.12/outbox.cif.g09.slc.cpg/sg14_9_cif.got.tgz:16599.got - 2010.03.31 13:35:05.
