data_PCOD8125459
_publ_section_title
;
Structure prediction by ZEFSAII (Michael W. Deem and Ramdas Pophale) SiO2 
 PCOD8125459
Probable space group: P 21/C
;
_chemical_formula_sum "Si O2"
_cell_formula_units_Z 32
_cell_length_a 19.056542
_cell_length_b 13.169795
_cell_length_c 10.562239
_cell_angle_alpha 90.000000
_cell_angle_beta 34.845491
_cell_angle_gamma 90.000000
_cell_volume 1514.582742
_symmetry_space_group_name_H-M "P 21/C"
_symmetry_group_IT_number 14
_symmetry_cell_setting 'monoclinic'
loop_
_space_group_symop_operation_xyz
x,y,z
-x,1/2+y,1/2-z
-x,-y,-z
x,1/2-y,1/2+z
loop_
_atom_site_type_symbol
_atom_site_label
_atom_site_fract_x
_atom_site_fract_y
_atom_site_fract_z
Si Si1 0.660429 0.821262 0.607345
Si Si2 0.342307 0.849584 0.953621
Si Si3 0.325987 0.841325 0.616694
Si Si4 0.542324 0.774798 0.039097
Si Si5 0.073693 0.393118 0.251228
Si Si6 0.883409 0.381462 0.756457
Si Si7 0.516555 0.019401 0.754360
Si Si8 0.872769 0.178875 0.882727
O O1 0.605472 0.761446 0.809563
O O2 0.632209 0.759772 0.520387
O O3 0.806510 0.823849 0.413500
O O4 0.611083 0.936114 0.668174
O O5 0.420805 0.798681 0.719347
O O6 0.388391 0.962929 0.912048
O O7 0.373451 0.775782 0.028805
O O8 0.193713 0.852310 0.151701
O O9 0.252163 0.864597 0.595938
O O10 0.434102 0.925691 0.448341
O O11 0.234895 0.858630 0.865501
O O12 0.507747 0.893330 0.106014
O O13 0.108286 0.509942 0.192607
O O14 0.986518 0.364848 0.497023
O O15 0.000373 0.374968 0.227838
O O16 0.902396 0.298701 0.839545
#
# Coordination Sequence:
#
# PCOD8125459 Si02
#       8
#     4   4   4   4   4   4   4   4
#     4  11  23  42  63  92 124 166 201 259 307 372
#     4   9  21  36  58  88 123 156 205 253 306 366
#     4   9  18  36  58  85 116 156 204 248 300 374
#     4  10  24  40  62  93 127 161 206 250 314 369
#     4  10  21  38  62  85 118 158 212 249 308 366
#     4   9  19  39  58  84 110 157 209 245 298 373
#     4  10  20  39  61  90 121 161 204 252 308 374
#     4  10  21  36  61  85 118 163 203 261 306 365
#
# _framework density 21.127929999999999
#
# number of rings (size 3 to 8) (size 9 to 14) (size 15 to 20)
#    0.000    2.250    1.250    0.375    7.000    1.500 
#    4.500    0.000    0.000    3.000    0.000    0.000 
#    0.000    0.000    0.000    0.000    0.000    0.000 
#
# Total GULP energy -396551.592922 kJ/mol
# GULP energy per Si atom -12392.237279 kJ/mol
# Density = 2.107984 g / cm^3
# Si number density = 21.127930 Si / 1000 Ang^3
#
#
#
# Elastic Constant Matrix: (Units=GPa)
#
#
# Indices 1 2 3 4 5 6 
#
# 1 81.1472 30.2401 20.1081 0.0000 -22.6053 0.0000
# 2 30.2401 96.0661 9.5163 0.0000 -9.9513 0.0000
# 3 20.1081 9.5163 50.4930 0.0000 -11.9794 0.0000
# 4 0.0000 0.0000 0.0000 29.8505 0.0000 -4.6343
# 5 -22.6053 -9.9513 -11.9794 0.0000 37.8266 0.0000
# 6 0.0000 0.0000 0.0000 -4.6343 0.0000 26.5725
#
#
#
# Elastic Compliance Matrix: (Units=1/GPa)
#
#
# Indices 1 2 3 4 5 6 
#
# 1 0.017075 -0.004155 -0.004168 0.000000 0.007791 0.000000
# 2 -0.004155 0.011812 -0.000458 0.000000 0.000480 0.000000
# 3 -0.004168 -0.000458 0.022632 0.000000 0.004556 0.000000
# 4 0.000000 0.000000 0.000000 0.034433 0.000000 0.006005
# 5 0.007791 0.000480 0.004556 0.000000 0.032661 0.000000
# 6 0.000000 0.000000 0.000000 0.006005 0.000000 0.038680
#
#
# Mechanical properties :
#
#
# Convention : Reuss Voigt Hill
#
# Bulk Modulus (GPa) = 29.44910 38.60390 34.02650
# Shear Modulus (GPa) = 26.85653 30.03938 28.44795
#
# Velocity S-wave (km/s) = 3.56917 3.77475 3.67340
# Velocity P-wave (km/s) = 5.56364 6.10815 5.84224
#
# Compressibility (1/GPa) = 0.03395690
#
# Stress axis : x y z
#
# Youngs Moduli (GPa) = 58.56560 84.65653 44.18545
#
# Poissons Ratio (x) = 0.35174 0.18418
# Poissons Ratio (y) = 0.24334 0.02023
# Poissons Ratio (z) = 0.24412 0.03876
#
# Static dielectric constant tensor:
#      x y z
#    x 3.881060 0.000000 -0.248350 
#    y 0.000000 3.833960 0.000000 
#    z -0.248350 0.000000 3.795290 
# 
# 
# High freq. dielectric constant tensor:
#      x y z
#    x 1.823150 0.000000 -0.014290 
#    y 0.000000 1.823270 0.000000 
#    z -0.014290 0.000000 1.817770 
# 
# From -- ./inp_files/35247.got.cif
#   From: 2010.03.12/outbox.cif.g09.slc.cpg/sg14_18_cif.got.tgz:35247.got - 2010.03.31 13:35:05.
