data_PCOD8125320
_publ_section_title
;
Structure prediction by ZEFSAII (Michael W. Deem and Ramdas Pophale) SiO2 
 PCOD8125320
Probable space group: P 21/C
;
_chemical_formula_sum "Si O2"
_cell_formula_units_Z 24
_cell_length_a 8.241583
_cell_length_b 16.097165
_cell_length_c 8.814658
_cell_angle_alpha 90.000000
_cell_angle_beta 88.796897
_cell_angle_gamma 90.000000
_cell_volume 1169.148690
_symmetry_space_group_name_H-M "P 21/C"
_symmetry_group_IT_number 14
_symmetry_cell_setting 'monoclinic'
loop_
_space_group_symop_operation_xyz
x,y,z
-x,1/2+y,1/2-z
-x,-y,-z
x,1/2-y,1/2+z
loop_
_atom_site_type_symbol
_atom_site_label
_atom_site_fract_x
_atom_site_fract_y
_atom_site_fract_z
Si Si1 0.694834 0.175847 0.248762
Si Si2 0.165509 0.994634 0.703517
Si Si3 0.124111 0.097413 0.420421
Si Si4 0.822105 0.658210 0.626664
Si Si5 0.105460 0.755877 0.509166
Si Si6 0.329749 0.201952 0.191883
O O1 0.727745 0.216268 0.412378
O O2 0.523429 0.202592 0.186588
O O3 0.703204 0.076029 0.259504
O O4 0.844418 0.211581 0.146858
O O5 0.207571 0.037180 0.541314
O O6 0.174661 0.060514 0.839515
O O7 0.986166 0.954524 0.695468
O O8 0.266630 0.140167 0.323309
O O9 0.011093 0.163937 0.512960
O O10 0.729189 0.675049 0.471678
O O11 0.732523 0.705625 0.767186
O O12 0.007102 0.689027 0.611166
#
# Coordination Sequence:
#
# PCOD8125320 Si02
#       6
#     4   4   4   4   4   4
#     4  11  23  38  58  88 118 150 188 241 295 342
#     4  10  21  37  60  86 114 147 197 245 283 332
#     4   9  20  40  60  84 114 154 197 237 282 340
#     4  11  21  39  62  84 113 156 200 238 279 344
#     4  10  20  38  61  81 111 155 200 229 277 350
#     4  11  23  38  59  85 120 155 188 233 296 350
#
# _framework density 20.527757000000001
#
# number of rings (size 3 to 8) (size 9 to 14) (size 15 to 20)
#    0.000    1.667    0.000    7.000    0.000    4.000 
#    0.000    5.000    0.000    0.000    0.000    0.000 
#    0.000    0.000    0.000    0.000    0.000    0.000 
#
# Total GULP energy -297630.642215 kJ/mol
# GULP energy per Si atom -12401.276759 kJ/mol
# Density = 2.048103 g / cm^3
# Si number density = 20.527757 Si / 1000 Ang^3
#
#
#
# Elastic Constant Matrix: (Units=GPa)
#
#
# Indices 1 2 3 4 5 6 
#
# 1 88.0525 28.8249 23.2419 0.0000 2.7589 0.0000
# 2 28.8249 107.4821 37.4225 0.0000 3.2754 0.0000
# 3 23.2419 37.4225 72.1670 0.0000 3.7244 0.0000
# 4 0.0000 0.0000 0.0000 42.2937 0.0000 3.7406
# 5 2.7589 3.2754 3.7244 0.0000 22.5887 0.0000
# 6 0.0000 0.0000 0.0000 3.7406 0.0000 20.9413
#
#
#
# Elastic Compliance Matrix: (Units=1/GPa)
#
#
# Indices 1 2 3 4 5 6 
#
# 1 0.012937 -0.002452 -0.002856 0.000000 -0.000754 0.000000
# 2 -0.002452 0.011829 -0.005316 0.000000 -0.000539 0.000000
# 3 -0.002856 -0.005316 0.017626 0.000000 -0.001786 0.000000
# 4 0.000000 0.000000 0.000000 0.024024 0.000000 -0.004291
# 5 -0.000754 -0.000539 -0.001786 0.000000 0.044735 0.000000
# 6 0.000000 0.000000 0.000000 -0.004291 0.000000 0.048519
#
#
# Mechanical properties :
#
#
# Convention : Reuss Voigt Hill
#
# Bulk Modulus (GPa) = 47.29809 49.63110 48.46460
# Shear Modulus (GPa) = 26.60060 29.04557 27.82309
#
# Velocity S-wave (km/s) = 3.60368 3.76565 3.68555
# Velocity P-wave (km/s) = 6.35660 6.56787 6.46310
#
# Compressibility (1/GPa) = 0.02114250
#
# Stress axis : x y z
#
# Youngs Moduli (GPa) = 77.29730 84.53828 56.73575
#
# Poissons Ratio (x) = 0.20730 0.16204
# Poissons Ratio (y) = 0.18954 0.30163
# Poissons Ratio (z) = 0.22076 0.44944
#
# Static dielectric constant tensor:
#      x y z
#    x 3.435790 0.000000 0.091660 
#    y 0.000000 3.901590 0.000000 
#    z 0.091660 0.000000 3.611360 
# 
# 
# High freq. dielectric constant tensor:
#      x y z
#    x 1.783160 0.000000 0.013620 
#    y 0.000000 1.809490 0.000000 
#    z 0.013620 0.000000 1.807700 
# 
# From -- ./inp_files/8430.got.cif
#   From: 2010.03.12/outbox.cif.g09.slc.cpg/sg14_5_cif.got.tgz:8430.got - 2010.03.31 13:35:05.
