data_PCOD8125698
_publ_section_title
;
Structure prediction by ZEFSAII (Michael W. Deem and Ramdas Pophale) SiO2 
 PCOD8125698
Probable space group: P 21/C
;
_chemical_formula_sum "Si O2"
_cell_formula_units_Z 32
_cell_length_a 11.756186
_cell_length_b 16.712842
_cell_length_c 14.786297
_cell_angle_alpha 90.000000
_cell_angle_beta 31.337146
_cell_angle_gamma 90.000000
_cell_volume 1510.916487
_symmetry_space_group_name_H-M "P 21/C"
_symmetry_group_IT_number 14
_symmetry_cell_setting 'monoclinic'
loop_
_space_group_symop_operation_xyz
x,y,z
-x,1/2+y,1/2-z
-x,-y,-z
x,1/2-y,1/2+z
loop_
_atom_site_type_symbol
_atom_site_label
_atom_site_fract_x
_atom_site_fract_y
_atom_site_fract_z
Si Si1 0.846497 0.771069 0.266598
Si Si2 0.602104 0.921485 0.633800
Si Si3 0.065664 0.310668 0.613398
Si Si4 0.401059 0.694649 0.133478
Si Si5 0.121879 0.326762 0.935508
Si Si6 0.952945 0.416151 0.279929
Si Si7 0.305409 0.875636 0.216568
Si Si8 0.665736 0.540438 0.576424
O O1 0.873514 0.701010 0.322707
O O2 0.607383 0.811158 0.426774
O O3 0.874641 0.731349 0.150937
O O4 0.017413 0.841925 0.170959
O O5 0.439198 0.861396 0.694014
O O6 0.667427 0.882304 0.687646
O O7 0.820673 0.940074 0.425811
O O8 0.459062 0.999879 0.754071
O O9 0.101487 0.225627 0.541080
O O10 0.220917 0.378331 0.464440
O O11 0.812601 0.335713 0.774398
O O12 0.389667 0.785709 0.175149
O O13 0.909239 0.384132 0.073436
O O14 0.760701 0.391384 0.342000
O O15 0.863560 0.489454 0.399520
O O16 0.487195 0.939491 0.120976
#
# Coordination Sequence:
#
# PCOD8125698 Si02
#       8
#     4   4   4   4   4   4   4   4
#     4  11  21  42  70  98 126 178 226 274 336 395
#     4  10  23  43  63  96 140 174 217 282 334 397
#     4  11  23  45  64  99 133 170 227 279 324 413
#     4  10  20  44  67  86 136 174 218 279 317 394
#     4  10  22  41  71  95 128 174 230 272 328 404
#     4  10  23  43  62  98 138 173 220 278 335 401
#     4  10  20  41  65  94 132 171 219 284 321 387
#     4  12  25  38  69 100 136 181 217 275 360 384
#
# _framework density 21.179199000000001
#
# number of rings (size 3 to 8) (size 9 to 14) (size 15 to 20)
#    0.000    1.500    6.250    0.375    5.250    4.500 
#    4.500    1.250    0.000    0.000    0.000    0.000 
#    0.000    0.000    0.000    0.000    0.000    0.000 
#
# Total GULP energy -396674.760070 kJ/mol
# GULP energy per Si atom -12396.086252 kJ/mol
# Density = 2.113099 g / cm^3
# Si number density = 21.179199 Si / 1000 Ang^3
#
#
#
# Elastic Constant Matrix: (Units=GPa)
#
#
# Indices 1 2 3 4 5 6 
#
# 1 64.7269 3.0015 32.1461 0.0000 -13.7815 0.0000
# 2 3.0015 67.3355 28.9167 0.0000 -9.8677 0.0000
# 3 32.1461 28.9167 78.4469 0.0000 -11.9918 0.0000
# 4 0.0000 0.0000 0.0000 41.1537 0.0000 -6.1365
# 5 -13.7815 -9.8677 -11.9918 0.0000 33.9985 0.0000
# 6 0.0000 0.0000 0.0000 -6.1365 0.0000 25.8779
#
#
#
# Elastic Compliance Matrix: (Units=1/GPa)
#
#
# Indices 1 2 3 4 5 6 
#
# 1 0.021192 0.003934 -0.009139 0.000000 0.006508 0.000000
# 2 0.003934 0.018666 -0.007844 0.000000 0.004246 0.000000
# 3 -0.009139 -0.007844 0.019522 0.000000 0.000905 0.000000
# 4 0.000000 0.000000 0.000000 0.025190 0.000000 0.005973
# 5 0.006508 0.004246 0.000905 0.000000 0.033603 0.000000
# 6 0.000000 0.000000 0.000000 0.005973 0.000000 0.040059
#
#
# Mechanical properties :
#
#
# Convention : Reuss Voigt Hill
#
# Bulk Modulus (GPa) = 30.04607 37.62645 33.83626
# Shear Modulus (GPa) = 25.58536 29.96901 27.77718
#
# Velocity S-wave (km/s) = 3.47946 3.76576 3.62544
# Velocity P-wave (km/s) = 5.50995 6.05906 5.79102
#
# Compressibility (1/GPa) = 0.03328222
#
# Stress axis : x y z
#
# Youngs Moduli (GPa) = 47.18810 53.57260 51.22385
#
# Poissons Ratio (x) = -0.21075 0.46815
# Poissons Ratio (y) = -0.18563 0.40178
# Poissons Ratio (z) = 0.43126 0.42021
#
# Static dielectric constant tensor:
#      x y z
#    x 3.804760 0.000000 -0.405270 
#    y 0.000000 3.740780 0.000000 
#    z -0.405270 0.000000 3.908080 
# 
# 
# High freq. dielectric constant tensor:
#      x y z
#    x 1.826070 0.000000 -0.026100 
#    y 0.000000 1.824910 0.000000 
#    z -0.026100 0.000000 1.826140 
# 
# From -- ./inp_files/45377.got.cif
#   From: 2010.03.12/outbox.cif.g09.slc.cpg/sg14_23_cif.got.tgz:45377.got - 2010.03.31 13:35:05.
