data_PCOD8125974
_publ_section_title
;
Structure prediction by ZEFSAII (Michael W. Deem and Ramdas Pophale) SiO2 
 PCOD8125974
Probable space group: P 21/C
;
_chemical_formula_sum "Si O2"
_cell_formula_units_Z 32
_cell_length_a 11.262452
_cell_length_b 9.748294
_cell_length_c 20.298818
_cell_angle_alpha 90.000000
_cell_angle_beta 134.353599
_cell_angle_gamma 90.000000
_cell_volume 1593.536783
_symmetry_space_group_name_H-M "P 21/C"
_symmetry_group_IT_number 14
_symmetry_cell_setting 'monoclinic'
loop_
_space_group_symop_operation_xyz
x,y,z
-x,1/2+y,1/2-z
-x,-y,-z
x,1/2-y,1/2+z
loop_
_atom_site_type_symbol
_atom_site_label
_atom_site_fract_x
_atom_site_fract_y
_atom_site_fract_z
Si Si1 0.036150 0.631786 0.970523
Si Si2 0.332462 0.347788 0.212776
Si Si3 0.859356 0.135538 0.627844
Si Si4 0.774002 0.860439 0.189360
Si Si5 0.577559 0.545597 0.255884
Si Si6 0.161924 0.917988 0.045078
Si Si7 0.848584 0.445832 0.610055
Si Si8 0.220599 0.048780 0.294259
O O1 0.860211 0.688426 0.875159
O O2 0.156744 0.595639 0.955629
O O3 0.000000 0.500000 0.000000
O O4 0.124851 0.756126 0.043651
O O5 0.350634 0.387727 0.297431
O O6 0.395892 0.475049 0.192894
O O7 0.432914 0.208367 0.234209
O O8 0.818744 0.293578 0.625966
O O9 0.737909 0.049307 0.627848
O O10 0.043583 0.091148 0.719643
O O11 0.733186 0.950045 0.108174
O O12 0.769978 0.700041 0.171297
O O13 0.686770 0.463718 0.351169
O O14 0.639937 0.521834 0.206183
O O15 0.209188 0.950930 0.987901
O O16 0.000000 0.000000 0.000000
O O17 0.044338 0.481334 0.690666
#
# Coordination Sequence:
#
# PCOD8125974 Si02
#       8
#     4   4   4   4   4   4   4   4
#     4  10  21  37  57  85 115 140 183 235 277 324
#     4  10  22  38  54  81 117 144 185 229 272 336
#     4   8  16  30  49  78 107 134 174 230 269 318
#     4   8  16  31  50  73 105 140 176 226 270 315
#     4  11  22  37  57  82 113 150 182 225 282 332
#     4  11  19  36  57  82 113 145 182 229 280 325
#     4   9  16  30  53  78 105 136 182 228 269 318
#     4   9  16  31  51  77 108 138 178 226 272 320
#
# _framework density 20.081116999999999
#
# number of rings (size 3 to 8) (size 9 to 14) (size 15 to 20)
#    0.000    2.500    2.500    1.500    1.750    2.000 
#    4.500    0.625    0.000    0.750    0.000    0.000 
#    0.000    0.000    0.000    0.000    0.000    0.000 
#
# Total GULP energy -396635.693529 kJ/mol
# GULP energy per Si atom -12394.865423 kJ/mol
# Density = 2.003541 g / cm^3
# Si number density = 20.081117 Si / 1000 Ang^3
#
#
#
# Elastic Constant Matrix: (Units=GPa)
#
#
# Indices 1 2 3 4 5 6 
#
# 1 84.7905 59.1542 15.9140 0.0000 -26.2450 0.0000
# 2 59.1542 114.0368 23.7066 0.0000 -33.0794 0.0000
# 3 15.9140 23.7066 31.7693 0.0000 -17.3407 0.0000
# 4 0.0000 0.0000 0.0000 26.5926 0.0000 -9.1951
# 5 -26.2450 -33.0794 -17.3407 0.0000 26.6789 0.0000
# 6 0.0000 0.0000 0.0000 -9.1951 0.0000 45.0109
#
#
#
# Elastic Compliance Matrix: (Units=1/GPa)
#
#
# Indices 1 2 3 4 5 6 
#
# 1 0.020372 -0.007483 0.001943 0.000000 0.012025 0.000000
# 2 -0.007483 0.016488 -0.002192 0.000000 0.011657 0.000000
# 3 0.001943 -0.002192 0.049129 0.000000 0.031126 0.000000
# 4 0.000000 0.000000 0.000000 0.040463 0.000000 0.008266
# 5 0.012025 0.011657 0.031126 0.000000 0.083997 0.000000
# 6 0.000000 0.000000 0.000000 0.008266 0.000000 0.023905
#
#
# Mechanical properties :
#
#
# Convention : Reuss Voigt Hill
#
# Bulk Modulus (GPa) = 14.17957 47.57182 30.87569
# Shear Modulus (GPa) = 18.29307 28.44459 23.36883
#
# Velocity S-wave (km/s) = 3.02148 3.76770 3.41504
# Velocity P-wave (km/s) = 4.38736 6.53213 5.56407
#
# Compressibility (1/GPa) = 0.07052401
#
# Stress axis : x y z
#
# Youngs Moduli (GPa) = 49.08737 60.64968 20.35456
#
# Poissons Ratio (x) = 0.45386 -0.03955
# Poissons Ratio (y) = 0.36733 0.04462
# Poissons Ratio (z) = -0.09537 0.13295
#
# Static dielectric constant tensor:
#      x y z
#    x 3.823160 0.000000 -0.196470 
#    y 0.000000 3.748030 0.000000 
#    z -0.196470 0.000000 3.718540 
# 
# 
# High freq. dielectric constant tensor:
#      x y z
#    x 1.779790 0.000000 -0.020720 
#    y 0.000000 1.786070 0.000000 
#    z -0.020720 0.000000 1.752040 
# 
# From -- ./inp_files/66863.got.cif
#   From: 2010.03.12/outbox.cif.g09.slc.cpg/sg14_34_cif.got.tgz:66863.got - 2010.03.31 13:35:05.
