data_PCOD8125843
_publ_section_title
;
Structure prediction by ZEFSAII (Michael W. Deem and Ramdas Pophale) SiO2 
 PCOD8125843
Probable space group: P 21/C
;
_chemical_formula_sum "Si O2"
_cell_formula_units_Z 28
_cell_length_a 9.503583
_cell_length_b 16.543222
_cell_length_c 14.495629
_cell_angle_alpha 90.000000
_cell_angle_beta 138.454340
_cell_angle_gamma 90.000000
_cell_volume 1511.471575
_symmetry_space_group_name_H-M "P 21/C"
_symmetry_group_IT_number 14
_symmetry_cell_setting 'monoclinic'
loop_
_space_group_symop_operation_xyz
x,y,z
-x,1/2+y,1/2-z
-x,-y,-z
x,1/2-y,1/2+z
loop_
_atom_site_type_symbol
_atom_site_label
_atom_site_fract_x
_atom_site_fract_y
_atom_site_fract_z
Si Si1 0.633120 0.451228 0.194419
Si Si2 0.216857 0.966203 0.427985
Si Si3 0.751922 0.597191 0.378243
Si Si4 0.574482 0.013015 0.931508
Si Si5 0.141612 0.534814 0.150638
Si Si6 0.223947 0.850100 0.078126
Si Si7 0.314276 0.665864 0.123624
O O1 0.767144 0.435847 0.168204
O O2 0.746222 0.522708 0.305183
O O3 0.641577 0.372696 0.264194
O O4 0.394229 0.470095 0.047237
O O5 0.230295 0.886641 0.496826
O O6 0.994778 0.016669 0.324425
O O7 0.720004 0.561706 0.466732
O O8 0.567990 0.660553 0.261264
O O9 0.976443 0.639594 0.478472
O O10 0.696643 0.097582 0.971819
O O11 0.364216 0.013112 0.763859
O O12 0.500000 0.000000 0.000000
O O13 0.195734 0.629503 0.157098
O O14 0.000000 0.500000 0.000000
O O15 0.256927 0.756878 0.072645
#
# Coordination Sequence:
#
# PCOD8125843 Si02
#       7
#     4   4   4   4   4   4   4
#     4   9  18  34  56  81 103 148 189 228 262 340
#     4   9  18  34  57  79 109 141 198 225 266 333
#     4   9  20  37  57  76 112 148 184 221 280 337
#     4  10  21  35  56  85 111 144 194 231 268 339
#     4   9  18  34  57  76 107 150 188 226 273 338
#     4  11  21  35  59  79 118 148 177 230 295 325
#     4   9  20  37  51  84 113 141 182 234 281 330
#
# _framework density 18.524994
#
# number of rings (size 3 to 8) (size 9 to 14) (size 15 to 20)
#    0.000    2.571    0.000    4.286    4.000    3.429 
#    5.143    0.000    3.143    0.000    0.000    0.000 
#    0.000    0.000    0.000    0.000    0.000    0.000 
#
# Total GULP energy -346979.654376 kJ/mol
# GULP energy per Si atom -12392.130513 kJ/mol
# Density = 1.848283 g / cm^3
# Si number density = 18.524994 Si / 1000 Ang^3
#
#
#
# Elastic Constant Matrix: (Units=GPa)
#
#
# Indices 1 2 3 4 5 6 
#
# 1 139.6872 66.6808 32.6895 0.0000 -0.5614 0.0000
# 2 66.6808 107.3486 28.7396 0.0000 13.3480 0.0000
# 3 32.6895 28.7396 54.8227 0.0000 9.3375 0.0000
# 4 0.0000 0.0000 0.0000 16.0913 0.0000 6.4771
# 5 -0.5614 13.3480 9.3375 0.0000 32.6878 0.0000
# 6 0.0000 0.0000 0.0000 6.4771 0.0000 16.4823
#
#
#
# Elastic Compliance Matrix: (Units=1/GPa)
#
#
# Indices 1 2 3 4 5 6 
#
# 1 0.011130 -0.006334 -0.003983 0.000000 0.003916 0.000000
# 2 -0.006334 0.014718 -0.003044 0.000000 -0.005249 0.000000
# 3 -0.003983 -0.003044 0.023137 0.000000 -0.005435 0.000000
# 4 0.000000 0.000000 0.000000 0.073823 0.000000 -0.029010
# 5 0.003916 -0.005249 -0.005435 0.000000 0.034356 0.000000
# 6 0.000000 0.000000 0.000000 -0.029010 0.000000 0.072071
#
#
# Mechanical properties :
#
#
# Convention : Reuss Voigt Hill
#
# Bulk Modulus (GPa) = 44.92000 62.00870 53.46435
# Shear Modulus (GPa) = 18.98399 24.63551 21.80975
#
# Velocity S-wave (km/s) = 3.20469 3.65067 3.43492
# Velocity P-wave (km/s) = 6.16395 7.16349 6.68243
#
# Compressibility (1/GPa) = 0.02226180
#
# Stress axis : x y z
#
# Youngs Moduli (GPa) = 89.84358 67.94483 43.22028
#
# Poissons Ratio (x) = 0.43038 0.17215
# Poissons Ratio (y) = 0.56910 0.13158
# Poissons Ratio (z) = 0.35786 0.20685
#
# Static dielectric constant tensor:
#      x y z
#    x 4.033470 0.000000 0.149920 
#    y 0.000000 3.141510 0.000000 
#    z 0.149920 0.000000 3.469050 
# 
# 
# High freq. dielectric constant tensor:
#      x y z
#    x 1.732430 0.000000 0.012410 
#    y 0.000000 1.682220 0.000000 
#    z 0.012410 0.000000 1.720890 
# 
# From -- ./inp_files/41827.got.cif
#   From: 2010.03.12/outbox.cif.g09.slc.cpg/sg14_21_cif.got.tgz:41827.got - 2010.03.31 13:35:05.
