data_PCOD8125555
_publ_section_title
;
Structure prediction by ZEFSAII (Michael W. Deem and Ramdas Pophale) SiO2 
 PCOD8125555
Probable space group: P 21/C
;
_chemical_formula_sum "Si O2"
_cell_formula_units_Z 28
_cell_length_a 7.763139
_cell_length_b 17.878284
_cell_length_c 14.677779
_cell_angle_alpha 90.000000
_cell_angle_beta 37.771102
_cell_angle_gamma 90.000000
_cell_volume 1247.773110
_symmetry_space_group_name_H-M "P 21/C"
_symmetry_group_IT_number 14
_symmetry_cell_setting 'monoclinic'
loop_
_space_group_symop_operation_xyz
x,y,z
-x,1/2+y,1/2-z
-x,-y,-z
x,1/2-y,1/2+z
loop_
_atom_site_type_symbol
_atom_site_label
_atom_site_fract_x
_atom_site_fract_y
_atom_site_fract_z
Si Si1 0.822554 0.655869 0.440003
Si Si2 0.388813 0.586094 0.952756
Si Si3 0.897264 0.159478 0.598395
Si Si4 0.196609 0.216822 0.700763
Si Si5 0.772153 0.103457 0.843237
Si Si6 0.364565 0.250208 0.326657
Si Si7 0.137227 0.528832 0.234302
O O1 0.850927 0.729977 0.366099
O O2 0.560384 0.608433 0.511326
O O3 0.770748 0.676378 0.567504
O O4 0.085909 0.599393 0.322992
O O5 0.233863 0.609322 0.925904
O O6 0.564835 0.655292 0.920672
O O7 0.587576 0.515186 0.847164
O O8 0.163883 0.561999 0.121694
O O9 0.898286 0.109651 0.687972
O O10 0.704108 0.236516 0.691896
O O11 0.223266 0.180227 0.438961
O O12 0.271511 0.260682 0.761429
O O13 0.902937 0.174205 0.843057
O O14 0.869343 0.026056 0.846993
#
# Coordination Sequence:
#
# PCOD8125555 Si02
#       7
#     4   4   4   4   4   4   4
#     4  11  22  37  63  89 121 162 198 256 306 353
#     4   9  21  39  62  84 124 160 204 242 304 360
#     4  10  20  40  59  90 124 155 203 262 296 363
#     4  10  21  38  61  88 120 157 199 260 300 360
#     4  10  22  38  59  88 124 153 206 248 301 362
#     4  10  22  36  59  93 120 154 206 252 307 358
#     4  10  21  40  59  88 119 170 196 242 305 369
#
# _framework density 22.439976000000001
#
# number of rings (size 3 to 8) (size 9 to 14) (size 15 to 20)
#    0.000    2.000    1.429    1.286    6.000    0.571 
#    2.571   12.857    0.000    0.000    0.000    0.000 
#    0.000    0.000    0.000    0.000    0.000    0.000 
#
# Total GULP energy -347032.144372 kJ/mol
# GULP energy per Si atom -12394.005156 kJ/mol
# Density = 2.238890 g / cm^3
# Si number density = 22.439976 Si / 1000 Ang^3
#
#
#
# Elastic Constant Matrix: (Units=GPa)
#
#
# Indices 1 2 3 4 5 6 
#
# 1 35.8624 -16.2973 -17.6135 0.0000 8.3640 0.0000
# 2 -16.2973 69.9593 5.7458 0.0000 -0.0576 0.0000
# 3 -17.6135 5.7458 44.6077 0.0000 -5.1440 0.0000
# 4 0.0000 0.0000 0.0000 31.4370 0.0000 5.2989
# 5 8.3640 -0.0576 -5.1440 0.0000 25.3230 0.0000
# 6 0.0000 0.0000 0.0000 5.2989 0.0000 19.4713
#
#
#
# Elastic Compliance Matrix: (Units=1/GPa)
#
#
# Indices 1 2 3 4 5 6 
#
# 1 0.041019 0.008407 0.013879 0.000000 -0.010710 0.000000
# 2 0.008407 0.016173 0.000942 0.000000 -0.002549 0.000000
# 3 0.013879 0.000942 0.027902 0.000000 0.001086 0.000000
# 4 0.000000 0.000000 0.000000 0.033339 0.000000 -0.009073
# 5 -0.010710 -0.002549 0.001086 0.000000 0.043242 0.000000
# 6 0.000000 0.000000 0.000000 -0.009073 0.000000 0.053827
#
#
# Mechanical properties :
#
#
# Convention : Reuss Voigt Hill
#
# Bulk Modulus (GPa) = 7.60172 10.45548 9.02860
# Shear Modulus (GPa) = 23.48574 27.15255 25.31914
#
# Velocity S-wave (km/s) = 3.23863 3.48229 3.36267
# Velocity P-wave (km/s) = 4.16892 4.56485 4.37137
#
# Compressibility (1/GPa) = 0.13154926
#
# Stress axis : x y z
#
# Youngs Moduli (GPa) = 24.37894 61.83167 35.84036
#
# Poissons Ratio (x) = -0.51981 -0.49741
# Poissons Ratio (y) = -0.20495 -0.03378
# Poissons Ratio (z) = -0.33835 -0.05827
#
# Static dielectric constant tensor:
#      x y z
#    x 3.987120 0.000000 -0.132580 
#    y 0.000000 3.916500 0.000000 
#    z -0.132580 0.000000 4.008010 
# 
# 
# High freq. dielectric constant tensor:
#      x y z
#    x 1.876750 0.000000 -0.005520 
#    y 0.000000 1.873180 0.000000 
#    z -0.005520 0.000000 1.881850 
# 
# From -- ./inp_files/41778.got.cif
#   From: 2010.03.12/outbox.cif.g09.slc.cpg/sg14_21_cif.got.tgz:41778.got - 2010.03.31 13:35:05.
