data_PCOD8125809
_publ_section_title
;
Structure prediction by ZEFSAII (Michael W. Deem and Ramdas Pophale) SiO2 
 PCOD8125809
Probable space group: P 21/C
;
_chemical_formula_sum "Si O2"
_cell_formula_units_Z 24
_cell_length_a 12.234809
_cell_length_b 20.180590
_cell_length_c 5.247361
_cell_angle_alpha 90.000000
_cell_angle_beta 102.540690
_cell_angle_gamma 90.000000
_cell_volume 1264.692719
_symmetry_space_group_name_H-M "P 21/C"
_symmetry_group_IT_number 14
_symmetry_cell_setting 'monoclinic'
loop_
_space_group_symop_operation_xyz
x,y,z
-x,1/2+y,1/2-z
-x,-y,-z
x,1/2-y,1/2+z
loop_
_atom_site_type_symbol
_atom_site_label
_atom_site_fract_x
_atom_site_fract_y
_atom_site_fract_z
Si Si1 0.448108 0.924892 0.750028
Si Si2 0.353813 0.984704 0.196014
Si Si3 0.367600 0.787288 0.713957
Si Si4 0.892964 0.292170 0.939675
Si Si5 0.114914 0.041318 0.056440
Si Si6 0.039312 0.422492 0.018180
O O1 0.379393 0.962507 0.495851
O O2 0.447498 0.848028 0.684742
O O3 0.577075 0.948002 0.824496
O O4 0.389837 0.932797 0.997022
O O5 0.221301 0.993483 0.105585
O O6 0.396519 0.733035 0.516339
O O7 0.238282 0.807244 0.622961
O O8 0.928459 0.250091 0.707580
O O9 0.944340 0.366137 0.966713
O O10 0.116996 0.087505 0.308566
O O11 0.115148 0.088286 0.807678
O O12 0.000000 0.000000 0.000000
O O13 0.000000 0.500000 0.000000
#
# Coordination Sequence:
#
# PCOD8125809 Si02
#       6
#     4   4   4   4   4   4
#     4  10  21  36  59  78 118 146 183 240 282 345
#     4  10  21  36  55  88 111 151 182 232 300 330
#     4  10  21  35  55  83 108 148 189 231 286 339
#     4  10  21  36  55  79 115 151 188 238 292 349
#     4  10  21  32  53  84 115 146 185 232 277 343
#     4  10  21  35  53  84 109 152 189 233 285 332
#
# _framework density 18.976941
#
# number of rings (size 3 to 8) (size 9 to 14) (size 15 to 20)
#    0.000    2.000    0.000    3.000    9.333    0.000 
#    0.000    0.000    0.000    6.000    0.000    0.000 
#    0.000    0.000    0.000    0.000    0.000    0.000 
#
# Total GULP energy -297414.285179 kJ/mol
# GULP energy per Si atom -12392.261882 kJ/mol
# Density = 1.893375 g / cm^3
# Si number density = 18.976941 Si / 1000 Ang^3
#
#
#
# Elastic Constant Matrix: (Units=GPa)
#
#
# Indices 1 2 3 4 5 6 
#
# 1 77.5007 30.7543 26.9647 0.0000 5.1545 0.0000
# 2 30.7543 105.8640 18.4189 0.0000 0.5920 0.0000
# 3 26.9647 18.4189 132.6632 0.0000 -23.5525 0.0000
# 4 0.0000 0.0000 0.0000 18.1639 0.0000 2.0853
# 5 5.1545 0.5920 -23.5525 0.0000 28.9246 0.0000
# 6 0.0000 0.0000 0.0000 2.0853 0.0000 25.6187
#
#
#
# Elastic Compliance Matrix: (Units=1/GPa)
#
#
# Indices 1 2 3 4 5 6 
#
# 1 0.016204 -0.004017 -0.003780 0.000000 -0.005884 0.000000
# 2 -0.004017 0.010732 -0.000685 0.000000 -0.000061 0.000000
# 3 -0.003780 -0.000685 0.009964 0.000000 0.008801 0.000000
# 4 0.000000 0.000000 0.000000 0.055573 0.000000 -0.004524
# 5 -0.005884 -0.000061 0.008801 0.000000 0.042789 0.000000
# 6 0.000000 0.000000 0.000000 -0.004524 0.000000 0.039402
#
#
# Mechanical properties :
#
#
# Convention : Reuss Voigt Hill
#
# Bulk Modulus (GPa) = 50.15883 52.03374 51.09629
# Shear Modulus (GPa) = 25.21776 30.53411 27.87593
#
# Velocity S-wave (km/s) = 3.64931 4.01560 3.83683
# Velocity P-wave (km/s) = 6.65173 6.99850 6.82732
#
# Compressibility (1/GPa) = 0.01993667
#
# Stress axis : x y z
#
# Youngs Moduli (GPa) = 61.71458 93.17585 100.36338
#
# Poissons Ratio (x) = 0.37425 0.37941
# Poissons Ratio (y) = 0.24789 0.06870
# Poissons Ratio (z) = 0.23330 0.06378
#
# Static dielectric constant tensor:
#      x y z
#    x 3.413570 0.000000 -0.530640 
#    y 0.000000 3.241550 0.000000 
#    z -0.530640 0.000000 4.905870 
# 
# 
# High freq. dielectric constant tensor:
#      x y z
#    x 1.711310 0.000000 -0.020710 
#    y 0.000000 1.713890 0.000000 
#    z -0.020710 0.000000 1.771960 
# 
# From -- ./inp_files/2671.got.cif
#   From: 2010.03.12/outbox.cif.g09.slc.cpg/sg14_2_cif.got.tgz:2671.got - 2010.03.31 13:35:05.
