data_PCOD8125031
_publ_section_title
;
Structure prediction by ZEFSAII (Michael W. Deem and Ramdas Pophale) SiO2 
 PCOD8125031
Probable space group: P 21/C
;
_chemical_formula_sum "Si O2"
_cell_formula_units_Z 32
_cell_length_a 8.653723
_cell_length_b 33.019670
_cell_length_c 5.132322
_cell_angle_alpha 90.000000
_cell_angle_beta 98.807659
_cell_angle_gamma 90.000000
_cell_volume 1449.232102
_symmetry_space_group_name_H-M "P 21/C"
_symmetry_group_IT_number 14
_symmetry_cell_setting 'monoclinic'
loop_
_space_group_symop_operation_xyz
x,y,z
-x,1/2+y,1/2-z
-x,-y,-z
x,1/2-y,1/2+z
loop_
_atom_site_type_symbol
_atom_site_label
_atom_site_fract_x
_atom_site_fract_y
_atom_site_fract_z
Si Si1 0.039882 0.381172 0.235878
Si Si2 0.437310 0.905747 0.110613
Si Si3 0.727945 0.725386 0.171296
Si Si4 0.321561 0.138928 0.510502
Si Si5 0.098187 0.773806 0.760302
Si Si6 0.849108 0.137022 0.194221
Si Si7 0.252883 0.070010 0.101596
Si Si8 0.601937 0.491707 0.274970
O O1 0.931770 0.387267 0.953074
O O2 0.192743 0.353007 0.207975
O O3 0.946071 0.361086 0.449465
O O4 0.111220 0.423967 0.358691
O O5 0.508232 0.875349 0.345494
O O6 0.318694 0.882747 0.892711
O O7 0.578718 0.922522 0.979143
O O8 0.346159 0.944304 0.215867
O O9 0.668612 0.746930 0.417421
O O10 0.652628 0.680399 0.140980
O O11 0.912994 0.720247 0.206478
O O12 0.236761 0.102878 0.327567
O O13 0.155406 0.743701 0.549552
O O14 0.177493 0.816920 0.724767
O O15 0.250414 0.023014 0.195327
O O16 0.500000 0.500000 0.500000
O O17 0.500000 0.500000 0.000000
#
# Coordination Sequence:
#
# PCOD8125031 Si02
#       8
#     4   4   4   4   4   4   4   4
#     4  11  23  38  65  90 125 165 207 256 305 374
#     4  10  25  39  66  95 129 165 205 259 315 380
#     4  10  22  34  58  89 118 151 208 263 299 354
#     4  11  21  41  65  93 120 164 210 254 312 363
#     4  10  20  36  59  85 116 160 210 252 299 369
#     4  12  24  41  61  94 129 165 204 256 321 376
#     4  10  21  41  70  94 121 166 218 259 303 371
#     4  10  20  39  64  95 122 163 213 256 300 373
#
# _framework density 22.080660000000002
#
# number of rings (size 3 to 8) (size 9 to 14) (size 15 to 20)
#    0.000    1.500    3.750    0.750    8.750    0.000 
#    0.000    2.500    0.000    0.000    0.000    0.000 
#    0.000    0.000    0.000    0.000    0.000    0.000 
#
# Total GULP energy -396655.635611 kJ/mol
# GULP energy per Si atom -12395.488613 kJ/mol
# Density = 2.203040 g / cm^3
# Si number density = 22.080660 Si / 1000 Ang^3
#
#
#
# Elastic Constant Matrix: (Units=GPa)
#
#
# Indices 1 2 3 4 5 6 
#
# 1 32.7504 16.3008 23.3913 0.0000 17.3216 0.0000
# 2 16.3008 102.1455 35.6462 0.0000 23.0510 0.0000
# 3 23.3913 35.6462 143.8538 0.0000 18.4852 0.0000
# 4 0.0000 0.0000 0.0000 40.3154 0.0000 7.6482
# 5 17.3216 23.0510 18.4852 0.0000 35.8626 0.0000
# 6 0.0000 0.0000 0.0000 7.6482 0.0000 17.1824
#
#
#
# Elastic Compliance Matrix: (Units=1/GPa)
#
#
# Indices 1 2 3 4 5 6 
#
# 1 0.043966 -0.001380 -0.004490 0.000000 -0.018034 0.000000
# 2 -0.001380 0.012073 -0.001987 0.000000 -0.006069 0.000000
# 3 -0.004490 -0.001987 0.008280 0.000000 -0.000822 0.000000
# 4 0.000000 0.000000 0.000000 0.027092 0.000000 -0.012059
# 5 -0.018034 -0.006069 -0.000822 0.000000 0.040919 0.000000
# 6 0.000000 0.000000 0.000000 -0.012059 0.000000 0.063567
#
#
# Mechanical properties :
#
#
# Convention : Reuss Voigt Hill
#
# Bulk Modulus (GPa) = 20.57402 47.71404 34.14403
# Shear Modulus (GPa) = 21.94788 32.23286 27.09037
#
# Velocity S-wave (km/s) = 3.15618 3.82485 3.50649
# Velocity P-wave (km/s) = 4.75603 6.41575 5.64720
#
# Compressibility (1/GPa) = 0.04860499
#
# Stress axis : x y z
#
# Youngs Moduli (GPa) = 22.74505 82.82681 120.77850
#
# Poissons Ratio (x) = 0.11427 0.54226
# Poissons Ratio (y) = 0.03138 0.24004
# Poissons Ratio (z) = 0.10212 0.16462
#
# Static dielectric constant tensor:
#      x y z
#    x 3.527970 0.000000 -0.012520 
#    y 0.000000 4.451950 0.000000 
#    z -0.012520 0.000000 4.266320 
# 
# 
# High freq. dielectric constant tensor:
#      x y z
#    x 1.823240 0.000000 -0.002950 
#    y 0.000000 1.868340 0.000000 
#    z -0.002950 0.000000 1.886020 
# 
# From -- ./inp_files/2256.got.cif
#   From: 2010.03.12/outbox.cif.g09.slc.cpg/sg14_2_cif.got.tgz:2256.got - 2010.03.31 13:35:05.
