data_PCOD8125570
_publ_section_title
;
Structure prediction by ZEFSAII (Michael W. Deem and Ramdas Pophale) SiO2 
 PCOD8125570
Probable space group: P 21/C
;
_chemical_formula_sum "Si O2"
_cell_formula_units_Z 24
_cell_length_a 14.198275
_cell_length_b 4.927546
_cell_length_c 14.263236
_cell_angle_alpha 90.000000
_cell_angle_beta 74.823778
_cell_angle_gamma 90.000000
_cell_volume 963.092507
_symmetry_space_group_name_H-M "P 21/C"
_symmetry_group_IT_number 14
_symmetry_cell_setting 'monoclinic'
loop_
_space_group_symop_operation_xyz
x,y,z
-x,1/2+y,1/2-z
-x,-y,-z
x,1/2-y,1/2+z
loop_
_atom_site_type_symbol
_atom_site_label
_atom_site_fract_x
_atom_site_fract_y
_atom_site_fract_z
Si Si1 0.105036 0.917583 0.290421
Si Si2 0.613365 0.472799 0.402076
Si Si3 0.110916 0.420989 0.161715
Si Si4 0.308876 0.463526 0.016742
Si Si5 0.699898 0.141337 0.679103
Si Si6 0.455342 0.436104 0.311636
O O1 0.123331 0.220049 0.246870
O O2 0.119911 0.724310 0.197530
O O3 0.182081 0.839617 0.352270
O O4 0.995097 0.880411 0.359583
O O5 0.662343 0.266603 0.461573
O O6 0.671618 0.460341 0.288952
O O7 0.497319 0.421948 0.408445
O O8 0.621765 0.771555 0.441631
O O9 0.196103 0.385063 0.063365
O O10 0.330309 0.436945 0.899057
O O11 0.652921 0.439284 0.670447
O O12 0.467259 0.143316 0.259995
#
# Coordination Sequence:
#
# PCOD8125570 Si02
#       6
#     4   4   4   4   4   4
#     4  10  21  38  67  87 131 167 210 262 323 378
#     4  11  24  44  61  93 135 168 209 277 310 381
#     4  10  20  40  61  96 124 170 207 262 325 380
#     4  12  24  39  69  95 128 171 218 257 330 380
#     4  11  24  42  68  96 124 177 215 264 324 382
#     4  10  23  41  66  92 130 174 216 262 324 376
#
# _framework density 24.919725
#
# number of rings (size 3 to 8) (size 9 to 14) (size 15 to 20)
#    0.000    1.333    3.333    2.000    0.000    7.333 
#    0.000    0.000    0.000    8.000    0.000    0.000 
#    0.000    0.000    0.000    0.000    0.000    0.000 
#
# Total GULP energy -297540.030362 kJ/mol
# GULP energy per Si atom -12397.501265 kJ/mol
# Density = 2.486301 g / cm^3
# Si number density = 24.919725 Si / 1000 Ang^3
#
#
#
# Elastic Constant Matrix: (Units=GPa)
#
#
# Indices 1 2 3 4 5 6 
#
# 1 152.1441 -12.1915 24.8945 0.0000 13.5155 0.0000
# 2 -12.1915 55.5309 16.0398 0.0000 -2.0909 0.0000
# 3 24.8945 16.0398 103.1132 0.0000 9.5924 0.0000
# 4 0.0000 0.0000 0.0000 22.3529 0.0000 9.8482
# 5 13.5155 -2.0909 9.5924 0.0000 36.9002 0.0000
# 6 0.0000 0.0000 0.0000 9.8482 0.0000 36.0191
#
#
#
# Elastic Compliance Matrix: (Units=1/GPa)
#
#
# Indices 1 2 3 4 5 6 
#
# 1 0.007225 0.002050 -0.001873 0.000000 -0.002043 0.000000
# 2 0.002050 0.019565 -0.003660 0.000000 0.001309 0.000000
# 3 -0.001873 -0.003660 0.010940 0.000000 -0.002365 0.000000
# 4 0.000000 0.000000 0.000000 0.050864 0.000000 -0.013907
# 5 -0.002043 0.001309 -0.002365 0.000000 0.028537 0.000000
# 6 0.000000 0.000000 0.000000 -0.013907 0.000000 0.031565
#
#
# Mechanical properties :
#
#
# Convention : Reuss Voigt Hill
#
# Bulk Modulus (GPa) = 32.50624 40.91930 36.71277
# Shear Modulus (GPa) = 30.13555 37.85747 33.99651
#
# Velocity S-wave (km/s) = 3.48128 3.90189 3.69757
# Velocity P-wave (km/s) = 5.40664 6.06265 5.74402
#
# Compressibility (1/GPa) = 0.03076333
#
# Stress axis : x y z
#
# Youngs Moduli (GPa) = 138.40792 51.11257 91.41013
#
# Poissons Ratio (x) = -0.10480 0.17123
# Poissons Ratio (y) = -0.28378 0.33458
# Poissons Ratio (z) = 0.25927 0.18708
#
# Static dielectric constant tensor:
#      x y z
#    x 5.167590 0.000000 -0.036850 
#    y 0.000000 4.405570 0.000000 
#    z -0.036850 0.000000 4.323780 
# 
# 
# High freq. dielectric constant tensor:
#      x y z
#    x 2.015470 0.000000 -0.006120 
#    y 0.000000 1.998510 0.000000 
#    z -0.006120 0.000000 1.973290 
# 
# From -- ./inp_files/45847.got.cif
#   From: 2010.03.12/outbox.cif.g09.slc.cpg/sg14_23_cif.got.tgz:45847.got - 2010.03.31 13:35:05.
