data_PCOD8125279
_publ_section_title
;
Structure prediction by ZEFSAII (Michael W. Deem and Ramdas Pophale) SiO2 
 PCOD8125279
Probable space group: P 21/C
;
_chemical_formula_sum "Si O2"
_cell_formula_units_Z 28
_cell_length_a 22.664527
_cell_length_b 7.934131
_cell_length_c 14.081432
_cell_angle_alpha 90.000000
_cell_angle_beta 28.812652
_cell_angle_gamma 90.000000
_cell_volume 1220.372131
_symmetry_space_group_name_H-M "P 21/C"
_symmetry_group_IT_number 14
_symmetry_cell_setting 'monoclinic'
loop_
_space_group_symop_operation_xyz
x,y,z
-x,1/2+y,1/2-z
-x,-y,-z
x,1/2-y,1/2+z
loop_
_atom_site_type_symbol
_atom_site_label
_atom_site_fract_x
_atom_site_fract_y
_atom_site_fract_z
Si Si1 0.224204 0.726882 0.160971
Si Si2 0.854255 0.453720 0.907733
Si Si3 0.055973 0.704755 0.569675
Si Si4 0.828908 0.587980 0.333098
Si Si5 0.637220 0.736180 0.470968
Si Si6 0.479358 0.623709 0.349008
Si Si7 0.318822 0.246748 0.301055
O O1 0.215868 0.585565 0.091406
O O2 0.152250 0.655222 0.353114
O O3 0.160419 0.894764 0.210715
O O4 0.363075 0.758436 0.994211
O O5 0.871771 0.284701 0.943507
O O6 0.986753 0.536278 0.700439
O O7 0.768549 0.583538 0.084954
O O8 0.964498 0.844767 0.657368
O O9 0.767171 0.697495 0.336573
O O10 0.746988 0.608115 0.544246
O O11 0.558080 0.566025 0.575628
O O12 0.564223 0.874614 0.635215
O O13 0.658727 0.814867 0.336728
O O14 0.550846 0.699515 0.337750
#
# Coordination Sequence:
#
# PCOD8125279 Si02
#       7
#     4   4   4   4   4   4   4
#     4  11  22  39  60  88 123 159 200 256 308 362
#     4  11  23  40  63  93 121 158 211 251 305 379
#     4  11  23  40  61  88 123 162 199 254 309 363
#     4   9  21  38  59  87 117 158 208 245 301 372
#     4  10  20  38  59  83 120 160 200 256 307 355
#     4  10  21  37  60  89 118 156 209 251 302 372
#     4  10  21  40  61  86 121 163 202 255 308 357
#
# _framework density 22.943822999999998
#
# number of rings (size 3 to 8) (size 9 to 14) (size 15 to 20)
#    0.000    1.714    0.000    4.714    0.000    3.429 
#    0.000   19.286    0.000    0.000    0.000    0.000 
#    0.000    0.000    0.000    0.000    0.000    0.000 
#
# Total GULP energy -347372.362536 kJ/mol
# GULP energy per Si atom -12406.155805 kJ/mol
# Density = 2.289160 g / cm^3
# Si number density = 22.943823 Si / 1000 Ang^3
#
#
#
# Elastic Constant Matrix: (Units=GPa)
#
#
# Indices 1 2 3 4 5 6 
#
# 1 98.0718 -2.5984 48.5193 0.0000 18.7009 0.0000
# 2 -2.5984 35.6970 -3.1732 0.0000 7.2161 0.0000
# 3 48.5193 -3.1732 71.4766 0.0000 32.7892 0.0000
# 4 0.0000 0.0000 0.0000 21.7259 0.0000 -0.7549
# 5 18.7009 7.2161 32.7892 0.0000 41.0905 0.0000
# 6 0.0000 0.0000 0.0000 -0.7549 0.0000 34.7527
#
#
#
# Elastic Compliance Matrix: (Units=1/GPa)
#
#
# Indices 1 2 3 4 5 6 
#
# 1 0.015472 -0.000350 -0.011541 0.000000 0.002229 0.000000
# 2 -0.000350 0.030618 0.006295 0.000000 -0.010241 0.000000
# 3 -0.011541 0.006295 0.031867 0.000000 -0.021282 0.000000
# 4 0.000000 0.000000 0.000000 0.046063 0.000000 0.001001
# 5 0.002229 -0.010241 -0.021282 0.000000 0.042103 0.000000
# 6 0.000000 0.000000 0.000000 0.001001 0.000000 0.028796
#
#
# Mechanical properties :
#
#
# Convention : Reuss Voigt Hill
#
# Bulk Modulus (GPa) = 14.97804 32.30453 23.64128
# Shear Modulus (GPa) = 21.89469 30.34700 26.12085
#
# Velocity S-wave (km/s) = 3.09248 3.64079 3.37778
# Velocity P-wave (km/s) = 4.39245 5.63775 5.05360
#
# Compressibility (1/GPa) = 0.06676443
#
# Stress axis : x y z
#
# Youngs Moduli (GPa) = 64.63390 32.66077 31.38043
#
# Poissons Ratio (x) = 0.01144 0.36215
# Poissons Ratio (y) = 0.02264 -0.19754
# Poissons Ratio (z) = 0.74592 -0.20560
#
# Static dielectric constant tensor:
#      x y z
#    x 4.180200 0.000000 -0.022370 
#    y 0.000000 3.855040 0.000000 
#    z -0.022370 0.000000 4.056290 
# 
# 
# High freq. dielectric constant tensor:
#      x y z
#    x 1.918920 0.000000 -0.002940 
#    y 0.000000 1.892820 0.000000 
#    z -0.002940 0.000000 1.905860 
# 
# From -- ./inp_files/34937.got.cif
#   From: 2010.03.12/outbox.cif.g09.slc.cpg/sg14_18_cif.got.tgz:34937.got - 2010.03.31 13:35:05.
