data_PCOD8125338
_publ_section_title
;
Structure prediction by ZEFSAII (Michael W. Deem and Ramdas Pophale) SiO2 
 PCOD8125338
Probable space group: P 21/C
;
_chemical_formula_sum "Si O2"
_cell_formula_units_Z 28
_cell_length_a 9.657758
_cell_length_b 10.752432
_cell_length_c 22.503300
_cell_angle_alpha 90.000000
_cell_angle_beta 145.578847
_cell_angle_gamma 90.000000
_cell_volume 1320.950035
_symmetry_space_group_name_H-M "P 21/C"
_symmetry_group_IT_number 14
_symmetry_cell_setting 'monoclinic'
loop_
_space_group_symop_operation_xyz
x,y,z
-x,1/2+y,1/2-z
-x,-y,-z
x,1/2-y,1/2+z
loop_
_atom_site_type_symbol
_atom_site_label
_atom_site_fract_x
_atom_site_fract_y
_atom_site_fract_z
Si Si1 0.025208 0.646415 0.204699
Si Si2 0.535117 0.433815 0.710894
Si Si3 0.654675 0.909962 0.470060
Si Si4 0.636706 0.135221 0.377850
Si Si5 0.756299 0.680697 0.775690
Si Si6 0.912046 0.108328 0.705156
Si Si7 0.134760 0.253806 0.556466
O O1 0.022586 0.532705 0.253407
O O2 0.284729 0.656671 0.262799
O O3 0.971279 0.785612 0.210068
O O4 0.813451 0.599975 0.085458
O O5 0.626041 0.435001 0.811295
O O6 0.562992 0.570605 0.694081
O O7 0.250194 0.392459 0.603137
O O8 0.377102 0.891381 0.391372
O O9 0.732854 0.802763 0.453374
O O10 0.698256 0.041607 0.452867
O O11 0.371637 0.196101 0.295875
O O12 0.842163 0.244613 0.446227
O O13 0.791173 0.681411 0.858141
O O14 0.014107 0.655384 0.834785
#
# Coordination Sequence:
#
# PCOD8125338 Si02
#       7
#     4   4   4   4   4   4   4
#     4  11  23  41  66  93 128 171 215 259 320 378
#     4  10  20  38  61  91 127 163 202 265 325 365
#     4  12  22  40  71  93 122 167 219 256 320 379
#     4  11  21  38  65  97 121 162 214 266 307 381
#     4  10  23  39  61  91 131 165 209 263 320 369
#     4  11  24  42  63  96 132 171 212 262 314 387
#     4  11  21  37  66  94 122 162 217 262 315 375
#
# _framework density 21.196866
#
# number of rings (size 3 to 8) (size 9 to 14) (size 15 to 20)
#    0.000    1.143    4.286    3.429    0.000    1.714 
#    0.000    0.714    6.286    0.000    0.000    0.000 
#    0.000    0.000    0.000    0.000    0.000    0.000 
#
# Total GULP energy -346913.950076 kJ/mol
# GULP energy per Si atom -12389.783931 kJ/mol
# Density = 2.114862 g / cm^3
# Si number density = 21.196866 Si / 1000 Ang^3
#
#
#
# Elastic Constant Matrix: (Units=GPa)
#
#
# Indices 1 2 3 4 5 6 
#
# 1 106.0982 36.9665 23.2139 0.0000 10.9434 0.0000
# 2 36.9665 78.5803 29.1613 0.0000 -12.8788 0.0000
# 3 23.2139 29.1613 68.7218 0.0000 2.6216 0.0000
# 4 0.0000 0.0000 0.0000 23.7694 0.0000 -1.9437
# 5 10.9434 -12.8788 2.6216 0.0000 33.7505 0.0000
# 6 0.0000 0.0000 0.0000 -1.9437 0.0000 35.6019
#
#
#
# Elastic Compliance Matrix: (Units=1/GPa)
#
#
# Indices 1 2 3 4 5 6 
#
# 1 0.012653 -0.006558 -0.001243 0.000000 -0.006509 0.000000
# 2 -0.006558 0.019958 -0.006645 0.000000 0.010258 0.000000
# 3 -0.001243 -0.006645 0.017926 0.000000 -0.003525 0.000000
# 4 0.000000 0.000000 0.000000 0.042260 0.000000 0.002307
# 5 -0.006509 0.010258 -0.003525 0.000000 0.035928 0.000000
# 6 0.000000 0.000000 0.000000 0.002307 0.000000 0.028214
#
#
# Mechanical properties :
#
#
# Convention : Reuss Voigt Hill
#
# Bulk Modulus (GPa) = 46.20059 48.00930 47.10494
# Shear Modulus (GPa) = 25.90050 29.56161 27.73105
#
# Velocity S-wave (km/s) = 3.49936 3.73851 3.62091
# Velocity P-wave (km/s) = 6.17824 6.42913 6.30493
#
# Compressibility (1/GPa) = 0.02164475
#
# Stress axis : x y z
#
# Youngs Moduli (GPa) = 79.02970 50.10476 55.78606
#
# Poissons Ratio (x) = 0.32858 0.06935
# Poissons Ratio (y) = 0.51827 0.37071
# Poissons Ratio (z) = 0.09825 0.33295
#
# Static dielectric constant tensor:
#      x y z
#    x 4.076470 0.000000 0.085880 
#    y 0.000000 3.883410 0.000000 
#    z 0.085880 0.000000 3.589910 
# 
# 
# High freq. dielectric constant tensor:
#      x y z
#    x 1.847740 0.000000 0.008310 
#    y 0.000000 1.828650 0.000000 
#    z 0.008310 0.000000 1.804440 
# 
# From -- ./inp_files/65642.got.cif
#   From: 2010.03.12/outbox.cif.g09.slc.cpg/sg14_33_cif.got.tgz:65642.got - 2010.03.31 13:35:05.
