data_PCOD8125819
_publ_section_title
;
Structure prediction by ZEFSAII (Michael W. Deem and Ramdas Pophale) SiO2 
 PCOD8125819
Probable space group: P 21/C
;
_chemical_formula_sum "Si O2"
_cell_formula_units_Z 24
_cell_length_a 21.835944
_cell_length_b 12.044435
_cell_length_c 15.056912
_cell_angle_alpha 90.000000
_cell_angle_beta 160.580520
_cell_angle_gamma 90.000000
_cell_volume 1316.625288
_symmetry_space_group_name_H-M "P 21/C"
_symmetry_group_IT_number 14
_symmetry_cell_setting 'monoclinic'
loop_
_space_group_symop_operation_xyz
x,y,z
-x,1/2+y,1/2-z
-x,-y,-z
x,1/2-y,1/2+z
loop_
_atom_site_type_symbol
_atom_site_label
_atom_site_fract_x
_atom_site_fract_y
_atom_site_fract_z
Si Si1 0.641411 0.670930 0.109640
Si Si2 0.766923 0.412554 0.860354
Si Si3 0.503929 0.534031 0.181171
Si Si4 0.580108 0.912537 0.986683
Si Si5 0.149432 0.465968 0.472192
Si Si6 0.704882 0.329068 0.236656
O O1 0.815851 0.628377 0.405427
O O2 0.592949 0.585615 0.964415
O O3 0.680069 0.792471 0.122486
O O4 0.471739 0.675357 0.943448
O O5 0.608310 0.408967 0.716637
O O6 0.721788 0.499987 0.721781
O O7 0.795179 0.292473 0.852763
O O8 0.951834 0.449224 0.160435
O O9 0.534651 0.550785 0.326049
O O10 0.697489 0.539858 0.394968
O O11 0.363347 0.628394 0.952919
O O12 0.150010 0.585628 0.521480
#
# Coordination Sequence:
#
# PCOD8125819 Si02
#       6
#     4   4   4   4   4   4
#     4   8  17  35  54  73 101 137 167 202 254 302
#     4  10  21  34  51  77 108 133 160 207 262 299
#     4   9  18  35  57  74  96 135 177 205 239 300
#     4  10  21  34  51  77 108 133 160 207 262 299
#     4   9  18  35  57  74  96 135 177 205 239 300
#     4   8  17  35  54  73 101 137 167 202 254 302
#
# _framework density 18.228421000000001
#
# number of rings (size 3 to 8) (size 9 to 14) (size 15 to 20)
#    0.000    3.000    0.000    2.000    4.667    0.667 
#    0.000    5.000    0.000    0.000    0.000    0.000 
#    0.000    0.000    0.000    0.000    0.000    0.000 
#
# Total GULP energy -297526.816951 kJ/mol
# GULP energy per Si atom -12396.950706 kJ/mol
# Density = 1.818693 g / cm^3
# Si number density = 18.228421 Si / 1000 Ang^3
#
#
#
# Elastic Constant Matrix: (Units=GPa)
#
#
# Indices 1 2 3 4 5 6 
#
# 1 79.8069 55.1474 34.9371 0.0000 -41.8229 0.0000
# 2 55.1474 180.4833 79.6429 0.0000 -36.7433 0.0000
# 3 34.9371 79.6429 133.9546 0.0000 -39.3583 0.0000
# 4 0.0000 0.0000 0.0000 21.8650 0.0000 -3.3379
# 5 -41.8229 -36.7433 -39.3583 0.0000 32.7111 0.0000
# 6 0.0000 0.0000 0.0000 -3.3379 0.0000 19.6438
#
#
#
# Elastic Compliance Matrix: (Units=1/GPa)
#
#
# Indices 1 2 3 4 5 6 
#
# 1 0.045613 -0.005290 0.010268 0.000000 0.064731 0.000000
# 2 -0.005290 0.008632 -0.004472 0.000000 -0.002448 0.000000
# 3 0.010268 -0.004472 0.015201 0.000000 0.026396 0.000000
# 4 0.000000 0.000000 0.000000 0.046953 0.000000 0.007978
# 5 0.064731 -0.002448 0.026396 0.000000 0.142342 0.000000
# 6 0.000000 0.000000 0.000000 0.007978 0.000000 0.052262
#
#
# Mechanical properties :
#
#
# Convention : Reuss Voigt Hill
#
# Bulk Modulus (GPa) = 14.19271 81.52218 47.85744
# Shear Modulus (GPa) = 14.99347 29.81182 22.40264
#
# Velocity S-wave (km/s) = 2.87109 4.04847 3.50951
# Velocity P-wave (km/s) = 4.33519 8.16536 6.53708
#
# Compressibility (1/GPa) = 0.07045873
#
# Stress axis : x y z
#
# Youngs Moduli (GPa) = 21.92349 115.84850 65.78347
#
# Poissons Ratio (x) = 0.61285 -0.67546
# Poissons Ratio (y) = 0.11598 0.29416
# Poissons Ratio (z) = -0.22511 0.51804
#
# Static dielectric constant tensor:
#      x y z
#    x 3.062660 0.000000 -0.205040 
#    y 0.000000 4.147330 0.000000 
#    z -0.205040 0.000000 3.199140 
# 
# 
# High freq. dielectric constant tensor:
#      x y z
#    x 1.681710 0.000000 -0.024260 
#    y 0.000000 1.722020 0.000000 
#    z -0.024260 0.000000 1.697870 
# 
# From -- ./inp_files/43961.got.cif
#   From: 2010.03.12/outbox.cif.g09.slc.cpg/sg14_22_cif.got.tgz:43961.got - 2010.03.31 13:35:05.
