data_PCOD8125553
_publ_section_title
;
Structure prediction by ZEFSAII (Michael W. Deem and Ramdas Pophale) SiO2 
 PCOD8125553
Probable space group: P 21/C
;
_chemical_formula_sum "Si O2"
_cell_formula_units_Z 32
_cell_length_a 11.673418
_cell_length_b 10.871793
_cell_length_c 21.611154
_cell_angle_alpha 90.000000
_cell_angle_beta 35.777328
_cell_angle_gamma 90.000000
_cell_volume 1603.478854
_symmetry_space_group_name_H-M "P 21/C"
_symmetry_group_IT_number 14
_symmetry_cell_setting 'monoclinic'
loop_
_space_group_symop_operation_xyz
x,y,z
-x,1/2+y,1/2-z
-x,-y,-z
x,1/2-y,1/2+z
loop_
_atom_site_type_symbol
_atom_site_label
_atom_site_fract_x
_atom_site_fract_y
_atom_site_fract_z
Si Si1 0.874697 0.813344 0.469784
Si Si2 0.886120 0.533569 0.178039
Si Si3 0.109466 0.404192 0.372545
Si Si4 0.067568 0.229010 0.770406
Si Si5 0.189790 0.654340 0.396177
Si Si6 0.729175 0.091842 0.862133
Si Si7 0.354757 0.184436 0.311779
Si Si8 0.698600 0.661730 0.436125
O O1 0.689340 0.834581 0.596236
O O2 0.815441 0.715057 0.443429
O O3 0.065811 0.767217 0.423161
O O4 0.932120 0.946530 0.418612
O O5 0.741277 0.463352 0.288188
O O6 0.754263 0.576011 0.178056
O O7 0.988516 0.651102 0.165036
O O8 0.174215 0.542952 0.354941
O O9 0.274942 0.317820 0.329012
O O10 0.104335 0.383459 0.301133
O O11 0.898139 0.380439 0.497830
O O12 0.894954 0.193388 0.799683
O O13 0.255349 0.258635 0.645543
O O14 0.416083 0.688783 0.304160
O O15 0.750927 0.982503 0.903262
O O16 0.532124 0.170162 0.952988
#
# Coordination Sequence:
#
# PCOD8125553 Si02
#       8
#     4   4   4   4   4   4   4   4
#     4  11  22  39  59  90 122 155 197 249 307 364
#     4  10  22  39  60  84 125 155 192 254 303 358
#     4   9  21  40  59  88 119 154 203 255 291 356
#     4  10  20  40  59  86 120 156 195 247 304 348
#     4  10  22  38  63  87 116 160 202 251 296 356
#     4  10  21  39  64  86 118 161 205 247 289 363
#     4  10  23  38  61  87 119 157 201 245 312 358
#     4  10  22  37  62  92 115 159 204 244 296 354
#
# _framework density 19.956607999999999
#
# number of rings (size 3 to 8) (size 9 to 14) (size 15 to 20)
#    0.000    2.000    1.250    1.125    3.500    6.000 
#    2.250    0.625    0.000    0.000    0.000    0.000 
#    0.000    0.000    0.000    0.000    0.000    0.000 
#
# Total GULP energy -396807.153170 kJ/mol
# GULP energy per Si atom -12400.223537 kJ/mol
# Density = 1.991119 g / cm^3
# Si number density = 19.956608 Si / 1000 Ang^3
#
#
#
# Elastic Constant Matrix: (Units=GPa)
#
#
# Indices 1 2 3 4 5 6 
#
# 1 72.2100 23.8636 34.4174 0.0000 6.9948 0.0000
# 2 23.8636 65.5742 26.6022 0.0000 -3.8714 0.0000
# 3 34.4174 26.6022 104.8844 0.0000 -7.0960 0.0000
# 4 0.0000 0.0000 0.0000 31.0713 0.0000 1.3055
# 5 6.9948 -3.8714 -7.0960 0.0000 33.6138 0.0000
# 6 0.0000 0.0000 0.0000 1.3055 0.0000 29.6145
#
#
#
# Elastic Compliance Matrix: (Units=1/GPa)
#
#
# Indices 1 2 3 4 5 6 
#
# 1 0.018490 -0.004951 -0.005185 0.000000 -0.005512 0.000000
# 2 -0.004951 0.018362 -0.002861 0.000000 0.002541 0.000000
# 3 -0.005185 -0.002861 0.012186 0.000000 0.003322 0.000000
# 4 0.000000 0.000000 0.000000 0.032244 0.000000 -0.001421
# 5 -0.005512 0.002541 0.003322 0.000000 0.031891 0.000000
# 6 0.000000 0.000000 0.000000 -0.001421 0.000000 0.033830
#
#
# Mechanical properties :
#
#
# Convention : Reuss Voigt Hill
#
# Bulk Modulus (GPa) = 43.39247 45.82612 44.60930
# Shear Modulus (GPa) = 27.67378 29.37893 28.52636
#
# Velocity S-wave (km/s) = 3.72788 3.84101 3.78487
# Velocity P-wave (km/s) = 6.34981 6.53329 6.44220
#
# Compressibility (1/GPa) = 0.02304547
#
# Stress axis : x y z
#
# Youngs Moduli (GPa) = 54.08413 54.45973 82.06195
#
# Poissons Ratio (x) = 0.26962 0.42545
# Poissons Ratio (y) = 0.26777 0.23476
# Poissons Ratio (z) = 0.28040 0.15579
#
# Static dielectric constant tensor:
#      x y z
#    x 3.493770 0.000000 0.207250 
#    y 0.000000 3.627590 0.000000 
#    z 0.207250 0.000000 3.736920 
# 
# 
# High freq. dielectric constant tensor:
#      x y z
#    x 1.767740 0.000000 0.014840 
#    y 0.000000 1.780830 0.000000 
#    z 0.014840 0.000000 1.782370 
# 
# From -- ./inp_files/35916.got.cif
#   From: 2010.03.12/outbox.cif.g09.slc.cpg/sg14_18_cif.got.tgz:35916.got - 2010.03.31 13:35:05.
