data_PCOD8125457
_publ_section_title
;
Structure prediction by ZEFSAII (Michael W. Deem and Ramdas Pophale) SiO2 
 PCOD8125457
Probable space group: P 21/C
;
_chemical_formula_sum "Si O2"
_cell_formula_units_Z 32
_cell_length_a 13.385092
_cell_length_b 16.030332
_cell_length_c 14.403920
_cell_angle_alpha 90.000000
_cell_angle_beta 29.685812
_cell_angle_gamma 90.000000
_cell_volume 1530.606001
_symmetry_space_group_name_H-M "P 21/C"
_symmetry_group_IT_number 14
_symmetry_cell_setting 'monoclinic'
loop_
_space_group_symop_operation_xyz
x,y,z
-x,1/2+y,1/2-z
-x,-y,-z
x,1/2-y,1/2+z
loop_
_atom_site_type_symbol
_atom_site_label
_atom_site_fract_x
_atom_site_fract_y
_atom_site_fract_z
Si Si1 0.411393 0.116085 0.506951
Si Si2 0.938303 0.391226 0.112293
Si Si3 0.233082 0.220648 0.483523
Si Si4 0.909824 0.161576 0.289243
Si Si5 0.498727 0.246698 0.599574
Si Si6 0.501705 0.597756 0.517945
Si Si7 0.921142 0.935220 0.698153
Si Si8 0.178831 0.529547 0.288798
O O1 0.347657 0.157404 0.460407
O O2 0.420438 0.185616 0.580910
O O3 0.624846 0.068433 0.317483
O O4 0.245471 0.048103 0.670998
O O5 0.706783 0.372070 0.264725
O O6 0.928596 0.464689 0.197048
O O7 0.045703 0.315909 0.076311
O O8 0.070521 0.412848 0.916886
O O9 0.382933 0.264596 0.289908
O O10 0.122853 0.291982 0.630768
O O11 0.729271 0.226490 0.435219
O O12 0.915550 0.103509 0.194819
O O13 0.893789 0.101945 0.392759
O O14 0.479441 0.343809 0.588291
O O15 0.500000 0.500000 0.500000
O O16 0.709920 0.604847 0.408138
O O17 0.000000 0.500000 0.500000
#
# Coordination Sequence:
#
# PCOD8125457 Si02
#       8
#     4   4   4   4   4   4   4   4
#     4  10  24  42  68  93 133 169 220 275 319 390
#     4  10  21  38  63  90 125 161 211 262 319 380
#     4  12  23  39  63  96 128 173 211 266 328 384
#     4  11  24  40  63  94 131 167 218 266 320 389
#     4  11  23  42  61  95 133 165 216 269 323 383
#     4  10  20  39  61  88 126 165 205 261 316 381
#     4  10  21  39  61  89 122 166 205 266 320 375
#     4  10  22  47  67  93 127 175 220 270 324 384
#
# _framework density 20.906752999999998
#
# number of rings (size 3 to 8) (size 9 to 14) (size 15 to 20)
#    0.000    1.500    2.500    2.250    0.000    3.000 
#    4.500    0.000    0.000    0.000    0.000    0.000 
#    0.000    0.000    0.000    0.000    0.000    0.000 
#
# Total GULP energy -396438.513218 kJ/mol
# GULP energy per Si atom -12388.703538 kJ/mol
# Density = 2.085917 g / cm^3
# Si number density = 20.906753 Si / 1000 Ang^3
#
#
#
# Elastic Constant Matrix: (Units=GPa)
#
#
# Indices 1 2 3 4 5 6 
#
# 1 60.2011 30.8659 33.0818 0.0000 -8.4920 0.0000
# 2 30.8659 84.1075 47.9802 0.0000 -8.5732 0.0000
# 3 33.0818 47.9802 121.1366 0.0000 -9.6877 0.0000
# 4 0.0000 0.0000 0.0000 30.6832 0.0000 -0.0921
# 5 -8.4920 -8.5732 -9.6877 0.0000 18.5430 0.0000
# 6 0.0000 0.0000 0.0000 -0.0921 0.0000 28.7263
#
#
#
# Elastic Compliance Matrix: (Units=1/GPa)
#
#
# Indices 1 2 3 4 5 6 
#
# 1 0.022158 -0.005624 -0.003360 0.000000 0.005792 0.000000
# 2 -0.005624 0.017091 -0.005017 0.000000 0.002705 0.000000
# 3 -0.003360 -0.005017 0.011325 0.000000 0.002058 0.000000
# 4 0.000000 0.000000 0.000000 0.032591 0.000000 0.000104
# 5 0.005792 0.002705 0.002058 0.000000 0.058907 0.000000
# 6 0.000000 0.000000 0.000000 0.000104 0.000000 0.034812
#
#
# Mechanical properties :
#
#
# Convention : Reuss Voigt Hill
#
# Bulk Modulus (GPa) = 44.30607 54.36678 49.33642
# Shear Modulus (GPa) = 23.53918 25.82501 24.68209
#
# Velocity S-wave (km/s) = 3.35910 3.51842 3.43968
# Velocity P-wave (km/s) = 6.02354 6.52431 6.27892
#
# Compressibility (1/GPa) = 0.02257027
#
# Stress axis : x y z
#
# Youngs Moduli (GPa) = 45.12987 58.50865 88.30239
#
# Poissons Ratio (x) = 0.32907 0.29674
# Poissons Ratio (y) = 0.25382 0.44304
# Poissons Ratio (z) = 0.15166 0.29356
#
# Static dielectric constant tensor:
#      x y z
#    x 3.674850 0.000000 -0.361390 
#    y 0.000000 3.971440 0.000000 
#    z -0.361390 0.000000 3.957870 
# 
# 
# High freq. dielectric constant tensor:
#      x y z
#    x 1.808160 0.000000 -0.022720 
#    y 0.000000 1.834560 0.000000 
#    z -0.022720 0.000000 1.819940 
# 
# From -- ./inp_files/47390.got.cif
#   From: 2010.03.12/outbox.cif.g09.slc.cpg/sg14_24_cif.got.tgz:47390.got - 2010.03.31 13:35:05.
