data_PCOD8125043
_publ_section_title
;
Structure prediction by ZEFSAII (Michael W. Deem and Ramdas Pophale) SiO2 
 PCOD8125043
Probable space group: P 21/C
;
_chemical_formula_sum "Si O2"
_cell_formula_units_Z 32
_cell_length_a 8.698887
_cell_length_b 13.543943
_cell_length_c 23.020731
_cell_angle_alpha 90.000000
_cell_angle_beta 140.981512
_cell_angle_gamma 90.000000
_cell_volume 1707.547202
_symmetry_space_group_name_H-M "P 21/C"
_symmetry_group_IT_number 14
_symmetry_cell_setting 'monoclinic'
loop_
_space_group_symop_operation_xyz
x,y,z
-x,1/2+y,1/2-z
-x,-y,-z
x,1/2-y,1/2+z
loop_
_atom_site_type_symbol
_atom_site_label
_atom_site_fract_x
_atom_site_fract_y
_atom_site_fract_z
Si Si1 0.190728 0.259809 0.157017
Si Si2 0.836542 0.101224 0.262165
Si Si3 0.327317 0.810392 0.247399
Si Si4 0.019803 0.452650 0.413526
Si Si5 0.986538 0.473796 0.083779
Si Si6 0.711243 0.584928 0.400555
Si Si7 0.914385 0.598349 0.288052
Si Si8 0.584760 0.987349 0.377021
O O1 0.476686 0.288706 0.246200
O O2 0.015718 0.355146 0.099043
O O3 0.189087 0.186280 0.100004
O O4 0.104089 0.208190 0.190981
O O5 0.803609 0.216706 0.263605
O O6 0.569055 0.056963 0.189743
O O7 0.947021 0.092485 0.231113
O O8 0.008339 0.037288 0.355368
O O9 0.474686 0.876293 0.338729
O O10 0.094724 0.861679 0.152732
O O11 0.249974 0.413380 0.518059
O O12 0.833044 0.491339 0.406809
O O13 0.074988 0.535598 0.381432
O O14 0.209854 0.513122 0.110431
O O15 0.718862 0.497070 0.978165
O O16 0.637172 0.561696 0.199133
#
# Coordination Sequence:
#
# PCOD8125043 Si02
#       8
#     4   4   4   4   4   4   4   4
#     4   9  18  33  54  78 106 136 173 220 267 313
#     4  11  22  33  50  77 111 144 174 210 264 325
#     4   9  18  34  55  76 102 138 176 219 265 315
#     4   9  18  35  58  76  98 133 179 224 264 305
#     4  10  20  36  60  83 104 138 183 227 269 315
#     4   9  18  34  55  79 101 132 178 225 265 311
#     4  10  21  36  51  76 112 143 171 213 265 323
#     4   9  19  37  59  81 104 136 182 230 269 310
#
# _framework density 18.740331000000001
#
# number of rings (size 3 to 8) (size 9 to 14) (size 15 to 20)
#    0.000    2.500    0.000    3.750    0.000    8.000 
#    0.000    2.500    0.000    0.000    0.000    0.000 
#    0.000    0.000    0.000    0.000    0.000    0.000 
#
# Total GULP energy -396453.649895 kJ/mol
# GULP energy per Si atom -12389.176559 kJ/mol
# Density = 1.869768 g / cm^3
# Si number density = 18.740331 Si / 1000 Ang^3
#
#
#
# Elastic Constant Matrix: (Units=GPa)
#
#
# Indices 1 2 3 4 5 6 
#
# 1 61.5856 23.2045 21.9190 0.0000 -25.8002 0.0000
# 2 23.2045 88.0995 38.9524 0.0000 -9.7548 0.0000
# 3 21.9190 38.9524 104.9586 0.0000 -18.1851 0.0000
# 4 0.0000 0.0000 0.0000 15.9435 0.0000 -3.0820
# 5 -25.8002 -9.7548 -18.1851 0.0000 23.0996 0.0000
# 6 0.0000 0.0000 0.0000 -3.0820 0.0000 13.8392
#
#
#
# Elastic Compliance Matrix: (Units=1/GPa)
#
#
# Indices 1 2 3 4 5 6 
#
# 1 0.032412 -0.005205 0.001221 0.000000 0.034964 0.000000
# 2 -0.005205 0.014499 -0.004910 0.000000 -0.003557 0.000000
# 3 0.001221 -0.004910 0.012705 0.000000 0.009292 0.000000
# 4 0.000000 0.000000 0.000000 0.065543 0.000000 0.014596
# 5 0.034964 -0.003557 0.009292 0.000000 0.088156 0.000000
# 6 0.000000 0.000000 0.000000 0.014596 0.000000 0.075509
#
#
# Mechanical properties :
#
#
# Convention : Reuss Voigt Hill
#
# Bulk Modulus (GPa) = 23.90811 46.97730 35.44271
# Shear Modulus (GPa) = 15.59794 21.94765 18.77279
#
# Velocity S-wave (km/s) = 2.88812 3.42591 3.16845
# Velocity P-wave (km/s) = 4.88947 6.38522 5.68674
#
# Compressibility (1/GPa) = 0.04182680
#
# Stress axis : x y z
#
# Youngs Moduli (GPa) = 30.85278 68.97036 78.71089
#
# Poissons Ratio (x) = 0.35902 -0.09611
# Poissons Ratio (y) = 0.16060 0.38647
# Poissons Ratio (z) = -0.03767 0.33865
#
# Static dielectric constant tensor:
#      x y z
#    x 3.183110 0.000000 -0.127190 
#    y 0.000000 3.620770 0.000000 
#    z -0.127190 0.000000 3.902470 
# 
# 
# High freq. dielectric constant tensor:
#      x y z
#    x 1.701840 0.000000 -0.002890 
#    y 0.000000 1.733940 0.000000 
#    z -0.002890 0.000000 1.728190 
# 
# From -- ./inp_files/65859.got.cif
#   From: 2010.03.12/outbox.cif.g09.slc.cpg/sg14_33_cif.got.tgz:65859.got - 2010.03.31 13:35:05.
