data_PCOD8125735
_publ_section_title
;
Structure prediction by ZEFSAII (Michael W. Deem and Ramdas Pophale) SiO2 
 PCOD8125735
Probable space group: P 21/C
;
_chemical_formula_sum "Si O2"
_cell_formula_units_Z 28
_cell_length_a 11.684942
_cell_length_b 9.282773
_cell_length_c 15.393315
_cell_angle_alpha 90.000000
_cell_angle_beta 124.031761
_cell_angle_gamma 90.000000
_cell_volume 1383.719880
_symmetry_space_group_name_H-M "P 21/C"
_symmetry_group_IT_number 14
_symmetry_cell_setting 'monoclinic'
loop_
_space_group_symop_operation_xyz
x,y,z
-x,1/2+y,1/2-z
-x,-y,-z
x,1/2-y,1/2+z
loop_
_atom_site_type_symbol
_atom_site_label
_atom_site_fract_x
_atom_site_fract_y
_atom_site_fract_z
Si Si1 0.956294 0.241644 0.745443
Si Si2 0.708727 0.943845 0.921095
Si Si3 0.385417 0.546935 0.289168
Si Si4 0.179927 0.028055 0.846628
Si Si5 0.204371 0.372135 0.094315
Si Si6 0.081548 0.878807 0.447988
Si Si7 0.207248 0.698309 0.656946
O O1 0.938237 0.414874 0.737163
O O2 0.873031 0.182453 0.625856
O O3 0.895582 0.171254 0.806901
O O4 0.115545 0.188631 0.808748
O O5 0.547163 0.943756 0.871067
O O6 0.767515 0.787790 0.924381
O O7 0.739519 0.044043 0.851872
O O8 0.784321 0.003966 0.038307
O O9 0.318846 0.488877 0.350127
O O10 0.344447 0.438462 0.193874
O O11 0.335158 0.707254 0.244768
O O12 0.085889 0.386744 0.118269
O O13 0.151340 0.464026 0.988677
O O14 0.128010 0.776289 0.545740
#
# Coordination Sequence:
#
# PCOD8125735 Si02
#       7
#     4   4   4   4   4   4   4
#     4  11  23  39  63  93 124 149 199 262 312 354
#     4  12  23  39  62  91 122 160 214 244 288 373
#     4  10  22  43  60  83 126 171 199 240 307 366
#     4  11  24  39  63  90 121 162 200 256 308 361
#     4  10  22  37  65  88 117 165 200 247 309 367
#     4  10  20  42  61  88 127 155 197 255 321 358
#     4  10  23  39  63  93 122 157 202 260 307 349
#
# _framework density 20.235309000000001
#
# number of rings (size 3 to 8) (size 9 to 14) (size 15 to 20)
#    0.000    1.429    2.857    2.143    6.000    1.143 
#    0.000    0.000    0.000    3.429    0.000    0.000 
#    0.000    0.000    0.000    0.000    0.000    0.000 
#
# Total GULP energy -347234.008227 kJ/mol
# GULP energy per Si atom -12401.214580 kJ/mol
# Density = 2.018925 g / cm^3
# Si number density = 20.235309 Si / 1000 Ang^3
#
#
#
# Elastic Constant Matrix: (Units=GPa)
#
#
# Indices 1 2 3 4 5 6 
#
# 1 82.1106 52.3298 41.7841 0.0000 -3.8541 0.0000
# 2 52.3298 105.1098 22.9403 0.0000 1.7931 0.0000
# 3 41.7841 22.9403 86.1730 0.0000 -8.5130 0.0000
# 4 0.0000 0.0000 0.0000 23.0604 0.0000 -3.8899
# 5 -3.8541 1.7931 -8.5130 0.0000 36.0408 0.0000
# 6 0.0000 0.0000 0.0000 -3.8899 0.0000 20.4720
#
#
#
# Elastic Compliance Matrix: (Units=1/GPa)
#
#
# Indices 1 2 3 4 5 6 
#
# 1 0.022400 -0.009360 -0.008280 0.000000 0.000905 0.000000
# 2 -0.009360 0.014060 0.000643 0.000000 -0.001549 0.000000
# 3 -0.008280 0.000643 0.015725 0.000000 0.002797 0.000000
# 4 0.000000 0.000000 0.000000 0.044800 0.000000 0.008513
# 5 0.000905 -0.001549 0.002797 0.000000 0.028581 0.000000
# 6 0.000000 0.000000 0.000000 0.008513 0.000000 0.050465
#
#
# Mechanical properties :
#
#
# Convention : Reuss Voigt Hill
#
# Bulk Modulus (GPa) = 54.97746 56.38909 55.68327
# Shear Modulus (GPa) = 23.13850 26.33726 24.73788
#
# Velocity S-wave (km/s) = 3.38519 3.61161 3.50024
# Velocity P-wave (km/s) = 6.51977 6.73193 6.62670
#
# Compressibility (1/GPa) = 0.01818927
#
# Stress axis : x y z
#
# Youngs Moduli (GPa) = 44.64223 71.12298 63.59399
#
# Poissons Ratio (x) = 0.66574 0.52658
# Poissons Ratio (y) = 0.41787 -0.04088
# Poissons Ratio (z) = 0.36965 -0.04572
#
# Static dielectric constant tensor:
#      x y z
#    x 3.493360 0.000000 -0.125190 
#    y 0.000000 3.694090 0.000000 
#    z -0.125190 0.000000 3.784450 
# 
# 
# High freq. dielectric constant tensor:
#      x y z
#    x 1.770860 0.000000 -0.011130 
#    y 0.000000 1.793460 0.000000 
#    z -0.011130 0.000000 1.804700 
# 
# From -- ./inp_files/43301.got.cif
#   From: 2010.03.12/outbox.cif.g09.slc.cpg/sg14_22_cif.got.tgz:43301.got - 2010.03.31 13:35:05.
