data_PCOD8125626
_publ_section_title
;
Structure prediction by ZEFSAII (Michael W. Deem and Ramdas Pophale) SiO2 
 PCOD8125626
Probable space group: P 21/C
;
_chemical_formula_sum "Si O2"
_cell_formula_units_Z 20
_cell_length_a 8.217238
_cell_length_b 4.868828
_cell_length_c 27.791216
_cell_angle_alpha 90.000000
_cell_angle_beta 53.747979
_cell_angle_gamma 90.000000
_cell_volume 896.646290
_symmetry_space_group_name_H-M "P 21/C"
_symmetry_group_IT_number 14
_symmetry_cell_setting 'monoclinic'
loop_
_space_group_symop_operation_xyz
x,y,z
-x,1/2+y,1/2-z
-x,-y,-z
x,1/2-y,1/2+z
loop_
_atom_site_type_symbol
_atom_site_label
_atom_site_fract_x
_atom_site_fract_y
_atom_site_fract_z
Si Si1 0.805678 0.615307 0.687682
Si Si2 0.569556 0.110180 0.373839
Si Si3 0.380594 0.252174 0.999996
Si Si4 0.443544 0.115262 0.187692
Si Si5 0.064889 0.389789 0.126151
O O1 0.735149 0.750022 0.749994
O O2 0.619433 0.500019 0.690277
O O3 0.951836 0.358963 0.673026
O O4 0.917395 0.857582 0.638724
O O5 0.393914 0.231800 0.439618
O O6 0.644006 0.358909 0.326958
O O7 0.472363 0.857529 0.361268
O O8 0.761938 0.000002 0.369044
O O9 0.500000 0.500000 0.000000
O O10 0.152395 0.268195 0.060367
O O11 0.500000 0.000000 0.000000
#
# Coordination Sequence:
#
# PCOD8125626 Si02
#       5
#     4   4   4   4   4
#     4  12  25  44  64  90 132 173 207 257 325 378
#     4  11  23  42  69  97 124 163 216 263 308 377
#     4  10  20  40  65  94 131 164 199 260 331 370
#     4  12  25  44  64  90 132 173 207 257 325 378
#     4  11  23  42  69  97 124 163 216 263 308 377
#
# _framework density 22.305340999999999
#
# number of rings (size 3 to 8) (size 9 to 14) (size 15 to 20)
#    0.000    0.800    0.000   10.800    0.000    3.200 
#    0.000   10.000    0.000    0.000    0.000    0.000 
#    0.000    0.000    0.000    0.000    0.000    0.000 
#
# Total GULP energy -247955.040928 kJ/mol
# GULP energy per Si atom -12397.752046 kJ/mol
# Density = 2.225457 g / cm^3
# Si number density = 22.305341 Si / 1000 Ang^3
#
#
#
# Elastic Constant Matrix: (Units=GPa)
#
#
# Indices 1 2 3 4 5 6 
#
# 1 53.0182 39.7607 62.8564 0.0000 -0.6509 0.0000
# 2 39.7607 188.1789 75.1012 0.0000 -0.5195 0.0000
# 3 62.8564 75.1012 145.0193 0.0000 -0.7081 0.0000
# 4 0.0000 0.0000 0.0000 45.2477 0.0000 0.1699
# 5 -0.6509 -0.5195 -0.7081 0.0000 17.3527 0.0000
# 6 0.0000 0.0000 0.0000 0.1699 0.0000 57.2454
#
#
#
# Elastic Compliance Matrix: (Units=1/GPa)
#
#
# Indices 1 2 3 4 5 6 
#
# 1 0.039340 -0.001899 -0.016064 0.000000 0.000763 0.000000
# 2 -0.001899 0.006790 -0.002693 0.000000 0.000022 0.000000
# 3 -0.016064 -0.002693 0.015253 0.000000 -0.000061 0.000000
# 4 0.000000 0.000000 0.000000 0.022101 0.000000 -0.000066
# 5 0.000763 0.000022 -0.000061 0.000000 0.057655 0.000000
# 6 0.000000 0.000000 0.000000 -0.000066 0.000000 0.017469
#
#
# Mechanical properties :
#
#
# Convention : Reuss Voigt Hill
#
# Bulk Modulus (GPa) = 49.82494 82.40590 66.11542
# Shear Modulus (GPa) = 24.20012 37.86903 31.03458
#
# Velocity S-wave (km/s) = 3.29743 4.12485 3.73413
# Velocity P-wave (km/s) = 6.07318 7.72726 6.94961
#
# Compressibility (1/GPa) = 0.02007027
#
# Stress axis : x y z
#
# Youngs Moduli (GPa) = 25.41941 147.26947 65.56138
#
# Poissons Ratio (x) = 0.27966 1.05319
# Poissons Ratio (y) = 0.04827 0.17658
# Poissons Ratio (z) = 0.40834 0.39664
#
# Static dielectric constant tensor:
#      x y z
#    x 3.668490 0.000000 -0.002780 
#    y 0.000000 4.596420 0.000000 
#    z -0.002780 0.000000 3.862030 
# 
# 
# High freq. dielectric constant tensor:
#      x y z
#    x 1.843210 0.000000 -0.000650 
#    y 0.000000 1.915460 0.000000 
#    z -0.000650 0.000000 1.888160 
# 
# From -- ./inp_files/75994.got.cif
#   From: 2010.03.12/outbox.cif.g09.slc.cpg/sg14_38_cif.got.tgz:75994.got - 2010.03.31 13:35:05.
