data_PCOD8125590
_publ_section_title
;
Structure prediction by ZEFSAII (Michael W. Deem and Ramdas Pophale) SiO2 
 PCOD8125590
Probable space group: P 21/C
;
_chemical_formula_sum "Si O2"
_cell_formula_units_Z 20
_cell_length_a 10.027815
_cell_length_b 12.061258
_cell_length_c 8.733727
_cell_angle_alpha 90.000000
_cell_angle_beta 60.657994
_cell_angle_gamma 90.000000
_cell_volume 920.811398
_symmetry_space_group_name_H-M "P 21/C"
_symmetry_group_IT_number 14
_symmetry_cell_setting 'monoclinic'
loop_
_space_group_symop_operation_xyz
x,y,z
-x,1/2+y,1/2-z
-x,-y,-z
x,1/2-y,1/2+z
loop_
_atom_site_type_symbol
_atom_site_label
_atom_site_fract_x
_atom_site_fract_y
_atom_site_fract_z
Si Si1 0.240806 0.366167 0.158704
Si Si2 0.318684 0.772334 0.866027
Si Si3 0.470840 0.189263 0.998404
Si Si4 0.161730 0.155333 0.052076
Si Si5 0.835857 0.107964 0.316655
O O1 0.141920 0.287304 0.099692
O O2 0.167678 0.363569 0.368393
O O3 0.239386 0.490845 0.095496
O O4 0.414324 0.317456 0.061317
O O5 0.415446 0.687445 0.708647
O O6 0.219018 0.856088 0.821605
O O7 0.436068 0.846960 0.902498
O O8 0.207574 0.700154 0.035133
O O9 0.320363 0.114137 0.047042
O O10 0.018965 0.090791 0.205881
#
# Coordination Sequence:
#
# PCOD8125590 Si02
#       5
#     4   4   4   4   4
#     4  10  21  40  68  83 121 164 202 237 310 357
#     4  10  21  36  61  89 125 154 197 253 292 349
#     4   9  18  40  59  79 123 162 189 245 301 345
#     4  10  20  40  64  85 120 162 201 250 292 357
#     4  11  23  39  64  92 120 158 203 249 300 349
#
# _framework density 21.719975000000002
#
# number of rings (size 3 to 8) (size 9 to 14) (size 15 to 20)
#    1.200    0.800    2.000    1.800    0.000    3.200 
#    0.000    9.000    4.400    0.000    0.000    0.000 
#    0.000    0.000    0.000    0.000    0.000    0.000 
#
# Total GULP energy -247817.751246 kJ/mol
# GULP energy per Si atom -12390.887562 kJ/mol
# Density = 2.167054 g / cm^3
# Si number density = 21.719975 Si / 1000 Ang^3
#
#
#
# Elastic Constant Matrix: (Units=GPa)
#
#
# Indices 1 2 3 4 5 6 
#
# 1 80.9980 -9.0373 26.5561 0.0000 1.1486 0.0000
# 2 -9.0373 59.3408 -2.1037 0.0000 9.2137 0.0000
# 3 26.5561 -2.1037 81.6225 0.0000 -6.9430 0.0000
# 4 0.0000 0.0000 0.0000 20.6048 0.0000 2.0158
# 5 1.1486 9.2137 -6.9430 0.0000 29.6201 0.0000
# 6 0.0000 0.0000 0.0000 2.0158 0.0000 13.9498
#
#
#
# Elastic Compliance Matrix: (Units=1/GPa)
#
#
# Indices 1 2 3 4 5 6 
#
# 1 0.014207 0.002368 -0.004766 0.000000 -0.002405 0.000000
# 2 0.002368 0.018102 -0.000807 0.000000 -0.005912 0.000000
# 3 -0.004766 -0.000807 0.014099 0.000000 0.003741 0.000000
# 4 0.000000 0.000000 0.000000 0.049228 0.000000 -0.007114
# 5 -0.002405 -0.005912 0.003741 0.000000 0.036570 0.000000
# 6 0.000000 0.000000 0.000000 -0.007114 0.000000 0.072713
#
#
# Mechanical properties :
#
#
# Convention : Reuss Voigt Hill
#
# Bulk Modulus (GPa) = 25.00057 28.08794 26.54426
# Shear Modulus (GPa) = 22.25570 26.60469 24.43020
#
# Velocity S-wave (km/s) = 3.20451 3.50365 3.35741
# Velocity P-wave (km/s) = 5.02267 5.41547 5.22277
#
# Compressibility (1/GPa) = 0.03999909
#
# Stress axis : x y z
#
# Youngs Moduli (GPa) = 70.38895 55.24325 70.92473
#
# Poissons Ratio (x) = -0.13082 0.33801
# Poissons Ratio (y) = -0.16668 0.05722
# Poissons Ratio (z) = 0.33545 0.04457
#
# Static dielectric constant tensor:
#      x y z
#    x 4.008150 0.000000 0.031300 
#    y 0.000000 3.410000 0.000000 
#    z 0.031300 0.000000 3.868380 
# 
# 
# High freq. dielectric constant tensor:
#      x y z
#    x 1.857150 0.000000 -0.003390 
#    y 0.000000 1.805010 0.000000 
#    z -0.003390 0.000000 1.862240 
# 
# From -- ./inp_files/12050.got.cif
#   From: 2010.03.12/outbox.cif.g09.slc.cpg/sg14_7_cif.got.tgz:12050.got - 2010.03.31 13:35:05.
