data_PCOD8125673
_publ_section_title
;
Structure prediction by ZEFSAII (Michael W. Deem and Ramdas Pophale) SiO2 
 PCOD8125673
Probable space group: P 21/C
;
_chemical_formula_sum "Si O2"
_cell_formula_units_Z 20
_cell_length_a 12.793549
_cell_length_b 10.307494
_cell_length_c 15.809517
_cell_angle_alpha 90.000000
_cell_angle_beta 26.547411
_cell_angle_gamma 90.000000
_cell_volume 931.773176
_symmetry_space_group_name_H-M "P 21/C"
_symmetry_group_IT_number 14
_symmetry_cell_setting 'monoclinic'
loop_
_space_group_symop_operation_xyz
x,y,z
-x,1/2+y,1/2-z
-x,-y,-z
x,1/2-y,1/2+z
loop_
_atom_site_type_symbol
_atom_site_label
_atom_site_fract_x
_atom_site_fract_y
_atom_site_fract_z
Si Si1 0.549318 0.790368 0.008063
Si Si2 0.287775 0.103351 0.348019
Si Si3 0.680880 0.380908 0.688900
Si Si4 0.820580 0.483425 0.253114
Si Si5 0.794487 0.851933 0.189944
O O1 0.471442 0.730514 0.153952
O O2 0.327781 0.854270 0.119503
O O3 0.755484 0.900894 0.866197
O O4 0.638978 0.675133 0.884372
O O5 0.540116 0.078452 0.207017
O O6 0.268474 0.023877 0.275870
O O7 0.256400 0.256064 0.351777
O O8 0.094198 0.050955 0.555325
O O9 0.729619 0.502506 0.713605
O O10 0.935152 0.327745 0.479001
#
# Coordination Sequence:
#
# PCOD8125673 Si02
#       5
#     4   4   4   4   4
#     4  10  20  41  63  85 126 158 198 258 301 357
#     4  10  21  40  67  87 121 167 203 250 305 366
#     4  11  23  40  63  91 123 166 198 257 307 362
#     4   9  20  40  63  89 120 159 205 253 298 361
#     4  10  23  41  60  90 129 158 204 251 310 361
#
# _framework density 21.464451
#
# number of rings (size 3 to 8) (size 9 to 14) (size 15 to 20)
#    0.000    2.000    2.000    0.600    2.800    0.000 
#   14.400    0.000    0.000    0.000    0.000    0.000 
#    0.000    0.000    0.000    0.000    0.000    0.000 
#
# Total GULP energy -247937.157852 kJ/mol
# GULP energy per Si atom -12396.857893 kJ/mol
# Density = 2.141560 g / cm^3
# Si number density = 21.464451 Si / 1000 Ang^3
#
#
#
# Elastic Constant Matrix: (Units=GPa)
#
#
# Indices 1 2 3 4 5 6 
#
# 1 71.5282 8.7148 34.1207 0.0000 -24.4582 0.0000
# 2 8.7148 68.0551 30.5694 0.0000 0.8935 0.0000
# 3 34.1207 30.5694 115.0864 0.0000 -12.2764 0.0000
# 4 0.0000 0.0000 0.0000 42.0899 0.0000 6.9795
# 5 -24.4582 0.8935 -12.2764 0.0000 28.4532 0.0000
# 6 0.0000 0.0000 0.0000 6.9795 0.0000 18.5743
#
#
#
# Elastic Compliance Matrix: (Units=1/GPa)
#
#
# Indices 1 2 3 4 5 6 
#
# 1 0.022071 -0.001056 -0.004440 0.000000 0.017089 0.000000
# 2 -0.001056 0.016914 -0.004542 0.000000 -0.003399 0.000000
# 3 -0.004440 -0.004542 0.011342 0.000000 0.001220 0.000000
# 4 0.000000 0.000000 0.000000 0.025337 0.000000 -0.009521
# 5 0.017089 -0.003399 0.001220 0.000000 0.050468 0.000000
# 6 0.000000 0.000000 0.000000 -0.009521 0.000000 0.057416
#
#
# Mechanical properties :
#
#
# Convention : Reuss Voigt Hill
#
# Bulk Modulus (GPa) = 33.05777 44.60884 38.83331
# Shear Modulus (GPa) = 23.39638 29.90777 26.65208
#
# Velocity S-wave (km/s) = 3.30511 3.73683 3.52758
# Velocity P-wave (km/s) = 5.47719 6.28063 5.89262
#
# Compressibility (1/GPa) = 0.03025007
#
# Stress axis : x y z
#
# Youngs Moduli (GPa) = 45.30908 59.12212 88.16711
#
# Poissons Ratio (x) = 0.06245 0.39146
# Poissons Ratio (y) = 0.04786 0.40047
# Poissons Ratio (z) = 0.20117 0.26854
#
# Static dielectric constant tensor:
#      x y z
#    x 3.297780 0.000000 -0.085300 
#    y 0.000000 3.975670 0.000000 
#    z -0.085300 0.000000 4.232640 
# 
# 
# High freq. dielectric constant tensor:
#      x y z
#    x 1.788600 0.000000 -0.001840 
#    y 0.000000 1.854800 0.000000 
#    z -0.001840 0.000000 1.864130 
# 
# From -- ./inp_files/28429.got.cif
#   From: 2010.03.12/outbox.cif.g09.slc.cpg/sg14_15_cif.got.tgz:28429.got - 2010.03.31 13:35:05.
