data_PCOD8125828
_publ_section_title
;
Structure prediction by ZEFSAII (Michael W. Deem and Ramdas Pophale) SiO2 
 PCOD8125828
Probable space group: P 21/C
;
_chemical_formula_sum "Si O2"
_cell_formula_units_Z 32
_cell_length_a 22.541162
_cell_length_b 11.816191
_cell_length_c 16.639126
_cell_angle_alpha 90.000000
_cell_angle_beta 158.911964
_cell_angle_gamma 90.000000
_cell_volume 1594.585729
_symmetry_space_group_name_H-M "P 21/C"
_symmetry_group_IT_number 14
_symmetry_cell_setting 'monoclinic'
loop_
_space_group_symop_operation_xyz
x,y,z
-x,1/2+y,1/2-z
-x,-y,-z
x,1/2-y,1/2+z
loop_
_atom_site_type_symbol
_atom_site_label
_atom_site_fract_x
_atom_site_fract_y
_atom_site_fract_z
Si Si1 0.343893 0.990980 0.414322
Si Si2 0.361462 0.229397 0.523014
Si Si3 0.713076 0.989584 0.837554
Si Si4 0.692522 0.235921 0.543511
Si Si5 0.492010 0.372625 0.398754
Si Si6 0.185742 0.270708 0.455494
Si Si7 0.831158 0.218391 0.061301
Si Si8 0.450144 0.619680 0.343202
O O1 0.337842 0.101859 0.462246
O O2 0.244771 0.008333 0.204878
O O3 0.525548 0.952769 0.617034
O O4 0.269277 0.889344 0.373763
O O5 0.526557 0.253197 0.781691
O O6 0.209851 0.265346 0.389020
O O7 0.386537 0.311466 0.478753
O O8 0.827043 0.898202 0.026765
O O9 0.735200 0.110203 0.906812
O O10 0.662177 0.321446 0.578406
O O11 0.839480 0.276992 0.669910
O O12 0.454001 0.493938 0.309711
O O13 0.534167 0.388712 0.543200
O O14 0.333640 0.293567 0.186890
O O15 0.013148 0.211863 0.255986
O O16 0.726953 0.327474 0.902118
#
# Coordination Sequence:
#
# PCOD8125828 Si02
#       8
#     4   4   4   4   4   4   4   4
#     4  11  20  39  65  93 112 155 212 250 284 350
#     4  10  21  34  62  87 119 151 201 243 287 349
#     4  11  22  39  65  87 122 156 198 250 300 351
#     4  10  21  34  62  87 119 151 201 243 287 349
#     4  10  21  38  61  85 116 153 196 242 289 350
#     4  11  25  38  59  89 124 154 193 245 303 353
#     4  11  25  38  59  89 124 154 193 245 303 353
#     4  10  21  38  61  85 116 153 196 242 289 350
#
# _framework density 20.067907999999999
#
# number of rings (size 3 to 8) (size 9 to 14) (size 15 to 20)
#    0.000    1.500    5.000    1.500   10.500    0.000 
#    0.000    6.250    0.000    3.000    0.000    0.000 
#    0.000    0.000    0.000    0.000    0.000    0.000 
#
# Total GULP energy -396639.669457 kJ/mol
# GULP energy per Si atom -12394.989671 kJ/mol
# Density = 2.002223 g / cm^3
# Si number density = 20.067908 Si / 1000 Ang^3
#
#
#
# Elastic Constant Matrix: (Units=GPa)
#
#
# Indices 1 2 3 4 5 6 
#
# 1 110.5273 46.4907 28.7435 0.0000 2.3444 0.0000
# 2 46.4907 127.3996 9.0620 0.0000 -10.6894 0.0000
# 3 28.7435 9.0620 32.5311 0.0000 11.5724 0.0000
# 4 0.0000 0.0000 0.0000 12.0103 0.0000 -7.1381
# 5 2.3444 -10.6894 11.5724 0.0000 31.3466 0.0000
# 6 0.0000 0.0000 0.0000 -7.1381 0.0000 37.6644
#
#
#
# Elastic Compliance Matrix: (Units=1/GPa)
#
#
# Indices 1 2 3 4 5 6 
#
# 1 0.013742 -0.004021 -0.011706 0.000000 0.001923 0.000000
# 2 -0.004021 0.009668 -0.000484 0.000000 0.003776 0.000000
# 3 -0.011706 -0.000484 0.047158 0.000000 -0.016699 0.000000
# 4 0.000000 0.000000 0.000000 0.093831 0.000000 0.017783
# 5 0.001923 0.003776 -0.016699 0.000000 0.039210 0.000000
# 6 0.000000 0.000000 0.000000 0.017783 0.000000 0.029920
#
#
# Mechanical properties :
#
#
# Convention : Reuss Voigt Hill
#
# Bulk Modulus (GPa) = 26.21450 48.78339 37.49894
# Shear Modulus (GPa) = 17.94260 28.61506 23.27883
#
# Velocity S-wave (km/s) = 2.99338 3.78022 3.40958
# Velocity P-wave (km/s) = 5.00384 6.58903 5.85037
#
# Compressibility (1/GPa) = 0.03814683
#
# Stress axis : x y z
#
# Youngs Moduli (GPa) = 72.76784 103.43572 21.20524
#
# Poissons Ratio (x) = 0.41590 0.24823
# Poissons Ratio (y) = 0.29259 0.01026
# Poissons Ratio (z) = 0.85184 0.05003
#
# Static dielectric constant tensor:
#      x y z
#    x 4.625520 0.000000 0.089690 
#    y 0.000000 4.286950 0.000000 
#    z 0.089690 0.000000 3.181600 
# 
# 
# High freq. dielectric constant tensor:
#      x y z
#    x 1.807100 0.000000 -0.006360 
#    y 0.000000 1.796140 0.000000 
#    z -0.006360 0.000000 1.730830 
# 
# From -- ./inp_files/62001.got.cif
#   From: 2010.03.12/outbox.cif.g09.slc.cpg/sg14_32_cif.got.tgz:62001.got - 2010.03.31 13:35:05.
