data_PCOD8125272
_publ_section_title
;
Structure prediction by ZEFSAII (Michael W. Deem and Ramdas Pophale) SiO2 
 PCOD8125272
Probable space group: P 21/C
;
_chemical_formula_sum "Si O2"
_cell_formula_units_Z 28
_cell_length_a 9.585826
_cell_length_b 20.045689
_cell_length_c 15.869466
_cell_angle_alpha 90.000000
_cell_angle_beta 154.357584
_cell_angle_gamma 90.000000
_cell_volume 1319.633059
_symmetry_space_group_name_H-M "P 21/C"
_symmetry_group_IT_number 14
_symmetry_cell_setting 'monoclinic'
loop_
_space_group_symop_operation_xyz
x,y,z
-x,1/2+y,1/2-z
-x,-y,-z
x,1/2-y,1/2+z
loop_
_atom_site_type_symbol
_atom_site_label
_atom_site_fract_x
_atom_site_fract_y
_atom_site_fract_z
Si Si1 0.246135 0.948239 0.598672
Si Si2 0.469696 0.467138 0.073153
Si Si3 0.102004 0.398673 0.481412
Si Si4 0.845326 0.822495 0.823666
Si Si5 0.919103 0.837835 0.674386
Si Si6 0.795875 0.195355 0.442861
Si Si7 0.467871 0.290287 0.591918
O O1 0.055403 0.877348 0.496203
O O2 0.341451 0.971679 0.557947
O O3 0.570677 0.941865 0.831194
O O4 0.000000 0.000000 0.500000
O O5 0.820233 0.445664 0.296548
O O6 0.500000 0.500000 0.000000
O O7 0.225884 0.404685 0.945551
O O8 0.002979 0.366232 0.517891
O O9 0.173318 0.341332 0.450303
O O10 0.952671 0.851718 0.792504
O O11 0.461476 0.820683 0.623984
O O12 0.939801 0.744802 0.878752
O O13 0.674715 0.776755 0.525594
O O14 0.271210 0.823184 0.828524
O O15 0.631505 0.227495 0.270495
#
# Coordination Sequence:
#
# PCOD8125272 Si02
#       7
#     4   4   4   4   4   4   4
#     4  10  22  40  62  89 124 162 203 246 302 380
#     4  12  24  41  62  85 123 166 206 252 300 361
#     4  10  23  43  63  87 119 164 208 248 305 365
#     4  10  21  37  60  88 118 150 198 253 300 355
#     4  12  22  37  60  93 121 155 198 256 310 352
#     4  10  20  38  58  87 116 155 196 237 300 363
#     4  10  21  38  63  91 121 152 199 258 309 356
#
# _framework density 21.218019999999999
#
# number of rings (size 3 to 8) (size 9 to 14) (size 15 to 20)
#    0.000    1.714    0.000    8.143    0.000    2.286 
#    0.000    5.714    0.000    0.000    0.000    0.000 
#    0.000    0.000    0.000    0.000    0.000    0.000 
#
# Total GULP energy -347148.758154 kJ/mol
# GULP energy per Si atom -12398.169934 kJ/mol
# Density = 2.116973 g / cm^3
# Si number density = 21.218020 Si / 1000 Ang^3
#
#
#
# Elastic Constant Matrix: (Units=GPa)
#
#
# Indices 1 2 3 4 5 6 
#
# 1 98.0906 6.2507 20.7837 0.0000 -7.9897 0.0000
# 2 6.2507 94.7100 47.7520 0.0000 -11.0979 0.0000
# 3 20.7837 47.7520 56.2560 0.0000 -10.0705 0.0000
# 4 0.0000 0.0000 0.0000 42.0320 0.0000 5.1963
# 5 -7.9897 -11.0979 -10.0705 0.0000 17.3858 0.0000
# 6 0.0000 0.0000 0.0000 5.1963 0.0000 33.6438
#
#
#
# Elastic Compliance Matrix: (Units=1/GPa)
#
#
# Indices 1 2 3 4 5 6 
#
# 1 0.011558 0.002599 -0.005833 0.000000 0.003592 0.000000
# 2 0.002599 0.019186 -0.016556 0.000000 0.003851 0.000000
# 3 -0.005833 -0.016556 0.035270 0.000000 0.007180 0.000000
# 4 0.000000 0.000000 0.000000 0.024255 0.000000 -0.003746
# 5 0.003592 0.003851 0.007180 0.000000 0.065786 0.000000
# 6 0.000000 0.000000 0.000000 -0.003746 0.000000 0.030302
#
#
# Mechanical properties :
#
#
# Convention : Reuss Voigt Hill
#
# Bulk Modulus (GPa) = 37.83237 44.29216 41.06226
# Shear Modulus (GPa) = 21.29945 30.23036 25.76490
#
# Velocity S-wave (km/s) = 3.17178 3.77868 3.48845
# Velocity P-wave (km/s) = 5.59308 6.32123 5.96827
#
# Compressibility (1/GPa) = 0.02643239
#
# Stress axis : x y z
#
# Youngs Moduli (GPa) = 86.52372 52.12153 28.35271
#
# Poissons Ratio (x) = -0.13547 0.16539
# Poissons Ratio (y) = -0.22489 0.46942
# Poissons Ratio (z) = 0.50471 0.86295
#
# Static dielectric constant tensor:
#      x y z
#    x 3.554380 0.000000 -0.170020 
#    y 0.000000 8.621560 0.000000 
#    z -0.170020 0.000000 3.538550 
# 
# 
# High freq. dielectric constant tensor:
#      x y z
#    x 1.842450 0.000000 0.002760 
#    y 0.000000 1.844650 0.000000 
#    z 0.002760 0.000000 1.809500 
# 
# From -- ./inp_files/42076.got.cif
#   From: 2010.03.12/outbox.cif.g09.slc.cpg/sg14_22_cif.got.tgz:42076.got - 2010.03.31 13:35:05.
