data_PCOD8125926
_publ_section_title
;
Structure prediction by ZEFSAII (Michael W. Deem and Ramdas Pophale) SiO2 
 PCOD8125926
Probable space group: P 21/C
;
_chemical_formula_sum "Si O2"
_cell_formula_units_Z 24
_cell_length_a 30.688141
_cell_length_b 8.559354
_cell_length_c 15.307926
_cell_angle_alpha 90.000000
_cell_angle_beta 18.546072
_cell_angle_gamma 90.000000
_cell_volume 1278.929733
_symmetry_space_group_name_H-M "P 21/C"
_symmetry_group_IT_number 14
_symmetry_cell_setting 'monoclinic'
loop_
_space_group_symop_operation_xyz
x,y,z
-x,1/2+y,1/2-z
-x,-y,-z
x,1/2-y,1/2+z
loop_
_atom_site_type_symbol
_atom_site_label
_atom_site_fract_x
_atom_site_fract_y
_atom_site_fract_z
Si Si1 0.375284 0.705762 0.075339
Si Si2 0.898821 0.158258 0.456688
Si Si3 0.593682 0.142048 0.295913
Si Si4 0.132215 0.528378 0.806151
Si Si5 0.555509 0.653364 0.089518
Si Si6 0.166669 0.323174 0.895336
O O1 0.420677 0.530148 0.967093
O O2 0.460763 0.827254 0.854637
O O3 0.214206 0.720004 0.361902
O O4 0.400053 0.751671 0.130056
O O5 0.902859 0.161712 0.555146
O O6 0.862367 0.981611 0.494040
O O7 0.044850 0.200949 0.139429
O O8 0.527140 0.223656 0.337089
O O9 0.500000 0.000000 0.500000
O O10 0.746407 0.082376 0.986890
O O11 0.177139 0.369437 0.772429
O O12 0.000000 0.500000 0.000000
O O13 0.695210 0.746494 0.833160
#
# Coordination Sequence:
#
# PCOD8125926 Si02
#       6
#     4   4   4   4   4   4
#     4  11  21  39  64  84 122 155 201 248 299 355
#     4  10  21  38  60  88 117 155 202 246 303 347
#     4  10  21  36  63  90 115 164 203 237 293 375
#     4  10  21  38  63  88 117 158 215 239 284 380
#     4  11  21  39  60  91 121 156 203 247 298 362
#     4  10  21  36  61  86 118 156 198 247 304 348
#
# _framework density 18.765691
#
# number of rings (size 3 to 8) (size 9 to 14) (size 15 to 20)
#    1.000    0.667    1.667    5.000    4.667    0.000 
#    0.000    3.333    0.000    3.000    0.000    0.000 
#    0.000    0.000    0.000    0.000    0.000    0.000 
#
# Total GULP energy -297469.198845 kJ/mol
# GULP energy per Si atom -12394.549952 kJ/mol
# Density = 1.872298 g / cm^3
# Si number density = 18.765691 Si / 1000 Ang^3
#
#
#
# Elastic Constant Matrix: (Units=GPa)
#
#
# Indices 1 2 3 4 5 6 
#
# 1 111.8310 12.0511 46.3196 0.0000 -25.7932 0.0000
# 2 12.0511 42.3641 12.0014 0.0000 -10.6970 0.0000
# 3 46.3196 12.0014 123.2376 0.0000 -19.6185 0.0000
# 4 0.0000 0.0000 0.0000 37.9556 0.0000 -3.0800
# 5 -25.7932 -10.6970 -19.6185 0.0000 34.0697 0.0000
# 6 0.0000 0.0000 0.0000 -3.0800 0.0000 30.7588
#
#
#
# Elastic Compliance Matrix: (Units=1/GPa)
#
#
# Indices 1 2 3 4 5 6 
#
# 1 0.012002 -0.000717 -0.003336 0.000000 0.006940 0.000000
# 2 -0.000717 0.025882 -0.001149 0.000000 0.006922 0.000000
# 3 -0.003336 -0.001149 0.009931 0.000000 0.002832 0.000000
# 4 0.000000 0.000000 0.000000 0.026562 0.000000 0.002660
# 5 0.006940 0.006922 0.002832 0.000000 0.038410 0.000000
# 6 0.000000 0.000000 0.000000 0.002660 0.000000 0.032777
#
#
# Mechanical properties :
#
#
# Convention : Reuss Voigt Hill
#
# Bulk Modulus (GPa) = 26.73029 46.46410 36.59720
# Shear Modulus (GPa) = 29.68427 34.36087 32.02257
#
# Velocity S-wave (km/s) = 3.98155 4.28372 4.13539
# Velocity P-wave (km/s) = 5.95081 7.02003 6.50742
#
# Compressibility (1/GPa) = 0.03741074
#
# Stress axis : x y z
#
# Youngs Moduli (GPa) = 83.32014 38.63675 100.69323
#
# Poissons Ratio (x) = 0.02769 0.33595
# Poissons Ratio (y) = 0.05970 0.11572
# Poissons Ratio (z) = 0.27799 0.04440
#
# Static dielectric constant tensor:
#      x y z
#    x 3.979990 0.000000 -0.018950 
#    y 0.000000 3.158010 0.000000 
#    z -0.018950 0.000000 3.615140 
# 
# 
# High freq. dielectric constant tensor:
#      x y z
#    x 1.733370 0.000000 -0.006100 
#    y 0.000000 1.698270 0.000000 
#    z -0.006100 0.000000 1.747940 
# 
# From -- ./inp_files/52220.got.cif
#   From: 2010.03.12/outbox.cif.g09.slc.cpg/sg14_27_cif.got.tgz:52220.got - 2010.03.31 13:35:05.
