data_PCOD8125157
_publ_section_title
;
Structure prediction by ZEFSAII (Michael W. Deem and Ramdas Pophale) SiO2 
 PCOD8125157
Probable space group: P 21/C
;
_chemical_formula_sum "Si O2"
_cell_formula_units_Z 28
_cell_length_a 8.755476
_cell_length_b 12.004266
_cell_length_c 16.302783
_cell_angle_alpha 90.000000
_cell_angle_beta 56.378051
_cell_angle_gamma 90.000000
_cell_volume 1426.824228
_symmetry_space_group_name_H-M "P 21/C"
_symmetry_group_IT_number 14
_symmetry_cell_setting 'monoclinic'
loop_
_space_group_symop_operation_xyz
x,y,z
-x,1/2+y,1/2-z
-x,-y,-z
x,1/2-y,1/2+z
loop_
_atom_site_type_symbol
_atom_site_label
_atom_site_fract_x
_atom_site_fract_y
_atom_site_fract_z
Si Si1 0.397297 0.825941 0.756931
Si Si2 0.464284 0.885328 0.558309
Si Si3 0.174512 0.884068 0.273653
Si Si4 0.209067 0.125040 0.320091
Si Si5 0.918365 0.119282 0.034997
Si Si6 0.146058 0.320769 0.019633
Si Si7 0.130967 0.764454 0.119000
O O1 0.406825 0.899763 0.670827
O O2 0.322353 0.701114 0.766594
O O3 0.596892 0.810392 0.738231
O O4 0.260910 0.892692 0.855935
O O5 0.651446 0.813601 0.501654
O O6 0.302055 0.819529 0.562057
O O7 0.500000 0.000000 0.500000
O O8 0.142057 0.852870 0.189046
O O9 0.983167 0.885097 0.378910
O O10 0.248344 0.008885 0.262327
O O11 0.144225 0.111402 0.434085
O O12 0.057824 0.195249 0.315062
O O13 0.074132 0.195477 0.030002
O O14 0.858465 0.166441 0.966236
O O15 0.000000 0.000000 0.000000
#
# Coordination Sequence:
#
# PCOD8125157 Si02
#       7
#     4   4   4   4   4   4   4
#     4   9  22  38  56  84 112 149 197 230 282 350
#     4  10  20  37  60  88 116 142 187 249 291 325
#     4  10  20  37  59  85 116 143 184 245 285 327
#     4  10  20  38  60  82 113 152 187 231 287 341
#     4  10  22  40  57  77 117 160 189 229 282 344
#     4   9  20  37  59  84 110 146 194 231 282 348
#     4  10  23  37  56  90 116 146 197 233 280 347
#
# _framework density 19.624001
#
# number of rings (size 3 to 8) (size 9 to 14) (size 15 to 20)
#    0.000    2.286    0.000    1.286    0.000   16.000 
#    0.000    2.857    0.000    0.000    0.000    0.000 
#    0.000    0.000    0.000    0.000    0.000    0.000 
#
# Total GULP energy -347196.781593 kJ/mol
# GULP energy per Si atom -12399.885057 kJ/mol
# Density = 1.957934 g / cm^3
# Si number density = 19.624001 Si / 1000 Ang^3
#
#
#
# Elastic Constant Matrix: (Units=GPa)
#
#
# Indices 1 2 3 4 5 6 
#
# 1 153.9722 55.4321 55.2423 0.0000 -16.7544 0.0000
# 2 55.4321 99.3140 53.5192 0.0000 0.3379 0.0000
# 3 55.2423 53.5192 115.9821 0.0000 -15.5092 0.0000
# 4 0.0000 0.0000 0.0000 35.2692 0.0000 0.4302
# 5 -16.7544 0.3379 -15.5092 0.0000 25.8656 0.0000
# 6 0.0000 0.0000 0.0000 0.4302 0.0000 23.3619
#
#
#
# Elastic Compliance Matrix: (Units=1/GPa)
#
#
# Indices 1 2 3 4 5 6 
#
# 1 0.009174 -0.004176 -0.001784 0.000000 0.004928 0.000000
# 2 -0.004176 0.015740 -0.006157 0.000000 -0.006603 0.000000
# 3 -0.001784 -0.006157 0.013230 0.000000 0.006858 0.000000
# 4 0.000000 0.000000 0.000000 0.028360 0.000000 -0.000522
# 5 0.004928 -0.006603 0.006858 0.000000 0.046051 0.000000
# 6 0.000000 0.000000 0.000000 -0.000522 0.000000 0.042814
#
#
# Mechanical properties :
#
#
# Convention : Reuss Voigt Hill
#
# Bulk Modulus (GPa) = 71.88804 77.51728 74.70266
# Shear Modulus (GPa) = 27.13835 30.57098 28.85467
#
# Velocity S-wave (km/s) = 3.72279 3.95123 3.83871
# Velocity P-wave (km/s) = 7.42908 7.77195 7.60245
#
# Compressibility (1/GPa) = 0.01391052
#
# Stress axis : x y z
#
# Youngs Moduli (GPa) = 108.99985 63.53044 75.58692
#
# Poissons Ratio (x) = 0.26531 0.13483
# Poissons Ratio (y) = 0.45520 0.46540
# Poissons Ratio (z) = 0.19443 0.39117
#
# Static dielectric constant tensor:
#      x y z
#    x 3.713040 0.000000 -0.125530 
#    y 0.000000 3.286520 0.000000 
#    z -0.125530 0.000000 3.722700 
# 
# 
# High freq. dielectric constant tensor:
#      x y z
#    x 1.777030 0.000000 -0.006840 
#    y 0.000000 1.749050 0.000000 
#    z -0.006840 0.000000 1.771120 
# 
# From -- ./inp_files/40120.got.cif
#   From: 2010.03.12/outbox.cif.g09.slc.cpg/sg14_21_cif.got.tgz:40120.got - 2010.03.31 13:35:05.
