data_PCOD8125913
_publ_section_title
;
Structure prediction by ZEFSAII (Michael W. Deem and Ramdas Pophale) SiO2 
 PCOD8125913
Probable space group: P 21/C
;
_chemical_formula_sum "Si O2"
_cell_formula_units_Z 28
_cell_length_a 19.934168
_cell_length_b 14.011919
_cell_length_c 9.030283
_cell_angle_alpha 90.000000
_cell_angle_beta 30.707905
_cell_angle_gamma 90.000000
_cell_volume 1288.042663
_symmetry_space_group_name_H-M "P 21/C"
_symmetry_group_IT_number 14
_symmetry_cell_setting 'monoclinic'
loop_
_space_group_symop_operation_xyz
x,y,z
-x,1/2+y,1/2-z
-x,-y,-z
x,1/2-y,1/2+z
loop_
_atom_site_type_symbol
_atom_site_label
_atom_site_fract_x
_atom_site_fract_y
_atom_site_fract_z
Si Si1 0.621286 0.946984 0.842404
Si Si2 0.673588 0.946650 0.301986
Si Si3 0.094391 0.014735 0.678517
Si Si4 0.041935 0.375281 0.768634
Si Si5 0.505812 0.607839 0.848881
Si Si6 0.365424 0.212036 0.388211
Si Si7 0.903834 0.695550 0.025634
O O1 0.757098 0.001904 0.545739
O O2 0.626848 0.833039 0.791028
O O3 0.601308 0.948669 0.055929
O O4 0.500000 0.000000 0.000000
O O5 0.567845 0.903967 0.391515
O O6 0.647531 0.885793 0.497777
O O7 0.639465 0.059816 0.388558
O O8 0.823642 0.935583 0.970123
O O9 0.088576 0.121597 0.624310
O O10 0.066335 0.946671 0.591516
O O11 0.000000 0.000000 0.000000
O O12 0.044105 0.293243 0.641535
O O13 0.008749 0.337031 0.997335
O O14 0.505144 0.723088 0.821781
O O15 0.243059 0.284967 0.634435
#
# Coordination Sequence:
#
# PCOD8125913 Si02
#       7
#     4   4   4   4   4   4   4
#     4  12  24  43  68  99 136 176 227 279 339 400
#     4  10  21  36  60 100 132 174 220 283 331 402
#     4  12  25  42  68 100 138 182 229 289 343 404
#     4  11  22  41  68  98 136 172 230 281 347 400
#     4  11  21  36  63  95 135 167 229 274 333 388
#     4  11  20  39  67  94 128 178 228 271 328 408
#     4  11  22  40  69 103 131 178 234 277 334 426
#
# _framework density 21.738409999999998
#
# number of rings (size 3 to 8) (size 9 to 14) (size 15 to 20)
#    0.000    0.857    4.286    4.714    0.000    0.000 
#    0.000    1.429    3.143    0.000    0.000    0.000 
#    0.000    0.000    0.000    0.000    0.000    0.000 
#
# Total GULP energy -346963.410795 kJ/mol
# GULP energy per Si atom -12391.550386 kJ/mol
# Density = 2.168893 g / cm^3
# Si number density = 21.738410 Si / 1000 Ang^3
#
#
#
# Elastic Constant Matrix: (Units=GPa)
#
#
# Indices 1 2 3 4 5 6 
#
# 1 106.5987 37.6831 36.6959 0.0000 -7.3625 0.0000
# 2 37.6831 104.4051 29.9939 0.0000 -21.3360 0.0000
# 3 36.6959 29.9939 78.8318 0.0000 -5.0041 0.0000
# 4 0.0000 0.0000 0.0000 33.5796 0.0000 2.0012
# 5 -7.3625 -21.3360 -5.0041 0.0000 35.0940 0.0000
# 6 0.0000 0.0000 0.0000 2.0012 0.0000 48.6735
#
#
#
# Elastic Compliance Matrix: (Units=1/GPa)
#
#
# Indices 1 2 3 4 5 6 
#
# 1 0.011981 -0.003050 -0.004415 0.000000 0.000030 0.000000
# 2 -0.003050 0.012951 -0.003077 0.000000 0.006796 0.000000
# 3 -0.004415 -0.003077 0.015877 0.000000 -0.000533 0.000000
# 4 0.000000 0.000000 0.000000 0.029853 0.000000 -0.001227
# 5 0.000030 0.006796 -0.000533 0.000000 0.032557 0.000000
# 6 0.000000 0.000000 0.000000 -0.001227 0.000000 0.020596
#
#
# Mechanical properties :
#
#
# Convention : Reuss Voigt Hill
#
# Bulk Modulus (GPa) = 50.69254 55.39795 53.04524
# Shear Modulus (GPa) = 33.00912 35.83357 34.42135
#
# Velocity S-wave (km/s) = 3.90098 4.06445 3.98356
# Velocity P-wave (km/s) = 6.60759 6.89678 6.75373
#
# Compressibility (1/GPa) = 0.01972677
#
# Stress axis : x y z
#
# Youngs Moduli (GPa) = 83.46578 77.21114 62.98377
#
# Poissons Ratio (x) = 0.23549 0.27806
# Poissons Ratio (y) = 0.25457 0.19378
# Poissons Ratio (z) = 0.36848 0.23756
#
# Static dielectric constant tensor:
#      x y z
#    x 4.031650 0.000000 0.205720 
#    y 0.000000 4.220830 0.000000 
#    z 0.205720 0.000000 3.906360 
# 
# 
# High freq. dielectric constant tensor:
#      x y z
#    x 1.862670 0.000000 0.030780 
#    y 0.000000 1.856570 0.000000 
#    z 0.030780 0.000000 1.830090 
# 
# From -- ./inp_files/19114.got.cif
#   From: 2010.03.12/outbox.cif.g09.slc.cpg/sg14_10_cif.got.tgz:19114.got - 2010.03.31 13:35:05.
