data_PCOD8125640
_publ_section_title
;
Structure prediction by ZEFSAII (Michael W. Deem and Ramdas Pophale) SiO2 
 PCOD8125640
Probable space group: P 21/C
;
_chemical_formula_sum "Si O2"
_cell_formula_units_Z 24
_cell_length_a 14.051485
_cell_length_b 5.161587
_cell_length_c 17.396003
_cell_angle_alpha 90.000000
_cell_angle_beta 58.225839
_cell_angle_gamma 90.000000
_cell_volume 1072.606489
_symmetry_space_group_name_H-M "P 21/C"
_symmetry_group_IT_number 14
_symmetry_cell_setting 'monoclinic'
loop_
_space_group_symop_operation_xyz
x,y,z
-x,1/2+y,1/2-z
-x,-y,-z
x,1/2-y,1/2+z
loop_
_atom_site_type_symbol
_atom_site_label
_atom_site_fract_x
_atom_site_fract_y
_atom_site_fract_z
Si Si1 0.312879 0.282651 0.954044
Si Si2 0.239227 0.916919 0.635480
Si Si3 0.122568 0.049385 0.832781
Si Si4 0.875330 0.377600 0.441237
Si Si5 0.178332 0.561796 0.900350
Si Si6 0.526872 0.248536 0.940079
O O1 0.296815 0.475656 0.888492
O O2 0.446229 0.221529 0.899071
O O3 0.285402 0.399303 0.049283
O O4 0.227875 0.042033 0.979121
O O5 0.154615 0.713892 0.631930
O O6 0.340684 0.762729 0.635517
O O7 0.171619 0.086220 0.726457
O O8 0.129479 0.320227 0.874284
O O9 0.991646 0.965058 0.886298
O O10 0.191489 0.813636 0.841383
O O11 0.895887 0.138982 0.492612
O O12 0.500000 0.500000 0.000000
O O13 0.500000 0.000000 0.000000
#
# Coordination Sequence:
#
# PCOD8125640 Si02
#       6
#     4   4   4   4   4   4
#     4  10  22  42  69  93 123 174 226 267 322 398
#     4  10  25  40  65 101 132 165 220 284 338 381
#     4  12  27  39  65  96 140 169 212 278 338 386
#     4  11  23  41  68  94 131 177 226 263 327 406
#     4  11  25  44  62  94 130 184 218 257 327 411
#     4  10  20  40  66  94 124 165 217 271 321 388
#
# _framework density 22.375402000000001
#
# number of rings (size 3 to 8) (size 9 to 14) (size 15 to 20)
#    0.000    1.333    3.333    1.000    9.333    0.000 
#    0.000    1.667    0.000    0.000    0.000    0.000 
#    0.000    0.000    0.000    0.000    0.000    0.000 
#
# Total GULP energy -297330.416685 kJ/mol
# GULP energy per Si atom -12388.767362 kJ/mol
# Density = 2.232447 g / cm^3
# Si number density = 22.375402 Si / 1000 Ang^3
#
#
#
# Elastic Constant Matrix: (Units=GPa)
#
#
# Indices 1 2 3 4 5 6 
#
# 1 101.6150 39.3953 51.3113 0.0000 13.2661 0.0000
# 2 39.3953 119.6574 21.7638 0.0000 7.1904 0.0000
# 3 51.3113 21.7638 65.8477 0.0000 8.0563 0.0000
# 4 0.0000 0.0000 0.0000 22.9553 0.0000 9.9205
# 5 13.2661 7.1904 8.0563 0.0000 20.8873 0.0000
# 6 0.0000 0.0000 0.0000 9.9205 0.0000 35.2556
#
#
#
# Elastic Compliance Matrix: (Units=1/GPa)
#
#
# Indices 1 2 3 4 5 6 
#
# 1 0.018091 -0.003384 -0.012295 0.000000 -0.005582 0.000000
# 2 -0.003384 0.009607 -0.000416 0.000000 -0.000997 0.000000
# 3 -0.012295 -0.000416 0.025118 0.000000 -0.001736 0.000000
# 4 0.000000 0.000000 0.000000 0.049594 0.000000 -0.013955
# 5 -0.005582 -0.000997 -0.001736 0.000000 0.052434 0.000000
# 6 0.000000 0.000000 0.000000 -0.013955 0.000000 0.032291
#
#
# Mechanical properties :
#
#
# Convention : Reuss Voigt Hill
#
# Bulk Modulus (GPa) = 48.48817 56.89566 52.69192
# Shear Modulus (GPa) = 22.10431 27.46296 24.78363
#
# Velocity S-wave (km/s) = 3.14647 3.50719 3.33172
# Velocity P-wave (km/s) = 5.90912 6.47174 6.19682
#
# Compressibility (1/GPa) = 0.02062359
#
# Stress axis : x y z
#
# Youngs Moduli (GPa) = 55.27745 104.09062 39.81286
#
# Poissons Ratio (x) = 0.35227 0.48951
# Poissons Ratio (y) = 0.18707 0.01657
# Poissons Ratio (z) = 0.67966 0.04332
#
# Static dielectric constant tensor:
#      x y z
#    x 4.906800 0.000000 0.095040 
#    y 0.000000 4.036020 0.000000 
#    z 0.095040 0.000000 3.615050 
# 
# 
# High freq. dielectric constant tensor:
#      x y z
#    x 1.906290 0.000000 0.018380 
#    y 0.000000 1.883360 0.000000 
#    z 0.018380 0.000000 1.834470 
# 
# From -- ./inp_files/56539.got.cif
#   From: 2010.03.12/outbox.cif.g09.slc.cpg/sg14_29_cif.got.tgz:56539.got - 2010.03.31 13:35:05.
