data_PCOD8125993
_publ_section_title
;
Structure prediction by ZEFSAII (Michael W. Deem and Ramdas Pophale) SiO2 
 PCOD8125993
Probable space group: P 21/C
;
_chemical_formula_sum "Si O2"
_cell_formula_units_Z 32
_cell_length_a 5.401624
_cell_length_b 10.905105
_cell_length_c 31.447092
_cell_angle_alpha 90.000000
_cell_angle_beta 127.191911
_cell_angle_gamma 90.000000
_cell_volume 1475.649851
_symmetry_space_group_name_H-M "P 21/C"
_symmetry_group_IT_number 14
_symmetry_cell_setting 'monoclinic'
loop_
_space_group_symop_operation_xyz
x,y,z
-x,1/2+y,1/2-z
-x,-y,-z
x,1/2-y,1/2+z
loop_
_atom_site_type_symbol
_atom_site_label
_atom_site_fract_x
_atom_site_fract_y
_atom_site_fract_z
Si Si1 0.185446 0.084267 0.786702
Si Si2 0.357796 0.235882 0.374821
Si Si3 0.212347 0.897708 0.648672
Si Si4 0.724609 0.148084 0.988538
Si Si5 0.595322 0.776121 0.754861
Si Si6 0.439528 0.628899 0.816537
Si Si7 0.609457 0.872747 0.964423
Si Si8 0.271186 0.853355 0.844759
O O1 0.141819 0.175969 0.823127
O O2 0.390891 0.157116 0.774115
O O3 0.866099 0.049670 0.728147
O O4 0.367903 0.961932 0.821386
O O5 0.619352 0.168122 0.373553
O O6 0.536255 0.317420 0.427191
O O7 0.145374 0.140660 0.380343
O O8 0.380612 0.876680 0.710879
O O9 0.254757 0.044489 0.646075
O O10 0.559185 0.200951 0.014308
O O11 0.080952 0.197193 0.020941
O O12 0.730719 0.001923 0.994954
O O13 0.443439 0.734345 0.782131
O O14 0.907143 0.844934 0.799746
O O15 0.411178 0.715808 0.854797
O O16 0.358627 0.894022 0.901205
#
# Coordination Sequence:
#
# PCOD8125993 Si02
#       8
#     4   4   4   4   4   4   4   4
#     4  10  21  37  58  91 129 164 212 250 317 383
#     4  11  22  42  65  92 121 171 204 264 315 374
#     4  11  24  39  63  91 128 164 220 244 311 380
#     4  10  21  41  64  94 125 154 208 270 326 369
#     4  10  23  35  58  89 124 175 201 256 300 376
#     4  11  24  38  57  91 131 174 210 260 300 391
#     4  10  22  39  64  96 126 157 203 267 324 383
#     4  11  23  39  61  90 132 173 200 263 324 377
#
# _framework density 21.685362000000001
#
# number of rings (size 3 to 8) (size 9 to 14) (size 15 to 20)
#    0.000    1.500    3.750    0.750    7.000    0.000 
#    0.000    0.000    0.000    4.500    0.000    0.000 
#    0.000    0.000    0.000    0.000    0.000    0.000 
#
# Total GULP energy -396473.428442 kJ/mol
# GULP energy per Si atom -12389.794639 kJ/mol
# Density = 2.163601 g / cm^3
# Si number density = 21.685362 Si / 1000 Ang^3
#
#
#
# Elastic Constant Matrix: (Units=GPa)
#
#
# Indices 1 2 3 4 5 6 
#
# 1 112.2234 6.1523 16.4588 0.0000 -6.0046 0.0000
# 2 6.1523 56.7086 3.3834 0.0000 2.8939 0.0000
# 3 16.4588 3.3834 71.9354 0.0000 -8.9503 0.0000
# 4 0.0000 0.0000 0.0000 9.8730 0.0000 8.9630
# 5 -6.0046 2.8939 -8.9503 0.0000 19.2611 0.0000
# 6 0.0000 0.0000 0.0000 8.9630 0.0000 12.5632
#
#
#
# Elastic Compliance Matrix: (Units=1/GPa)
#
#
# Indices 1 2 3 4 5 6 
#
# 1 0.009352 -0.001020 -0.001815 0.000000 0.002225 0.000000
# 2 -0.001020 0.017986 -0.001049 0.000000 -0.003508 0.000000
# 3 -0.001815 -0.001049 0.015194 0.000000 0.006652 0.000000
# 4 0.000000 0.000000 0.000000 0.287479 0.000000 -0.205097
# 5 0.002225 -0.003508 0.006652 0.000000 0.056230 0.000000
# 6 0.000000 0.000000 0.000000 -0.205097 0.000000 0.225920
#
#
# Mechanical properties :
#
#
# Convention : Reuss Voigt Hill
#
# Bulk Modulus (GPa) = 28.76522 32.53958 30.65240
# Shear Modulus (GPa) = 7.91745 22.66432 15.29089
#
# Velocity S-wave (km/s) = 1.91285 3.23638 2.65830
# Velocity P-wave (km/s) = 4.26289 5.38548 4.85673
#
# Compressibility (1/GPa) = 0.03476420
#
# Stress axis : x y z
#
# Youngs Moduli (GPa) = 106.92957 55.59807 65.81718
#
# Poissons Ratio (x) = 0.05670 0.11945
# Poissons Ratio (y) = 0.10905 0.06905
# Poissons Ratio (z) = 0.19406 0.05833
#
# Static dielectric constant tensor:
#      x y z
#    x 4.050970 0.000000 -0.090940 
#    y 0.000000 3.790500 0.000000 
#    z -0.090940 0.000000 3.688220 
# 
# 
# High freq. dielectric constant tensor:
#      x y z
#    x 1.852840 0.000000 -0.011260 
#    y 0.000000 1.830180 0.000000 
#    z -0.011260 0.000000 1.834880 
# 
# From -- ./inp_files/75814.got.cif
#   From: 2010.03.12/outbox.cif.g09.slc.cpg/sg14_38_cif.got.tgz:75814.got - 2010.03.31 13:35:05.
