data_PCOD8125402
_publ_section_title
;
Structure prediction by ZEFSAII (Michael W. Deem and Ramdas Pophale) SiO2 
 PCOD8125402
Probable space group: P 21/C
;
_chemical_formula_sum "Si O2"
_cell_formula_units_Z 20
_cell_length_a 12.496600
_cell_length_b 6.759104
_cell_length_c 18.251670
_cell_angle_alpha 90.000000
_cell_angle_beta 35.179834
_cell_angle_gamma 90.000000
_cell_volume 888.208977
_symmetry_space_group_name_H-M "P 21/C"
_symmetry_group_IT_number 14
_symmetry_cell_setting 'monoclinic'
loop_
_space_group_symop_operation_xyz
x,y,z
-x,1/2+y,1/2-z
-x,-y,-z
x,1/2-y,1/2+z
loop_
_atom_site_type_symbol
_atom_site_label
_atom_site_fract_x
_atom_site_fract_y
_atom_site_fract_z
Si Si1 0.140256 0.141692 0.515001
Si Si2 0.634180 0.564922 0.524119
Si Si3 0.811146 0.167031 0.386555
Si Si4 0.785322 0.805115 0.316796
Si Si5 0.754492 0.530203 0.202830
O O1 0.206623 0.355139 0.508683
O O2 0.245180 0.099979 0.380591
O O3 0.204824 0.976114 0.535370
O O4 0.918060 0.128005 0.628253
O O5 0.666106 0.338595 0.483995
O O6 0.435013 0.584320 0.674071
O O7 0.631901 0.687031 0.449719
O O8 0.754891 0.041353 0.344728
O O9 0.013873 0.257837 0.259586
O O10 0.777494 0.731855 0.237727
#
# Coordination Sequence:
#
# PCOD8125402 Si02
#       5
#     4   4   4   4   4
#     4   9  23  44  61  94 136 166 210 272 318 385
#     4  11  22  39  69  93 128 173 214 264 326 379
#     4  10  20  38  66  91 128 176 208 259 329 370
#     4  10  20  39  62  96 128 166 216 265 313 380
#     4  10  22  42  67  96 133 167 221 264 316 392
#
# _framework density 22.517225
#
# number of rings (size 3 to 8) (size 9 to 14) (size 15 to 20)
#    0.000    2.000    2.000    0.600    2.800    0.800 
#    0.000   19.000    0.000    0.000    0.000    0.000 
#    0.000    0.000    0.000    0.000    0.000    0.000 
#
# Total GULP energy -247986.897623 kJ/mol
# GULP energy per Si atom -12399.344881 kJ/mol
# Density = 2.246597 g / cm^3
# Si number density = 22.517225 Si / 1000 Ang^3
#
#
#
# Elastic Constant Matrix: (Units=GPa)
#
#
# Indices 1 2 3 4 5 6 
#
# 1 58.0961 26.9591 28.9498 0.0000 6.9336 0.0000
# 2 26.9591 116.9400 41.4494 0.0000 -1.2888 0.0000
# 3 28.9498 41.4494 151.2246 0.0000 -1.0860 0.0000
# 4 0.0000 0.0000 0.0000 21.8876 0.0000 1.6653
# 5 6.9336 -1.2888 -1.0860 0.0000 32.8085 0.0000
# 6 0.0000 0.0000 0.0000 1.6653 0.0000 17.6190
#
#
#
# Elastic Compliance Matrix: (Units=1/GPa)
#
#
# Indices 1 2 3 4 5 6 
#
# 1 0.021056 -0.003838 -0.003013 0.000000 -0.004700 0.000000
# 2 -0.003838 0.010174 -0.002046 0.000000 0.001143 0.000000
# 3 -0.003013 -0.002046 0.007756 0.000000 0.000813 0.000000
# 4 0.000000 0.000000 0.000000 0.046019 0.000000 -0.004349
# 5 -0.004700 0.001143 0.000813 0.000000 0.031545 0.000000
# 6 0.000000 0.000000 0.000000 -0.004349 0.000000 0.057168
#
#
# Mechanical properties :
#
#
# Convention : Reuss Voigt Hill
#
# Bulk Modulus (GPa) = 47.18520 57.88637 52.53578
# Shear Modulus (GPa) = 25.17938 29.72319 27.45128
#
# Velocity S-wave (km/s) = 3.34762 3.63715 3.49538
# Velocity P-wave (km/s) = 5.99522 6.58801 6.29859
#
# Compressibility (1/GPa) = 0.02119308
#
# Stress axis : x y z
#
# Youngs Moduli (GPa) = 47.49207 98.29064 128.93358
#
# Poissons Ratio (x) = 0.37726 0.38843
# Poissons Ratio (y) = 0.18228 0.26375
# Poissons Ratio (z) = 0.14308 0.20106
#
# Static dielectric constant tensor:
#      x y z
#    x 3.974710 0.000000 0.077680 
#    y 0.000000 4.065220 0.000000 
#    z 0.077680 0.000000 4.173990 
# 
# 
# High freq. dielectric constant tensor:
#      x y z
#    x 1.874750 0.000000 0.003650 
#    y 0.000000 1.875770 0.000000 
#    z 0.003650 0.000000 1.902890 
# 
# From -- ./inp_files/67785.got.cif
#   From: 2010.03.12/outbox.cif.g09.slc.cpg/sg14_34_cif.got.tgz:67785.got - 2010.03.31 13:35:05.
