data_PCOD8125806
_publ_section_title
;
Structure prediction by ZEFSAII (Michael W. Deem and Ramdas Pophale) SiO2 
 PCOD8125806
Probable space group: P 21/C
;
_chemical_formula_sum "Si O2"
_cell_formula_units_Z 28
_cell_length_a 16.604773
_cell_length_b 8.908307
_cell_length_c 11.053193
_cell_angle_alpha 90.000000
_cell_angle_beta 123.590335
_cell_angle_gamma 90.000000
_cell_volume 1361.972923
_symmetry_space_group_name_H-M "P 21/C"
_symmetry_group_IT_number 14
_symmetry_cell_setting 'monoclinic'
loop_
_space_group_symop_operation_xyz
x,y,z
-x,1/2+y,1/2-z
-x,-y,-z
x,1/2-y,1/2+z
loop_
_atom_site_type_symbol
_atom_site_label
_atom_site_fract_x
_atom_site_fract_y
_atom_site_fract_z
Si Si1 0.631332 0.306524 0.230417
Si Si2 0.773530 0.168361 0.652234
Si Si3 0.566500 0.604382 0.971768
Si Si4 0.886979 0.526049 0.408492
Si Si5 0.299211 0.996847 0.618388
Si Si6 0.745621 0.776511 0.213746
Si Si7 0.761222 0.023757 0.023942
O O1 0.667034 0.360977 0.125769
O O2 0.516413 0.279428 0.142667
O O3 0.669433 0.422657 0.366156
O O4 0.679364 0.143834 0.279269
O O5 0.794050 0.339304 0.635040
O O6 0.852089 0.126841 0.816726
O O7 0.782544 0.056455 0.545286
O O8 0.605917 0.538636 0.878902
O O9 0.500000 0.500000 0.000000
O O10 0.650163 0.674322 0.125004
O O11 0.842563 0.672717 0.301464
O O12 0.850357 0.528053 0.515374
O O13 0.000000 0.500000 0.500000
O O14 0.259201 0.132852 0.664810
O O15 0.740255 0.881102 0.091150
#
# Coordination Sequence:
#
# PCOD8125806 Si02
#       7
#     4   4   4   4   4   4   4
#     4  10  22  39  66  92 133 180 218 264 319 379
#     4  10  20  47  65  92 132 171 216 271 330 385
#     4  12  24  38  58  95 139 173 222 265 316 378
#     4  11  25  45  69  97 129 164 215 277 340 397
#     4  11  23  39  64  93 133 176 219 269 325 382
#     4  12  25  43  69  98 132 176 222 275 328 391
#     4  10  23  44  69  95 131 172 217 267 330 395
#
# _framework density 20.558409999999999
#
# number of rings (size 3 to 8) (size 9 to 14) (size 15 to 20)
#    0.000    1.143    4.286    1.714    4.000    1.714 
#    0.000    0.714    0.000    0.000    0.000    0.000 
#    0.000    0.000    0.000    0.000    0.000    0.000 
#
# Total GULP energy -346959.910200 kJ/mol
# GULP energy per Si atom -12391.425364 kJ/mol
# Density = 2.051162 g / cm^3
# Si number density = 20.558410 Si / 1000 Ang^3
#
#
#
# Elastic Constant Matrix: (Units=GPa)
#
#
# Indices 1 2 3 4 5 6 
#
# 1 94.1539 42.0998 50.3640 0.0000 11.2522 0.0000
# 2 42.0998 106.6079 47.1021 0.0000 -2.4046 0.0000
# 3 50.3640 47.1021 86.0928 0.0000 1.7857 0.0000
# 4 0.0000 0.0000 0.0000 34.4959 0.0000 -16.7903
# 5 11.2522 -2.4046 1.7857 0.0000 43.9289 0.0000
# 6 0.0000 0.0000 0.0000 -16.7903 0.0000 33.1080
#
#
#
# Elastic Compliance Matrix: (Units=1/GPa)
#
#
# Indices 1 2 3 4 5 6 
#
# 1 0.016835 -0.003203 -0.008010 0.000000 -0.004162 0.000000
# 2 -0.003203 0.013020 -0.005286 0.000000 0.001748 0.000000
# 3 -0.008010 -0.005286 0.019172 0.000000 0.000983 0.000000
# 4 0.000000 0.000000 0.000000 0.038490 0.000000 0.019520
# 5 -0.004162 0.001748 0.000983 0.000000 0.023886 0.000000
# 6 0.000000 0.000000 0.000000 0.019520 0.000000 0.040103
#
#
# Mechanical properties :
#
#
# Convention : Reuss Voigt Hill
#
# Bulk Modulus (GPa) = 62.38173 62.88738 62.63455
# Shear Modulus (GPa) = 26.33702 32.12579 29.23141
#
# Velocity S-wave (km/s) = 3.58310 3.95734 3.77486
# Velocity P-wave (km/s) = 6.89403 7.17891 7.03791
#
# Compressibility (1/GPa) = 0.01603033
#
# Stress axis : x y z
#
# Youngs Moduli (GPa) = 59.40001 76.80542 52.15828
#
# Poissons Ratio (x) = 0.24603 0.41777
# Poissons Ratio (y) = 0.19027 0.27569
# Poissons Ratio (z) = 0.47577 0.40597
#
# Static dielectric constant tensor:
#      x y z
#    x 3.676610 0.000000 -0.104110 
#    y 0.000000 3.917170 0.000000 
#    z -0.104110 0.000000 3.951430 
# 
# 
# High freq. dielectric constant tensor:
#      x y z
#    x 1.786970 0.000000 -0.025500 
#    y 0.000000 1.816560 0.000000 
#    z -0.025500 0.000000 1.806780 
# 
# From -- ./inp_files/31681.got.cif
#   From: 2010.03.12/outbox.cif.g09.slc.cpg/sg14_16_cif.got.tgz:31681.got - 2010.03.31 13:35:05.
