data_PCOD8125262
_publ_section_title
;
Structure prediction by ZEFSAII (Michael W. Deem and Ramdas Pophale) SiO2 
 PCOD8125262
Probable space group: P 21/C
;
_chemical_formula_sum "Si O2"
_cell_formula_units_Z 16
_cell_length_a 13.225057
_cell_length_b 5.121809
_cell_length_c 16.040211
_cell_angle_alpha 90.000000
_cell_angle_beta 43.197122
_cell_angle_gamma 90.000000
_cell_volume 743.722834
_symmetry_space_group_name_H-M "P 21/C"
_symmetry_group_IT_number 14
_symmetry_cell_setting 'monoclinic'
loop_
_space_group_symop_operation_xyz
x,y,z
-x,1/2+y,1/2-z
-x,-y,-z
x,1/2-y,1/2+z
loop_
_atom_site_type_symbol
_atom_site_label
_atom_site_fract_x
_atom_site_fract_y
_atom_site_fract_z
Si Si1 0.567726 0.288012 0.809321
Si Si2 0.730827 0.700127 0.240121
Si Si3 0.006253 0.618416 0.192271
Si Si4 0.713905 0.479435 0.079887
O O1 0.658381 0.519913 0.798135
O O2 0.393245 0.350266 0.915895
O O3 0.608868 0.024593 0.835552
O O4 0.616320 0.251602 0.682197
O O5 0.871885 0.680983 0.212942
O O6 0.781605 0.661703 0.112900
O O7 0.991409 0.324125 0.234069
O O8 0.157709 0.649509 0.050728
#
# Coordination Sequence:
#
# PCOD8125262 Si02
#       4
#     4   4   4   4
#     4  10  20  37  73  93 114 151 222 267 295 345
#     4  10  21  41  65  95 116 164 216 250 306 358
#     4  12  28  42  59  92 137 169 197 250 319 377
#     4  10  22  41  70  93 121 158 215 260 304 363
#
# _framework density 21.513387999999999
#
# number of rings (size 3 to 8) (size 9 to 14) (size 15 to 20)
#    1.500    0.000    2.500    2.250    3.500    1.000 
#    0.000    7.500    0.000    0.000    0.000    0.000 
#    0.000    0.000    0.000    0.000    0.000    0.000 
#
# Total GULP energy -198336.793536 kJ/mol
# GULP energy per Si atom -12396.049596 kJ/mol
# Density = 2.146442 g / cm^3
# Si number density = 21.513388 Si / 1000 Ang^3
#
#
#
# Elastic Constant Matrix: (Units=GPa)
#
#
# Indices 1 2 3 4 5 6 
#
# 1 81.0546 3.9019 37.5793 0.0000 -24.4095 0.0000
# 2 3.9019 101.7390 -3.5542 0.0000 -1.5334 0.0000
# 3 37.5793 -3.5542 2.8858 0.0000 14.0456 0.0000
# 4 0.0000 0.0000 0.0000 23.6427 0.0000 0.8669
# 5 -24.4095 -1.5334 14.0456 0.0000 6.2663 0.0000
# 6 0.0000 0.0000 0.0000 0.8669 0.0000 39.2423
#
#
#
# Elastic Compliance Matrix: (Units=1/GPa)
#
#
# Indices 1 2 3 4 5 6 
#
# 1 0.003524 0.000085 0.011373 0.000000 -0.011744 0.000000
# 2 0.000085 0.009867 0.000234 0.000000 0.002221 0.000000
# 3 0.011373 0.000234 0.001734 0.000000 0.040472 0.000000
# 4 0.000000 0.000000 0.000000 0.042331 0.000000 -0.000935
# 5 -0.011744 0.002221 0.040472 0.000000 0.023667 0.000000
# 6 0.000000 0.000000 0.000000 -0.000935 0.000000 0.025503
#
#
# Mechanical properties :
#
#
# Convention : Reuss Voigt Hill
#
# Bulk Modulus (GPa) = 25.96724 29.05927 27.51325
# Shear Modulus (GPa) = 52.04091 23.68042 37.86067
#
# Velocity S-wave (km/s) = 4.92367 3.32132 4.19963
# Velocity P-wave (km/s) = 6.66482 5.31461 6.02764
#
# Compressibility (1/GPa) = 0.03851007
#
# Stress axis : x y z
#
# Youngs Moduli (GPa) = 283.77096 101.34315 576.69224
#
# Poissons Ratio (x) = -0.00863 -6.55858
# Poissons Ratio (y) = -0.02416 -0.13518
# Poissons Ratio (z) = -3.22726 -0.02375
#
# Static dielectric constant tensor:
#      x y z
#    x 3.758980 0.000000 -0.050090 
#    y 0.000000 3.892400 0.000000 
#    z -0.050090 0.000000 3.421010 
# 
# 
# High freq. dielectric constant tensor:
#      x y z
#    x 1.855200 0.000000 -0.012960 
#    y 0.000000 1.851470 0.000000 
#    z -0.012960 0.000000 1.802610 
# 
# From -- ./inp_files/42364.got.cif
#   From: 2010.03.12/outbox.cif.g09.slc.cpg/sg14_22_cif.got.tgz:42364.got - 2010.03.31 13:35:05.
