data_PCOD8125195
_publ_section_title
;
Structure prediction by ZEFSAII (Michael W. Deem and Ramdas Pophale) SiO2 
 PCOD8125195
Probable space group: P 21/C
;
_chemical_formula_sum "Si O2"
_cell_formula_units_Z 32
_cell_length_a 6.638831
_cell_length_b 19.995252
_cell_length_c 12.102039
_cell_angle_alpha 90.000000
_cell_angle_beta 85.358795
_cell_angle_gamma 90.000000
_cell_volume 1601.218605
_symmetry_space_group_name_H-M "P 21/C"
_symmetry_group_IT_number 14
_symmetry_cell_setting 'monoclinic'
loop_
_space_group_symop_operation_xyz
x,y,z
-x,1/2+y,1/2-z
-x,-y,-z
x,1/2-y,1/2+z
loop_
_atom_site_type_symbol
_atom_site_label
_atom_site_fract_x
_atom_site_fract_y
_atom_site_fract_z
Si Si1 0.299465 0.705169 0.330503
Si Si2 0.294147 0.963198 0.500293
Si Si3 0.184615 0.493303 0.575617
Si Si4 0.977322 0.812803 0.677302
Si Si5 0.515590 0.111495 0.989853
Si Si6 0.407332 0.258252 0.367952
Si Si7 0.055233 0.460732 0.826047
Si Si8 0.670899 0.313411 0.007880
O O1 0.384611 0.648771 0.409754
O O2 0.460011 0.722009 0.229970
O O3 0.254944 0.775733 0.387753
O O4 0.079661 0.682832 0.294215
O O5 0.180385 0.963740 0.624529
O O6 0.352343 0.889593 0.460194
O O7 0.500000 0.000000 0.500000
O O8 0.169717 0.993172 0.406173
O O9 0.322777 0.559605 0.567311
O O10 0.316814 0.427929 0.539928
O O11 0.000000 0.500000 0.500000
O O12 0.086613 0.486912 0.701309
O O13 0.822046 0.751888 0.663585
O O14 0.868235 0.884238 0.662710
O O15 0.160105 0.798028 0.588860
O O16 0.453262 0.163684 0.894539
O O17 0.454371 0.216477 0.477741
#
# Coordination Sequence:
#
# PCOD8125195 Si02
#       8
#     4   4   4   4   4   4   4   4
#     4  10  21  38  61  86 122 160 202 256 310 367
#     4  10  21  39  62  89 124 158 202 261 317 373
#     4  11  24  42  64  89 130 173 218 260 312 381
#     4  10  20  37  61  86 116 159 204 249 309 373
#     4  10  24  41  60  94 128 166 213 259 315 376
#     4  10  21  38  61  89 117 159 206 253 311 373
#     4  10  22  38  61  92 120 163 211 252 310 376
#     4   9  21  37  57  85 121 152 196 256 309 362
#
# _framework density 19.984779
#
# number of rings (size 3 to 8) (size 9 to 14) (size 15 to 20)
#    0.000    2.000    0.000    2.250    1.750   10.000 
#    0.000    0.000    0.000    0.000    0.000    0.000 
#    0.000    0.000    0.000    0.000    0.000    0.000 
#
# Total GULP energy -396584.889850 kJ/mol
# GULP energy per Si atom -12393.277808 kJ/mol
# Density = 1.993929 g / cm^3
# Si number density = 19.984779 Si / 1000 Ang^3
#
#
#
# Elastic Constant Matrix: (Units=GPa)
#
#
# Indices 1 2 3 4 5 6 
#
# 1 102.2313 61.2129 35.5526 0.0000 12.4046 0.0000
# 2 61.2129 125.2294 24.4126 0.0000 3.5756 0.0000
# 3 35.5526 24.4126 74.8653 0.0000 -1.0926 0.0000
# 4 0.0000 0.0000 0.0000 31.1807 0.0000 -1.0391
# 5 12.4046 3.5756 -1.0926 0.0000 24.3431 0.0000
# 6 0.0000 0.0000 0.0000 -1.0391 0.0000 27.4043
#
#
#
# Elastic Compliance Matrix: (Units=1/GPa)
#
#
# Indices 1 2 3 4 5 6 
#
# 1 0.016917 -0.006894 -0.005900 0.000000 -0.007873 0.000000
# 2 -0.006894 0.011383 -0.000411 0.000000 0.001823 0.000000
# 3 -0.005900 -0.000411 0.016349 0.000000 0.003801 0.000000
# 4 0.000000 0.000000 0.000000 0.032112 0.000000 0.001218
# 5 -0.007873 0.001823 0.003801 0.000000 0.044994 0.000000
# 6 0.000000 0.000000 0.000000 0.001218 0.000000 0.036537
#
#
# Mechanical properties :
#
#
# Convention : Reuss Voigt Hill
#
# Bulk Modulus (GPa) = 54.83256 60.52025 57.67641
# Shear Modulus (GPa) = 26.20778 28.66213 27.43496
#
# Velocity S-wave (km/s) = 3.62524 3.79119 3.70914
# Velocity P-wave (km/s) = 6.70968 7.03655 6.87506
#
# Compressibility (1/GPa) = 0.01823734
#
# Stress axis : x y z
#
# Youngs Moduli (GPa) = 59.11233 87.84729 61.16567
#
# Poissons Ratio (x) = 0.60563 0.36091
# Poissons Ratio (y) = 0.40752 0.02517
# Poissons Ratio (z) = 0.34879 0.03615
#
# Static dielectric constant tensor:
#      x y z
#    x 3.746080 0.000000 0.116570 
#    y 0.000000 4.263600 0.000000 
#    z 0.116570 0.000000 3.995720 
# 
# 
# High freq. dielectric constant tensor:
#      x y z
#    x 1.780160 0.000000 0.002730 
#    y 0.000000 1.791060 0.000000 
#    z 0.002730 0.000000 1.781000 
# 
# From -- ./inp_files/21797.got.cif
#   From: 2010.03.12/outbox.cif.g09.slc.cpg/sg14_11_cif.got.tgz:21797.got - 2010.03.31 13:35:05.
