data_PCOD8125159
_publ_section_title
;
Structure prediction by ZEFSAII (Michael W. Deem and Ramdas Pophale) SiO2 
 PCOD8125159
Probable space group: P 21/C
;
_chemical_formula_sum "Si O2"
_cell_formula_units_Z 32
_cell_length_a 18.469740
_cell_length_b 13.437425
_cell_length_c 12.841310
_cell_angle_alpha 90.000000
_cell_angle_beta 30.261473
_cell_angle_gamma 90.000000
_cell_volume 1606.094077
_symmetry_space_group_name_H-M "P 21/C"
_symmetry_group_IT_number 14
_symmetry_cell_setting 'monoclinic'
loop_
_space_group_symop_operation_xyz
x,y,z
-x,1/2+y,1/2-z
-x,-y,-z
x,1/2-y,1/2+z
loop_
_atom_site_type_symbol
_atom_site_label
_atom_site_fract_x
_atom_site_fract_y
_atom_site_fract_z
Si Si1 0.298533 0.784379 0.212313
Si Si2 0.870720 0.127975 0.953542
Si Si3 0.628840 0.589540 0.072130
Si Si4 0.899098 0.245688 0.227371
Si Si5 0.539659 0.790987 0.266453
Si Si6 0.075267 0.102382 0.882252
Si Si7 0.606809 0.503782 0.768680
Si Si8 0.675331 0.112328 0.619046
O O1 0.248235 0.702941 0.356807
O O2 0.182948 0.800439 0.265294
O O3 0.322743 0.880093 0.256824
O O4 0.443099 0.746727 0.981157
O O5 0.774296 0.027338 0.073896
O O6 0.929588 0.163750 0.768213
O O7 0.013664 0.127331 0.844537
O O8 0.638385 0.697980 0.112484
O O9 0.472058 0.567070 0.218531
O O10 0.664908 0.505030 0.111673
O O11 0.753259 0.587716 0.829635
O O12 0.815677 0.155418 0.387090
O O13 0.040591 0.191794 0.005930
O O14 0.456270 0.826342 0.266879
O O15 0.627672 0.884176 0.201154
O O16 0.000000 0.000000 0.000000
O O17 0.500000 0.500000 0.000000
#
# Coordination Sequence:
#
# PCOD8125159 Si02
#       8
#     4   4   4   4   4   4   4   4
#     4   9  16  32  57  82 111 150 195 228 287 349
#     4  10  20  37  59  87 114 150 198 235 283 347
#     4  11  22  37  56  87 123 144 194 247 285 342
#     4   9  18  35  59  82 112 156 197 235 278 350
#     4  10  21  33  53  89 118 146 188 244 296 335
#     4  11  21  39  60  88 114 154 199 238 284 337
#     4  11  20  37  62  86 112 154 194 239 285 342
#     4   9  18  34  56  82 113 153 194 235 288 347
#
# _framework density 19.924115
#
# number of rings (size 3 to 8) (size 9 to 14) (size 15 to 20)
#    0.000    2.000    2.500    3.000    0.000    0.500 
#    4.500    0.000    0.000    1.500    0.000    0.000 
#    0.000    0.000    0.000    0.000    0.000    0.000 
#
# Total GULP energy -396528.068979 kJ/mol
# GULP energy per Si atom -12391.502156 kJ/mol
# Density = 1.987877 g / cm^3
# Si number density = 19.924115 Si / 1000 Ang^3
#
#
#
# Elastic Constant Matrix: (Units=GPa)
#
#
# Indices 1 2 3 4 5 6 
#
# 1 51.8712 20.7290 20.4126 0.0000 25.5638 0.0000
# 2 20.7290 109.2990 26.6614 0.0000 15.2504 0.0000
# 3 20.4126 26.6614 60.1444 0.0000 7.3958 0.0000
# 4 0.0000 0.0000 0.0000 25.9640 0.0000 4.8450
# 5 25.5638 15.2504 7.3958 0.0000 30.7515 0.0000
# 6 0.0000 0.0000 0.0000 4.8450 0.0000 28.3826
#
#
#
# Elastic Compliance Matrix: (Units=1/GPa)
#
#
# Indices 1 2 3 4 5 6 
#
# 1 0.036941 -0.000969 -0.008647 0.000000 -0.028149 0.000000
# 2 -0.000969 0.010816 -0.004024 0.000000 -0.003590 0.000000
# 3 -0.008647 -0.004024 0.020832 0.000000 0.004173 0.000000
# 4 0.000000 0.000000 0.000000 0.039782 0.000000 -0.006791
# 5 -0.028149 -0.003590 0.004173 0.000000 0.056696 0.000000
# 6 0.000000 0.000000 0.000000 -0.006791 0.000000 0.036392
#
#
# Mechanical properties :
#
#
# Convention : Reuss Voigt Hill
#
# Bulk Modulus (GPa) = 24.20769 39.65785 31.93277
# Shear Modulus (GPa) = 20.61786 27.25373 23.93579
#
# Velocity S-wave (km/s) = 3.22035 3.70249 3.46981
# Velocity P-wave (km/s) = 5.09940 6.18269 5.66699
#
# Compressibility (1/GPa) = 0.04130918
#
# Stress axis : x y z
#
# Youngs Moduli (GPa) = 27.06992 92.45946 48.00353
#
# Poissons Ratio (x) = 0.08962 0.41506
# Poissons Ratio (y) = 0.02624 0.19317
# Poissons Ratio (z) = 0.23406 0.37206
#
# Static dielectric constant tensor:
#      x y z
#    x 3.944790 0.000000 0.113360 
#    y 0.000000 3.634680 0.000000 
#    z 0.113360 0.000000 3.556740 
# 
# 
# High freq. dielectric constant tensor:
#      x y z
#    x 1.775530 0.000000 0.011930 
#    y 0.000000 1.770540 0.000000 
#    z 0.011930 0.000000 1.756040 
# 
# From -- ./inp_files/34212.got.cif
#   From: 2010.03.12/outbox.cif.g09.slc.cpg/sg14_18_cif.got.tgz:34212.got - 2010.03.31 13:35:05.
