data_PCOD8125969
_publ_section_title
;
Structure prediction by ZEFSAII (Michael W. Deem and Ramdas Pophale) SiO2 
 PCOD8125969
Probable space group: P 21/C
;
_chemical_formula_sum "Si O2"
_cell_formula_units_Z 24
_cell_length_a 9.583946
_cell_length_b 15.571401
_cell_length_c 16.712720
_cell_angle_alpha 90.000000
_cell_angle_beta 31.734413
_cell_angle_gamma 90.000000
_cell_volume 1311.869205
_symmetry_space_group_name_H-M "P 21/C"
_symmetry_group_IT_number 14
_symmetry_cell_setting 'monoclinic'
loop_
_space_group_symop_operation_xyz
x,y,z
-x,1/2+y,1/2-z
-x,-y,-z
x,1/2-y,1/2+z
loop_
_atom_site_type_symbol
_atom_site_label
_atom_site_fract_x
_atom_site_fract_y
_atom_site_fract_z
Si Si1 0.700291 0.744681 0.594693
Si Si2 0.935533 0.089802 0.452928
Si Si3 0.969795 0.592755 0.911419
Si Si4 0.502337 0.592980 0.396517
Si Si5 0.481180 0.100128 0.929990
Si Si6 0.782166 0.264686 0.554880
O O1 0.759299 0.830183 0.513176
O O2 0.687908 0.665057 0.540712
O O3 0.420744 0.759469 0.773031
O O4 0.925145 0.725732 0.550630
O O5 0.774199 0.175749 0.505961
O O6 0.890693 0.083768 0.570164
O O7 0.246860 0.103267 0.283807
O O8 0.834288 0.001391 0.459919
O O9 0.201374 0.611109 0.734751
O O10 0.587868 0.619063 0.444259
O O11 0.391554 0.495978 0.449289
O O12 0.272336 0.655731 0.476750
#
# Coordination Sequence:
#
# PCOD8125969 Si02
#       6
#     4   4   4   4   4   4
#     4  11  20  35  58  87 109 144 192 232 271 324
#     4   9  17  33  56  76 107 151 185 214 273 342
#     4   9  17  33  56  76 107 151 185 214 273 342
#     4  10  21  37  57  83 115 149 183 227 284 335
#     4  10  21  37  57  83 115 149 183 227 284 335
#     4  11  20  35  58  87 109 144 192 232 271 324
#
# _framework density 18.294506999999999
#
# number of rings (size 3 to 8) (size 9 to 14) (size 15 to 20)
#    0.000    2.000    6.667    0.000    0.000    2.000 
#    0.000    0.000    0.000    1.000    0.000    0.000 
#    0.000    0.000    0.000    0.000    0.000    0.000 
#
# Total GULP energy -297471.169271 kJ/mol
# GULP energy per Si atom -12394.632053 kJ/mol
# Density = 1.825287 g / cm^3
# Si number density = 18.294507 Si / 1000 Ang^3
#
#
#
# Elastic Constant Matrix: (Units=GPa)
#
#
# Indices 1 2 3 4 5 6 
#
# 1 47.5386 43.8874 8.7251 0.0000 4.7567 0.0000
# 2 43.8874 167.6222 22.0242 0.0000 -4.9068 0.0000
# 3 8.7251 22.0242 46.7552 0.0000 4.9152 0.0000
# 4 0.0000 0.0000 0.0000 33.6428 0.0000 -3.7848
# 5 4.7567 -4.9068 4.9152 0.0000 15.7709 0.0000
# 6 0.0000 0.0000 0.0000 -3.7848 0.0000 24.5456
#
#
#
# Elastic Compliance Matrix: (Units=1/GPa)
#
#
# Indices 1 2 3 4 5 6 
#
# 1 0.029677 -0.008025 -0.000573 0.000000 -0.011269 0.000000
# 2 -0.008025 0.008671 -0.003231 0.000000 0.006125 0.000000
# 3 -0.000573 -0.003231 0.023887 0.000000 -0.008277 0.000000
# 4 0.000000 0.000000 0.000000 0.030249 0.000000 0.004664
# 5 -0.011269 0.006125 -0.008277 0.000000 0.071292 0.000000
# 6 0.000000 0.000000 0.000000 0.004664 0.000000 0.041460
#
#
# Mechanical properties :
#
#
# Convention : Reuss Voigt Hill
#
# Bulk Modulus (GPa) = 25.92227 45.68770 35.80498
# Shear Modulus (GPa) = 20.68245 27.27716 23.97980
#
# Velocity S-wave (km/s) = 3.36598 3.86554 3.62438
# Velocity P-wave (km/s) = 5.41356 6.70454 6.09334
#
# Compressibility (1/GPa) = 0.03857687
#
# Stress axis : x y z
#
# Youngs Moduli (GPa) = 33.69657 115.33223 41.86387
#
# Poissons Ratio (x) = 0.92549 0.02400
# Poissons Ratio (y) = 0.27040 0.13525
# Poissons Ratio (z) = 0.01932 0.37261
#
# Static dielectric constant tensor:
#      x y z
#    x 2.909570 0.000000 0.239920 
#    y 0.000000 4.010600 0.000000 
#    z 0.239920 0.000000 3.283350 
# 
# 
# High freq. dielectric constant tensor:
#      x y z
#    x 1.654530 0.000000 0.029450 
#    y 0.000000 1.737270 0.000000 
#    z 0.029450 0.000000 1.707340 
# 
# From -- ./inp_files/55890.got.cif
#   From: 2010.03.12/outbox.cif.g09.slc.cpg/sg14_28_cif.got.tgz:55890.got - 2010.03.31 13:35:05.
