data_PCOD8125689
_publ_section_title
;
Structure prediction by ZEFSAII (Michael W. Deem and Ramdas Pophale) SiO2 
 PCOD8125689
Probable space group: P 21/C
;
_chemical_formula_sum "Si O2"
_cell_formula_units_Z 32
_cell_length_a 5.136889
_cell_length_b 21.387205
_cell_length_c 12.393392
_cell_angle_alpha 90.000000
_cell_angle_beta 77.365655
_cell_angle_gamma 90.000000
_cell_volume 1328.614246
_symmetry_space_group_name_H-M "P 21/C"
_symmetry_group_IT_number 14
_symmetry_cell_setting 'monoclinic'
loop_
_space_group_symop_operation_xyz
x,y,z
-x,1/2+y,1/2-z
-x,-y,-z
x,1/2-y,1/2+z
loop_
_atom_site_type_symbol
_atom_site_label
_atom_site_fract_x
_atom_site_fract_y
_atom_site_fract_z
Si Si1 0.275240 0.637992 0.436869
Si Si2 0.857902 0.372567 0.090443
Si Si3 0.523340 0.687849 0.614550
Si Si4 0.636566 0.784272 0.754694
Si Si5 0.337085 0.955951 0.762939
Si Si6 0.089079 0.245304 0.074839
Si Si7 0.104302 0.401267 0.851474
Si Si8 0.716618 0.599494 0.770766
O O1 0.311666 0.647786 0.563469
O O2 0.519473 0.669329 0.352969
O O3 0.284074 0.566621 0.392746
O O4 0.015656 0.674066 0.421529
O O5 0.879900 0.298695 0.058657
O O6 0.547396 0.388539 0.133244
O O7 0.017063 0.386835 0.185885
O O8 0.987714 0.413382 0.982298
O O9 0.419288 0.737697 0.716023
O O10 0.714095 0.638767 0.659359
O O11 0.668960 0.740885 0.530785
O O12 0.811673 0.828147 0.660276
O O13 0.822255 0.738365 0.810418
O O14 0.640890 0.945645 0.694530
O O15 0.136795 0.915324 0.708122
O O16 0.267425 0.027943 0.766258
#
# Coordination Sequence:
#
# PCOD8125689 Si02
#       8
#     4   4   4   4   4   4   4   4
#     4  10  24  40  69  98 135 183 230 271 343 421
#     4  12  26  43  71 105 137 175 234 285 353 404
#     4  11  24  41  68 102 138 176 220 287 346 402
#     4  10  20  41  64  98 136 172 221 281 344 410
#     4  11  25  47  70  95 140 188 236 277 332 406
#     4  11  22  40  67 102 134 173 221 280 346 420
#     4  11  23  44  74  99 134 186 228 284 344 399
#     4  12  28  46  66 102 141 184 231 288 330 401
#
# _framework density 24.085246999999999
#
# number of rings (size 3 to 8) (size 9 to 14) (size 15 to 20)
#    0.000    1.000    3.750    2.250    3.500    6.500 
#    0.000    0.625    0.000    0.000    0.000    0.000 
#    0.000    0.000    0.000    0.000    0.000    0.000 
#
# Total GULP energy -396420.929562 kJ/mol
# GULP energy per Si atom -12388.154049 kJ/mol
# Density = 2.403043 g / cm^3
# Si number density = 24.085247 Si / 1000 Ang^3
#
#
#
# Elastic Constant Matrix: (Units=GPa)
#
#
# Indices 1 2 3 4 5 6 
#
# 1 58.2108 -27.8417 6.4093 0.0000 5.3635 0.0000
# 2 -27.8417 74.1013 22.8231 0.0000 2.6175 0.0000
# 3 6.4093 22.8231 101.7538 0.0000 28.5856 0.0000
# 4 0.0000 0.0000 0.0000 23.4413 0.0000 -0.4965
# 5 5.3635 2.6175 28.5856 0.0000 21.6179 0.0000
# 6 0.0000 0.0000 0.0000 -0.4965 0.0000 24.2334
#
#
#
# Elastic Compliance Matrix: (Units=1/GPa)
#
#
# Indices 1 2 3 4 5 6 
#
# 1 0.022176 0.009234 -0.002559 0.000000 -0.003236 0.000000
# 2 0.009234 0.018568 -0.005523 0.000000 0.002763 0.000000
# 3 -0.002559 -0.005523 0.017281 0.000000 -0.021547 0.000000
# 4 0.000000 0.000000 0.000000 0.042678 0.000000 0.000874
# 5 -0.003236 0.002763 -0.021547 0.000000 0.075218 0.000000
# 6 0.000000 0.000000 0.000000 0.000874 0.000000 0.041283
#
#
# Mechanical properties :
#
#
# Convention : Reuss Voigt Hill
#
# Bulk Modulus (GPa) = 16.57555 26.31637 21.44596
# Shear Modulus (GPa) = 21.27585 29.37021 25.32303
#
# Velocity S-wave (km/s) = 2.97536 3.49582 3.24603
# Velocity P-wave (km/s) = 4.32442 5.21962 4.79296
#
# Compressibility (1/GPa) = 0.06032981
#
# Stress axis : x y z
#
# Youngs Moduli (GPa) = 45.09464 53.85613 57.86805
#
# Poissons Ratio (x) = -0.49733 0.14807
# Poissons Ratio (y) = -0.41642 0.31959
# Poissons Ratio (z) = 0.11539 0.29743
#
# Static dielectric constant tensor:
#      x y z
#    x 4.137960 0.000000 0.040090 
#    y 0.000000 4.408470 0.000000 
#    z 0.040090 0.000000 4.812440 
# 
# 
# High freq. dielectric constant tensor:
#      x y z
#    x 1.946320 0.000000 0.004870 
#    y 0.000000 1.947920 0.000000 
#    z 0.004870 0.000000 1.966450 
# 
# From -- ./inp_files/21816.got.cif
#   From: 2010.03.12/outbox.cif.g09.slc.cpg/sg14_11_cif.got.tgz:21816.got - 2010.03.31 13:35:05.
