data_PCOD8125155
_publ_section_title
;
Structure prediction by ZEFSAII (Michael W. Deem and Ramdas Pophale) SiO2 
 PCOD8125155
Probable space group: P 21/C
;
_chemical_formula_sum "Si O2"
_cell_formula_units_Z 32
_cell_length_a 18.604466
_cell_length_b 7.752370
_cell_length_c 29.794772
_cell_angle_alpha 90.000000
_cell_angle_beta 159.570210
_cell_angle_gamma 90.000000
_cell_volume 1499.999146
_symmetry_space_group_name_H-M "P 21/C"
_symmetry_group_IT_number 14
_symmetry_cell_setting 'monoclinic'
loop_
_space_group_symop_operation_xyz
x,y,z
-x,1/2+y,1/2-z
-x,-y,-z
x,1/2-y,1/2+z
loop_
_atom_site_type_symbol
_atom_site_label
_atom_site_fract_x
_atom_site_fract_y
_atom_site_fract_z
Si Si1 0.599814 0.534976 0.248733
Si Si2 0.644429 0.864275 0.630976
Si Si3 0.154174 0.242467 0.335862
Si Si4 0.327114 0.823974 0.124180
Si Si5 0.713499 0.379456 0.568043
Si Si6 0.864643 0.747924 0.844463
Si Si7 0.560190 0.632674 0.926535
Si Si8 0.496690 0.001005 0.854554
O O1 0.506982 0.686078 0.224115
O O2 0.664028 0.381762 0.319032
O O3 0.803055 0.590616 0.340147
O O4 0.426747 0.487793 0.109709
O O5 0.755546 0.891322 0.648319
O O6 0.464598 0.729756 0.512589
O O7 0.809302 0.777948 0.760388
O O8 0.571163 0.044832 0.610029
O O9 0.242598 0.437226 0.382161
O O10 0.215273 0.173381 0.421396
O O11 0.910864 0.244325 0.187436
O O12 0.375915 0.980706 0.117819
O O13 0.109551 0.727305 0.990044
O O14 0.642353 0.398364 0.474867
O O15 0.731762 0.583489 0.783681
O O16 0.454650 0.807596 0.846672
#
# Coordination Sequence:
#
# PCOD8125155 Si02
#       8
#     4   4   4   4   4   4   4   4
#     4  10  22  38  58  85 113 147 190 244 287 342
#     4  10  20  37  59  84 115 155 193 237 290 343
#     4  11  21  35  57  82 114 159 197 237 292 346
#     4  11  20  39  64  84 113 152 189 232 297 353
#     4  10  21  36  56  85 119 152 197 246 285 338
#     4   9  20  37  60  85 114 149 187 235 289 345
#     4  10  21  38  55  81 121 151 191 246 285 336
#     4   9  20  38  58  86 119 149 189 241 288 341
#
# _framework density 21.333345000000001
#
# number of rings (size 3 to 8) (size 9 to 14) (size 15 to 20)
#    0.000    2.000    0.000    4.125    0.000    1.000 
#    0.000   14.375    0.000    0.000    0.000    0.000 
#    0.000    0.000    0.000    0.000    0.000    0.000 
#
# Total GULP energy -396571.427804 kJ/mol
# GULP energy per Si atom -12392.857119 kJ/mol
# Density = 2.128479 g / cm^3
# Si number density = 21.333345 Si / 1000 Ang^3
#
#
#
# Elastic Constant Matrix: (Units=GPa)
#
#
# Indices 1 2 3 4 5 6 
#
# 1 88.8072 17.3839 30.7747 0.0000 -8.5394 0.0000
# 2 17.3839 73.8702 18.7946 0.0000 -5.7586 0.0000
# 3 30.7747 18.7946 90.2536 0.0000 -0.2178 0.0000
# 4 0.0000 0.0000 0.0000 27.1667 0.0000 -11.4819
# 5 -8.5394 -5.7586 -0.2178 0.0000 21.5829 0.0000
# 6 0.0000 0.0000 0.0000 -11.4819 0.0000 29.2755
#
#
#
# Elastic Compliance Matrix: (Units=1/GPa)
#
#
# Indices 1 2 3 4 5 6 
#
# 1 0.013536 -0.001727 -0.004244 0.000000 0.004852 0.000000
# 2 -0.001727 0.014831 -0.002492 0.000000 0.003248 0.000000
# 3 -0.004244 -0.002492 0.013041 0.000000 -0.002212 0.000000
# 4 0.000000 0.000000 0.000000 0.044124 0.000000 0.017305
# 5 0.004852 0.003248 -0.002212 0.000000 0.049097 0.000000
# 6 0.000000 0.000000 0.000000 0.017305 0.000000 0.040945
#
#
# Mechanical properties :
#
#
# Convention : Reuss Voigt Hill
#
# Bulk Modulus (GPa) = 40.84756 42.98194 41.91475
# Shear Modulus (GPa) = 24.91781 28.00355 26.46068
#
# Velocity S-wave (km/s) = 3.42134 3.62700 3.52567
# Velocity P-wave (km/s) = 5.89884 6.14261 6.02196
#
# Compressibility (1/GPa) = 0.02448127
#
# Stress axis : x y z
#
# Youngs Moduli (GPa) = 73.87873 67.42673 76.68410
#
# Poissons Ratio (x) = 0.11647 0.32545
# Poissons Ratio (y) = 0.12762 0.19106
# Poissons Ratio (z) = 0.31354 0.16800
#
# Static dielectric constant tensor:
#      x y z
#    x 3.866880 0.000000 -0.224820 
#    y 0.000000 3.813610 0.000000 
#    z -0.224820 0.000000 3.719510 
# 
# 
# High freq. dielectric constant tensor:
#      x y z
#    x 1.835570 0.000000 -0.018970 
#    y 0.000000 1.831600 0.000000 
#    z -0.018970 0.000000 1.827400 
# 
# From -- ./inp_files/80418.got.cif
#   From: 2010.03.12/outbox.cif.g09.slc.cpg/sg14_41_cif.got.tgz:80418.got - 2010.03.31 13:35:05.
