data_PCOD8125283
_publ_section_title
;
Structure prediction by ZEFSAII (Michael W. Deem and Ramdas Pophale) SiO2 
 PCOD8125283
Probable space group: P 21/C
;
_chemical_formula_sum "Si O2"
_cell_formula_units_Z 28
_cell_length_a 32.707138
_cell_length_b 8.388809
_cell_length_c 32.327889
_cell_angle_alpha 90.000000
_cell_angle_beta 171.269049
_cell_angle_gamma 90.000000
_cell_volume 1346.409079
_symmetry_space_group_name_H-M "P 21/C"
_symmetry_group_IT_number 14
_symmetry_cell_setting 'monoclinic'
loop_
_space_group_symop_operation_xyz
x,y,z
-x,1/2+y,1/2-z
-x,-y,-z
x,1/2-y,1/2+z
loop_
_atom_site_type_symbol
_atom_site_label
_atom_site_fract_x
_atom_site_fract_y
_atom_site_fract_z
Si Si1 0.102077 0.174217 0.475520
Si Si2 0.242684 0.390167 0.024467
Si Si3 0.757308 0.609801 0.539072
Si Si4 0.390764 0.821493 0.478427
Si Si5 0.253689 0.614581 0.753683
Si Si6 0.102169 0.325610 0.228751
Si Si7 0.390647 0.678350 0.802962
O O1 0.171199 0.190725 0.496504
O O2 0.365356 0.204408 0.766528
O O3 0.000008 0.999891 0.385607
O O4 0.862051 0.299763 0.243771
O O5 0.499984 0.500003 0.287813
O O6 0.307258 0.249940 0.057282
O O7 0.999983 0.499956 0.765095
O O8 0.828821 0.690802 0.654094
O O9 0.275715 0.779837 0.317394
O O10 0.500041 0.999922 0.592067
O O11 0.275682 0.720093 0.733978
O O12 0.000000 0.500000 0.500000
O O13 0.500000 0.500000 0.000000
O O14 0.365537 0.295437 0.464413
O O15 0.862235 0.200002 0.980534
#
# Coordination Sequence:
#
# PCOD8125283 Si02
#       7
#     4   4   4   4   4   4   4
#     4  11  23  41  60  88 128 161 191 247 311 356
#     4  11  24  43  64  90 123 161 199 248 302 356
#     4  11  24  43  64  90 123 161 199 248 302 356
#     4  11  22  39  64  90 117 161 209 248 290 356
#     4  10  20  38  59  88 123 154 197 258 303 336
#     4  11  23  41  60  88 128 161 191 247 311 356
#     4  11  22  39  64  90 117 161 209 248 290 356
#
# _framework density 20.796057000000001
#
# number of rings (size 3 to 8) (size 9 to 14) (size 15 to 20)
#    0.000    1.143    0.000    9.429    0.000    3.429 
#    0.000    4.286    0.000    0.000    0.000    0.000 
#    0.000    0.000    0.000    0.000    0.000    0.000 
#
# Total GULP energy -347258.850128 kJ/mol
# GULP energy per Si atom -12402.101790 kJ/mol
# Density = 2.074872 g / cm^3
# Si number density = 20.796057 Si / 1000 Ang^3
#
#
#
# Elastic Constant Matrix: (Units=GPa)
#
#
# Indices 1 2 3 4 5 6 
#
# 1 162.2369 82.1427 78.3612 0.0000 -2.8877 0.0000
# 2 82.1427 72.3295 40.2466 0.0000 -5.3619 0.0000
# 3 78.3612 40.2466 165.4127 0.0000 3.6100 0.0000
# 4 0.0000 0.0000 0.0000 56.5233 0.0000 15.2294
# 5 -2.8877 -5.3619 3.6100 0.0000 30.9404 0.0000
# 6 0.0000 0.0000 0.0000 15.2294 0.0000 -59.7191
#
#
#
# Elastic Compliance Matrix: (Units=1/GPa)
#
#
# Indices 1 2 3 4 5 6 
#
# 1 0.016287 -0.016519 -0.003677 0.000000 -0.000914 0.000000
# 2 -0.016519 0.033073 -0.000314 0.000000 0.004226 0.000000
# 3 -0.003677 -0.000314 0.007892 0.000000 -0.001318 0.000000
# 4 0.000000 0.000000 0.000000 0.016554 0.000000 0.004222
# 5 -0.000914 0.004226 -0.001318 0.000000 0.033121 0.000000
# 6 0.000000 0.000000 0.000000 0.004222 0.000000 -0.015668
#
#
# Mechanical properties :
#
#
# Convention : Reuss Voigt Hill
#
# Bulk Modulus (GPa) = 61.59743 89.05334 75.32538
# Shear Modulus (GPa) = 36.31355 18.83083 27.57219
#
# Velocity S-wave (km/s) = 4.18326 3.01242 3.64516
# Velocity P-wave (km/s) = 7.28127 7.41719 7.34955
#
# Compressibility (1/GPa) = 0.01623444
#
# Stress axis : x y z
#
# Youngs Moduli (GPa) = 61.39873 30.23573 126.70508
#
# Poissons Ratio (x) = 0.49945 0.46584
# Poissons Ratio (y) = 1.01423 0.03978
# Poissons Ratio (z) = 0.22574 0.00949
#
# Static dielectric constant tensor:
#      x y z
#    x 2.135090 0.000000 0.224640 
#    y 0.000000 3.604390 0.000000 
#    z 0.224640 0.000000 3.853530 
# 
# 
# High freq. dielectric constant tensor:
#      x y z
#    x 1.820350 0.000000 0.003040 
#    y 0.000000 1.799990 0.000000 
#    z 0.003040 0.000000 1.843520 
# 
# From -- ./inp_files/80951.got.cif
#   From: 2010.03.12/outbox.cif.g09.slc.cpg/sg14_41_cif.got.tgz:80951.got - 2010.03.31 13:35:05.
