data_PCOD8125584
_publ_section_title
;
Structure prediction by ZEFSAII (Michael W. Deem and Ramdas Pophale) SiO2 
 PCOD8125584
Probable space group: P 21/C
;
_chemical_formula_sum "Si O2"
_cell_formula_units_Z 16
_cell_length_a 9.519261
_cell_length_b 15.276768
_cell_length_c 5.192150
_cell_angle_alpha 90.000000
_cell_angle_beta 98.944934
_cell_angle_gamma 90.000000
_cell_volume 745.877967
_symmetry_space_group_name_H-M "P 21/C"
_symmetry_group_IT_number 14
_symmetry_cell_setting 'monoclinic'
loop_
_space_group_symop_operation_xyz
x,y,z
-x,1/2+y,1/2-z
-x,-y,-z
x,1/2-y,1/2+z
loop_
_atom_site_type_symbol
_atom_site_label
_atom_site_fract_x
_atom_site_fract_y
_atom_site_fract_z
Si Si1 0.774125 0.095378 0.786459
Si Si2 0.616951 0.404564 0.733295
Si Si3 0.314069 0.426954 0.505834
Si Si4 0.940865 0.806859 0.192950
O O1 0.684389 0.129060 0.516828
O O2 0.937688 0.120735 0.806253
O O3 0.766373 0.989318 0.808679
O O4 0.703670 0.139978 0.020423
O O5 0.450304 0.379582 0.675017
O O6 0.630759 0.511129 0.713833
O O7 0.211254 0.352768 0.370533
O O8 0.955245 0.766907 0.480372
#
# Coordination Sequence:
#
# PCOD8125584 Si02
#       4
#     4   4   4   4
#     4  10  20  40  63  88 114 157 199 245 285 357
#     4   9  20  36  72  87 110 141 214 250 289 333
#     4   9  22  39  67  90 113 154 207 248 288 347
#     4  12  27  40  56  88 130 160 193 240 305 355
#
# _framework density 21.451232000000001
#
# number of rings (size 3 to 8) (size 9 to 14) (size 15 to 20)
#    1.500    0.500    0.000    3.000    3.500    1.000 
#    0.000    7.500    0.000    0.000    0.000    0.000 
#    0.000    0.000    0.000    0.000    0.000    0.000 
#
# Total GULP energy -198331.204692 kJ/mol
# GULP energy per Si atom -12395.700293 kJ/mol
# Density = 2.140241 g / cm^3
# Si number density = 21.451232 Si / 1000 Ang^3
#
#
#
# Elastic Constant Matrix: (Units=GPa)
#
#
# Indices 1 2 3 4 5 6 
#
# 1 90.1591 21.1928 13.2999 0.0000 25.0470 0.0000
# 2 21.1928 23.4888 3.1679 0.0000 4.6713 0.0000
# 3 13.2999 3.1679 118.4614 0.0000 7.2169 0.0000
# 4 0.0000 0.0000 0.0000 14.6757 0.0000 -1.7855
# 5 25.0470 4.6713 7.2169 0.0000 34.2083 0.0000
# 6 0.0000 0.0000 0.0000 -1.7855 0.0000 19.1909
#
#
#
# Elastic Compliance Matrix: (Units=1/GPa)
#
#
# Indices 1 2 3 4 5 6 
#
# 1 0.017344 -0.013400 -0.000939 0.000000 -0.010672 0.000000
# 2 -0.013400 0.054193 -0.000093 0.000000 0.002431 0.000000
# 3 -0.000939 -0.000093 0.008618 0.000000 -0.001118 0.000000
# 4 0.000000 0.000000 0.000000 0.068920 0.000000 0.006412
# 5 -0.010672 0.002431 -0.001118 0.000000 0.036950 0.000000
# 6 0.000000 0.000000 0.000000 0.006412 0.000000 0.052705
#
#
# Mechanical properties :
#
#
# Convention : Reuss Voigt Hill
#
# Bulk Modulus (GPa) = 19.49650 34.15894 26.82772
# Shear Modulus (GPa) = 17.56292 26.57822 22.07057
#
# Velocity S-wave (km/s) = 2.86446 3.52377 3.21108
# Velocity P-wave (km/s) = 4.47758 5.70215 5.12656
#
# Compressibility (1/GPa) = 0.05129126
#
# Stress axis : x y z
#
# Youngs Moduli (GPa) = 57.65522 18.45259 116.04208
#
# Poissons Ratio (x) = 0.24727 0.10894
# Poissons Ratio (y) = 0.77259 0.01078
# Poissons Ratio (z) = 0.05413 0.00171
#
# Static dielectric constant tensor:
#      x y z
#    x 3.783300 0.000000 0.046170 
#    y 0.000000 3.349000 0.000000 
#    z 0.046170 0.000000 3.781450 
# 
# 
# High freq. dielectric constant tensor:
#      x y z
#    x 1.848990 0.000000 0.011120 
#    y 0.000000 1.798430 0.000000 
#    z 0.011120 0.000000 1.844910 
# 
# From -- ./inp_files/904.got.cif
#   From: 2010.03.12/outbox.cif.g09.slc.cpg/sg14_1_cif.got.tgz:904.got - 2010.03.31 13:35:05.
