data_PCOD8125209
_publ_section_title
;
Structure prediction by ZEFSAII (Michael W. Deem and Ramdas Pophale) SiO2 
 PCOD8125209
Probable space group: P 21/C
;
_chemical_formula_sum "Si O2"
_cell_formula_units_Z 24
_cell_length_a 10.704446
_cell_length_b 8.765904
_cell_length_c 18.412515
_cell_angle_alpha 90.000000
_cell_angle_beta 39.680588
_cell_angle_gamma 90.000000
_cell_volume 1103.163170
_symmetry_space_group_name_H-M "P 21/C"
_symmetry_group_IT_number 14
_symmetry_cell_setting 'monoclinic'
loop_
_space_group_symop_operation_xyz
x,y,z
-x,1/2+y,1/2-z
-x,-y,-z
x,1/2-y,1/2+z
loop_
_atom_site_type_symbol
_atom_site_label
_atom_site_fract_x
_atom_site_fract_y
_atom_site_fract_z
Si Si1 0.709711 0.803852 0.179015
Si Si2 0.765567 0.489508 0.451828
Si Si3 0.672246 0.053422 0.705904
Si Si4 0.616513 0.173991 0.879237
Si Si5 0.144290 0.682765 0.444526
Si Si6 0.206471 0.547919 0.263384
O O1 0.545786 0.882006 0.204179
O O2 0.677489 0.625540 0.193790
O O3 0.719935 0.871830 0.257875
O O4 0.912780 0.846558 0.048129
O O5 0.613538 0.630876 0.521279
O O6 0.710750 0.374532 0.412330
O O7 0.753627 0.387075 0.529860
O O8 0.980672 0.557603 0.339947
O O9 0.735654 0.091628 0.760361
O O10 0.809518 0.135389 0.583652
O O11 0.653530 0.357146 0.853649
O O12 0.238236 0.610316 0.330927
#
# Coordination Sequence:
#
# PCOD8125209 Si02
#       6
#     4   4   4   4   4   4
#     4  11  21  35  59  87 115 149 196 247 294 346
#     4  10  20  37  62  87 121 159 196 244 295 346
#     4  11  21  36  60  87 116 152 196 243 292 351
#     4  10  21  37  59  86 117 158 195 234 294 352
#     4  10  21  38  59  84 114 153 200 244 288 343
#     4  10  21  37  60  85 115 154 197 242 291 349
#
# _framework density 21.75562
#
# number of rings (size 3 to 8) (size 9 to 14) (size 15 to 20)
#    0.000    1.667    0.000    7.500    0.000    2.667 
#    0.000    0.000    0.000   23.000    0.000    0.000 
#    0.000    0.000    0.000    0.000    0.000    0.000 
#
# Total GULP energy -297472.223680 kJ/mol
# GULP energy per Si atom -12394.675987 kJ/mol
# Density = 2.170610 g / cm^3
# Si number density = 21.755620 Si / 1000 Ang^3
#
#
#
# Elastic Constant Matrix: (Units=GPa)
#
#
# Indices 1 2 3 4 5 6 
#
# 1 109.8657 24.4381 30.4199 0.0000 0.0193 0.0000
# 2 24.4381 123.2898 24.9339 0.0000 -7.8282 0.0000
# 3 30.4199 24.9339 56.1177 0.0000 -2.4153 0.0000
# 4 0.0000 0.0000 0.0000 48.7943 0.0000 0.8080
# 5 0.0193 -7.8282 -2.4153 0.0000 22.8778 0.0000
# 6 0.0000 0.0000 0.0000 0.8080 0.0000 27.1512
#
#
#
# Elastic Compliance Matrix: (Units=1/GPa)
#
#
# Indices 1 2 3 4 5 6 
#
# 1 0.010853 -0.001114 -0.005430 0.000000 -0.000964 0.000000
# 2 -0.001114 0.009188 -0.003358 0.000000 0.002790 0.000000
# 3 -0.005430 -0.003358 0.022307 0.000000 0.001211 0.000000
# 4 0.000000 0.000000 0.000000 0.020504 0.000000 -0.000610
# 5 -0.000964 0.002790 0.001211 0.000000 0.044794 0.000000
# 6 0.000000 0.000000 0.000000 -0.000610 0.000000 0.036849
#
#
# Mechanical properties :
#
#
# Convention : Reuss Voigt Hill
#
# Bulk Modulus (GPa) = 44.35744 49.87297 47.11521
# Shear Modulus (GPa) = 29.10098 33.73007 31.41552
#
# Velocity S-wave (km/s) = 3.66133 3.94179 3.80415
# Velocity P-wave (km/s) = 6.18927 6.60991 6.40304
#
# Compressibility (1/GPa) = 0.02254413
#
# Stress axis : x y z
#
# Youngs Moduli (GPa) = 92.13645 108.83508 44.82855
#
# Poissons Ratio (x) = 0.12129 0.24341
# Poissons Ratio (y) = 0.10268 0.15055
# Poissons Ratio (z) = 0.50027 0.36550
#
# Static dielectric constant tensor:
#      x y z
#    x 3.983900 0.000000 -0.093900 
#    y 0.000000 4.467870 0.000000 
#    z -0.093900 0.000000 3.903790 
# 
# 
# High freq. dielectric constant tensor:
#      x y z
#    x 1.858140 0.000000 -0.012460 
#    y 0.000000 1.862360 0.000000 
#    z -0.012460 0.000000 1.835510 
# 
# From -- ./inp_files/66770.got.cif
#   From: 2010.03.12/outbox.cif.g09.slc.cpg/sg14_34_cif.got.tgz:66770.got - 2010.03.31 13:35:05.
