data_PCOD8125803
_publ_section_title
;
Structure prediction by ZEFSAII (Michael W. Deem and Ramdas Pophale) SiO2 
 PCOD8125803
Probable space group: P 21/C
;
_chemical_formula_sum "Si O2"
_cell_formula_units_Z 28
_cell_length_a 16.386024
_cell_length_b 8.907057
_cell_length_c 17.461650
_cell_angle_alpha 90.000000
_cell_angle_beta 148.086662
_cell_angle_gamma 90.000000
_cell_volume 1347.254971
_symmetry_space_group_name_H-M "P 21/C"
_symmetry_group_IT_number 14
_symmetry_cell_setting 'monoclinic'
loop_
_space_group_symop_operation_xyz
x,y,z
-x,1/2+y,1/2-z
-x,-y,-z
x,1/2-y,1/2+z
loop_
_atom_site_type_symbol
_atom_site_label
_atom_site_fract_x
_atom_site_fract_y
_atom_site_fract_z
Si Si1 0.199244 0.143477 0.434616
Si Si2 0.364354 0.255021 0.217069
Si Si3 0.078436 0.070822 0.762490
Si Si4 0.591747 0.328998 0.627910
Si Si5 0.377403 0.926450 0.008350
Si Si6 0.843165 0.936371 0.345734
Si Si7 0.492228 0.026179 0.584960
O O1 0.297150 0.230149 0.578275
O O2 0.082885 0.269829 0.309119
O O3 0.315728 0.064857 0.467749
O O4 0.090033 0.005924 0.375313
O O5 0.508671 0.371521 0.334120
O O6 0.223201 0.293525 0.161671
O O7 0.430947 0.093908 0.296207
O O8 0.139534 0.110585 0.727411
O O9 0.202519 0.952379 0.898490
O O10 0.611317 0.302365 0.551365
O O11 0.429429 0.413597 0.513658
O O12 0.728168 0.427525 0.769471
O O13 0.595013 0.175452 0.677785
O O14 0.000000 0.000000 0.500000
O O15 0.500000 0.000000 0.500000
#
# Coordination Sequence:
#
# PCOD8125803 Si02
#       7
#     4   4   4   4   4   4   4
#     4  12  28  43  65 101 139 182 223 285 346 404
#     4  11  24  41  69 102 131 175 230 285 333 399
#     4  11  24  45  66  96 140 177 226 273 354 405
#     4   9  18  36  68  95 120 175 219 266 324 404
#     4   9  18  39  69  90 128 172 226 261 328 411
#     4  10  20  44  71  93 128 179 227 271 333 417
#     4  12  24  44  69 102 137 172 230 286 338 398
#
# _framework density 20.783000000000001
#
# number of rings (size 3 to 8) (size 9 to 14) (size 15 to 20)
#    0.000    1.429    4.286    1.714    4.000    0.000 
#    2.571    0.714    0.000    0.000    0.000    0.000 
#    0.000    0.000    0.000    0.000    0.000    0.000 
#
# Total GULP energy -346947.957413 kJ/mol
# GULP energy per Si atom -12390.998479 kJ/mol
# Density = 2.073570 g / cm^3
# Si number density = 20.783000 Si / 1000 Ang^3
#
#
#
# Elastic Constant Matrix: (Units=GPa)
#
#
# Indices 1 2 3 4 5 6 
#
# 1 92.8901 43.7406 27.6789 0.0000 6.8853 0.0000
# 2 43.7406 92.9012 33.2507 0.0000 1.3520 0.0000
# 3 27.6789 33.2507 97.7088 0.0000 5.0247 0.0000
# 4 0.0000 0.0000 0.0000 37.4446 0.0000 1.5268
# 5 6.8853 1.3520 5.0247 0.0000 27.3107 0.0000
# 6 0.0000 0.0000 0.0000 1.5268 0.0000 25.9416
#
#
#
# Elastic Compliance Matrix: (Units=1/GPa)
#
#
# Indices 1 2 3 4 5 6 
#
# 1 0.014400 -0.006071 -0.001860 0.000000 -0.002988 0.000000
# 2 -0.006071 0.014817 -0.003396 0.000000 0.001422 0.000000
# 3 -0.001860 -0.003396 0.011998 0.000000 -0.001570 0.000000
# 4 0.000000 0.000000 0.000000 0.026770 0.000000 -0.001576
# 5 -0.002988 0.001422 -0.001570 0.000000 0.037587 0.000000
# 6 0.000000 0.000000 0.000000 -0.001576 0.000000 0.038641
#
#
# Mechanical properties :
#
#
# Convention : Reuss Voigt Hill
#
# Bulk Modulus (GPa) = 53.87272 54.76004 54.31638
# Shear Modulus (GPa) = 28.89300 30.06138 29.47719
#
# Velocity S-wave (km/s) = 3.73261 3.80734 3.77016
# Velocity P-wave (km/s) = 6.67490 6.76265 6.71892
#
# Compressibility (1/GPa) = 0.01856227
#
# Stress axis : x y z
#
# Youngs Moduli (GPa) = 69.44657 67.48972 83.34994
#
# Poissons Ratio (x) = 0.40971 0.15500
# Poissons Ratio (y) = 0.42159 0.28303
# Poissons Ratio (z) = 0.12914 0.22918
#
# Static dielectric constant tensor:
#      x y z
#    x 3.807470 0.000000 -0.154150 
#    y 0.000000 3.839880 0.000000 
#    z -0.154150 0.000000 3.732510 
# 
# 
# High freq. dielectric constant tensor:
#      x y z
#    x 1.809980 0.000000 0.008390 
#    y 0.000000 1.807990 0.000000 
#    z 0.008390 0.000000 1.810810 
# 
# From -- ./inp_files/46750.got.cif
#   From: 2010.03.12/outbox.cif.g09.slc.cpg/sg14_24_cif.got.tgz:46750.got - 2010.03.31 13:35:05.
