data_PCOD8125654
_publ_section_title
;
Structure prediction by ZEFSAII (Michael W. Deem and Ramdas Pophale) SiO2 
 PCOD8125654
Probable space group: P 21/C
;
_chemical_formula_sum "Si O2"
_cell_formula_units_Z 20
_cell_length_a 16.771911
_cell_length_b 10.964810
_cell_length_c 12.820471
_cell_angle_alpha 90.000000
_cell_angle_beta 25.322048
_cell_angle_gamma 90.000000
_cell_volume 1008.399707
_symmetry_space_group_name_H-M "P 21/C"
_symmetry_group_IT_number 14
_symmetry_cell_setting 'monoclinic'
loop_
_space_group_symop_operation_xyz
x,y,z
-x,1/2+y,1/2-z
-x,-y,-z
x,1/2-y,1/2+z
loop_
_atom_site_type_symbol
_atom_site_label
_atom_site_fract_x
_atom_site_fract_y
_atom_site_fract_z
Si Si1 0.446989 0.614057 0.131574
Si Si2 0.180209 0.805927 0.346212
Si Si3 0.370799 0.540648 0.445553
Si Si4 0.232557 0.199187 0.213593
Si Si5 0.317049 0.028652 0.284434
O O1 0.309905 0.694769 0.224520
O O2 0.338970 0.568846 0.362237
O O3 0.500000 0.500000 0.000000
O O4 0.630556 0.686598 0.949387
O O5 0.971290 0.756354 0.580168
O O6 0.183703 0.910104 0.433385
O O7 0.250879 0.862969 0.153915
O O8 0.303784 0.403451 0.548769
O O9 0.596162 0.552837 0.203649
O O10 0.217937 0.145625 0.349509
O O11 0.500000 0.000000 0.000000
#
# Coordination Sequence:
#
# PCOD8125654 Si02
#       5
#     4   4   4   4   4
#     4  12  26  40  60  96 134 157 202 256 314 366
#     4  10  20  42  66  91 121 161 214 255 293 374
#     4  10  20  40  70  87 121 173 201 252 316 359
#     4  10  20  42  66  90 121 164 213 255 297 369
#     4   8  14  35  67  85 108 160 212 239 294 359
#
# _framework density 19.833406
#
# number of rings (size 3 to 8) (size 9 to 14) (size 15 to 20)
#    0.000    2.400    6.000    2.400    2.800    0.800 
#   10.800    0.000    0.000    0.000    0.000    0.000 
#    0.000    0.000    0.000    0.000    0.000    0.000 
#
# Total GULP energy -247868.919276 kJ/mol
# GULP energy per Si atom -12393.445964 kJ/mol
# Density = 1.978826 g / cm^3
# Si number density = 19.833406 Si / 1000 Ang^3
#
#
#
# Elastic Constant Matrix: (Units=GPa)
#
#
# Indices 1 2 3 4 5 6 
#
# 1 78.3492 42.0372 55.5089 0.0000 -5.2362 0.0000
# 2 42.0372 117.8192 48.7360 0.0000 3.5000 0.0000
# 3 55.5089 48.7360 83.3547 0.0000 -22.2113 0.0000
# 4 0.0000 0.0000 0.0000 10.9222 0.0000 5.2809
# 5 -5.2362 3.5000 -22.2113 0.0000 45.2703 0.0000
# 6 0.0000 0.0000 0.0000 5.2809 0.0000 13.9508
#
#
#
# Elastic Compliance Matrix: (Units=1/GPa)
#
#
# Indices 1 2 3 4 5 6 
#
# 1 0.025849 -0.001750 -0.017668 0.000000 -0.005543 0.000000
# 2 -0.001750 0.012252 -0.007253 0.000000 -0.004708 0.000000
# 3 -0.017668 -0.007253 0.031760 0.000000 0.014100 0.000000
# 4 0.000000 0.000000 0.000000 0.112067 0.000000 -0.042422
# 5 -0.005543 -0.004708 0.014100 0.000000 0.028730 0.000000
# 6 0.000000 0.000000 0.000000 -0.042422 0.000000 0.087739
#
#
# Mechanical properties :
#
#
# Convention : Reuss Voigt Hill
#
# Bulk Modulus (GPa) = 60.53115 63.56526 62.04821
# Shear Modulus (GPa) = 13.99599 22.91140 18.45370
#
# Velocity S-wave (km/s) = 2.65934 3.40250 3.05361
# Velocity P-wave (km/s) = 6.32578 6.89603 6.61705
#
# Compressibility (1/GPa) = 0.01652042
#
# Stress axis : x y z
#
# Youngs Moduli (GPa) = 38.68607 81.62029 31.48576
#
# Poissons Ratio (x) = 0.14282 0.55629
# Poissons Ratio (y) = 0.06769 0.22836
# Poissons Ratio (z) = 0.68350 0.59197
#
# Static dielectric constant tensor:
#      x y z
#    x 4.304710 0.000000 -0.374920 
#    y 0.000000 3.611720 0.000000 
#    z -0.374920 0.000000 3.276270 
# 
# 
# High freq. dielectric constant tensor:
#      x y z
#    x 1.778190 0.000000 -0.027240 
#    y 0.000000 1.764860 0.000000 
#    z -0.027240 0.000000 1.737340 
# 
# From -- ./inp_files/32102.got.cif
#   From: 2010.03.12/outbox.cif.g09.slc.cpg/sg14_17_cif.got.tgz:32102.got - 2010.03.31 13:35:05.
