data_PCOD8125921
_publ_section_title
;
Structure prediction by ZEFSAII (Michael W. Deem and Ramdas Pophale) SiO2 
 PCOD8125921
Probable space group: P 21/C
;
_chemical_formula_sum "Si O2"
_cell_formula_units_Z 24
_cell_length_a 9.724345
_cell_length_b 8.212384
_cell_length_c 29.797654
_cell_angle_alpha 90.000000
_cell_angle_beta 149.352253
_cell_angle_gamma 90.000000
_cell_volume 1213.042963
_symmetry_space_group_name_H-M "P 21/C"
_symmetry_group_IT_number 14
_symmetry_cell_setting 'monoclinic'
loop_
_space_group_symop_operation_xyz
x,y,z
-x,1/2+y,1/2-z
-x,-y,-z
x,1/2-y,1/2+z
loop_
_atom_site_type_symbol
_atom_site_label
_atom_site_fract_x
_atom_site_fract_y
_atom_site_fract_z
Si Si1 0.374255 0.471351 0.840203
Si Si2 0.772429 0.103392 0.076968
Si Si3 0.704817 0.059508 0.518795
Si Si4 0.236246 0.539470 0.207434
Si Si5 0.020188 0.189460 0.722583
Si Si6 0.680954 0.085306 0.769765
O O1 0.255403 0.290372 0.812702
O O2 0.461599 0.497821 0.813108
O O3 0.146057 0.606648 0.784585
O O4 0.610082 0.490436 0.942555
O O5 0.746600 0.245725 0.032696
O O6 0.824872 0.190453 0.139490
O O7 0.024388 0.987100 0.136534
O O8 0.500000 0.000000 0.000000
O O9 0.987300 0.967204 0.603098
O O10 0.500000 0.000000 0.500000
O O11 0.151078 0.450944 0.229093
O O12 0.307048 0.724618 0.237329
O O13 0.493888 0.445624 0.260078
#
# Coordination Sequence:
#
# PCOD8125921 Si02
#       6
#     4   4   4   4   4   4
#     4  11  22  37  60  95 120 160 203 252 298 353
#     4  10  21  36  60  91 117 160 203 244 300 362
#     4  11  21  38  62  89 123 162 201 252 302 353
#     4  11  22  44  63  86 124 163 201 247 313 366
#     4  10  22  36  61  89 123 156 202 249 303 356
#     4  11  24  40  65  88 122 162 203 251 303 369
#
# _framework density 19.784953999999999
#
# number of rings (size 3 to 8) (size 9 to 14) (size 15 to 20)
#    0.000    1.333    3.333    5.000    4.667    0.667 
#    0.000    0.000    0.000    4.000    0.000    0.000 
#    0.000    0.000    0.000    0.000    0.000    0.000 
#
# Total GULP energy -297628.147633 kJ/mol
# GULP energy per Si atom -12401.172818 kJ/mol
# Density = 1.973992 g / cm^3
# Si number density = 19.784954 Si / 1000 Ang^3
#
#
#
# Elastic Constant Matrix: (Units=GPa)
#
#
# Indices 1 2 3 4 5 6 
#
# 1 40.9704 0.9519 14.2729 0.0000 9.3998 0.0000
# 2 0.9519 96.1883 14.8071 0.0000 5.6627 0.0000
# 3 14.2729 14.8071 91.2530 0.0000 5.4868 0.0000
# 4 0.0000 0.0000 0.0000 33.3700 0.0000 6.1523
# 5 9.3998 5.6627 5.4868 0.0000 29.3037 0.0000
# 6 0.0000 0.0000 0.0000 6.1523 0.0000 28.4274
#
#
#
# Elastic Compliance Matrix: (Units=1/GPa)
#
#
# Indices 1 2 3 4 5 6 
#
# 1 0.027672 0.000825 -0.003963 0.000000 -0.008294 0.000000
# 2 0.000825 0.010777 -0.001756 0.000000 -0.002018 0.000000
# 3 -0.003963 -0.001756 0.011901 0.000000 -0.000618 0.000000
# 4 0.000000 0.000000 0.000000 0.031212 0.000000 -0.006755
# 5 -0.008294 -0.002018 -0.000618 0.000000 0.037291 0.000000
# 6 0.000000 0.000000 0.000000 -0.006755 0.000000 0.036639
#
#
# Mechanical properties :
#
#
# Convention : Reuss Voigt Hill
#
# Bulk Modulus (GPa) = 24.65499 32.05281 28.35390
# Shear Modulus (GPa) = 27.96367 31.44554 29.70461
#
# Velocity S-wave (km/s) = 3.76357 3.99101 3.87896
# Velocity P-wave (km/s) = 5.60130 6.12155 5.86719
#
# Compressibility (1/GPa) = 0.04055975
#
# Stress axis : x y z
#
# Youngs Moduli (GPa) = 36.13733 92.78751 84.02958
#
# Poissons Ratio (x) = -0.07651 0.33304
# Poissons Ratio (y) = -0.02980 0.14759
# Poissons Ratio (z) = 0.14322 0.16297
#
# Static dielectric constant tensor:
#      x y z
#    x 3.393390 0.000000 0.023750 
#    y 0.000000 3.836550 0.000000 
#    z 0.023750 0.000000 3.639560 
# 
# 
# High freq. dielectric constant tensor:
#      x y z
#    x 1.755390 0.000000 -0.001530 
#    y 0.000000 1.790340 0.000000 
#    z -0.001530 0.000000 1.767260 
# 
# From -- ./inp_files/54478.got.cif
#   From: 2010.03.12/outbox.cif.g09.slc.cpg/sg14_28_cif.got.tgz:54478.got - 2010.03.31 13:35:05.
