data_PCOD8125090
_publ_section_title
;
Structure prediction by ZEFSAII (Michael W. Deem and Ramdas Pophale) SiO2 
 PCOD8125090
Probable space group: P 21/C
;
_chemical_formula_sum "Si O2"
_cell_formula_units_Z 32
_cell_length_a 5.897117
_cell_length_b 32.191143
_cell_length_c 8.686183
_cell_angle_alpha 90.000000
_cell_angle_beta 70.545053
_cell_angle_gamma 90.000000
_cell_volume 1554.792536
_symmetry_space_group_name_H-M "P 21/C"
_symmetry_group_IT_number 14
_symmetry_cell_setting 'monoclinic'
loop_
_space_group_symop_operation_xyz
x,y,z
-x,1/2+y,1/2-z
-x,-y,-z
x,1/2-y,1/2+z
loop_
_atom_site_type_symbol
_atom_site_label
_atom_site_fract_x
_atom_site_fract_y
_atom_site_fract_z
Si Si1 0.057303 0.136343 0.595506
Si Si2 0.235675 0.083474 0.803441
Si Si3 0.411508 0.858613 0.125170
Si Si4 0.771415 0.408417 0.604658
Si Si5 0.322087 0.292400 0.623687
Si Si6 0.294465 0.998378 0.909477
Si Si7 0.576885 0.794891 0.541473
Si Si8 0.121669 0.841284 0.679786
O O1 0.124667 0.091687 0.657986
O O2 0.269990 0.168637 0.567121
O O3 0.002231 0.131741 0.427020
O O4 0.836380 0.154871 0.741409
O O5 0.426121 0.120417 0.780843
O O6 0.352409 0.037322 0.784102
O O7 0.045923 0.088225 0.985614
O O8 0.393027 0.893490 0.998075
O O9 0.505114 0.816339 0.031153
O O10 0.668712 0.453501 0.680050
O O11 0.742175 0.375293 0.747822
O O12 0.320557 0.245864 0.562030
O O13 0.064019 0.315015 0.674776
O O14 0.411346 0.291884 0.777645
O O15 0.500000 0.000000 0.000000
O O16 0.000000 0.000000 0.000000
O O17 0.301538 0.807089 0.565358
#
# Coordination Sequence:
#
# PCOD8125090 Si02
#       8
#     4   4   4   4   4   4   4   4
#     4  10  25  40  62  89 129 174 214 263 332 394
#     4  10  20  38  64  96 128 168 219 270 327 388
#     4  11  20  39  65  89 124 166 216 263 321 390
#     4  10  20  37  65  95 125 173 212 272 326 396
#     4  11  26  39  64  91 121 165 218 264 330 389
#     4  10  20  36  64 105 138 168 226 285 335 398
#     4  11  26  42  60  92 126 166 211 275 324 396
#     4  11  23  44  61  90 130 173 212 267 334 399
#
# _framework density 20.581523000000001
#
# number of rings (size 3 to 8) (size 9 to 14) (size 15 to 20)
#    0.000    1.500    3.750    0.750    5.250    1.000 
#    0.000    0.625    0.000    3.000    0.000    0.000 
#    0.000    0.000    0.000    0.000    0.000    0.000 
#
# Total GULP energy -396453.770594 kJ/mol
# GULP energy per Si atom -12389.180331 kJ/mol
# Density = 2.053468 g / cm^3
# Si number density = 20.581523 Si / 1000 Ang^3
#
#
#
# Elastic Constant Matrix: (Units=GPa)
#
#
# Indices 1 2 3 4 5 6 
#
# 1 91.0048 26.9239 24.0692 0.0000 3.5655 0.0000
# 2 26.9239 117.0222 41.2863 0.0000 11.9774 0.0000
# 3 24.0692 41.2863 65.5884 0.0000 0.6234 0.0000
# 4 0.0000 0.0000 0.0000 9.2688 0.0000 20.6509
# 5 3.5655 11.9774 0.6234 0.0000 24.9595 0.0000
# 6 0.0000 0.0000 0.0000 20.6509 0.0000 9.8010
#
#
#
# Elastic Compliance Matrix: (Units=1/GPa)
#
#
# Indices 1 2 3 4 5 6 
#
# 1 0.012422 -0.001483 -0.003616 0.000000 -0.000973 0.000000
# 2 -0.001483 0.011852 -0.006866 0.000000 -0.005304 0.000000
# 3 -0.003616 -0.006866 0.020864 0.000000 0.003290 0.000000
# 4 0.000000 0.000000 0.000000 -0.029203 0.000000 0.061531
# 5 -0.000973 -0.005304 0.003290 0.000000 0.042667 0.000000
# 6 0.000000 0.000000 0.000000 0.061531 0.000000 -0.027617
#
#
# Mechanical properties :
#
#
# Convention : Reuss Voigt Hill
#
# Bulk Modulus (GPa) = 47.15048 50.90824 49.02936
# Shear Modulus (GPa) = 80.66824 20.89492 50.78158
#
# Velocity S-wave (km/s) = 6.26734 3.18972 4.97262
# Velocity P-wave (km/s) = 8.67938 6.19309 7.53943
#
# Compressibility (1/GPa) = 0.02120869
#
# Stress axis : x y z
#
# Youngs Moduli (GPa) = 80.50553 84.37606 47.92917
#
# Poissons Ratio (x) = 0.12510 0.17330
# Poissons Ratio (y) = 0.11936 0.32907
# Poissons Ratio (z) = 0.29109 0.57931
#
# Static dielectric constant tensor:
#      x y z
#    x 3.990350 0.000000 0.011430 
#    y 0.000000 3.916190 0.000000 
#    z 0.011430 0.000000 3.532630 
# 
# 
# High freq. dielectric constant tensor:
#      x y z
#    x 1.818200 0.000000 0.002720 
#    y 0.000000 1.807970 0.000000 
#    z 0.002720 0.000000 1.782240 
# 
# From -- ./inp_files/6946.got.cif
#   From: 2010.03.12/outbox.cif.g09.slc.cpg/sg14_4_cif.got.tgz:6946.got - 2010.03.31 13:35:05.
