data_PCOD8125414
_publ_section_title
;
Structure prediction by ZEFSAII (Michael W. Deem and Ramdas Pophale) SiO2 
 PCOD8125414
Probable space group: P 21/C
;
_chemical_formula_sum "Si O2"
_cell_formula_units_Z 28
_cell_length_a 4.987852
_cell_length_b 22.321042
_cell_length_c 11.941696
_cell_angle_alpha 90.000000
_cell_angle_beta 75.701388
_cell_angle_gamma 90.000000
_cell_volume 1288.331257
_symmetry_space_group_name_H-M "P 21/C"
_symmetry_group_IT_number 14
_symmetry_cell_setting 'monoclinic'
loop_
_space_group_symop_operation_xyz
x,y,z
-x,1/2+y,1/2-z
-x,-y,-z
x,1/2-y,1/2+z
loop_
_atom_site_type_symbol
_atom_site_label
_atom_site_fract_x
_atom_site_fract_y
_atom_site_fract_z
Si Si1 0.651432 0.324750 0.218700
Si Si2 0.365871 0.294255 0.822964
Si Si3 0.557419 0.584140 0.279807
Si Si4 0.843870 0.597644 0.783568
Si Si5 0.790710 0.324757 0.957617
Si Si6 0.870606 0.936460 0.529752
Si Si7 0.992838 0.019284 0.129230
O O1 0.521354 0.267847 0.292252
O O2 0.434027 0.379086 0.245507
O O3 0.923985 0.350252 0.251365
O O4 0.723376 0.301245 0.087862
O O5 0.402479 0.343239 0.719183
O O6 0.507348 0.323774 0.917367
O O7 0.038984 0.284139 0.879378
O O8 0.238698 0.569569 0.330913
O O9 0.724964 0.551429 0.361862
O O10 0.636243 0.559083 0.148641
O O11 0.761779 0.586475 0.921230
O O12 0.942449 0.538024 0.712277
O O13 0.890242 0.393242 0.948341
O O14 0.000000 0.000000 0.500000
O O15 0.000000 0.000000 0.000000
#
# Coordination Sequence:
#
# PCOD8125414 Si02
#       7
#     4   4   4   4   4   4   4
#     4  11  23  44  65  93 131 165 214 262 314 379
#     4  11  23  43  67  91 132 164 214 263 315 376
#     4  11  23  42  67  98 122 172 213 263 326 366
#     4  11  24  41  67  99 125 172 210 262 331 369
#     4  10  22  40  62 101 126 160 208 269 316 368
#     4  10  20  38  69  98 129 156 203 273 326 377
#     4  12  26  45  63  92 139 168 216 259 302 395
#
# _framework density 21.733542
#
# number of rings (size 3 to 8) (size 9 to 14) (size 15 to 20)
#    0.000    1.143    1.429    6.429    2.000    1.714 
#    7.714    0.000    0.000    0.000    0.000    0.000 
#    0.000    0.000    0.000    0.000    0.000    0.000 
#
# Total GULP energy -347209.244409 kJ/mol
# GULP energy per Si atom -12400.330157 kJ/mol
# Density = 2.168408 g / cm^3
# Si number density = 21.733542 Si / 1000 Ang^3
#
#
#
# Elastic Constant Matrix: (Units=GPa)
#
#
# Indices 1 2 3 4 5 6 
#
# 1 70.2455 2.9921 14.6025 0.0000 1.9741 0.0000
# 2 2.9921 48.5634 -0.2338 0.0000 -2.8756 0.0000
# 3 14.6025 -0.2338 52.4094 0.0000 9.3026 0.0000
# 4 0.0000 0.0000 0.0000 23.5587 0.0000 -4.5116
# 5 1.9741 -2.8756 9.3026 0.0000 28.7518 0.0000
# 6 0.0000 0.0000 0.0000 -4.5116 0.0000 26.7344
#
#
#
# Elastic Compliance Matrix: (Units=1/GPa)
#
#
# Indices 1 2 3 4 5 6 
#
# 1 0.015157 -0.000940 -0.004271 0.000000 0.000247 0.000000
# 2 -0.000940 0.020777 -0.000027 0.000000 0.002151 0.000000
# 3 -0.004271 -0.000027 0.021451 0.000000 -0.006650 0.000000
# 4 0.000000 0.000000 0.000000 0.043865 0.000000 0.007402
# 5 0.000247 0.002151 -0.006650 0.000000 0.037130 0.000000
# 6 0.000000 0.000000 0.000000 0.007402 0.000000 0.038654
#
#
# Mechanical properties :
#
#
# Convention : Reuss Voigt Hill
#
# Bulk Modulus (GPa) = 21.31836 22.88220 22.10028
# Shear Modulus (GPa) = 24.61287 26.06616 25.33951
#
# Velocity S-wave (km/s) = 3.36889 3.46692 3.41826
# Velocity P-wave (km/s) = 4.99628 5.15533 5.07643
#
# Compressibility (1/GPa) = 0.04690793
#
# Stress axis : x y z
#
# Youngs Moduli (GPa) = 65.97727 48.13059 46.61833
#
# Poissons Ratio (x) = 0.04523 0.19911
# Poissons Ratio (y) = 0.06200 0.00128
# Poissons Ratio (z) = 0.28180 0.00132
#
# Static dielectric constant tensor:
#      x y z
#    x 4.041350 0.000000 -0.067130 
#    y 0.000000 3.877960 0.000000 
#    z -0.067130 0.000000 4.141740 
# 
# 
# High freq. dielectric constant tensor:
#      x y z
#    x 1.868680 0.000000 -0.005210 
#    y 0.000000 1.854930 0.000000 
#    z -0.005210 0.000000 1.839520 
# 
# From -- ./inp_files/21511.got.cif
#   From: 2010.03.12/outbox.cif.g09.slc.cpg/sg14_11_cif.got.tgz:21511.got - 2010.03.31 13:35:05.
