data_PCOD8125441
_publ_section_title
;
Structure prediction by ZEFSAII (Michael W. Deem and Ramdas Pophale) SiO2 
 PCOD8125441
Probable space group: P 21/C
;
_chemical_formula_sum "Si O2"
_cell_formula_units_Z 32
_cell_length_a 21.564670
_cell_length_b 9.355610
_cell_length_c 22.698624
_cell_angle_alpha 90.000000
_cell_angle_beta 19.484488
_cell_angle_gamma 90.000000
_cell_volume 1527.487053
_symmetry_space_group_name_H-M "P 21/C"
_symmetry_group_IT_number 14
_symmetry_cell_setting 'monoclinic'
loop_
_space_group_symop_operation_xyz
x,y,z
-x,1/2+y,1/2-z
-x,-y,-z
x,1/2-y,1/2+z
loop_
_atom_site_type_symbol
_atom_site_label
_atom_site_fract_x
_atom_site_fract_y
_atom_site_fract_z
Si Si1 0.798145 0.355839 0.545040
Si Si2 0.190937 0.947870 0.095580
Si Si3 0.325901 0.164888 0.822560
Si Si4 0.539803 0.355350 0.548410
Si Si5 0.994896 0.640261 0.069456
Si Si6 0.518360 0.126795 0.765411
Si Si7 0.714562 0.062402 0.776699
Si Si8 0.852169 0.569693 0.976950
O O1 0.836441 0.365809 0.441352
O O2 0.754962 0.506078 0.614922
O O3 0.979263 0.283394 0.414184
O O4 0.619459 0.251204 0.712369
O O5 0.982567 0.976331 0.305363
O O6 0.313172 0.091725 0.975652
O O7 0.293169 0.856357 0.054322
O O8 0.400401 0.228041 0.693570
O O9 0.494374 0.168330 0.718533
O O10 0.159386 0.261235 0.999398
O O11 0.432187 0.509656 0.642062
O O12 0.621743 0.335234 0.409108
O O13 0.070086 0.500700 0.034423
O O14 0.785167 0.592482 0.241021
O O15 0.119776 0.656439 0.898767
O O16 0.641112 0.982441 0.654653
#
# Coordination Sequence:
#
# PCOD8125441 Si02
#       8
#     4   4   4   4   4   4   4   4
#     4  10  22  37  62  91 136 161 199 259 334 384
#     4  11  21  38  64  98 123 164 212 264 313 373
#     4  11  20  38  58  91 129 166 194 257 334 371
#     4  11  19  37  61  94 114 159 218 264 306 360
#     4  10  20  40  60  90 114 166 215 266 304 360
#     4  10  20  39  60  88 129 172 205 254 307 387
#     4  10  21  36  68  85 115 163 231 261 288 368
#     4  11  21  37  65  89 127 163 217 253 306 379
#
# _framework density 20.949439999999999
#
# number of rings (size 3 to 8) (size 9 to 14) (size 15 to 20)
#    0.000    1.500    5.000    1.500    0.000    4.000 
#    0.000    1.250    0.000    0.000    0.000    0.000 
#    0.000    0.000    0.000    0.000    0.000    0.000 
#
# Total GULP energy -396480.703922 kJ/mol
# GULP energy per Si atom -12390.021998 kJ/mol
# Density = 2.090176 g / cm^3
# Si number density = 20.949440 Si / 1000 Ang^3
#
#
#
# Elastic Constant Matrix: (Units=GPa)
#
#
# Indices 1 2 3 4 5 6 
#
# 1 68.3715 27.2710 17.6137 0.0000 9.9787 0.0000
# 2 27.2710 112.5302 34.4287 0.0000 8.5986 0.0000
# 3 17.6137 34.4287 114.6348 0.0000 21.6624 0.0000
# 4 0.0000 0.0000 0.0000 16.4833 0.0000 -0.4490
# 5 9.9787 8.5986 21.6624 0.0000 27.1630 0.0000
# 6 0.0000 0.0000 0.0000 -0.4490 0.0000 25.6010
#
#
#
# Elastic Compliance Matrix: (Units=1/GPa)
#
#
# Indices 1 2 3 4 5 6 
#
# 1 0.016873 -0.003536 -0.000672 0.000000 -0.004543 0.000000
# 2 -0.003536 0.010545 -0.002636 0.000000 0.000063 0.000000
# 3 -0.000672 -0.002636 0.011084 0.000000 -0.007759 0.000000
# 4 0.000000 0.000000 0.000000 0.060696 0.000000 0.001065
# 5 -0.004543 0.000063 -0.007759 0.000000 0.044651 0.000000
# 6 0.000000 0.000000 0.000000 0.001065 0.000000 0.039080
#
#
# Mechanical properties :
#
#
# Convention : Reuss Voigt Hill
#
# Bulk Modulus (GPa) = 40.29913 50.46260 45.38086
# Shear Modulus (GPa) = 24.40357 28.26435 26.33396
#
# Velocity S-wave (km/s) = 3.41674 3.67709 3.54930
# Velocity P-wave (km/s) = 5.90285 6.49370 6.20531
#
# Compressibility (1/GPa) = 0.02481443
#
# Stress axis : x y z
#
# Youngs Moduli (GPa) = 59.26766 94.83133 90.21805
#
# Poissons Ratio (x) = 0.33535 0.06062
# Poissons Ratio (y) = 0.20959 0.23777
# Poissons Ratio (z) = 0.03982 0.24993
#
# Static dielectric constant tensor:
#      x y z
#    x 3.968270 0.000000 -0.033700 
#    y 0.000000 3.515490 0.000000 
#    z -0.033700 0.000000 3.904890 
# 
# 
# High freq. dielectric constant tensor:
#      x y z
#    x 1.825170 0.000000 0.001220 
#    y 0.000000 1.782290 0.000000 
#    z 0.001220 0.000000 1.817180 
# 
# From -- ./inp_files/74895.got.cif
#   From: 2010.03.12/outbox.cif.g09.slc.cpg/sg14_38_cif.got.tgz:74895.got - 2010.03.31 13:35:05.
