data_PCOD8125792
_publ_section_title
;
Structure prediction by ZEFSAII (Michael W. Deem and Ramdas Pophale) SiO2 
 PCOD8125792
Probable space group: P 21/C
;
_chemical_formula_sum "Si O2"
_cell_formula_units_Z 32
_cell_length_a 9.231596
_cell_length_b 11.238021
_cell_length_c 22.719058
_cell_angle_alpha 90.000000
_cell_angle_beta 137.988688
_cell_angle_gamma 90.000000
_cell_volume 1577.477066
_symmetry_space_group_name_H-M "P 21/C"
_symmetry_group_IT_number 14
_symmetry_cell_setting 'monoclinic'
loop_
_space_group_symop_operation_xyz
x,y,z
-x,1/2+y,1/2-z
-x,-y,-z
x,1/2-y,1/2+z
loop_
_atom_site_type_symbol
_atom_site_label
_atom_site_fract_x
_atom_site_fract_y
_atom_site_fract_z
Si Si1 0.018251 0.759576 0.347821
Si Si2 0.389205 0.016117 0.372739
Si Si3 0.753315 0.015657 0.078843
Si Si4 0.369537 0.380539 0.739003
Si Si5 0.039823 0.842078 0.231372
Si Si6 0.068642 0.557890 0.580958
Si Si7 0.185171 0.483904 0.931621
Si Si8 0.164489 0.798347 0.653472
O O1 0.196204 0.655535 0.406406
O O2 0.947390 0.767769 0.258120
O O3 0.804311 0.725772 0.320422
O O4 0.114649 0.879983 0.402374
O O5 0.399584 0.099170 0.318167
O O6 0.267155 0.072257 0.393709
O O7 0.269414 0.895465 0.319585
O O8 0.629507 0.979931 0.463666
O O9 0.848561 0.950279 0.050968
O O10 0.866571 0.948376 0.167900
O O11 0.500000 0.000000 0.000000
O O12 0.269062 0.495336 0.675559
O O13 0.589744 0.344353 0.773310
O O14 0.094508 0.757631 0.193994
O O15 0.131840 0.697480 0.593039
O O16 0.000000 0.500000 0.500000
O O17 0.989327 0.411401 0.901708
#
# Coordination Sequence:
#
# PCOD8125792 Si02
#       8
#     4   4   4   4   4   4   4   4
#     4  10  22  39  63  97 127 164 211 266 321 389
#     4  10  20  44  62  90 129 160 207 265 318 375
#     4  10  22  41  64  95 124 165 211 265 324 374
#     4  11  23  41  65  84 133 170 208 265 320 382
#     4  10  21  40  65  88 129 161 216 262 321 386
#     4  10  24  45  59  91 130 168 215 261 317 380
#     4  10  24  37  68  99 124 165 211 266 327 382
#     4  11  24  39  64  97 125 172 215 260 321 390
#
# _framework density 20.285557000000001
#
# number of rings (size 3 to 8) (size 9 to 14) (size 15 to 20)
#    0.000    1.750    3.750    0.750    3.500   12.500 
#    0.000    0.000    0.000    0.000    0.000    0.000 
#    0.000    0.000    0.000    0.000    0.000    0.000 
#
# Total GULP energy -396632.573560 kJ/mol
# GULP energy per Si atom -12394.767924 kJ/mol
# Density = 2.023939 g / cm^3
# Si number density = 20.285557 Si / 1000 Ang^3
#
#
#
# Elastic Constant Matrix: (Units=GPa)
#
#
# Indices 1 2 3 4 5 6 
#
# 1 70.5716 47.7510 54.5259 0.0000 29.7482 0.0000
# 2 47.7510 119.2294 58.7432 0.0000 23.2066 0.0000
# 3 54.5259 58.7432 140.1943 0.0000 22.3913 0.0000
# 4 0.0000 0.0000 0.0000 19.0228 0.0000 -0.8619
# 5 29.7482 23.2066 22.3913 0.0000 44.4209 0.0000
# 6 0.0000 0.0000 0.0000 -0.8619 0.0000 25.2365
#
#
#
# Elastic Compliance Matrix: (Units=1/GPa)
#
#
# Indices 1 2 3 4 5 6 
#
# 1 0.028563 -0.005648 -0.006698 0.000000 -0.012801 0.000000
# 2 -0.005648 0.012236 -0.002734 0.000000 -0.001232 0.000000
# 3 -0.006698 -0.002734 0.010809 0.000000 0.000465 0.000000
# 4 0.000000 0.000000 0.000000 0.052650 0.000000 0.001798
# 5 -0.012801 -0.001232 0.000465 0.000000 0.031494 0.000000
# 6 0.000000 0.000000 0.000000 0.001798 0.000000 0.039687
#
#
# Mechanical properties :
#
#
# Convention : Reuss Voigt Hill
#
# Bulk Modulus (GPa) = 46.62170 72.44840 59.53505
# Shear Modulus (GPa) = 23.50223 29.00104 26.25164
#
# Velocity S-wave (km/s) = 3.40747 3.78516 3.60127
# Velocity P-wave (km/s) = 6.20594 7.40912 6.83406
#
# Compressibility (1/GPa) = 0.02144924
#
# Stress axis : x y z
#
# Youngs Moduli (GPa) = 35.01094 81.72823 92.51468
#
# Poissons Ratio (x) = 0.46157 0.61965
# Poissons Ratio (y) = 0.19773 0.25290
# Poissons Ratio (z) = 0.23450 0.22341
#
# Static dielectric constant tensor:
#      x y z
#    x 3.642470 0.000000 -0.072910 
#    y 0.000000 3.766210 0.000000 
#    z -0.072910 0.000000 3.757930 
# 
# 
# High freq. dielectric constant tensor:
#      x y z
#    x 1.786060 0.000000 0.002520 
#    y 0.000000 1.794580 0.000000 
#    z 0.002520 0.000000 1.795800 
# 
# From -- ./inp_files/72363.got.cif
#   From: 2010.03.12/outbox.cif.g09.slc.cpg/sg14_37_cif.got.tgz:72363.got - 2010.03.31 13:35:05.
