data_PCOD8125373
_publ_section_title
;
Structure prediction by ZEFSAII (Michael W. Deem and Ramdas Pophale) SiO2 
 PCOD8125373
Probable space group: P 21/C
;
_chemical_formula_sum "Si O2"
_cell_formula_units_Z 28
_cell_length_a 11.622800
_cell_length_b 13.028780
_cell_length_c 20.706196
_cell_angle_alpha 90.000000
_cell_angle_beta 154.813651
_cell_angle_gamma 90.000000
_cell_volume 1334.379657
_symmetry_space_group_name_H-M "P 21/C"
_symmetry_group_IT_number 14
_symmetry_cell_setting 'monoclinic'
loop_
_space_group_symop_operation_xyz
x,y,z
-x,1/2+y,1/2-z
-x,-y,-z
x,1/2-y,1/2+z
loop_
_atom_site_type_symbol
_atom_site_label
_atom_site_fract_x
_atom_site_fract_y
_atom_site_fract_z
Si Si1 0.534892 0.868528 0.906657
Si Si2 0.040416 0.885948 0.352060
Si Si3 0.403386 0.590606 0.539713
Si Si4 0.196929 0.771355 0.039099
Si Si5 0.812145 0.268214 0.675616
Si Si6 0.058352 0.391971 0.903028
Si Si7 0.291929 0.250638 0.619044
O O1 0.465311 0.776235 0.922457
O O2 0.736960 0.833103 0.953345
O O3 0.251489 0.907279 0.730805
O O4 0.653866 0.969885 0.001796
O O5 0.183403 0.818369 0.479612
O O6 0.135309 0.843154 0.329534
O O7 0.716637 0.877473 0.191310
O O8 0.156760 0.000402 0.421978
O O9 0.297395 0.623375 0.556871
O O10 0.211125 0.646062 0.391254
O O11 0.404374 0.745860 0.201420
O O12 0.905438 0.783262 0.923825
O O13 0.062069 0.302305 0.849214
O O14 0.229559 0.359736 0.053471
#
# Coordination Sequence:
#
# PCOD8125373 Si02
#       7
#     4   4   4   4   4   4   4
#     4   9  21  37  61  90 122 162 207 253 320 374
#     4  10  21  39  64  91 123 168 212 249 314 386
#     4  10  20  38  63  91 121 168 207 255 320 378
#     4  11  23  39  65  89 126 166 213 263 306 368
#     4   9  20  35  62  94 115 164 206 262 303 383
#     4   9  22  37  62  92 121 171 204 251 323 372
#     4  12  22  41  59  92 125 167 211 264 308 368
#
# _framework density 20.983533000000001
#
# number of rings (size 3 to 8) (size 9 to 14) (size 15 to 20)
#    0.857    1.143    2.857    0.429    2.000    2.286 
#    0.000    0.714    0.000    0.000    0.000    0.000 
#    0.000    0.000    0.000    0.000    0.000    0.000 
#
# Total GULP energy -346901.298960 kJ/mol
# GULP energy per Si atom -12389.332106 kJ/mol
# Density = 2.093577 g / cm^3
# Si number density = 20.983533 Si / 1000 Ang^3
#
#
#
# Elastic Constant Matrix: (Units=GPa)
#
#
# Indices 1 2 3 4 5 6 
#
# 1 98.2629 30.1099 5.7373 0.0000 -6.8537 0.0000
# 2 30.1099 57.1929 7.8203 0.0000 3.3616 0.0000
# 3 5.7373 7.8203 50.4581 0.0000 -11.1552 0.0000
# 4 0.0000 0.0000 0.0000 25.3735 0.0000 -0.7065
# 5 -6.8537 3.3616 -11.1552 0.0000 22.8127 0.0000
# 6 0.0000 0.0000 0.0000 -0.7065 0.0000 29.1164
#
#
#
# Elastic Compliance Matrix: (Units=1/GPa)
#
#
# Indices 1 2 3 4 5 6 
#
# 1 0.012668 -0.007090 0.000819 0.000000 0.005251 0.000000
# 2 -0.007090 0.022247 -0.004303 0.000000 -0.007512 0.000000
# 3 0.000819 -0.004303 0.023082 0.000000 0.012167 0.000000
# 4 0.000000 0.000000 0.000000 0.039438 0.000000 0.000957
# 5 0.005251 -0.007512 0.012167 0.000000 0.052469 0.000000
# 6 0.000000 0.000000 0.000000 0.000957 0.000000 0.034368
#
#
# Mechanical properties :
#
#
# Convention : Reuss Voigt Hill
#
# Bulk Modulus (GPa) = 27.13652 32.58320 29.85986
# Shear Modulus (GPa) = 22.96721 26.27695 24.62208
#
# Velocity S-wave (km/s) = 3.31196 3.54258 3.42921
# Velocity P-wave (km/s) = 5.25222 5.68285 5.47178
#
# Compressibility (1/GPa) = 0.03685071
#
# Stress axis : x y z
#
# Youngs Moduli (GPa) = 78.94122 44.94975 43.32377
#
# Poissons Ratio (x) = 0.31868 -0.03550
# Poissons Ratio (y) = 0.55967 0.18641
# Poissons Ratio (z) = -0.06468 0.19340
#
# Static dielectric constant tensor:
#      x y z
#    x 3.804980 0.000000 -0.172310 
#    y 0.000000 3.717100 0.000000 
#    z -0.172310 0.000000 3.618240 
# 
# 
# High freq. dielectric constant tensor:
#      x y z
#    x 1.819540 0.000000 -0.016020 
#    y 0.000000 1.804820 0.000000 
#    z -0.016020 0.000000 1.814800 
# 
# From -- ./inp_files/67370.got.cif
#   From: 2010.03.12/outbox.cif.g09.slc.cpg/sg14_34_cif.got.tgz:67370.got - 2010.03.31 13:35:05.
