data_PCOD8125837
_publ_section_title
;
Structure prediction by ZEFSAII (Michael W. Deem and Ramdas Pophale) SiO2 
 PCOD8125837
Probable space group: P 21/C
;
_chemical_formula_sum "Si O2"
_cell_formula_units_Z 32
_cell_length_a 26.004554
_cell_length_b 9.951918
_cell_length_c 20.795898
_cell_angle_alpha 90.000000
_cell_angle_beta 161.799951
_cell_angle_gamma 90.000000
_cell_volume 1680.952910
_symmetry_space_group_name_H-M "P 21/C"
_symmetry_group_IT_number 14
_symmetry_cell_setting 'monoclinic'
loop_
_space_group_symop_operation_xyz
x,y,z
-x,1/2+y,1/2-z
-x,-y,-z
x,1/2-y,1/2+z
loop_
_atom_site_type_symbol
_atom_site_label
_atom_site_fract_x
_atom_site_fract_y
_atom_site_fract_z
Si Si1 0.300926 0.142940 0.278072
Si Si2 0.534332 0.999626 0.244248
Si Si3 0.114472 0.000400 0.404543
Si Si4 0.735253 0.398459 0.794107
Si Si5 0.142770 0.196981 0.960588
Si Si6 0.346477 0.857038 0.369313
Si Si7 0.507005 0.802994 0.689169
Si Si8 0.617472 0.898475 0.058636
O O1 0.475816 0.136275 0.451571
O O2 0.307698 0.249591 0.344408
O O3 0.255117 0.000024 0.255106
O O4 0.166563 0.187094 0.065719
O O5 0.714770 0.016681 0.429527
O O6 0.525661 0.076765 0.300726
O O7 0.492450 0.842571 0.205668
O O8 0.398311 0.064235 0.034984
O O9 0.124883 0.935837 0.488189
O O10 0.975442 0.923289 0.200360
O O11 0.066034 0.157470 0.352800
O O12 0.765875 0.249600 0.802610
O O13 0.559931 0.411450 0.619822
O O14 0.741668 0.500023 0.741681
O O15 0.313951 0.176325 0.127850
O O16 0.368101 0.812953 0.468930
#
# Coordination Sequence:
#
# PCOD8125837 Si02
#       8
#     4   4   4   4   4   4   4   4
#     4   9  17  29  49  77 103 129 171 222 262 299
#     4  10  21  35  54  79 108 141 175 214 263 316
#     4  10  21  35  54  79 108 141 175 214 263 316
#     4   9  15  29  51  73  98 130 171 219 261 297
#     4  10  21  36  53  79 111 139 173 217 261 313
#     4   9  17  29  49  77 103 129 171 222 262 299
#     4  10  21  36  53  79 111 139 173 217 261 313
#     4   9  15  29  51  73  98 130 171 219 261 297
#
# _framework density 19.036822000000001
#
# number of rings (size 3 to 8) (size 9 to 14) (size 15 to 20)
#    0.000    2.500    2.500    0.000    3.500    1.000 
#    0.000    0.000    0.000    3.000    0.000    0.000 
#    0.000    0.000    0.000    0.000    0.000    0.000 
#
# Total GULP energy -396729.003868 kJ/mol
# GULP energy per Si atom -12397.781371 kJ/mol
# Density = 1.899349 g / cm^3
# Si number density = 19.036822 Si / 1000 Ang^3
#
#
#
# Elastic Constant Matrix: (Units=GPa)
#
#
# Indices 1 2 3 4 5 6 
#
# 1 51.3745 30.1497 10.2078 0.0000 -16.0181 0.0000
# 2 30.1497 147.5361 31.2161 0.0000 -7.5979 0.0000
# 3 10.2078 31.2161 55.8087 0.0000 -14.9125 0.0000
# 4 0.0000 0.0000 0.0000 41.3465 0.0000 -3.8712
# 5 -16.0181 -7.5979 -14.9125 0.0000 14.5597 0.0000
# 6 0.0000 0.0000 0.0000 -3.8712 0.0000 40.7970
#
#
#
# Elastic Compliance Matrix: (Units=1/GPa)
#
#
# Indices 1 2 3 4 5 6 
#
# 1 0.035904 -0.007007 0.009541 0.000000 0.045616 0.000000
# 2 -0.007007 0.009058 -0.006308 0.000000 -0.009443 0.000000
# 3 0.009541 -0.006308 0.029776 0.000000 0.037703 0.000000
# 4 0.000000 0.000000 0.000000 0.024403 0.000000 0.002316
# 5 0.045616 -0.009443 0.037703 0.000000 0.152557 0.000000
# 6 0.000000 0.000000 0.000000 0.002316 0.000000 0.024731
#
#
# Mechanical properties :
#
#
# Convention : Reuss Voigt Hill
#
# Bulk Modulus (GPa) = 14.88304 44.20741 29.54522
# Shear Modulus (GPa) = 16.31994 31.55037 23.93515
#
# Velocity S-wave (km/s) = 2.93112 4.07545 3.54970
# Velocity P-wave (km/s) = 4.39207 6.73930 5.68808
#
# Compressibility (1/GPa) = 0.06719056
#
# Stress axis : x y z
#
# Youngs Moduli (GPa) = 27.85217 110.39629 33.58400
#
# Poissons Ratio (x) = 0.77351 -0.32043
# Poissons Ratio (y) = 0.19515 0.21186
# Poissons Ratio (z) = -0.26574 0.69640
#
# Static dielectric constant tensor:
#      x y z
#    x 3.204690 0.000000 -0.414010 
#    y 0.000000 3.748010 0.000000 
#    z -0.414010 0.000000 3.264400 
# 
# 
# High freq. dielectric constant tensor:
#      x y z
#    x 1.707450 0.000000 -0.039760 
#    y 0.000000 1.759510 0.000000 
#    z -0.039760 0.000000 1.713200 
# 
# From -- ./inp_files/41731.got.cif
#   From: 2010.03.12/outbox.cif.g09.slc.cpg/sg14_21_cif.got.tgz:41731.got - 2010.03.31 13:35:05.
