data_PCOD8125928
_publ_section_title
;
Structure prediction by ZEFSAII (Michael W. Deem and Ramdas Pophale) SiO2 
 PCOD8125928
Probable space group: P 21/C
;
_chemical_formula_sum "Si O2"
_cell_formula_units_Z 32
_cell_length_a 11.225826
_cell_length_b 9.599877
_cell_length_c 14.564013
_cell_angle_alpha 90.000000
_cell_angle_beta 67.606297
_cell_angle_gamma 90.000000
_cell_volume 1451.153129
_symmetry_space_group_name_H-M "P 21/C"
_symmetry_group_IT_number 14
_symmetry_cell_setting 'monoclinic'
loop_
_space_group_symop_operation_xyz
x,y,z
-x,1/2+y,1/2-z
-x,-y,-z
x,1/2-y,1/2+z
loop_
_atom_site_type_symbol
_atom_site_label
_atom_site_fract_x
_atom_site_fract_y
_atom_site_fract_z
Si Si1 0.549079 0.178891 0.525285
Si Si2 0.265588 0.690550 0.192519
Si Si3 0.734603 0.732375 0.834038
Si Si4 0.197255 0.985664 0.261259
Si Si5 0.372683 0.190462 0.820696
Si Si6 0.900399 0.514852 0.870500
Si Si7 0.296686 0.044705 0.423888
Si Si8 0.598791 0.373741 0.668879
O O1 0.602090 0.182761 0.405623
O O2 0.394605 0.196347 0.569806
O O3 0.621574 0.300430 0.563455
O O4 0.580790 0.027853 0.561797
O O5 0.212318 0.845360 0.201096
O O6 0.153761 0.596756 0.184764
O O7 0.285369 0.646386 0.292957
O O8 0.725942 0.664944 0.734500
O O9 0.858830 0.667121 0.846660
O O10 0.757319 0.896622 0.823098
O O11 0.051199 0.006363 0.336924
O O12 0.290612 0.987488 0.321946
O O13 0.308163 0.284895 0.920122
O O14 0.479137 0.294103 0.748112
O O15 0.423925 0.040558 0.841416
O O16 0.834510 0.495127 0.988840
#
# Coordination Sequence:
#
# PCOD8125928 Si02
#       8
#     4   4   4   4   4   4   4   4
#     4  10  23  40  62  99 127 155 210 257 328 375
#     4  11  24  39  65  92 125 170 200 266 314 372
#     4  10  22  38  60  92 124 158 207 263 307 373
#     4  11  23  43  62  88 129 170 211 254 310 367
#     4  10  21  36  61  89 123 162 197 253 322 368
#     4  11  23  41  64  90 121 171 220 251 303 377
#     4  10  22  39  65  91 121 166 208 265 307 376
#     4  11  21  39  60  91 132 159 200 253 319 382
#
# _framework density 22.051428999999999
#
# number of rings (size 3 to 8) (size 9 to 14) (size 15 to 20)
#    0.000    1.500    2.500    2.625    5.250    2.500 
#    0.000    0.000    0.000    1.500    0.000    0.000 
#    0.000    0.000    0.000    0.000    0.000    0.000 
#
# Total GULP energy -396725.705271 kJ/mol
# GULP energy per Si atom -12397.678290 kJ/mol
# Density = 2.200124 g / cm^3
# Si number density = 22.051429 Si / 1000 Ang^3
#
#
#
# Elastic Constant Matrix: (Units=GPa)
#
#
# Indices 1 2 3 4 5 6 
#
# 1 47.3379 8.7596 9.7954 0.0000 -12.9729 0.0000
# 2 8.7596 131.3313 16.0927 0.0000 -4.6105 0.0000
# 3 9.7954 16.0927 46.4108 0.0000 0.5562 0.0000
# 4 0.0000 0.0000 0.0000 26.8343 0.0000 -2.9531
# 5 -12.9729 -4.6105 0.5562 0.0000 32.5525 0.0000
# 6 0.0000 0.0000 0.0000 -2.9531 0.0000 22.7421
#
#
#
# Elastic Compliance Matrix: (Units=1/GPa)
#
#
# Indices 1 2 3 4 5 6 
#
# 1 0.025056 -0.000688 -0.005169 0.000000 0.009976 0.000000
# 2 -0.000688 0.008016 -0.002645 0.000000 0.000907 0.000000
# 3 -0.005169 -0.002645 0.023589 0.000000 -0.002838 0.000000
# 4 0.000000 0.000000 0.000000 0.037806 0.000000 0.004909
# 5 0.009976 0.000907 -0.002838 0.000000 0.034872 0.000000
# 6 0.000000 0.000000 0.000000 0.004909 0.000000 0.044609
#
#
# Mechanical properties :
#
#
# Convention : Reuss Voigt Hill
#
# Bulk Modulus (GPa) = 25.21666 32.70838 28.96252
# Shear Modulus (GPa) = 24.48928 29.12126 26.80527
#
# Velocity S-wave (km/s) = 3.33611 3.63796 3.49030
# Velocity P-wave (km/s) = 5.12833 5.70187 5.42268
#
# Compressibility (1/GPa) = 0.03965632
#
# Stress axis : x y z
#
# Youngs Moduli (GPa) = 39.91130 124.74807 42.39258
#
# Poissons Ratio (x) = 0.08577 0.21914
# Poissons Ratio (y) = 0.02744 0.11214
# Poissons Ratio (z) = 0.20632 0.33000
#
# Static dielectric constant tensor:
#      x y z
#    x 3.845280 0.000000 0.302830 
#    y 0.000000 4.236690 0.000000 
#    z 0.302830 0.000000 4.125660 
# 
# 
# High freq. dielectric constant tensor:
#      x y z
#    x 1.850830 0.000000 0.020030 
#    y 0.000000 1.881960 0.000000 
#    z 0.020030 0.000000 1.856610 
# 
# From -- ./inp_files/43695.got.cif
#   From: 2010.03.12/outbox.cif.g09.slc.cpg/sg14_22_cif.got.tgz:43695.got - 2010.03.31 13:35:05.
