data_PCOD8125534
_publ_section_title
;
Structure prediction by ZEFSAII (Michael W. Deem and Ramdas Pophale) SiO2 
 PCOD8125534
Probable space group: P 21/C
;
_chemical_formula_sum "Si O2"
_cell_formula_units_Z 24
_cell_length_a 5.384676
_cell_length_b 8.768603
_cell_length_c 22.338658
_cell_angle_alpha 90.000000
_cell_angle_beta 81.028169
_cell_angle_gamma 90.000000
_cell_volume 1041.839345
_symmetry_space_group_name_H-M "P 21/C"
_symmetry_group_IT_number 14
_symmetry_cell_setting 'monoclinic'
loop_
_space_group_symop_operation_xyz
x,y,z
-x,1/2+y,1/2-z
-x,-y,-z
x,1/2-y,1/2+z
loop_
_atom_site_type_symbol
_atom_site_label
_atom_site_fract_x
_atom_site_fract_y
_atom_site_fract_z
Si Si1 0.266341 0.606711 0.940346
Si Si2 0.909583 0.241105 0.166481
Si Si3 0.048019 0.827675 0.567147
Si Si4 0.447724 0.748676 0.718223
Si Si5 0.297577 0.474720 0.154527
Si Si6 0.020383 0.387975 0.334840
O O1 0.091605 0.705587 0.902518
O O2 0.542205 0.611181 0.902542
O O3 0.183114 0.428651 0.949512
O O4 0.258514 0.682153 0.006823
O O5 0.637410 0.262615 0.208704
O O6 0.115554 0.349081 0.192458
O O7 0.993033 0.068543 0.168708
O O8 0.972457 0.659933 0.594315
O O9 0.130635 0.903036 0.626057
O O10 0.722591 0.676723 0.703606
O O11 0.235420 0.664014 0.687580
O O12 0.456911 0.928728 0.697773
#
# Coordination Sequence:
#
# PCOD8125534 Si02
#       6
#     4   4   4   4   4   4
#     4  10  20  39  66  92 127 170 221 264 327 394
#     4  11  26  37  64  97 130 166 219 274 332 383
#     4   9  20  40  65  92 126 171 222 267 321 398
#     4  11  25  43  67  89 136 173 219 262 328 403
#     4  10  21  41  63  95 122 178 218 265 323 398
#     4  11  25  44  65  99 128 174 216 278 331 378
#
# _framework density 23.036180000000002
#
# number of rings (size 3 to 8) (size 9 to 14) (size 15 to 20)
#    0.000    1.667    1.667    1.500    7.000    0.667 
#    0.000    0.833    0.000    0.000    0.000    0.000 
#    0.000    0.000    0.000    0.000    0.000    0.000 
#
# Total GULP energy -297430.473014 kJ/mol
# GULP energy per Si atom -12392.936376 kJ/mol
# Density = 2.298375 g / cm^3
# Si number density = 23.036180 Si / 1000 Ang^3
#
#
#
# Elastic Constant Matrix: (Units=GPa)
#
#
# Indices 1 2 3 4 5 6 
#
# 1 69.2190 14.2560 1.9045 0.0000 -12.9125 0.0000
# 2 14.2560 115.7099 25.0157 0.0000 -0.4819 0.0000
# 3 1.9045 25.0157 109.4718 0.0000 -16.4720 0.0000
# 4 0.0000 0.0000 0.0000 23.8069 0.0000 -9.1528
# 5 -12.9125 -0.4819 -16.4720 0.0000 34.7135 0.0000
# 6 0.0000 0.0000 0.0000 -9.1528 0.0000 12.0636
#
#
#
# Elastic Compliance Matrix: (Units=1/GPa)
#
#
# Indices 1 2 3 4 5 6 
#
# 1 0.016088 -0.002216 0.001209 0.000000 0.006527 0.000000
# 2 -0.002216 0.009424 -0.002390 0.000000 -0.001828 0.000000
# 3 0.001209 -0.002390 0.010470 0.000000 0.005385 0.000000
# 4 0.000000 0.000000 0.000000 0.059303 0.000000 0.044994
# 5 0.006527 -0.001828 0.005385 0.000000 0.033765 0.000000
# 6 0.000000 0.000000 0.000000 0.044994 0.000000 0.117032
#
#
# Mechanical properties :
#
#
# Convention : Reuss Voigt Hill
#
# Bulk Modulus (GPa) = 34.26180 41.86145 38.06163
# Shear Modulus (GPa) = 19.03990 30.99842 25.01916
#
# Velocity S-wave (km/s) = 2.87805 3.67228 3.29915
# Velocity P-wave (km/s) = 5.09407 6.01601 5.57413
#
# Compressibility (1/GPa) = 0.02918702
#
# Stress axis : x y z
#
# Youngs Moduli (GPa) = 62.15941 106.10697 95.50989
#
# Poissons Ratio (x) = 0.23515 -0.11544
# Poissons Ratio (y) = 0.13776 0.22827
# Poissons Ratio (z) = -0.07513 0.25360
#
# Static dielectric constant tensor:
#      x y z
#    x 3.907290 0.000000 -0.083390 
#    y 0.000000 4.260140 0.000000 
#    z -0.083390 0.000000 4.439450 
# 
# 
# High freq. dielectric constant tensor:
#      x y z
#    x 1.901070 0.000000 -0.008520 
#    y 0.000000 1.898720 0.000000 
#    z -0.008520 0.000000 1.917450 
# 
# From -- ./inp_files/70971.got.cif
#   From: 2010.03.12/outbox.cif.g09.slc.cpg/sg14_36_cif.got.tgz:70971.got - 2010.03.31 13:35:05.
