data_PCOD8125775
_publ_section_title
;
Structure prediction by ZEFSAII (Michael W. Deem and Ramdas Pophale) SiO2 
 PCOD8125775
Probable space group: P 21/C
;
_chemical_formula_sum "Si O2"
_cell_formula_units_Z 32
_cell_length_a 11.172544
_cell_length_b 8.209125
_cell_length_c 14.783053
_cell_angle_alpha 90.000000
_cell_angle_beta 74.440341
_cell_angle_gamma 90.000000
_cell_volume 1306.164665
_symmetry_space_group_name_H-M "P 21/C"
_symmetry_group_IT_number 14
_symmetry_cell_setting 'monoclinic'
loop_
_space_group_symop_operation_xyz
x,y,z
-x,1/2+y,1/2-z
-x,-y,-z
x,1/2-y,1/2+z
loop_
_atom_site_type_symbol
_atom_site_label
_atom_site_fract_x
_atom_site_fract_y
_atom_site_fract_z
Si Si1 0.350913 0.116163 0.214664
Si Si2 0.574951 0.908052 0.601976
Si Si3 0.958404 0.636697 0.633856
Si Si4 0.387419 0.778735 0.882865
Si Si5 0.075471 0.935172 0.685084
Si Si6 0.762003 0.796353 0.414988
Si Si7 0.686007 0.254192 0.300694
Si Si8 0.180667 0.991651 0.988908
O O1 0.344793 0.136561 0.324605
O O2 0.494563 0.110002 0.158297
O O3 0.280705 0.269286 0.181561
O O4 0.302835 0.946501 0.183781
O O5 0.644333 0.840453 0.500306
O O6 0.437465 0.829890 0.632481
O O7 0.567654 0.102648 0.591322
O O8 0.979813 0.520670 0.715415
O O9 0.832733 0.581833 0.606850
O O10 0.962926 0.827268 0.664875
O O11 0.064762 0.622541 0.536124
O O12 0.307837 0.766352 0.807917
O O13 0.301601 0.875893 0.970980
O O14 0.191468 0.818943 0.680742
O O15 0.127753 0.070732 0.604631
O O16 0.816566 0.627070 0.435317
#
# Coordination Sequence:
#
# PCOD8125775 Si02
#       8
#     4   4   4   4   4   4   4   4
#     4  10  23  40  67 103 142 179 222 267 338 423
#     4  10  23  40  65 106 141 175 223 270 334 423
#     4  11  26  45  69  95 133 174 237 292 343 390
#     4  10  20  42  69  99 141 181 216 277 342 403
#     4  12  25  46  69  98 132 179 228 292 338 408
#     4  12  26  41  69 102 134 185 219 275 345 412
#     4  10  21  41  69  99 137 181 220 279 342 403
#     4  11  24  45  68  98 134 180 226 288 340 403
#
# _framework density 24.499210000000001
#
# number of rings (size 3 to 8) (size 9 to 14) (size 15 to 20)
#    0.000    1.250    1.250    3.750    1.750    7.500 
#    2.250    0.000    0.000    0.000    0.000    0.000 
#    0.000    0.000    0.000    0.000    0.000    0.000 
#
# Total GULP energy -396797.388444 kJ/mol
# GULP energy per Si atom -12399.918389 kJ/mol
# Density = 2.444345 g / cm^3
# Si number density = 24.499210 Si / 1000 Ang^3
#
#
#
# Elastic Constant Matrix: (Units=GPa)
#
#
# Indices 1 2 3 4 5 6 
#
# 1 35.0147 25.2772 7.6674 0.0000 3.0675 0.0000
# 2 25.2772 124.9639 37.2715 0.0000 5.1633 0.0000
# 3 7.6674 37.2715 81.2015 0.0000 0.6262 0.0000
# 4 0.0000 0.0000 0.0000 46.2888 0.0000 -5.7338
# 5 3.0675 5.1633 0.6262 0.0000 29.1870 0.0000
# 6 0.0000 0.0000 0.0000 -5.7338 0.0000 42.8023
#
#
#
# Elastic Compliance Matrix: (Units=1/GPa)
#
#
# Indices 1 2 3 4 5 6 
#
# 1 0.033602 -0.006672 -0.000092 0.000000 -0.002349 0.000000
# 2 -0.006672 0.010667 -0.004258 0.000000 -0.001094 0.000000
# 3 -0.000092 -0.004258 0.014275 0.000000 0.000457 0.000000
# 4 0.000000 0.000000 0.000000 0.021968 0.000000 0.002943
# 5 -0.002349 -0.001094 0.000457 0.000000 0.034693 0.000000
# 6 0.000000 0.000000 0.000000 0.002943 0.000000 0.023757
#
#
# Mechanical properties :
#
#
# Convention : Reuss Voigt Hill
#
# Bulk Modulus (GPa) = 27.39773 42.40137 34.89955
# Shear Modulus (GPa) = 28.87291 35.05324 31.96307
#
# Velocity S-wave (km/s) = 3.43669 3.78668 3.61592
# Velocity P-wave (km/s) = 5.19184 6.03850 5.63110
#
# Compressibility (1/GPa) = 0.03649938
#
# Stress axis : x y z
#
# Youngs Moduli (GPa) = 29.75994 93.74618 70.05490
#
# Poissons Ratio (x) = 0.62551 0.00645
# Poissons Ratio (y) = 0.19857 0.29827
# Poissons Ratio (z) = 0.00274 0.39915
#
# Static dielectric constant tensor:
#      x y z
#    x 4.256550 0.000000 0.091130 
#    y 0.000000 4.539810 0.000000 
#    z 0.091130 0.000000 4.378270 
# 
# 
# High freq. dielectric constant tensor:
#      x y z
#    x 1.964190 0.000000 -0.001680 
#    y 0.000000 1.982940 0.000000 
#    z -0.001680 0.000000 1.979320 
# 
# From -- ./inp_files/43675.got.cif
#   From: 2010.03.12/outbox.cif.g09.slc.cpg/sg14_22_cif.got.tgz:43675.got - 2010.03.31 13:35:05.
