data_PCOD8125242
_publ_section_title
;
Structure prediction by ZEFSAII (Michael W. Deem and Ramdas Pophale) SiO2 
 PCOD8125242
Probable space group: P 21/C
;
_chemical_formula_sum "Si O2"
_cell_formula_units_Z 28
_cell_length_a 8.887870
_cell_length_b 8.743638
_cell_length_c 28.578223
_cell_angle_alpha 90.000000
_cell_angle_beta 140.766200
_cell_angle_gamma 90.000000
_cell_volume 1404.676251
_symmetry_space_group_name_H-M "P 21/C"
_symmetry_group_IT_number 14
_symmetry_cell_setting 'monoclinic'
loop_
_space_group_symop_operation_xyz
x,y,z
-x,1/2+y,1/2-z
-x,-y,-z
x,1/2-y,1/2+z
loop_
_atom_site_type_symbol
_atom_site_label
_atom_site_fract_x
_atom_site_fract_y
_atom_site_fract_z
Si Si1 0.701259 0.070879 0.581687
Si Si2 0.548505 0.237623 0.312866
Si Si3 0.437208 0.328265 0.480581
Si Si4 0.784050 0.928464 0.334143
Si Si5 0.965665 0.607733 0.552888
Si Si6 0.511062 0.658159 0.099560
Si Si7 0.001234 0.730410 0.463228
O O1 0.654527 0.249894 0.562215
O O2 0.966914 0.027237 0.630292
O O3 0.500000 0.000000 0.500000
O O4 0.636378 0.005615 0.617741
O O5 0.358779 0.319517 0.234841
O O6 0.758048 0.358052 0.372588
O O7 0.416030 0.202305 0.330238
O O8 0.640983 0.082109 0.311342
O O9 0.500000 0.500000 0.500000
O O10 0.397130 0.278554 0.417236
O O11 0.184794 0.300448 0.445040
O O12 0.816373 0.831611 0.389499
O O13 0.880881 0.673865 0.482243
O O14 0.918921 0.424429 0.544985
O O15 0.224098 0.657039 0.026704
#
# Coordination Sequence:
#
# PCOD8125242 Si02
#       7
#     4   4   4   4   4   4   4
#     4  10  20  38  65  91 123 159 208 261 314 370
#     4  11  26  40  64  85 129 166 213 255 316 382
#     4  11  19  35  63  94 124 160 200 264 308 366
#     4  12  23  44  61  89 126 171 209 263 315 377
#     4  10  21  37  63  97 122 164 202 263 314 369
#     4  10  21  40  60  97 120 159 209 259 309 373
#     4  10  20  37  64  92 126 155 216 258 303 374
#
# _framework density 19.933418
#
# number of rings (size 3 to 8) (size 9 to 14) (size 15 to 20)
#    0.000    1.429    4.286    2.571    2.000    1.143 
#    0.000    5.714    0.000    0.000    0.000    0.000 
#    0.000    0.000    0.000    0.000    0.000    0.000 
#
# Total GULP energy -347032.408765 kJ/mol
# GULP energy per Si atom -12394.014599 kJ/mol
# Density = 1.988805 g / cm^3
# Si number density = 19.933418 Si / 1000 Ang^3
#
#
#
# Elastic Constant Matrix: (Units=GPa)
#
#
# Indices 1 2 3 4 5 6 
#
# 1 118.4495 43.1206 36.8333 0.0000 -3.6128 0.0000
# 2 43.1206 121.0111 40.9641 0.0000 -5.9503 0.0000
# 3 36.8333 40.9641 104.5721 0.0000 -8.8160 0.0000
# 4 0.0000 0.0000 0.0000 32.3060 0.0000 -0.5614
# 5 -3.6128 -5.9503 -8.8160 0.0000 23.5978 0.0000
# 6 0.0000 0.0000 0.0000 -0.5614 0.0000 32.3766
#
#
#
# Elastic Compliance Matrix: (Units=1/GPa)
#
#
# Indices 1 2 3 4 5 6 
#
# 1 0.010243 -0.002802 -0.002517 0.000000 -0.000079 0.000000
# 2 -0.002802 0.010318 -0.002965 0.000000 0.001065 0.000000
# 3 -0.002517 -0.002965 0.011890 0.000000 0.003309 0.000000
# 4 0.000000 0.000000 0.000000 0.030963 0.000000 0.000537
# 5 -0.000079 0.001065 0.003309 0.000000 0.043870 0.000000
# 6 0.000000 0.000000 0.000000 0.000537 0.000000 0.030896
#
#
# Mechanical properties :
#
#
# Convention : Reuss Voigt Hill
#
# Bulk Modulus (GPa) = 62.96071 65.09654 64.02863
# Shear Modulus (GPa) = 31.24188 32.53037 31.88613
#
# Velocity S-wave (km/s) = 3.96322 4.04412 4.00388
# Velocity P-wave (km/s) = 7.25237 7.38475 7.31886
#
# Compressibility (1/GPa) = 0.01588292
#
# Stress axis : x y z
#
# Youngs Moduli (GPa) = 97.63146 96.91586 84.10522
#
# Poissons Ratio (x) = 0.27153 0.21168
# Poissons Ratio (y) = 0.27353 0.24940
# Poissons Ratio (z) = 0.24573 0.28739
#
# Static dielectric constant tensor:
#      x y z
#    x 3.857310 0.000000 -0.653000 
#    y 0.000000 0.590820 0.000000 
#    z -0.653000 0.000000 2.423180 
# 
# 
# High freq. dielectric constant tensor:
#      x y z
#    x 1.790520 0.000000 -0.005190 
#    y 0.000000 1.789870 0.000000 
#    z -0.005190 0.000000 1.743450 
# 
# From -- ./inp_files/76502.got.cif
#   From: 2010.03.12/outbox.cif.g09.slc.cpg/sg14_39_cif.got.tgz:76502.got - 2010.03.31 13:35:05.
