data_PCOD8125484
_publ_section_title
;
Structure prediction by ZEFSAII (Michael W. Deem and Ramdas Pophale) SiO2 
 PCOD8125484
Probable space group: P 21/C
;
_chemical_formula_sum "Si O2"
_cell_formula_units_Z 32
_cell_length_a 15.684220
_cell_length_b 10.693172
_cell_length_c 15.448067
_cell_angle_alpha 90.000000
_cell_angle_beta 142.819450
_cell_angle_gamma 90.000000
_cell_volume 1565.729849
_symmetry_space_group_name_H-M "P 21/C"
_symmetry_group_IT_number 14
_symmetry_cell_setting 'monoclinic'
loop_
_space_group_symop_operation_xyz
x,y,z
-x,1/2+y,1/2-z
-x,-y,-z
x,1/2-y,1/2+z
loop_
_atom_site_type_symbol
_atom_site_label
_atom_site_fract_x
_atom_site_fract_y
_atom_site_fract_z
Si Si1 0.258180 0.562476 0.331968
Si Si2 0.336921 0.212699 0.896294
Si Si3 0.450453 0.753302 0.078371
Si Si4 0.001757 0.997585 0.270067
Si Si5 0.493404 0.192227 0.684979
Si Si6 0.688177 0.461542 0.952157
Si Si7 0.762935 0.300211 0.860621
Si Si8 0.975273 0.766758 0.817435
O O1 0.326412 0.431562 0.358887
O O2 0.362125 0.621166 0.487446
O O3 0.238937 0.659997 0.239543
O O4 0.100051 0.537974 0.235444
O O5 0.435212 0.278587 0.903635
O O6 0.182941 0.277294 0.773473
O O7 0.406372 0.220524 0.047673
O O8 0.529201 0.760325 0.234864
O O9 0.332051 0.644678 0.990594
O O10 0.968618 0.094706 0.164857
O O11 0.163440 0.032186 0.419042
O O12 0.984226 0.844027 0.248924
O O13 0.658161 0.182611 0.789724
O O14 0.440728 0.052254 0.636568
O O15 0.683831 0.407511 0.851877
O O16 0.920995 0.275401 0.021244
#
# Coordination Sequence:
#
# PCOD8125484 Si02
#       8
#     4   4   4   4   4   4   4   4
#     4  11  22  38  66  93 123 160 217 265 308 364
#     4  11  23  40  66  94 125 160 216 263 307 375
#     4  11  24  39  64  94 124 168 208 259 320 366
#     4  10  20  39  63  88 126 167 206 257 316 374
#     4  11  22  39  62  91 125 164 205 259 310 375
#     4  10  22  39  62  88 126 166 205 249 324 376
#     4  10  22  40  62  92 125 164 210 266 311 367
#     4  10  22  42  62  93 127 166 209 265 316 375
#
# _framework density 20.437752
#
# number of rings (size 3 to 8) (size 9 to 14) (size 15 to 20)
#    0.000    1.500    2.500    3.375    3.500    6.000 
#    0.000    0.000    0.000    3.750    0.000    0.000 
#    0.000    0.000    0.000    0.000    0.000    0.000 
#
# Total GULP energy -396472.673183 kJ/mol
# GULP energy per Si atom -12389.771037 kJ/mol
# Density = 2.039124 g / cm^3
# Si number density = 20.437752 Si / 1000 Ang^3
#
#
#
# Elastic Constant Matrix: (Units=GPa)
#
#
# Indices 1 2 3 4 5 6 
#
# 1 117.7509 29.0778 52.7368 0.0000 9.3479 0.0000
# 2 29.0778 47.9834 17.9527 0.0000 7.3490 0.0000
# 3 52.7368 17.9527 104.0378 0.0000 4.0900 0.0000
# 4 0.0000 0.0000 0.0000 26.2161 0.0000 7.5004
# 5 9.3479 7.3490 4.0900 0.0000 38.9186 0.0000
# 6 0.0000 0.0000 0.0000 7.5004 0.0000 26.4675
#
#
#
# Elastic Compliance Matrix: (Units=1/GPa)
#
#
# Indices 1 2 3 4 5 6 
#
# 1 0.012250 -0.005245 -0.005249 0.000000 -0.001400 0.000000
# 2 -0.005245 0.025105 -0.001543 0.000000 -0.003319 0.000000
# 3 -0.005249 -0.001543 0.012530 0.000000 0.000235 0.000000
# 4 0.000000 0.000000 0.000000 0.041510 0.000000 -0.011763
# 5 -0.001400 -0.003319 0.000235 0.000000 0.026633 0.000000
# 6 0.000000 0.000000 0.000000 -0.011763 0.000000 0.041116
#
#
# Mechanical properties :
#
#
# Convention : Reuss Voigt Hill
#
# Bulk Modulus (GPa) = 38.74500 52.14519 45.44509
# Shear Modulus (GPa) = 26.06607 29.65409 27.86008
#
# Velocity S-wave (km/s) = 3.57513 3.81326 3.69612
# Velocity P-wave (km/s) = 6.00340 6.70504 6.36389
#
# Compressibility (1/GPa) = 0.02580979
#
# Stress axis : x y z
#
# Youngs Moduli (GPa) = 81.63347 39.83348 79.80988
#
# Poissons Ratio (x) = 0.20892 0.41895
# Poissons Ratio (y) = 0.42816 0.12314
# Poissons Ratio (z) = 0.42852 0.06146
#
# Static dielectric constant tensor:
#      x y z
#    x 3.720370 0.000000 0.235660 
#    y 0.000000 3.850290 0.000000 
#    z 0.235660 0.000000 3.771010 
# 
# 
# High freq. dielectric constant tensor:
#      x y z
#    x 1.799930 0.000000 0.022460 
#    y 0.000000 1.791070 0.000000 
#    z 0.022460 0.000000 1.794360 
# 
# From -- ./inp_files/47166.got.cif
#   From: 2010.03.12/outbox.cif.g09.slc.cpg/sg14_24_cif.got.tgz:47166.got - 2010.03.31 13:35:05.
