data_PCOD8125959
_publ_section_title
;
Structure prediction by ZEFSAII (Michael W. Deem and Ramdas Pophale) SiO2 
 PCOD8125959
Probable space group: P 21/C
;
_chemical_formula_sum "Si O2"
_cell_formula_units_Z 24
_cell_length_a 8.948910
_cell_length_b 8.594006
_cell_length_c 23.917733
_cell_angle_alpha 90.000000
_cell_angle_beta 46.316042
_cell_angle_gamma 90.000000
_cell_volume 1330.211002
_symmetry_space_group_name_H-M "P 21/C"
_symmetry_group_IT_number 14
_symmetry_cell_setting 'monoclinic'
loop_
_space_group_symop_operation_xyz
x,y,z
-x,1/2+y,1/2-z
-x,-y,-z
x,1/2-y,1/2+z
loop_
_atom_site_type_symbol
_atom_site_label
_atom_site_fract_x
_atom_site_fract_y
_atom_site_fract_z
Si Si1 0.039413 0.141203 0.915439
Si Si2 0.012768 0.183036 0.799767
Si Si3 0.655800 0.720616 0.965078
Si Si4 0.317237 0.066823 0.941519
Si Si5 0.788036 0.391477 0.935296
Si Si6 0.259045 0.093229 0.161597
O O1 0.103675 0.107464 0.833971
O O2 0.241877 0.135132 0.901624
O O3 0.934868 0.313780 0.944950
O O4 0.870532 0.017466 0.979020
O O5 0.194405 0.261612 0.716949
O O6 0.850373 0.319374 0.858724
O O7 0.898064 0.051907 0.792479
O O8 0.817109 0.577515 0.928839
O O9 0.745320 0.853946 0.901851
O O10 0.610804 0.792129 0.037483
O O11 0.447613 0.654978 0.990905
O O12 0.510635 0.955121 0.879593
#
# Coordination Sequence:
#
# PCOD8125959 Si02
#       6
#     4   4   4   4   4   4
#     4   9  20  38  57  83 112 148 188 235 281 348
#     4  10  21  37  54  83 116 145 193 231 288 343
#     4  11  18  33  62  86 108 144 195 236 281 323
#     4  11  19  36  64  81 113 151 188 236 284 341
#     4   9  19  35  56  86 111 141 191 240 271 340
#     4  12  20  36  59  84 111 153 189 241 286 339
#
# _framework density 18.042251
#
# number of rings (size 3 to 8) (size 9 to 14) (size 15 to 20)
#    1.000    0.667    5.000    1.500    0.000    0.667 
#    0.000    1.667    3.667    0.000    0.000    0.000 
#    0.000    0.000    0.000    0.000    0.000    0.000 
#
# Total GULP energy -297442.634651 kJ/mol
# GULP energy per Si atom -12393.443110 kJ/mol
# Density = 1.800119 g / cm^3
# Si number density = 18.042251 Si / 1000 Ang^3
#
#
#
# Elastic Constant Matrix: (Units=GPa)
#
#
# Indices 1 2 3 4 5 6 
#
# 1 111.2164 46.0689 40.2770 0.0000 6.2438 0.0000
# 2 46.0689 77.2334 18.6362 0.0000 -9.9335 0.0000
# 3 40.2770 18.6362 65.2663 0.0000 5.6019 0.0000
# 4 0.0000 0.0000 0.0000 41.5051 0.0000 -0.7744
# 5 6.2438 -9.9335 5.6019 0.0000 15.8401 0.0000
# 6 0.0000 0.0000 0.0000 -0.7744 0.0000 25.9546
#
#
#
# Elastic Compliance Matrix: (Units=1/GPa)
#
#
# Indices 1 2 3 4 5 6 
#
# 1 0.015478 -0.008971 -0.006171 0.000000 -0.009545 0.000000
# 2 -0.008971 0.021009 -0.001957 0.000000 0.017403 0.000000
# 3 -0.006171 -0.001957 0.020198 0.000000 -0.005938 0.000000
# 4 0.000000 0.000000 0.000000 0.024107 0.000000 0.000719
# 5 -0.009545 0.017403 -0.005938 0.000000 0.079907 0.000000
# 6 0.000000 0.000000 0.000000 0.000719 0.000000 0.038550
#
#
# Mechanical properties :
#
#
# Convention : Reuss Voigt Hill
#
# Bulk Modulus (GPa) = 44.46693 51.52004 47.99349
# Shear Modulus (GPa) = 20.75170 26.57556 23.66363
#
# Velocity S-wave (km/s) = 3.39510 3.84208 3.62549
# Velocity P-wave (km/s) = 6.32996 6.94977 6.64710
#
# Compressibility (1/GPa) = 0.02248862
#
# Stress axis : x y z
#
# Youngs Moduli (GPa) = 64.60664 47.59757 49.50882
#
# Poissons Ratio (x) = 0.42701 0.30552
# Poissons Ratio (y) = 0.57960 0.09687
# Poissons Ratio (z) = 0.39869 0.09313
#
# Static dielectric constant tensor:
#      x y z
#    x 3.174590 0.000000 0.041150 
#    y 0.000000 3.332770 0.000000 
#    z 0.041150 0.000000 3.092520 
# 
# 
# High freq. dielectric constant tensor:
#      x y z
#    x 1.676810 0.000000 0.001740 
#    y 0.000000 1.701560 0.000000 
#    z 0.001740 0.000000 1.682210 
# 
# From -- ./inp_files/76161.got.cif
#   From: 2010.03.12/outbox.cif.g09.slc.cpg/sg14_39_cif.got.tgz:76161.got - 2010.03.31 13:35:05.
