data_PCOD8125576
_publ_section_title
;
Structure prediction by ZEFSAII (Michael W. Deem and Ramdas Pophale) SiO2 
 PCOD8125576
Probable space group: P 21/C
;
_chemical_formula_sum "Si O2"
_cell_formula_units_Z 16
_cell_length_a 8.945467
_cell_length_b 10.310029
_cell_length_c 9.644414
_cell_angle_alpha 90.000000
_cell_angle_beta 66.871336
_cell_angle_gamma 90.000000
_cell_volume 817.992963
_symmetry_space_group_name_H-M "P 21/C"
_symmetry_group_IT_number 14
_symmetry_cell_setting 'monoclinic'
loop_
_space_group_symop_operation_xyz
x,y,z
-x,1/2+y,1/2-z
-x,-y,-z
x,1/2-y,1/2+z
loop_
_atom_site_type_symbol
_atom_site_label
_atom_site_fract_x
_atom_site_fract_y
_atom_site_fract_z
Si Si1 0.812562 0.504198 0.102485
Si Si2 0.397049 0.774651 0.404025
Si Si3 0.373445 0.251155 0.428975
Si Si4 0.308921 0.514108 0.548546
O O1 0.720092 0.398362 0.042546
O O2 0.745446 0.644468 0.088316
O O3 0.790652 0.477414 0.273271
O O4 0.000000 0.500000 0.000000
O O5 0.469049 0.770766 0.223890
O O6 0.550717 0.789231 0.450666
O O7 0.285050 0.646849 0.470951
O O8 0.263407 0.382738 0.480904
O O9 0.500000 0.500000 0.500000
#
# Coordination Sequence:
#
# PCOD8125576 Si02
#       4
#     4   4   4   4
#     4  12  25  40  62 100 131 156 205 272 314 354
#     4  11  20  41  70  89 121 171 213 248 304 380
#     4  11  20  41  70  89 121 171 213 248 304 380
#     4  10  20  40  62  90 127 157 216 252 295 375
#
# _framework density 19.560071000000001
#
# number of rings (size 3 to 8) (size 9 to 14) (size 15 to 20)
#    0.000    1.000   10.000    0.750    0.000    2.000 
#    0.000    1.250    0.000    0.000    0.000    0.000 
#    0.000    0.000    0.000    0.000    0.000    0.000 
#
# Total GULP energy -198377.859394 kJ/mol
# GULP energy per Si atom -12398.616212 kJ/mol
# Density = 1.951555 g / cm^3
# Si number density = 19.560071 Si / 1000 Ang^3
#
#
#
# Elastic Constant Matrix: (Units=GPa)
#
#
# Indices 1 2 3 4 5 6 
#
# 1 45.0626 16.7807 17.1576 0.0000 -19.3490 0.0000
# 2 16.7807 114.5300 34.4740 0.0000 -4.1940 0.0000
# 3 17.1576 34.4740 119.2962 0.0000 -15.0243 0.0000
# 4 0.0000 0.0000 0.0000 34.1745 0.0000 6.1655
# 5 -19.3490 -4.1940 -15.0243 0.0000 31.1161 0.0000
# 6 0.0000 0.0000 0.0000 6.1655 0.0000 14.9612
#
#
#
# Elastic Compliance Matrix: (Units=1/GPa)
#
#
# Indices 1 2 3 4 5 6 
#
# 1 0.032124 -0.003659 -0.001181 0.000000 0.018912 0.000000
# 2 -0.003659 0.009980 -0.002635 0.000000 -0.002202 0.000000
# 3 -0.001181 -0.002635 0.009771 0.000000 0.003628 0.000000
# 4 0.000000 0.000000 0.000000 0.031612 0.000000 -0.013027
# 5 0.018912 -0.002202 0.003628 0.000000 0.045353 0.000000
# 6 0.000000 0.000000 0.000000 -0.013027 0.000000 0.072208
#
#
# Mechanical properties :
#
#
# Convention : Reuss Voigt Hill
#
# Bulk Modulus (GPa) = 27.08191 46.19039 36.63615
# Shear Modulus (GPa) = 21.90041 30.08211 25.99126
#
# Velocity S-wave (km/s) = 3.34975 3.92591 3.64921
# Velocity P-wave (km/s) = 5.36997 6.64953 6.04371
#
# Compressibility (1/GPa) = 0.03692501
#
# Stress axis : x y z
#
# Youngs Moduli (GPa) = 31.12927 100.20098 102.34572
#
# Poissons Ratio (x) = 0.36660 0.12088
# Poissons Ratio (y) = 0.11389 0.26970
# Poissons Ratio (z) = 0.03677 0.26404
#
# Static dielectric constant tensor:
#      x y z
#    x 3.159020 0.000000 0.064720 
#    y 0.000000 7.894320 0.000000 
#    z 0.064720 0.000000 3.736470 
# 
# 
# High freq. dielectric constant tensor:
#      x y z
#    x 1.709860 0.000000 0.004470 
#    y 0.000000 1.790880 0.000000 
#    z 0.004470 0.000000 1.773760 
# 
# From -- ./inp_files/7419.got.cif
#   From: 2010.03.12/outbox.cif.g09.slc.cpg/sg14_4_cif.got.tgz:7419.got - 2010.03.31 13:35:05.
