data_PCOD8125120
_publ_section_title
;
Structure prediction by ZEFSAII (Michael W. Deem and Ramdas Pophale) SiO2 
 PCOD8125120
Probable space group: P 21/C
;
_chemical_formula_sum "Si O2"
_cell_formula_units_Z 28
_cell_length_a 11.452221
_cell_length_b 8.206771
_cell_length_c 26.546245
_cell_angle_alpha 90.000000
_cell_angle_beta 31.311745
_cell_angle_gamma 90.000000
_cell_volume 1296.620997
_symmetry_space_group_name_H-M "P 21/C"
_symmetry_group_IT_number 14
_symmetry_cell_setting 'monoclinic'
loop_
_space_group_symop_operation_xyz
x,y,z
-x,1/2+y,1/2-z
-x,-y,-z
x,1/2-y,1/2+z
loop_
_atom_site_type_symbol
_atom_site_label
_atom_site_fract_x
_atom_site_fract_y
_atom_site_fract_z
Si Si1 0.785629 0.639365 0.455244
Si Si2 0.011661 0.029512 0.779723
Si Si3 0.302525 0.776906 0.170288
Si Si4 0.742523 0.735574 0.242109
Si Si5 0.933425 0.914911 0.082802
Si Si6 0.253503 0.782612 0.896165
Si Si7 0.826035 0.377477 0.179242
O O1 0.528133 0.692369 0.555852
O O2 0.856310 0.522615 0.475025
O O3 0.834626 0.547445 0.384557
O O4 0.925247 0.806400 0.406042
O O5 0.206725 0.902242 0.692814
O O6 0.129530 0.196998 0.756000
O O7 0.873759 0.082030 0.781136
O O8 0.334965 0.793394 0.218913
O O9 0.474983 0.732757 0.348877
O O10 0.840948 0.567877 0.184690
O O11 0.778923 0.865901 0.185308
O O12 0.035353 0.760641 0.013395
O O13 0.766409 0.027185 0.111862
O O14 0.261069 0.662374 0.845224
#
# Coordination Sequence:
#
# PCOD8125120 Si02
#       7
#     4   4   4   4   4   4   4
#     4   9  20  39  60  85 117 153 190 236 290 343
#     4  10  23  39  61  89 113 149 198 233 287 354
#     4  11  21  41  62  82 117 151 186 242 289 336
#     4  11  21  37  57  85 119 149 190 243 285 337
#     4   9  20  36  56  83 118 154 192 232 287 348
#     4  10  20  37  57  82 115 156 192 233 289 340
#     4  10  22  35  57  89 114 148 199 232 281 352
#
# _framework density 21.594591000000001
#
# number of rings (size 3 to 8) (size 9 to 14) (size 15 to 20)
#    0.000    2.000    0.000    3.857    0.000    4.000 
#    0.000    9.286    0.000    0.000    0.000    0.000 
#    0.000    0.000    0.000    0.000    0.000    0.000 
#
# Total GULP energy -347019.435390 kJ/mol
# GULP energy per Si atom -12393.551264 kJ/mol
# Density = 2.154544 g / cm^3
# Si number density = 21.594591 Si / 1000 Ang^3
#
#
#
# Elastic Constant Matrix: (Units=GPa)
#
#
# Indices 1 2 3 4 5 6 
#
# 1 48.9245 9.6905 22.3002 0.0000 -3.3251 0.0000
# 2 9.6905 89.9273 29.8460 0.0000 -13.5410 0.0000
# 3 22.3002 29.8460 95.0480 0.0000 -14.2336 0.0000
# 4 0.0000 0.0000 0.0000 33.6990 0.0000 1.1421
# 5 -3.3251 -13.5410 -14.2336 0.0000 27.1642 0.0000
# 6 0.0000 0.0000 0.0000 1.1421 0.0000 27.6310
#
#
#
# Elastic Compliance Matrix: (Units=1/GPa)
#
#
# Indices 1 2 3 4 5 6 
#
# 1 0.022937 -0.000799 -0.005176 0.000000 -0.000303 0.000000
# 2 -0.000799 0.012970 -0.003181 0.000000 0.004701 0.000000
# 3 -0.005176 -0.003181 0.013458 0.000000 0.004832 0.000000
# 4 0.000000 0.000000 0.000000 0.029716 0.000000 -0.001228
# 5 -0.000303 0.004701 0.004832 0.000000 0.041651 0.000000
# 6 0.000000 0.000000 0.000000 -0.001228 0.000000 0.036242
#
#
# Mechanical properties :
#
#
# Convention : Reuss Voigt Hill
#
# Bulk Modulus (GPa) = 32.20441 39.73034 35.96737
# Shear Modulus (GPa) = 26.93430 29.16972 28.05201
#
# Velocity S-wave (km/s) = 3.53550 3.67929 3.60812
# Velocity P-wave (km/s) = 5.62245 6.04052 5.83523
#
# Compressibility (1/GPa) = 0.03105165
#
# Stress axis : x y z
#
# Youngs Moduli (GPa) = 43.59851 77.10200 74.30575
#
# Poissons Ratio (x) = 0.06164 0.38458
# Poissons Ratio (y) = 0.03486 0.23638
# Poissons Ratio (z) = 0.22565 0.24527
#
# Static dielectric constant tensor:
#      x y z
#    x 3.924870 0.000000 0.173220 
#    y 0.000000 3.936890 0.000000 
#    z 0.173220 0.000000 3.783150 
# 
# 
# High freq. dielectric constant tensor:
#      x y z
#    x 1.846300 0.000000 0.008970 
#    y 0.000000 1.841640 0.000000 
#    z 0.008970 0.000000 1.842670 
# 
# From -- ./inp_files/77092.got.cif
#   From: 2010.03.12/outbox.cif.g09.slc.cpg/sg14_39_cif.got.tgz:77092.got - 2010.03.31 13:35:05.
