data_PCOD8125079
_publ_section_title
;
Structure prediction by ZEFSAII (Michael W. Deem and Ramdas Pophale) SiO2 
 PCOD8125079
Probable space group: P 21/C
;
_chemical_formula_sum "Si O2"
_cell_formula_units_Z 28
_cell_length_a 9.865333
_cell_length_b 7.560796
_cell_length_c 28.109135
_cell_angle_alpha 90.000000
_cell_angle_beta 140.183223
_cell_angle_gamma 90.000000
_cell_volume 1342.560127
_symmetry_space_group_name_H-M "P 21/C"
_symmetry_group_IT_number 14
_symmetry_cell_setting 'monoclinic'
loop_
_space_group_symop_operation_xyz
x,y,z
-x,1/2+y,1/2-z
-x,-y,-z
x,1/2-y,1/2+z
loop_
_atom_site_type_symbol
_atom_site_label
_atom_site_fract_x
_atom_site_fract_y
_atom_site_fract_z
Si Si1 0.228383 0.407325 0.270649
Si Si2 0.045741 0.787335 0.221330
Si Si3 0.889682 0.896382 0.823031
Si Si4 0.027462 0.617482 0.568354
Si Si5 0.234995 0.176490 0.431833
Si Si6 0.696059 0.224053 0.542374
Si Si7 0.314788 0.635086 0.562745
O O1 0.024653 0.325179 0.243611
O O2 0.445446 0.401086 0.357930
O O3 0.191432 0.615270 0.252354
O O4 0.235126 0.286377 0.223906
O O5 0.826070 0.762984 0.134538
O O6 0.168422 0.957902 0.232755
O O7 0.145101 0.866703 0.892494
O O8 0.843835 0.971967 0.864111
O O9 0.941017 0.775340 0.577121
O O10 0.818236 0.540402 0.486300
O O11 0.188763 0.709558 0.574832
O O12 0.468616 0.252340 0.506190
O O13 0.222926 0.968132 0.422221
O O14 0.684934 0.232268 0.481829
#
# Coordination Sequence:
#
# PCOD8125079 Si02
#       7
#     4   4   4   4   4   4   4
#     4  12  22  38  60  90 126 159 196 254 308 362
#     4  11  22  36  59  91 124 156 198 251 308 357
#     4  10  22  39  60  86 124 161 198 250 300 368
#     4   9  22  42  61  84 121 163 209 249 296 363
#     4  10  20  36  62  95 120 156 209 254 301 365
#     4  10  20  36  66  92 121 158 207 252 307 354
#     4  10  22  41  61  86 120 166 204 250 305 354
#
# _framework density 20.855678000000001
#
# number of rings (size 3 to 8) (size 9 to 14) (size 15 to 20)
#    0.000    1.714    4.286    0.000    2.000    2.286 
#    7.714    0.000    0.000    0.000    0.000    0.000 
#    0.000    0.000    0.000    0.000    0.000    0.000 
#
# Total GULP energy -346960.068438 kJ/mol
# GULP energy per Si atom -12391.431016 kJ/mol
# Density = 2.080821 g / cm^3
# Si number density = 20.855678 Si / 1000 Ang^3
#
#
#
# Elastic Constant Matrix: (Units=GPa)
#
#
# Indices 1 2 3 4 5 6 
#
# 1 87.8005 18.8082 5.6238 0.0000 -9.2847 0.0000
# 2 18.8082 74.2776 17.5469 0.0000 0.2574 0.0000
# 3 5.6238 17.5469 63.9753 0.0000 -5.4501 0.0000
# 4 0.0000 0.0000 0.0000 29.0205 0.0000 -2.1781
# 5 -9.2847 0.2574 -5.4501 0.0000 20.8492 0.0000
# 6 0.0000 0.0000 0.0000 -2.1781 0.0000 12.9164
#
#
#
# Elastic Compliance Matrix: (Units=1/GPa)
#
#
# Indices 1 2 3 4 5 6 
#
# 1 0.012688 -0.003299 0.000281 0.000000 0.005764 0.000000
# 2 -0.003299 0.015285 -0.004136 0.000000 -0.002739 0.000000
# 3 0.000281 -0.004136 0.017137 0.000000 0.004656 0.000000
# 4 0.000000 0.000000 0.000000 0.034900 0.000000 0.005885
# 5 0.005764 -0.002739 0.004656 0.000000 0.051781 0.000000
# 6 0.000000 0.000000 0.000000 0.005885 0.000000 0.078413
#
#
# Mechanical properties :
#
#
# Convention : Reuss Voigt Hill
#
# Bulk Modulus (GPa) = 32.46559 34.44568 33.45563
# Shear Modulus (GPa) = 21.29653 24.82885 23.06269
#
# Velocity S-wave (km/s) = 3.19899 3.45412 3.32900
# Velocity P-wave (km/s) = 5.40789 5.69736 5.55452
#
# Compressibility (1/GPa) = 0.03080185
#
# Stress axis : x y z
#
# Youngs Moduli (GPa) = 78.81624 65.42445 58.35231
#
# Poissons Ratio (x) = 0.21583 -0.01637
# Poissons Ratio (y) = 0.26001 0.24132
# Poissons Ratio (z) = -0.02211 0.27057
#
# Static dielectric constant tensor:
#      x y z
#    x 3.736720 0.000000 -0.245490 
#    y 0.000000 3.676470 0.000000 
#    z -0.245490 0.000000 3.810090 
# 
# 
# High freq. dielectric constant tensor:
#      x y z
#    x 1.794900 0.000000 -0.015190 
#    y 0.000000 1.810460 0.000000 
#    z -0.015190 0.000000 1.819150 
# 
# From -- ./inp_files/76396.got.cif
#   From: 2010.03.12/outbox.cif.g09.slc.cpg/sg14_39_cif.got.tgz:76396.got - 2010.03.31 13:35:05.
