data_PCOD8125768
_publ_section_title
;
Structure prediction by ZEFSAII (Michael W. Deem and Ramdas Pophale) SiO2 
 PCOD8125768
Probable space group: P 21/C
;
_chemical_formula_sum "Si O2"
_cell_formula_units_Z 32
_cell_length_a 13.376206
_cell_length_b 11.614231
_cell_length_c 13.656901
_cell_angle_alpha 90.000000
_cell_angle_beta 137.187689
_cell_angle_gamma 90.000000
_cell_volume 1441.877166
_symmetry_space_group_name_H-M "P 21/C"
_symmetry_group_IT_number 14
_symmetry_cell_setting 'monoclinic'
loop_
_space_group_symop_operation_xyz
x,y,z
-x,1/2+y,1/2-z
-x,-y,-z
x,1/2-y,1/2+z
loop_
_atom_site_type_symbol
_atom_site_label
_atom_site_fract_x
_atom_site_fract_y
_atom_site_fract_z
Si Si1 0.078414 0.415672 0.895606
Si Si2 0.284926 0.617674 0.064133
Si Si3 0.939735 0.623400 0.339719
Si Si4 0.820096 0.395353 0.337668
Si Si5 0.409320 0.839782 0.057573
Si Si6 0.593509 0.978647 0.785401
Si Si7 0.776101 0.349050 0.754992
Si Si8 0.271214 0.251281 0.170956
O O1 0.057813 0.355996 0.774842
O O2 0.919630 0.425916 0.833847
O O3 0.141706 0.545345 0.927593
O O4 0.188932 0.341004 0.041667
O O5 0.301162 0.741534 0.024359
O O6 0.426185 0.542840 0.134984
O O7 0.282526 0.630677 0.178860
O O8 0.902966 0.491057 0.335015
O O9 0.828685 0.714958 0.308672
O O10 0.099672 0.641532 0.502875
O O11 0.656500 0.439355 0.244854
O O12 0.816929 0.284414 0.266738
O O13 0.390681 0.958266 0.101024
O O14 0.579837 0.804712 0.179196
O O15 0.359990 0.874811 0.913608
O O16 0.689027 0.861964 0.863420
#
# Coordination Sequence:
#
# PCOD8125768 Si02
#       8
#     4   4   4   4   4   4   4   4
#     4  12  24  44  65 100 133 179 221 274 343 392
#     4  11  25  44  67  97 140 171 219 286 325 404
#     4  10  22  41  68  95 132 177 225 276 324 393
#     4  10  20  42  67  96 129 171 228 275 319 404
#     4  11  23  44  68  98 132 181 220 269 345 398
#     4  10  21  42  68  91 130 175 219 272 329 392
#     4  12  25  41  69  99 135 176 218 276 344 395
#     4  10  23  42  67  99 134 172 230 277 324 399
#
# _framework density 22.193292
#
# number of rings (size 3 to 8) (size 9 to 14) (size 15 to 20)
#    0.000    1.250    3.750    1.875    0.000    3.500 
#    4.500    3.750    0.000    0.000    0.000    0.000 
#    0.000    0.000    0.000    0.000    0.000    0.000 
#
# Total GULP energy -396812.312669 kJ/mol
# GULP energy per Si atom -12400.384771 kJ/mol
# Density = 2.214278 g / cm^3
# Si number density = 22.193292 Si / 1000 Ang^3
#
#
#
# Elastic Constant Matrix: (Units=GPa)
#
#
# Indices 1 2 3 4 5 6 
#
# 1 86.1277 -3.5230 28.1348 0.0000 10.0333 0.0000
# 2 -3.5230 43.8514 9.2883 0.0000 10.6479 0.0000
# 3 28.1348 9.2883 95.3227 0.0000 4.3457 0.0000
# 4 0.0000 0.0000 0.0000 22.8572 0.0000 1.9857
# 5 10.0333 10.6479 4.3457 0.0000 37.8342 0.0000
# 6 0.0000 0.0000 0.0000 1.9857 0.0000 22.6010
#
#
#
# Elastic Compliance Matrix: (Units=1/GPa)
#
#
# Indices 1 2 3 4 5 6 
#
# 1 0.013526 0.002910 -0.004096 0.000000 -0.003936 0.000000
# 2 0.002910 0.025521 -0.002999 0.000000 -0.007610 0.000000
# 3 -0.004096 -0.002999 0.011967 0.000000 0.000556 0.000000
# 4 0.000000 0.000000 0.000000 0.044086 0.000000 -0.003873
# 5 -0.003936 -0.007610 0.000556 0.000000 0.029553 0.000000
# 6 0.000000 0.000000 0.000000 -0.003873 0.000000 0.044586
#
#
# Mechanical properties :
#
#
# Convention : Reuss Voigt Hill
#
# Bulk Modulus (GPa) = 23.45021 32.56690 28.00855
# Shear Modulus (GPa) = 26.06553 29.41859 27.74206
#
# Velocity S-wave (km/s) = 3.43078 3.64478 3.53940
# Velocity P-wave (km/s) = 5.12669 5.69373 5.41764
#
# Compressibility (1/GPa) = 0.04264355
#
# Stress axis : x y z
#
# Youngs Moduli (GPa) = 73.92990 39.18328 83.56565
#
# Poissons Ratio (x) = -0.11402 0.34232
# Poissons Ratio (y) = -0.21514 0.25059
# Poissons Ratio (z) = 0.30285 0.11750
#
# Static dielectric constant tensor:
#      x y z
#    x 4.009020 0.000000 0.174780 
#    y 0.000000 4.155520 0.000000 
#    z 0.174780 0.000000 3.912690 
# 
# 
# High freq. dielectric constant tensor:
#      x y z
#    x 1.879350 0.000000 0.010140 
#    y 0.000000 1.879200 0.000000 
#    z 0.010140 0.000000 1.865220 
# 
# From -- ./inp_files/47167.got.cif
#   From: 2010.03.12/outbox.cif.g09.slc.cpg/sg14_24_cif.got.tgz:47167.got - 2010.03.31 13:35:05.
