data_PCOD8125575
_publ_section_title
;
Structure prediction by ZEFSAII (Michael W. Deem and Ramdas Pophale) SiO2 
 PCOD8125575
Probable space group: P 21/C
;
_chemical_formula_sum "Si O2"
_cell_formula_units_Z 28
_cell_length_a 12.284624
_cell_length_b 19.112807
_cell_length_c 8.853773
_cell_angle_alpha 90.000000
_cell_angle_beta 41.987106
_cell_angle_gamma 90.000000
_cell_volume 1390.647473
_symmetry_space_group_name_H-M "P 21/C"
_symmetry_group_IT_number 14
_symmetry_cell_setting 'monoclinic'
loop_
_space_group_symop_operation_xyz
x,y,z
-x,1/2+y,1/2-z
-x,-y,-z
x,1/2-y,1/2+z
loop_
_atom_site_type_symbol
_atom_site_label
_atom_site_fract_x
_atom_site_fract_y
_atom_site_fract_z
Si Si1 0.121523 0.665137 0.140640
Si Si2 0.344228 0.297814 0.708204
Si Si3 0.963756 0.517482 0.365241
Si Si4 0.633319 0.943916 0.314745
Si Si5 0.493691 0.817096 0.274681
Si Si6 0.834813 0.892863 0.391778
Si Si7 0.968950 0.769292 0.076755
O O1 0.056332 0.586856 0.218907
O O2 0.027693 0.698966 0.096647
O O3 0.100013 0.704699 0.321230
O O4 0.310910 0.669992 0.910607
O O5 0.402866 0.319861 0.483821
O O6 0.480056 0.257816 0.669028
O O7 0.197443 0.242831 0.842565
O O8 0.282901 0.369187 0.850963
O O9 0.767056 0.525328 0.557182
O O10 0.000000 0.500000 0.500000
O O11 0.038795 0.454096 0.187172
O O12 0.543137 0.878785 0.334858
O O13 0.723061 0.918729 0.371547
O O14 0.500000 0.000000 0.500000
O O15 0.945155 0.827556 0.229140
#
# Coordination Sequence:
#
# PCOD8125575 Si02
#       7
#     4   4   4   4   4   4   4
#     4  12  24  40  66  95 128 166 221 263 321 393
#     4  12  22  42  65  93 134 167 218 267 331 379
#     4  10  20  40  62  90 124 169 215 253 315 390
#     4  11  22  41  66  95 127 170 217 266 328 390
#     4  12  23  40  61  98 128 171 210 275 324 383
#     4  11  22  40  67  95 124 174 216 266 322 389
#     4  12  21  40  66  93 123 171 216 265 317 387
#
# _framework density 20.134506999999999
#
# number of rings (size 3 to 8) (size 9 to 14) (size 15 to 20)
#    0.000    0.571    7.143    3.429    0.000    0.000 
#    0.000    5.714    0.000    0.000    0.000    0.000 
#    0.000    0.000    0.000    0.000    0.000    0.000 
#
# Total GULP energy -347221.151696 kJ/mol
# GULP energy per Si atom -12400.755418 kJ/mol
# Density = 2.008868 g / cm^3
# Si number density = 20.134507 Si / 1000 Ang^3
#
#
#
# Elastic Constant Matrix: (Units=GPa)
#
#
# Indices 1 2 3 4 5 6 
#
# 1 50.8262 25.9432 20.6322 0.0000 -9.9131 0.0000
# 2 25.9432 133.8323 50.1920 0.0000 -5.5131 0.0000
# 3 20.6322 50.1920 79.8011 0.0000 -3.4144 0.0000
# 4 0.0000 0.0000 0.0000 43.4802 0.0000 3.8843
# 5 -9.9131 -5.5131 -3.4144 0.0000 37.7769 0.0000
# 6 0.0000 0.0000 0.0000 3.8843 0.0000 27.1775
#
#
#
# Elastic Compliance Matrix: (Units=1/GPa)
#
#
# Indices 1 2 3 4 5 6 
#
# 1 0.023881 -0.002848 -0.004149 0.000000 0.005476 0.000000
# 2 -0.002848 0.010147 -0.005636 0.000000 0.000224 0.000000
# 3 -0.004149 -0.005636 0.017133 0.000000 -0.000363 0.000000
# 4 0.000000 0.000000 0.000000 0.023296 0.000000 -0.003330
# 5 0.005476 0.000224 -0.000363 0.000000 0.027908 0.000000
# 6 0.000000 0.000000 0.000000 -0.003330 0.000000 0.037271
#
#
# Mechanical properties :
#
#
# Convention : Reuss Voigt Hill
#
# Bulk Modulus (GPa) = 38.61691 50.88827 44.75259
# Shear Modulus (GPa) = 28.81279 32.86640 30.83959
#
# Velocity S-wave (km/s) = 3.78698 4.04461 3.91791
# Velocity P-wave (km/s) = 6.19215 6.86592 6.53772
#
# Compressibility (1/GPa) = 0.02589539
#
# Stress axis : x y z
#
# Youngs Moduli (GPa) = 41.87499 98.55018 58.36578
#
# Poissons Ratio (x) = 0.28064 0.24215
# Poissons Ratio (y) = 0.11925 0.32897
# Poissons Ratio (z) = 0.17373 0.55546
#
# Static dielectric constant tensor:
#      x y z
#    x 3.529270 0.000000 -0.225340 
#    y 0.000000 3.950030 0.000000 
#    z -0.225340 0.000000 4.008960 
# 
# 
# High freq. dielectric constant tensor:
#      x y z
#    x 1.770310 0.000000 -0.006620 
#    y 0.000000 1.793240 0.000000 
#    z -0.006620 0.000000 1.795590 
# 
# From -- ./inp_files/14271.got.cif
#   From: 2010.03.12/outbox.cif.g09.slc.cpg/sg14_8_cif.got.tgz:14271.got - 2010.03.31 13:35:05.
