data_PCOD8125014
_publ_section_title
;
Structure prediction by ZEFSAII (Michael W. Deem and Ramdas Pophale) SiO2 
 PCOD8125014
Probable space group: P 21/C
;
_chemical_formula_sum "Si O2"
_cell_formula_units_Z 28
_cell_length_a 9.212975
_cell_length_b 16.279060
_cell_length_c 13.008055
_cell_angle_alpha 90.000000
_cell_angle_beta 42.423933
_cell_angle_gamma 90.000000
_cell_volume 1316.118105
_symmetry_space_group_name_H-M "P 21/C"
_symmetry_group_IT_number 14
_symmetry_cell_setting 'monoclinic'
loop_
_space_group_symop_operation_xyz
x,y,z
-x,1/2+y,1/2-z
-x,-y,-z
x,1/2-y,1/2+z
loop_
_atom_site_type_symbol
_atom_site_label
_atom_site_fract_x
_atom_site_fract_y
_atom_site_fract_z
Si Si1 0.404033 0.210101 0.570963
Si Si2 0.221917 0.868110 0.812424
Si Si3 0.004051 0.867439 0.484361
Si Si4 0.787894 0.386727 0.914476
Si Si5 0.169266 0.303884 0.390369
Si Si6 0.430808 0.805832 0.190525
Si Si7 0.360069 0.442221 0.943643
O O1 0.614459 0.185176 0.527326
O O2 0.203203 0.219614 0.752868
O O3 0.461858 0.294551 0.479424
O O4 0.347344 0.135652 0.524919
O O5 0.123501 0.873873 0.747767
O O6 0.343122 0.782654 0.770746
O O7 0.403469 0.938900 0.735766
O O8 0.020179 0.872357 0.996658
O O9 0.031400 0.880236 0.592627
O O10 0.233193 0.871230 0.302802
O O11 0.898653 0.779056 0.515169
O O12 0.839400 0.937389 0.532102
O O13 0.663948 0.473797 0.981722
O O14 0.386062 0.338375 0.328098
#
# Coordination Sequence:
#
# PCOD8125014 Si02
#       7
#     4   4   4   4   4   4   4
#     4  10  20  36  60  80 111 148 181 234 279 330
#     4   9  20  36  56  80 110 144 186 230 270 336
#     4  11  20  34  59  85 112 142 184 234 286 322
#     4  10  20  36  59  79 111 156 191 220 277 332
#     4  11  20  35  59  86 112 138 187 236 288 327
#     4   9  19  36  53  85 112 135 181 235 279 333
#     4  10  20  39  54  83 113 150 193 228 264 341
#
# _framework density 21.274687
#
# number of rings (size 3 to 8) (size 9 to 14) (size 15 to 20)
#    0.000    2.286    4.286    2.143    2.000    1.143 
#    0.000    2.857    0.000    0.857    0.000    0.000 
#    0.000    0.000    0.000    0.000    0.000    0.000 
#
# Total GULP energy -346921.322805 kJ/mol
# GULP energy per Si atom -12390.047243 kJ/mol
# Density = 2.122626 g / cm^3
# Si number density = 21.274687 Si / 1000 Ang^3
#
#
#
# Elastic Constant Matrix: (Units=GPa)
#
#
# Indices 1 2 3 4 5 6 
#
# 1 98.1274 1.7106 39.3757 0.0000 -7.1319 0.0000
# 2 1.7106 20.2719 3.9687 0.0000 1.5739 0.0000
# 3 39.3757 3.9687 152.5596 0.0000 -7.9052 0.0000
# 4 0.0000 0.0000 0.0000 12.7769 0.0000 -1.1312
# 5 -7.1319 1.5739 -7.9052 0.0000 18.6248 0.0000
# 6 0.0000 0.0000 0.0000 -1.1312 0.0000 22.7317
#
#
#
# Elastic Compliance Matrix: (Units=1/GPa)
#
#
# Indices 1 2 3 4 5 6 
#
# 1 0.011565 -0.000685 -0.002796 0.000000 0.003299 0.000000
# 2 -0.000685 0.050053 -0.001389 0.000000 -0.005081 0.000000
# 3 -0.002796 -0.001389 0.007427 0.000000 0.002199 0.000000
# 4 0.000000 0.000000 0.000000 0.078613 0.000000 0.003912
# 5 0.003299 -0.005081 0.002199 0.000000 0.056318 0.000000
# 6 0.000000 0.000000 0.000000 0.003912 0.000000 0.044186
#
#
# Mechanical properties :
#
#
# Convention : Reuss Voigt Hill
#
# Bulk Modulus (GPa) = 16.86176 40.11877 28.49026
# Shear Modulus (GPa) = 18.00709 25.88694 21.94702
#
# Velocity S-wave (km/s) = 2.91247 3.49204 3.21534
# Velocity P-wave (km/s) = 4.38781 5.92939 5.21587
#
# Compressibility (1/GPa) = 0.05930580
#
# Stress axis : x y z
#
# Youngs Moduli (GPa) = 86.47121 19.97865 134.65221
#
# Poissons Ratio (x) = 0.01368 0.37649
# Poissons Ratio (y) = 0.05920 0.18699
# Poissons Ratio (z) = 0.24178 0.02774
#
# Static dielectric constant tensor:
#      x y z
#    x 3.900390 0.000000 -0.268420 
#    y 0.000000 3.465390 0.000000 
#    z -0.268420 0.000000 4.086450 
# 
# 
# High freq. dielectric constant tensor:
#      x y z
#    x 1.839310 0.000000 -0.009480 
#    y 0.000000 1.791410 0.000000 
#    z -0.009480 0.000000 1.824110 
# 
# From -- ./inp_files/26602.got.cif
#   From: 2010.03.12/outbox.cif.g09.slc.cpg/sg14_14_cif.got.tgz:26602.got - 2010.03.31 13:35:05.
