data_PCOD8125970
_publ_section_title
;
Structure prediction by ZEFSAII (Michael W. Deem and Ramdas Pophale) SiO2 
 PCOD8125970
Probable space group: P 21/C
;
_chemical_formula_sum "Si O2"
_cell_formula_units_Z 32
_cell_length_a 6.541997
_cell_length_b 13.915922
_cell_length_c 17.082852
_cell_angle_alpha 90.000000
_cell_angle_beta 90.000000
_cell_angle_gamma 90.000000
_cell_volume 1555.187313
_symmetry_space_group_name_H-M "P 21/C"
_symmetry_group_IT_number 14
_symmetry_cell_setting 'monoclinic'
loop_
_space_group_symop_operation_xyz
x,y,z
-x,1/2+y,1/2-z
-x,-y,-z
x,1/2-y,1/2+z
loop_
_atom_site_type_symbol
_atom_site_label
_atom_site_fract_x
_atom_site_fract_y
_atom_site_fract_z
Si Si1 0.516725 0.776833 0.338479
Si Si2 0.130283 0.084680 0.837589
Si Si3 0.483275 0.223167 0.838479
Si Si4 0.416521 0.927885 0.896324
Si Si5 0.869717 0.915320 0.337589
Si Si6 0.262419 0.582401 0.938148
Si Si7 0.583479 0.072115 0.396324
Si Si8 0.262419 0.917599 0.061852
O O1 0.454608 0.802330 0.250000
O O2 0.504826 0.663286 0.350673
O O3 0.745205 0.816873 0.355197
O O4 0.356614 0.826403 0.395219
O O5 0.254795 0.183127 0.855197
O O6 0.032554 0.088335 0.750000
O O7 0.967135 0.070953 0.906524
O O8 0.285712 0.994820 0.838653
O O9 0.495174 0.336714 0.850673
O O10 0.643387 0.173597 0.895219
O O11 0.618120 0.983653 0.923910
O O12 0.272198 0.896791 0.969148
O O13 0.032865 0.929047 0.406524
O O14 0.714288 0.005180 0.338653
O O15 0.381880 0.483653 0.923910
O O16 0.272198 0.603209 0.030852
#
# Coordination Sequence:
#
# PCOD8125970 Si02
#       8
#     4   4   4   4   4   4   4   4
#     4  10  21  37  57  83 115 150 189 235 287 341
#     4  10  21  37  59  87 117 150 191 239 288 340
#     4  10  21  37  57  83 115 150 189 235 287 341
#     4  10  21  38  59  83 114 154 194 235 286 344
#     4  10  21  37  59  87 117 150 191 239 288 340
#     4  10  21  38  58  83 116 150 190 240 287 337
#     4  10  21  38  59  83 114 154 194 235 286 344
#     4  10  21  38  58  83 116 150 190 240 287 337
#
# _framework density 20.576298999999999
#
# number of rings (size 3 to 8) (size 9 to 14) (size 15 to 20)
#    0.000    2.000    0.000    3.000    0.000    5.000 
#    0.000   10.000    0.000    0.000    0.000    0.000 
#    0.000    0.000    0.000    0.000    0.000    0.000 
#
# Total GULP energy -396809.571721 kJ/mol
# GULP energy per Si atom -12400.299116 kJ/mol
# Density = 2.052947 g / cm^3
# Si number density = 20.576299 Si / 1000 Ang^3
#
#
#
# Elastic Constant Matrix: (Units=GPa)
#
#
# Indices 1 2 3 4 5 6 
#
# 1 91.5328 32.4099 32.7322 0.0000 0.0001 0.0000
# 2 32.4099 102.9042 15.4465 0.0000 0.0000 0.0000
# 3 32.7322 15.4465 80.4792 0.0000 0.0001 0.0000
# 4 0.0000 0.0000 0.0000 29.9526 0.0000 0.0000
# 5 0.0001 0.0000 0.0001 0.0000 28.1013 0.0000
# 6 0.0000 0.0000 0.0000 0.0000 0.0000 16.7491
#
#
#
# Elastic Compliance Matrix: (Units=1/GPa)
#
#
# Indices 1 2 3 4 5 6 
#
# 1 0.014008 -0.003662 -0.004994 0.000000 0.000000 0.000000
# 2 -0.003662 0.010963 -0.000615 0.000000 0.000000 0.000000
# 3 -0.004994 -0.000615 0.014575 0.000000 0.000000 0.000000
# 4 0.000000 0.000000 0.000000 0.033386 0.000000 0.000000
# 5 0.000000 0.000000 0.000000 0.000000 0.035586 0.000000
# 6 0.000000 0.000000 0.000000 0.000000 0.000000 0.059705
#
#
# Mechanical properties :
#
#
# Convention : Reuss Voigt Hill
#
# Bulk Modulus (GPa) = 47.61085 48.45482 48.03284
# Shear Modulus (GPa) = 25.80435 27.91577 26.86006
#
# Velocity S-wave (km/s) = 3.54514 3.68733 3.61694
# Velocity P-wave (km/s) = 6.32031 6.45976 6.39042
#
# Compressibility (1/GPa) = 0.02100362
#
# Stress axis : x y z
#
# Youngs Moduli (GPa) = 71.38947 91.21229 68.61143
#
# Poissons Ratio (x) = 0.33403 0.34266
# Poissons Ratio (y) = 0.26143 0.04218
# Poissons Ratio (z) = 0.35654 0.05608
#
# Static dielectric constant tensor:
#      x y z
#    x 3.515720 0.000000 0.000000 
#    y 0.000000 3.658460 0.000000 
#    z 0.000000 0.000000 3.807870 
# 
# 
# High freq. dielectric constant tensor:
#      x y z
#    x 1.788750 0.000000 0.000000 
#    y 0.000000 1.804830 0.000000 
#    z 0.000000 0.000000 1.816160 
# 
# From -- ./inp_files/53477.got.cif
#   From: 2010.03.12/outbox.cif.g09.slc.cpg/sg14_27_cif.got.tgz:53477.got - 2010.03.31 13:35:05.
