data_PCOD8125193
_publ_section_title
;
Structure prediction by ZEFSAII (Michael W. Deem and Ramdas Pophale) SiO2 
 PCOD8125193
Probable space group: P 21/C
;
_chemical_formula_sum "Si O2"
_cell_formula_units_Z 28
_cell_length_a 26.687434
_cell_length_b 11.404322
_cell_length_c 14.181354
_cell_angle_alpha 90.000000
_cell_angle_beta 161.738745
_cell_angle_gamma 90.000000
_cell_volume 1352.459225
_symmetry_space_group_name_H-M "P 21/C"
_symmetry_group_IT_number 14
_symmetry_cell_setting 'monoclinic'
loop_
_space_group_symop_operation_xyz
x,y,z
-x,1/2+y,1/2-z
-x,-y,-z
x,1/2-y,1/2+z
loop_
_atom_site_type_symbol
_atom_site_label
_atom_site_fract_x
_atom_site_fract_y
_atom_site_fract_z
Si Si1 0.656643 0.085784 0.592693
Si Si2 0.669023 0.803936 0.922953
Si Si3 0.961399 0.288188 0.593251
Si Si4 0.939668 0.133510 0.842646
Si Si5 0.731614 0.957820 0.552656
Si Si6 0.956386 0.850638 0.566605
Si Si7 0.852449 0.935560 0.089421
O O1 0.502170 0.142090 0.362658
O O2 0.613950 0.014688 0.420197
O O3 0.772341 0.194452 0.773142
O O4 0.737960 0.991684 0.806767
O O5 0.657132 0.663524 0.880980
O O6 0.780871 0.825527 0.213318
O O7 0.736911 0.870257 0.954843
O O8 0.000397 0.320422 0.554984
O O9 0.053309 0.367144 0.836992
O O10 0.018797 0.156869 0.720594
O O11 0.920509 0.244392 0.739867
O O12 0.775537 0.056168 0.550412
O O13 0.093344 0.057431 0.083344
O O14 0.038489 0.964526 0.666739
#
# Coordination Sequence:
#
# PCOD8125193 Si02
#       7
#     4   4   4   4   4   4   4
#     4  10  23  37  59  91 120 161 197 250 308 354
#     4  11  21  37  57  87 123 154 194 250 311 351
#     4  10  20  37  61  86 113 158 209 242 288 355
#     4   9  17  35  61  84 110 153 205 246 285 345
#     4   9  18  36  59  79 112 152 197 237 289 349
#     4  10  21  35  60  89 117 154 208 245 292 356
#     4  11  20  37  60  88 118 162 201 247 294 365
#
# _framework density 20.703028
#
# number of rings (size 3 to 8) (size 9 to 14) (size 15 to 20)
#    0.000    2.000    2.857    2.571    0.000    2.286 
#    2.571    0.000    6.286    4.286    0.000    0.000 
#    0.000    0.000    0.000    0.000    0.000    0.000 
#
# Total GULP energy -346886.928315 kJ/mol
# GULP energy per Si atom -12388.818868 kJ/mol
# Density = 2.065591 g / cm^3
# Si number density = 20.703028 Si / 1000 Ang^3
#
#
#
# Elastic Constant Matrix: (Units=GPa)
#
#
# Indices 1 2 3 4 5 6 
#
# 1 68.4102 18.5886 19.3870 0.0000 10.8156 0.0000
# 2 18.5886 115.1075 39.8638 0.0000 26.4681 0.0000
# 3 19.3870 39.8638 57.8210 0.0000 13.5278 0.0000
# 4 0.0000 0.0000 0.0000 34.3985 0.0000 2.4927
# 5 10.8156 26.4681 13.5278 0.0000 26.2985 0.0000
# 6 0.0000 0.0000 0.0000 2.4927 0.0000 26.4605
#
#
#
# Elastic Compliance Matrix: (Units=1/GPa)
#
#
# Indices 1 2 3 4 5 6 
#
# 1 0.016611 -0.000126 -0.004449 0.000000 -0.004416 0.000000
# 2 -0.000126 0.013348 -0.006854 0.000000 -0.009856 0.000000
# 3 -0.004449 -0.006854 0.024407 0.000000 -0.003827 0.000000
# 4 0.000000 0.000000 0.000000 0.029271 0.000000 -0.002757
# 5 -0.004416 -0.009856 -0.003827 0.000000 0.051729 0.000000
# 6 0.000000 0.000000 0.000000 -0.002757 0.000000 0.038052
#
#
# Mechanical properties :
#
#
# Convention : Reuss Voigt Hill
#
# Bulk Modulus (GPa) = 31.73927 44.11307 37.92617
# Shear Modulus (GPa) = 24.18016 28.33146 26.25581
#
# Velocity S-wave (km/s) = 3.42124 3.70330 3.56506
# Velocity P-wave (km/s) = 5.56512 6.29600 5.94181
#
# Compressibility (1/GPa) = 0.03150671
#
# Stress axis : x y z
#
# Youngs Moduli (GPa) = 60.20083 74.91701 40.97102
#
# Poissons Ratio (x) = 0.00946 0.18230
# Poissons Ratio (y) = 0.00760 0.28083
# Poissons Ratio (z) = 0.26786 0.51350
#
# Static dielectric constant tensor:
#      x y z
#    x 3.750480 0.000000 0.134700 
#    y 0.000000 4.115190 0.000000 
#    z 0.134700 0.000000 3.323380 
# 
# 
# High freq. dielectric constant tensor:
#      x y z
#    x 1.814390 0.000000 0.010580 
#    y 0.000000 1.829360 0.000000 
#    z 0.010580 0.000000 1.761550 
# 
# From -- ./inp_files/51999.got.cif
#   From: 2010.03.12/outbox.cif.g09.slc.cpg/sg14_26_cif.got.tgz:51999.got - 2010.03.31 13:35:05.
