data_PCOD8125625
_publ_section_title
;
Structure prediction by ZEFSAII (Michael W. Deem and Ramdas Pophale) SiO2 
 PCOD8125625
Probable space group: P 21/C
;
_chemical_formula_sum "Si O2"
_cell_formula_units_Z 20
_cell_length_a 17.403992
_cell_length_b 8.325126
_cell_length_c 9.049420
_cell_angle_alpha 90.000000
_cell_angle_beta 38.507073
_cell_angle_gamma 90.000000
_cell_volume 816.351874
_symmetry_space_group_name_H-M "P 21/C"
_symmetry_group_IT_number 14
_symmetry_cell_setting 'monoclinic'
loop_
_space_group_symop_operation_xyz
x,y,z
-x,1/2+y,1/2-z
-x,-y,-z
x,1/2-y,1/2+z
loop_
_atom_site_type_symbol
_atom_site_label
_atom_site_fract_x
_atom_site_fract_y
_atom_site_fract_z
Si Si1 0.639757 0.455922 0.112940
Si Si2 0.983847 0.606125 0.237962
Si Si3 0.117489 0.135166 0.800156
Si Si4 0.414771 0.663933 0.488947
Si Si5 0.189634 0.473935 0.742482
O O1 0.555463 0.615271 0.240550
O O2 0.611368 0.348908 0.298520
O O3 0.783495 0.502198 0.894377
O O4 0.607959 0.348123 0.019026
O O5 0.977022 0.574164 0.426282
O O6 0.955457 0.793213 0.233694
O O7 0.885046 0.492488 0.298877
O O8 0.121377 0.563778 0.980345
O O9 0.192515 0.281855 0.766840
O O10 0.326743 0.543668 0.527979
#
# Coordination Sequence:
#
# PCOD8125625 Si02
#       5
#     4   4   4   4   4
#     4  11  26  43  67  95 128 170 216 267 322 382
#     4   9  21  38  67  93 132 169 212 259 321 374
#     4  10  20  40  65  94 126 169 210 266 310 384
#     4  11  25  44  64  96 127 170 213 267 320 387
#     4   9  21  41  65  92 133 168 213 262 315 387
#
# _framework density 24.499238999999999
#
# number of rings (size 3 to 8) (size 9 to 14) (size 15 to 20)
#    1.200    0.800    0.000    2.400    2.800    5.600 
#    0.000    3.000    0.000    0.000    0.000    0.000 
#    0.000    0.000    0.000    0.000    0.000    0.000 
#
# Total GULP energy -248009.219242 kJ/mol
# GULP energy per Si atom -12400.460962 kJ/mol
# Density = 2.444348 g / cm^3
# Si number density = 24.499239 Si / 1000 Ang^3
#
#
#
# Elastic Constant Matrix: (Units=GPa)
#
#
# Indices 1 2 3 4 5 6 
#
# 1 87.4980 6.1147 41.0612 0.0000 18.1681 0.0000
# 2 6.1147 70.7301 30.6973 0.0000 9.0825 0.0000
# 3 41.0612 30.6973 128.8745 0.0000 11.0397 0.0000
# 4 0.0000 0.0000 0.0000 29.8064 0.0000 -2.5190
# 5 18.1681 9.0825 11.0397 0.0000 36.5508 0.0000
# 6 0.0000 0.0000 0.0000 -2.5190 0.0000 34.3389
#
#
#
# Elastic Compliance Matrix: (Units=1/GPa)
#
#
# Indices 1 2 3 4 5 6 
#
# 1 0.014761 0.001499 -0.004517 0.000000 -0.006346 0.000000
# 2 0.001499 0.016217 -0.004036 0.000000 -0.003556 0.000000
# 3 -0.004517 -0.004036 0.010144 0.000000 0.000184 0.000000
# 4 0.000000 0.000000 0.000000 0.033759 0.000000 0.002477
# 5 -0.006346 -0.003556 0.000184 0.000000 0.031341 0.000000
# 6 0.000000 0.000000 0.000000 0.002477 0.000000 0.029303
#
#
# Mechanical properties :
#
#
# Convention : Reuss Voigt Hill
#
# Bulk Modulus (GPa) = 37.01605 49.20545 43.11075
# Shear Modulus (GPa) = 31.51836 34.08785 32.80310
#
# Velocity S-wave (km/s) = 3.59068 3.73417 3.66313
# Velocity P-wave (km/s) = 5.68617 6.22255 5.96040
#
# Compressibility (1/GPa) = 0.02701531
#
# Stress axis : x y z
#
# Youngs Moduli (GPa) = 67.74504 61.66435 98.57976
#
# Poissons Ratio (x) = -0.09243 0.44524
# Poissons Ratio (y) = -0.10155 0.39784
# Poissons Ratio (z) = 0.30598 0.24886
#
# Static dielectric constant tensor:
#      x y z
#    x 4.233760 0.000000 0.055080 
#    y 0.000000 4.238600 0.000000 
#    z 0.055080 0.000000 4.148430 
# 
# 
# High freq. dielectric constant tensor:
#      x y z
#    x 1.974630 0.000000 0.003390 
#    y 0.000000 1.973080 0.000000 
#    z 0.003390 0.000000 1.969470 
# 
# From -- ./inp_files/18471.got.cif
#   From: 2010.03.12/outbox.cif.g09.slc.cpg/sg14_10_cif.got.tgz:18471.got - 2010.03.31 13:35:05.
