data_PCOD8125084
_publ_section_title
;
Structure prediction by ZEFSAII (Michael W. Deem and Ramdas Pophale) SiO2 
 PCOD8125084
Probable space group: P 21/C
;
_chemical_formula_sum "Si O2"
_cell_formula_units_Z 32
_cell_length_a 25.682937
_cell_length_b 11.933580
_cell_length_c 8.157333
_cell_angle_alpha 90.000000
_cell_angle_beta 142.639624
_cell_angle_gamma 90.000000
_cell_volume 1517.148259
_symmetry_space_group_name_H-M "P 21/C"
_symmetry_group_IT_number 14
_symmetry_cell_setting 'monoclinic'
loop_
_space_group_symop_operation_xyz
x,y,z
-x,1/2+y,1/2-z
-x,-y,-z
x,1/2-y,1/2+z
loop_
_atom_site_type_symbol
_atom_site_label
_atom_site_fract_x
_atom_site_fract_y
_atom_site_fract_z
Si Si1 0.692844 0.614598 0.132778
Si Si2 0.852167 0.979503 0.865300
Si Si3 0.151854 0.804880 0.924490
Si Si4 0.495857 0.626211 0.044019
Si Si5 0.601736 0.708403 0.601540
Si Si6 0.823527 0.050768 0.436037
Si Si7 0.310853 0.593064 0.655546
Si Si8 0.970568 0.066533 0.583919
O O1 0.791230 0.598412 0.324299
O O2 0.661677 0.505624 0.152552
O O3 0.634101 0.626858 0.825054
O O4 0.681848 0.724273 0.219920
O O5 0.816688 0.987345 0.591504
O O6 0.944303 0.916163 0.093047
O O7 0.857864 0.105342 0.952142
O O8 0.075356 0.820972 0.599825
O O9 0.146953 0.679730 0.975647
O O10 0.244243 0.821122 0.069959
O O11 0.531517 0.704316 0.990533
O O12 0.396789 0.661276 0.826981
O O13 0.500000 0.500000 0.000000
O O14 0.554323 0.632926 0.350760
O O15 0.899094 0.997870 0.511135
O O16 0.732136 0.039231 0.116017
O O17 0.000000 0.000000 0.500000
#
# Coordination Sequence:
#
# PCOD8125084 Si02
#       8
#     4   4   4   4   4   4   4   4
#     4  10  22  43  62  88 122 161 208 261 312 369
#     4  10  20  36  63  89 117 168 206 244 317 378
#     4   9  20  39  58  88 130 159 197 263 306 364
#     4  11  23  43  65  93 129 170 216 263 321 383
#     4  10  24  44  64  89 129 166 212 272 316 372
#     4  11  21  36  64  93 126 158 204 260 313 371
#     4  10  22  38  61  92 124 164 203 253 322 377
#     4   9  19  38  58  84 123 159 199 247 300 362
#
# _framework density 21.092203000000001
#
# number of rings (size 3 to 8) (size 9 to 14) (size 15 to 20)
#    0.000    2.000    1.250    2.625    3.500    0.500 
#    2.250    0.000    5.500    0.000    0.000    0.000 
#    0.000    0.000    0.000    0.000    0.000    0.000 
#
# Total GULP energy -396712.724866 kJ/mol
# GULP energy per Si atom -12397.272652 kJ/mol
# Density = 2.104420 g / cm^3
# Si number density = 21.092203 Si / 1000 Ang^3
#
#
#
# Elastic Constant Matrix: (Units=GPa)
#
#
# Indices 1 2 3 4 5 6 
#
# 1 104.3808 27.0826 45.9903 0.0000 -2.4519 0.0000
# 2 27.0826 72.8750 40.5856 0.0000 -2.1982 0.0000
# 3 45.9903 40.5856 96.9598 0.0000 -3.4501 0.0000
# 4 0.0000 0.0000 0.0000 28.8546 0.0000 -3.8992
# 5 -2.4519 -2.1982 -3.4501 0.0000 44.8079 0.0000
# 6 0.0000 0.0000 0.0000 -3.8992 0.0000 18.7073
#
#
#
# Elastic Compliance Matrix: (Units=1/GPa)
#
#
# Indices 1 2 3 4 5 6 
#
# 1 0.012276 -0.001718 -0.005097 0.000000 0.000195 0.000000
# 2 -0.001718 0.018138 -0.006768 0.000000 0.000275 0.000000
# 3 -0.005097 -0.006768 0.015585 0.000000 0.000589 0.000000
# 4 0.000000 0.000000 0.000000 0.035661 0.000000 0.007433
# 5 0.000195 0.000275 0.000589 0.000000 0.022387 0.000000
# 6 0.000000 0.000000 0.000000 0.007433 0.000000 0.055004
#
#
# Mechanical properties :
#
#
# Convention : Reuss Voigt Hill
#
# Bulk Modulus (GPa) = 53.09447 55.72586 54.41016
# Shear Modulus (GPa) = 25.97483 29.17778 27.57631
#
# Velocity S-wave (km/s) = 3.51307 3.72337 3.61975
# Velocity P-wave (km/s) = 6.45622 6.70538 6.58198
#
# Compressibility (1/GPa) = 0.01883435
#
# Stress axis : x y z
#
# Youngs Moduli (GPa) = 81.45766 55.13346 64.16446
#
# Poissons Ratio (x) = 0.09471 0.32705
# Poissons Ratio (y) = 0.13992 0.43424
# Poissons Ratio (z) = 0.41519 0.37312
#
# Static dielectric constant tensor:
#      x y z
#    x 4.333480 0.000000 0.116680 
#    y 0.000000 3.521950 0.000000 
#    z 0.116680 0.000000 4.182040 
# 
# 
# High freq. dielectric constant tensor:
#      x y z
#    x 1.849420 0.000000 -0.005400 
#    y 0.000000 1.790380 0.000000 
#    z -0.005400 0.000000 1.831960 
# 
# From -- ./inp_files/20004.got.cif
#   From: 2010.03.12/outbox.cif.g09.slc.cpg/sg14_11_cif.got.tgz:20004.got - 2010.03.31 13:35:05.
