data_PCOD8125614
_publ_section_title
;
Structure prediction by ZEFSAII (Michael W. Deem and Ramdas Pophale) SiO2 
 PCOD8125614
Probable space group: P 21/C
;
_chemical_formula_sum "Si O2"
_cell_formula_units_Z 28
_cell_length_a 9.642614
_cell_length_b 19.811487
_cell_length_c 14.943185
_cell_angle_alpha 90.000000
_cell_angle_beta 151.379848
_cell_angle_gamma 90.000000
_cell_volume 1367.385955
_symmetry_space_group_name_H-M "P 21/C"
_symmetry_group_IT_number 14
_symmetry_cell_setting 'monoclinic'
loop_
_space_group_symop_operation_xyz
x,y,z
-x,1/2+y,1/2-z
-x,-y,-z
x,1/2-y,1/2+z
loop_
_atom_site_type_symbol
_atom_site_label
_atom_site_fract_x
_atom_site_fract_y
_atom_site_fract_z
Si Si1 0.195795 0.829575 0.142514
Si Si2 0.727509 0.336935 0.521257
Si Si3 0.632982 0.723645 0.401234
Si Si4 0.282583 0.405412 0.835721
Si Si5 0.219091 0.134334 0.844335
Si Si6 0.331354 0.689722 0.055621
Si Si7 0.163924 0.947835 0.251769
O O1 0.502595 0.798157 0.351888
O O2 0.096166 0.899491 0.130668
O O3 0.226546 0.850072 0.057355
O O4 0.936636 0.775775 0.018649
O O5 0.489048 0.384708 0.433754
O O6 0.627410 0.259468 0.477147
O O7 0.035658 0.357568 0.739896
O O8 0.663597 0.682081 0.509664
O O9 0.379956 0.697232 0.189612
O O10 0.439644 0.365444 0.845889
O O11 0.137145 0.473522 0.711951
O O12 0.506771 0.428665 0.037477
O O13 0.996469 0.170149 0.651076
O O14 0.064202 0.068374 0.797681
#
# Coordination Sequence:
#
# PCOD8125614 Si02
#       7
#     4   4   4   4   4   4   4
#     4  10  22  38  58  90 120 158 202 249 303 359
#     4  11  22  35  60  93 117 157 196 258 303 355
#     4  10  22  38  56  90 123 155 199 254 295 361
#     4  10  20  40  65  84 121 162 208 245 299 366
#     4  10  23  37  59  90 122 158 200 250 308 356
#     4  10  21  39  60  87 123 156 202 249 303 358
#     4   9  22  41  61  86 119 167 206 242 298 375
#
# _framework density 20.477029000000002
#
# number of rings (size 3 to 8) (size 9 to 14) (size 15 to 20)
#    0.000    2.000    1.429    0.857   14.000    1.143 
#    0.000    0.000    0.000    2.571    0.000    0.000 
#    0.000    0.000    0.000    0.000    0.000    0.000 
#
# Total GULP energy -346905.404239 kJ/mol
# GULP energy per Si atom -12389.478723 kJ/mol
# Density = 2.043042 g / cm^3
# Si number density = 20.477029 Si / 1000 Ang^3
#
#
#
# Elastic Constant Matrix: (Units=GPa)
#
#
# Indices 1 2 3 4 5 6 
#
# 1 108.0869 18.6812 41.7452 0.0000 23.3332 0.0000
# 2 18.6812 71.0403 16.2988 0.0000 4.8358 0.0000
# 3 41.7452 16.2988 100.5367 0.0000 13.0715 0.0000
# 4 0.0000 0.0000 0.0000 19.9275 0.0000 -2.8157
# 5 23.3332 4.8358 13.0715 0.0000 29.3915 0.0000
# 6 0.0000 0.0000 0.0000 -2.8157 0.0000 15.0240
#
#
#
# Elastic Compliance Matrix: (Units=1/GPa)
#
#
# Indices 1 2 3 4 5 6 
#
# 1 0.012876 -0.001920 -0.003977 0.000000 -0.008138 0.000000
# 2 -0.001920 0.014964 -0.001599 0.000000 -0.000227 0.000000
# 3 -0.003977 -0.001599 0.012113 0.000000 -0.001966 0.000000
# 4 0.000000 0.000000 0.000000 0.051547 0.000000 0.009661
# 5 -0.008138 -0.000227 -0.001966 0.000000 0.041396 0.000000
# 6 0.000000 0.000000 0.000000 0.009661 0.000000 0.068371
#
#
# Mechanical properties :
#
#
# Convention : Reuss Voigt Hill
#
# Bulk Modulus (GPa) = 40.06321 48.12382 44.09352
# Shear Modulus (GPa) = 22.26388 26.39784 24.33086
#
# Velocity S-wave (km/s) = 3.30094 3.59436 3.45077
# Velocity P-wave (km/s) = 5.84258 6.38579 6.12021
#
# Compressibility (1/GPa) = 0.02496056
#
# Stress axis : x y z
#
# Youngs Moduli (GPa) = 77.66132 66.82850 82.55542
#
# Poissons Ratio (x) = 0.12828 0.32835
# Poissons Ratio (y) = 0.14908 0.13203
# Poissons Ratio (z) = 0.30889 0.10688
#
# Static dielectric constant tensor:
#      x y z
#    x 3.556520 0.000000 0.159790 
#    y 0.000000 3.808290 0.000000 
#    z 0.159790 0.000000 3.905060 
# 
# 
# High freq. dielectric constant tensor:
#      x y z
#    x 1.793200 0.000000 0.007820 
#    y 0.000000 1.779030 0.000000 
#    z 0.007820 0.000000 1.811360 
# 
# From -- ./inp_files/10439.got.cif
#   From: 2010.03.12/outbox.cif.g09.slc.cpg/sg14_6_cif.got.tgz:10439.got - 2010.03.31 13:35:05.
