data_PCOD8125804
_publ_section_title
;
Structure prediction by ZEFSAII (Michael W. Deem and Ramdas Pophale) SiO2 
 PCOD8125804
Probable space group: P 21/C
;
_chemical_formula_sum "Si O2"
_cell_formula_units_Z 28
_cell_length_a 13.122503
_cell_length_b 9.658463
_cell_length_c 11.572764
_cell_angle_alpha 90.000000
_cell_angle_beta 68.724024
_cell_angle_gamma 90.000000
_cell_volume 1366.799331
_symmetry_space_group_name_H-M "P 21/C"
_symmetry_group_IT_number 14
_symmetry_cell_setting 'monoclinic'
loop_
_space_group_symop_operation_xyz
x,y,z
-x,1/2+y,1/2-z
-x,-y,-z
x,1/2-y,1/2+z
loop_
_atom_site_type_symbol
_atom_site_label
_atom_site_fract_x
_atom_site_fract_y
_atom_site_fract_z
Si Si1 0.216780 0.996819 0.950662
Si Si2 0.849879 0.665796 0.733001
Si Si3 0.591189 0.132207 0.272094
Si Si4 0.099862 0.817152 0.163343
Si Si5 0.256672 0.928066 0.589750
Si Si6 0.394094 0.564432 0.809417
Si Si7 0.760437 0.954524 0.807842
O O1 0.149618 0.094241 0.892223
O O2 0.323329 0.933097 0.850609
O O3 0.258431 0.078619 0.048000
O O4 0.133607 0.874443 0.022515
O O5 0.773615 0.581797 0.854152
O O6 0.802984 0.817266 0.729108
O O7 0.970720 0.682565 0.734608
O O8 0.644360 0.139696 0.377502
O O9 0.557748 0.283845 0.239385
O O10 0.486577 0.033677 0.323897
O O11 0.147404 0.662620 0.155480
O O12 0.152659 0.918350 0.239221
O O13 0.293972 0.929048 0.441592
O O14 0.351464 0.498998 0.707504
#
# Coordination Sequence:
#
# PCOD8125804 Si02
#       7
#     4   4   4   4   4   4   4
#     4   9  22  43  63  93 133 165 211 267 317 380
#     4  11  23  39  69  96 125 178 210 259 317 391
#     4  11  24  44  68  92 127 174 214 265 332 372
#     4  10  20  45  65  92 132 169 213 259 329 373
#     4  11  24  45  66  97 134 164 222 266 311 391
#     4  12  25  44  66  96 128 170 214 271 325 379
#     4  10  24  41  62  96 133 158 218 266 320 378
#
# _framework density 20.485814999999999
#
# number of rings (size 3 to 8) (size 9 to 14) (size 15 to 20)
#    0.857    0.571    2.857    1.714    6.000    0.571 
#    2.571    1.429    0.000    0.000    0.000    0.000 
#    0.000    0.000    0.000    0.000    0.000    0.000 
#
# Total GULP energy -347171.734770 kJ/mol
# GULP energy per Si atom -12398.990528 kJ/mol
# Density = 2.043919 g / cm^3
# Si number density = 20.485815 Si / 1000 Ang^3
#
#
#
# Elastic Constant Matrix: (Units=GPa)
#
#
# Indices 1 2 3 4 5 6 
#
# 1 88.2579 48.4599 13.6171 0.0000 4.0344 0.0000
# 2 48.4599 105.1148 17.4030 0.0000 -9.0431 0.0000
# 3 13.6171 17.4030 48.7549 0.0000 5.5448 0.0000
# 4 0.0000 0.0000 0.0000 17.0511 0.0000 -4.2347
# 5 4.0344 -9.0431 5.5448 0.0000 28.9921 0.0000
# 6 0.0000 0.0000 0.0000 -4.2347 0.0000 40.0508
#
#
#
# Elastic Compliance Matrix: (Units=1/GPa)
#
#
# Indices 1 2 3 4 5 6 
#
# 1 0.015811 -0.007447 -0.001271 0.000000 -0.004280 0.000000
# 2 -0.007447 0.014076 -0.003641 0.000000 0.006123 0.000000
# 3 -0.001271 -0.003641 0.022770 0.000000 -0.005314 0.000000
# 4 0.000000 0.000000 0.000000 0.060229 0.000000 0.006368
# 5 -0.004280 0.006123 -0.005314 0.000000 0.038014 0.000000
# 6 0.000000 0.000000 0.000000 0.006368 0.000000 0.025642
#
#
# Mechanical properties :
#
#
# Convention : Reuss Voigt Hill
#
# Bulk Modulus (GPa) = 35.79223 44.56528 40.17876
# Shear Modulus (GPa) = 23.74482 28.06198 25.90340
#
# Velocity S-wave (km/s) = 3.40823 3.70513 3.55978
# Velocity P-wave (km/s) = 5.74436 6.33288 6.04579
#
# Compressibility (1/GPa) = 0.02793903
#
# Stress axis : x y z
#
# Youngs Moduli (GPa) = 63.24668 71.04195 43.91807
#
# Poissons Ratio (x) = 0.52905 0.05582
# Poissons Ratio (y) = 0.47100 0.15990
# Poissons Ratio (z) = 0.08039 0.25866
#
# Static dielectric constant tensor:
#      x y z
#    x 3.559480 0.000000 0.142130 
#    y 0.000000 3.766900 0.000000 
#    z 0.142130 0.000000 3.514140 
# 
# 
# High freq. dielectric constant tensor:
#      x y z
#    x 1.796900 0.000000 0.009690 
#    y 0.000000 1.808680 0.000000 
#    z 0.009690 0.000000 1.788440 
# 
# From -- ./inp_files/31719.got.cif
#   From: 2010.03.12/outbox.cif.g09.slc.cpg/sg14_16_cif.got.tgz:31719.got - 2010.03.31 13:35:05.
