data_PCOD8125046
_publ_section_title
;
Structure prediction by ZEFSAII (Michael W. Deem and Ramdas Pophale) SiO2 
 PCOD8125046
Probable space group: P 21/C
;
_chemical_formula_sum "Si O2"
_cell_formula_units_Z 28
_cell_length_a 10.794426
_cell_length_b 13.356779
_cell_length_c 21.501421
_cell_angle_alpha 90.000000
_cell_angle_beta 28.192770
_cell_angle_gamma 90.000000
_cell_volume 1464.585416
_symmetry_space_group_name_H-M "P 21/C"
_symmetry_group_IT_number 14
_symmetry_cell_setting 'monoclinic'
loop_
_space_group_symop_operation_xyz
x,y,z
-x,1/2+y,1/2-z
-x,-y,-z
x,1/2-y,1/2+z
loop_
_atom_site_type_symbol
_atom_site_label
_atom_site_fract_x
_atom_site_fract_y
_atom_site_fract_z
Si Si1 0.887972 0.886949 0.657946
Si Si2 0.000002 0.245296 0.000001
Si Si3 0.313980 0.613724 0.453463
Si Si4 0.112027 0.886947 0.342053
Si Si5 0.313987 0.113725 0.953463
Si Si6 0.212579 0.761786 0.602355
Si Si7 0.212566 0.261785 0.102364
O O1 0.627791 0.880661 0.814694
O O2 0.850119 0.816003 0.615130
O O3 0.131348 0.851924 0.592491
O O4 0.941755 0.000001 0.611557
O O5 0.789214 0.175003 0.059917
O O6 0.850110 0.316001 0.115136
O O7 0.210807 0.175013 0.940078
O O8 0.212108 0.499999 0.494070
O O9 0.214332 0.658534 0.562704
O O10 0.372201 0.880664 0.185305
O O11 0.868651 0.851920 0.407509
O O12 0.214340 0.158531 0.062705
O O13 0.500014 0.788779 0.499988
O O14 0.000020 0.750001 0.749992
#
# Coordination Sequence:
#
# PCOD8125046 Si02
#       7
#     4   4   4   4   4   4   4
#     4  10  21  37  59  86 118 155 192 237 292 344
#     4  10  20  36  60  86 118 148 196 244 286 334
#     4  10  21  37  60  86 115 156 196 235 288 349
#     4  10  21  37  59  86 118 155 192 237 292 344
#     4  10  21  37  60  86 115 156 196 235 288 349
#     4  11  22  39  61  86 118 151 195 243 287 340
#     4  11  22  39  61  86 118 151 195 243 287 340
#
# _framework density 19.118037000000001
#
# number of rings (size 3 to 8) (size 9 to 14) (size 15 to 20)
#    0.000    1.714    2.857    1.714    0.000    2.286 
#    0.000    0.000    0.000    0.000    0.000    0.000 
#    0.000    0.000    0.000    0.000    0.000    0.000 
#
# Total GULP energy -347267.045385 kJ/mol
# GULP energy per Si atom -12402.394478 kJ/mol
# Density = 1.907452 g / cm^3
# Si number density = 19.118037 Si / 1000 Ang^3
#
#
#
# Elastic Constant Matrix: (Units=GPa)
#
#
# Indices 1 2 3 4 5 6 
#
# 1 130.6515 68.7437 50.5482 0.0000 -2.7923 0.0000
# 2 68.7437 165.1686 55.7406 0.0000 4.3653 0.0000
# 3 50.5482 55.7406 112.2793 0.0000 6.4018 0.0000
# 4 0.0000 0.0000 0.0000 29.1194 0.0000 -1.4596
# 5 -2.7923 4.3653 6.4018 0.0000 33.4198 0.0000
# 6 0.0000 0.0000 0.0000 -1.4596 0.0000 19.8862
#
#
#
# Elastic Compliance Matrix: (Units=1/GPa)
#
#
# Indices 1 2 3 4 5 6 
#
# 1 0.010761 -0.003433 -0.003253 0.000000 0.001971 0.000000
# 2 -0.003433 0.008370 -0.002559 0.000000 -0.000890 0.000000
# 3 -0.003253 -0.002559 0.011766 0.000000 -0.002191 0.000000
# 4 0.000000 0.000000 0.000000 0.034468 0.000000 0.002530
# 5 0.001971 -0.000890 -0.002191 0.000000 0.030623 0.000000
# 6 0.000000 0.000000 0.000000 0.002530 0.000000 0.050472
#
#
# Mechanical properties :
#
#
# Convention : Reuss Voigt Hill
#
# Bulk Modulus (GPa) = 80.59464 84.24052 82.41758
# Shear Modulus (GPa) = 29.57079 32.02288 30.79683
#
# Velocity S-wave (km/s) = 3.93714 4.09713 4.01793
# Velocity P-wave (km/s) = 7.93196 8.15726 8.04540
#
# Compressibility (1/GPa) = 0.01240777
#
# Stress axis : x y z
#
# Youngs Moduli (GPa) = 92.92972 119.46762 84.99011
#
# Poissons Ratio (x) = 0.41015 0.27643
# Poissons Ratio (y) = 0.31904 0.21750
# Poissons Ratio (z) = 0.30226 0.30574
#
# Static dielectric constant tensor:
#      x y z
#    x 3.581320 0.000000 0.026770 
#    y 0.000000 3.603180 0.000000 
#    z 0.026770 0.000000 3.415080 
# 
# 
# High freq. dielectric constant tensor:
#      x y z
#    x 1.751970 0.000000 0.004980 
#    y 0.000000 1.748160 0.000000 
#    z 0.004980 0.000000 1.740030 
# 
# From -- ./inp_files/13416.got.cif
#   From: 2010.03.12/outbox.cif.g09.slc.cpg/sg14_7_cif.got.tgz:13416.got - 2010.03.31 13:35:05.
