data_PCOD8125026
_publ_section_title
;
Structure prediction by ZEFSAII (Michael W. Deem and Ramdas Pophale) SiO2 
 PCOD8125026
Probable space group: P 21/C
;
_chemical_formula_sum "Si O2"
_cell_formula_units_Z 28
_cell_length_a 12.901773
_cell_length_b 19.871602
_cell_length_c 8.978603
_cell_angle_alpha 90.000000
_cell_angle_beta 38.637831
_cell_angle_gamma 90.000000
_cell_volume 1437.311155
_symmetry_space_group_name_H-M "P 21/C"
_symmetry_group_IT_number 14
_symmetry_cell_setting 'monoclinic'
loop_
_space_group_symop_operation_xyz
x,y,z
-x,1/2+y,1/2-z
-x,-y,-z
x,1/2-y,1/2+z
loop_
_atom_site_type_symbol
_atom_site_label
_atom_site_fract_x
_atom_site_fract_y
_atom_site_fract_z
Si Si1 0.605532 0.590673 0.869026
Si Si2 0.813820 0.795553 0.007113
Si Si3 0.354921 0.799948 0.614701
Si Si4 0.186180 0.795552 0.492887
Si Si5 0.500000 0.509281 0.250000
Si Si6 0.354921 0.200052 0.114702
Si Si7 0.394468 0.909326 0.130974
O O1 0.754510 0.644043 0.682575
O O2 0.616891 0.535800 0.724759
O O3 0.421033 0.624956 0.070794
O O4 0.621504 0.555153 0.011744
O O5 0.802620 0.723860 0.107771
O O6 0.688585 0.793570 0.009406
O O7 0.000000 0.809844 0.750000
O O8 0.311416 0.793570 0.490593
O O9 0.500000 0.750000 0.500001
O O10 0.197379 0.776140 0.892229
O O11 0.245490 0.855957 0.317425
O O12 0.616890 0.464199 0.224757
O O13 0.378495 0.555152 0.488259
O O14 0.421033 0.124956 0.070796
#
# Coordination Sequence:
#
# PCOD8125026 Si02
#       7
#     4   4   4   4   4   4   4
#     4  10  20  37  60  82 110 144 202 228 277 331
#     4  11  22  37  57  88 120 145 179 241 299 338
#     4  10  20  36  59  85 111 148 191 233 280 341
#     4  11  22  37  57  88 120 145 179 241 299 338
#     4  10  20  36  62  80 104 154 200 238 258 326
#     4  10  20  36  59  85 111 148 191 233 280 341
#     4  10  20  37  60  82 110 144 202 228 277 331
#
# _framework density 19.480820999999999
#
# number of rings (size 3 to 8) (size 9 to 14) (size 15 to 20)
#    0.000    1.714    2.857    3.429    8.000    0.000 
#    0.000    1.429    0.000    0.000    0.000    0.000 
#    0.000    0.000    0.000    0.000    0.000    0.000 
#
# Total GULP energy -347075.022418 kJ/mol
# GULP energy per Si atom -12395.536515 kJ/mol
# Density = 1.943648 g / cm^3
# Si number density = 19.480821 Si / 1000 Ang^3
#
#
#
# Elastic Constant Matrix: (Units=GPa)
#
#
# Indices 1 2 3 4 5 6 
#
# 1 64.5542 34.7924 28.1560 0.0000 19.4251 0.0000
# 2 34.7924 104.6690 64.6897 0.0000 14.4488 0.0000
# 3 28.1560 64.6897 128.1953 0.0000 6.4404 0.0000
# 4 0.0000 0.0000 0.0000 39.8869 0.0000 15.8338
# 5 19.4251 14.4488 6.4404 0.0000 33.0454 0.0000
# 6 0.0000 0.0000 0.0000 15.8338 0.0000 23.8569
#
#
#
# Elastic Compliance Matrix: (Units=1/GPa)
#
#
# Indices 1 2 3 4 5 6 
#
# 1 0.022023 -0.004657 -0.001958 0.000000 -0.010528 0.000000
# 2 -0.004657 0.015649 -0.006734 0.000000 -0.002793 0.000000
# 3 -0.001958 -0.006734 0.011536 0.000000 0.001847 0.000000
# 4 0.000000 0.000000 0.000000 0.034039 0.000000 -0.022592
# 5 -0.010528 -0.002793 0.001847 0.000000 0.037311 0.000000
# 6 0.000000 0.000000 0.000000 -0.022592 0.000000 0.056911
#
#
# Mechanical properties :
#
#
# Convention : Reuss Voigt Hill
#
# Bulk Modulus (GPa) = 44.42426 61.41054 52.91740
# Shear Modulus (GPa) = 23.62174 30.67653 27.14913
#
# Velocity S-wave (km/s) = 3.48597 3.97256 3.73719
# Velocity P-wave (km/s) = 6.24950 7.25491 6.77089
#
# Compressibility (1/GPa) = 0.02251022
#
# Stress axis : x y z
#
# Youngs Moduli (GPa) = 45.40751 63.90124 86.68660
#
# Poissons Ratio (x) = 0.29759 0.16973
# Poissons Ratio (y) = 0.21146 0.58372
# Poissons Ratio (z) = 0.08891 0.43029
#
# Static dielectric constant tensor:
#      x y z
#    x 3.414770 0.000000 0.367550 
#    y 0.000000 3.964200 0.000000 
#    z 0.367550 0.000000 3.902420 
# 
# 
# High freq. dielectric constant tensor:
#      x y z
#    x 1.743750 0.000000 0.036190 
#    y 0.000000 1.762320 0.000000 
#    z 0.036190 0.000000 1.747870 
# 
# From -- ./inp_files/9992.got.cif
#   From: 2010.03.12/outbox.cif.g09.slc.cpg/sg14_5_cif.got.tgz:9992.got - 2010.03.31 13:35:05.
