data_PCOD8125299
_publ_section_title
;
Structure prediction by ZEFSAII (Michael W. Deem and Ramdas Pophale) SiO2 
 PCOD8125299
Probable space group: P 21/C
;
_chemical_formula_sum "Si O2"
_cell_formula_units_Z 20
_cell_length_a 8.951150
_cell_length_b 7.412372
_cell_length_c 21.635050
_cell_angle_alpha 90.000000
_cell_angle_beta 145.839457
_cell_angle_gamma 90.000000
_cell_volume 806.035705
_symmetry_space_group_name_H-M "P 21/C"
_symmetry_group_IT_number 14
_symmetry_cell_setting 'monoclinic'
loop_
_space_group_symop_operation_xyz
x,y,z
-x,1/2+y,1/2-z
-x,-y,-z
x,1/2-y,1/2+z
loop_
_atom_site_type_symbol
_atom_site_label
_atom_site_fract_x
_atom_site_fract_y
_atom_site_fract_z
Si Si1 0.110334 0.276376 0.168117
Si Si2 0.937866 0.223624 0.331883
Si Si3 0.921966 0.531506 0.234054
Si Si4 0.485750 0.531506 0.765946
Si Si5 0.679492 0.500000 0.964746
O O1 0.313512 0.448205 0.223938
O O2 0.077855 0.226138 0.229469
O O3 0.824670 0.320517 0.040499
O O4 0.246104 0.111442 0.176510
O O5 0.917761 0.051796 0.276062
O O6 0.659980 0.273863 0.270531
O O7 0.040066 0.388559 0.323491
O O8 0.162676 0.179483 0.459502
O O9 0.619463 0.484005 0.111746
O O10 0.672480 0.484005 0.888254
#
# Coordination Sequence:
#
# PCOD8125299 Si02
#       5
#     4   4   4   4   4
#     4  10  20  39  60  83 118 151 191 238 283 340
#     4  10  20  39  60  83 118 151 191 238 283 340
#     4  10  23  39  59  88 115 153 194 235 288 340
#     4  10  23  39  59  88 115 153 194 235 288 340
#     4  10  20  38  60  84 116 152 188 240 290 336
#
# _framework density 24.812797
#
# number of rings (size 3 to 8) (size 9 to 14) (size 15 to 20)
#    0.000    2.400    0.000    3.600    0.000    3.200 
#    0.000   48.000    0.000    0.000    0.000    0.000 
#    0.000    0.000    0.000    0.000    0.000    0.000 
#
# Total GULP energy -247920.493118 kJ/mol
# GULP energy per Si atom -12396.024656 kJ/mol
# Density = 2.475632 g / cm^3
# Si number density = 24.812797 Si / 1000 Ang^3
#
#
#
# Elastic Constant Matrix: (Units=GPa)
#
#
# Indices 1 2 3 4 5 6 
#
# 1 159.2847 -1.4630 43.4051 0.0000 3.3000 0.0000
# 2 -1.4630 65.6150 61.3016 0.0000 -3.3832 0.0000
# 3 43.4051 61.3016 151.3322 0.0000 -2.8713 0.0000
# 4 0.0000 0.0000 0.0000 61.7735 0.0000 -1.5478
# 5 3.3000 -3.3832 -2.8713 0.0000 27.6627 0.0000
# 6 0.0000 0.0000 0.0000 -1.5478 0.0000 33.0603
#
#
#
# Elastic Compliance Matrix: (Units=1/GPa)
#
#
# Indices 1 2 3 4 5 6 
#
# 1 0.007268 0.003350 -0.003457 0.000000 -0.000816 0.000000
# 2 0.003350 0.026172 -0.011532 0.000000 0.001604 0.000000
# 3 -0.003457 -0.011532 0.012276 0.000000 0.000276 0.000000
# 4 0.000000 0.000000 0.000000 0.016207 0.000000 0.000759
# 5 -0.000816 0.001604 0.000276 0.000000 0.036472 0.000000
# 6 0.000000 0.000000 0.000000 0.000759 0.000000 0.030283
#
#
# Mechanical properties :
#
#
# Convention : Reuss Voigt Hill
#
# Bulk Modulus (GPa) = 44.56912 64.74658 54.65785
# Shear Modulus (GPa) = 31.36073 42.69852 37.02963
#
# Velocity S-wave (km/s) = 3.55898 4.15279 3.86730
# Velocity P-wave (km/s) = 5.90675 7.01034 6.48207
#
# Compressibility (1/GPa) = 0.02243706
#
# Stress axis : x y z
#
# Youngs Moduli (GPa) = 137.59451 38.20940 81.45958
#
# Poissons Ratio (x) = -0.12798 0.28159
# Poissons Ratio (y) = -0.46088 0.93938
# Poissons Ratio (z) = 0.47564 0.44062
#
# Static dielectric constant tensor:
#      x y z
#    x 4.723630 0.000000 0.040300 
#    y 0.000000 5.418280 0.000000 
#    z 0.040300 0.000000 3.976110 
# 
# 
# High freq. dielectric constant tensor:
#      x y z
#    x 2.025350 0.000000 0.004290 
#    y 0.000000 2.022500 0.000000 
#    z 0.004290 0.000000 1.945820 
# 
# From -- ./inp_files/27584.got.cif
#   From: 2010.03.12/outbox.cif.g09.slc.cpg/sg14_14_cif.got.tgz:27584.got - 2010.03.31 13:35:05.
