data_PCOD8125134
_publ_section_title
;
Structure prediction by ZEFSAII (Michael W. Deem and Ramdas Pophale) SiO2 
 PCOD8125134
Probable space group: P 21/C
;
_chemical_formula_sum "Si O2"
_cell_formula_units_Z 32
_cell_length_a 9.218599
_cell_length_b 19.068842
_cell_length_c 15.181471
_cell_angle_alpha 90.000000
_cell_angle_beta 36.535434
_cell_angle_gamma 90.000000
_cell_volume 1588.742207
_symmetry_space_group_name_H-M "P 21/C"
_symmetry_group_IT_number 14
_symmetry_cell_setting 'monoclinic'
loop_
_space_group_symop_operation_xyz
x,y,z
-x,1/2+y,1/2-z
-x,-y,-z
x,1/2-y,1/2+z
loop_
_atom_site_type_symbol
_atom_site_label
_atom_site_fract_x
_atom_site_fract_y
_atom_site_fract_z
Si Si1 0.589529 0.504283 0.175093
Si Si2 0.909662 0.765907 0.191695
Si Si3 0.812903 0.263376 0.119838
Si Si4 0.912564 0.008847 0.675016
Si Si5 0.056144 0.624544 0.192590
Si Si6 0.933571 0.841913 0.353325
Si Si7 0.404971 0.638951 0.175958
Si Si8 0.472013 0.639637 0.851689
O O1 0.663095 0.503560 0.242057
O O2 0.437629 0.573131 0.225271
O O3 0.423636 0.436690 0.228320
O O4 0.845773 0.498983 0.000220
O O5 0.022271 0.811034 0.216772
O O6 0.657083 0.799869 0.287526
O O7 0.877328 0.687175 0.246813
O O8 0.074589 0.768590 0.024354
O O9 0.622030 0.207745 0.251399
O O10 0.672539 0.334321 0.163800
O O11 0.011735 0.287161 0.094683
O O12 0.916856 0.949348 0.748997
O O13 0.914292 0.086394 0.714556
O O14 0.151429 0.630556 0.246307
O O15 0.301078 0.628568 0.017711
O O16 0.642008 0.854902 0.497408
#
# Coordination Sequence:
#
# PCOD8125134 Si02
#       8
#     4   4   4   4   4   4   4   4
#     4   9  19  33  58  85 112 146 193 244 285 331
#     4  11  23  37  59  87 119 154 188 237 295 345
#     4  11  23  39  56  88 120 152 190 240 287 351
#     4   9  19  34  57  86 114 143 193 248 288 323
#     4  10  21  35  56  88 116 144 194 243 282 338
#     4  11  21  39  63  84 116 154 195 239 289 339
#     4  11  22  36  59  87 115 152 194 237 289 339
#     4  10  20  37  58  83 113 151 194 239 289 336
#
# _framework density 20.141718000000001
#
# number of rings (size 3 to 8) (size 9 to 14) (size 15 to 20)
#    0.000    1.750    3.750    0.750    8.750    1.500 
#    0.000    0.625    0.000    0.750    0.000    0.000 
#    0.000    0.000    0.000    0.000    0.000    0.000 
#
# Total GULP energy -396595.195257 kJ/mol
# GULP energy per Si atom -12393.599852 kJ/mol
# Density = 2.009587 g / cm^3
# Si number density = 20.141718 Si / 1000 Ang^3
#
#
#
# Elastic Constant Matrix: (Units=GPa)
#
#
# Indices 1 2 3 4 5 6 
#
# 1 106.8914 34.6657 18.9608 0.0000 7.3439 0.0000
# 2 34.6657 121.4124 32.6433 0.0000 0.0233 0.0000
# 3 18.9608 32.6433 19.9522 0.0000 6.4882 0.0000
# 4 0.0000 0.0000 0.0000 21.5543 0.0000 -3.4528
# 5 7.3439 0.0233 6.4882 0.0000 22.2981 0.0000
# 6 0.0000 0.0000 0.0000 -3.4528 0.0000 36.1889
#
#
#
# Elastic Compliance Matrix: (Units=1/GPa)
#
#
# Indices 1 2 3 4 5 6 
#
# 1 0.011298 -0.000771 -0.009129 0.000000 -0.001064 0.000000
# 2 -0.000771 0.016066 -0.028308 0.000000 0.008474 0.000000
# 3 -0.009129 -0.028308 0.115004 0.000000 -0.030427 0.000000
# 4 0.000000 0.000000 0.000000 0.047115 0.000000 0.004495
# 5 -0.001064 0.008474 -0.030427 0.000000 0.054042 0.000000
# 6 0.000000 0.000000 0.000000 0.004495 0.000000 0.028062
#
#
# Mechanical properties :
#
#
# Convention : Reuss Voigt Hill
#
# Bulk Modulus (GPa) = 15.16266 46.75504 30.95885
# Shear Modulus (GPa) = 13.51407 26.80735 20.16071
#
# Velocity S-wave (km/s) = 2.59308 3.65216 3.16720
# Velocity P-wave (km/s) = 4.06322 6.40685 5.36458
#
# Compressibility (1/GPa) = 0.06595151
#
# Stress axis : x y z
#
# Youngs Moduli (GPa) = 88.51305 62.24374 8.69539
#
# Poissons Ratio (x) = 0.04800 0.07938
# Poissons Ratio (y) = 0.06826 0.24615
# Poissons Ratio (z) = 0.80802 1.76199
#
# Static dielectric constant tensor:
#      x y z
#    x 3.838280 0.000000 0.124220 
#    y 0.000000 4.023190 0.000000 
#    z 0.124220 0.000000 3.087850 
# 
# 
# High freq. dielectric constant tensor:
#      x y z
#    x 1.803530 0.000000 0.012610 
#    y 0.000000 1.804680 0.000000 
#    z 0.012610 0.000000 1.721130 
# 
# From -- ./inp_files/42042.got.cif
#   From: 2010.03.12/outbox.cif.g09.slc.cpg/sg14_22_cif.got.tgz:42042.got - 2010.03.31 13:35:05.
