data_PCOD8125816
_publ_section_title
;
Structure prediction by ZEFSAII (Michael W. Deem and Ramdas Pophale) SiO2 
 PCOD8125816
Probable space group: P 21/C
;
_chemical_formula_sum "Si O2"
_cell_formula_units_Z 28
_cell_length_a 8.451425
_cell_length_b 15.531279
_cell_length_c 10.348133
_cell_angle_alpha 90.000000
_cell_angle_beta 72.377949
_cell_angle_gamma 90.000000
_cell_volume 1294.571048
_symmetry_space_group_name_H-M "P 21/C"
_symmetry_group_IT_number 14
_symmetry_cell_setting 'monoclinic'
loop_
_space_group_symop_operation_xyz
x,y,z
-x,1/2+y,1/2-z
-x,-y,-z
x,1/2-y,1/2+z
loop_
_atom_site_type_symbol
_atom_site_label
_atom_site_fract_x
_atom_site_fract_y
_atom_site_fract_z
Si Si1 0.444714 0.213690 0.995907
Si Si2 0.336785 0.597915 0.406152
Si Si3 0.911163 0.703625 0.901609
Si Si4 0.979038 0.177867 0.902994
Si Si5 0.679755 0.589133 0.670076
Si Si6 0.618905 0.121261 0.388305
Si Si7 0.707468 0.950899 0.453604
O O1 0.492575 0.142877 0.090729
O O2 0.269509 0.254537 0.079671
O O3 0.428404 0.168208 0.859591
O O4 0.593834 0.284307 0.955387
O O5 0.190943 0.626542 0.538211
O O6 0.357385 0.495195 0.406324
O O7 0.292930 0.628800 0.272074
O O8 0.878056 0.601213 0.938645
O O9 0.015888 0.715767 0.744027
O O10 0.008694 0.743456 0.998005
O O11 0.125640 0.110326 0.891490
O O12 0.633965 0.574863 0.830119
O O13 0.435934 0.078256 0.411407
O O14 0.729718 0.055385 0.450027
#
# Coordination Sequence:
#
# PCOD8125816 Si02
#       7
#     4   4   4   4   4   4   4
#     4  10  21  33  58  82 113 140 191 234 280 333
#     4  11  22  33  57  83 115 142 187 239 283 335
#     4   9  20  36  58  79 112 154 193 230 283 343
#     4  10  21  37  57  82 114 154 190 232 288 346
#     4   9  19  38  56  82 108 152 186 228 282 348
#     4   9  19  31  52  83 108 141 180 228 282 323
#     4   8  16  34  56  76 108 144 186 225 273 341
#
# _framework density 21.628784
#
# number of rings (size 3 to 8) (size 9 to 14) (size 15 to 20)
#    0.000    2.571    0.000    0.857   12.000    0.000 
#    0.000    0.000    0.000    0.857    0.000    0.000 
#    0.000    0.000    0.000    0.000    0.000    0.000 
#
# Total GULP energy -347062.831931 kJ/mol
# GULP energy per Si atom -12395.101140 kJ/mol
# Density = 2.157956 g / cm^3
# Si number density = 21.628784 Si / 1000 Ang^3
#
#
#
# Elastic Constant Matrix: (Units=GPa)
#
#
# Indices 1 2 3 4 5 6 
#
# 1 19.1358 9.8984 -3.4462 0.0000 -4.3982 0.0000
# 2 9.8984 104.7356 23.6980 0.0000 0.8474 0.0000
# 3 -3.4462 23.6980 96.5678 0.0000 -9.2105 0.0000
# 4 0.0000 0.0000 0.0000 29.1759 0.0000 4.7996
# 5 -4.3982 0.8474 -9.2105 0.0000 16.8384 0.0000
# 6 0.0000 0.0000 0.0000 4.7996 0.0000 17.9510
#
#
#
# Elastic Compliance Matrix: (Units=1/GPa)
#
#
# Indices 1 2 3 4 5 6 
#
# 1 0.061618 -0.007311 0.005869 0.000000 0.019673 0.000000
# 2 -0.007311 0.011039 -0.003381 0.000000 -0.004315 0.000000
# 3 0.005869 -0.003381 0.012193 0.000000 0.008373 0.000000
# 4 0.000000 0.000000 0.000000 0.035852 0.000000 -0.009586
# 5 0.019673 -0.004315 0.008373 0.000000 0.069323 0.000000
# 6 0.000000 0.000000 0.000000 -0.009586 0.000000 0.058270
#
#
# Mechanical properties :
#
#
# Convention : Reuss Voigt Hill
#
# Bulk Modulus (GPa) = 13.29699 31.19330 22.24514
# Shear Modulus (GPa) = 17.66728 25.47901 21.57314
#
# Velocity S-wave (km/s) = 2.86114 3.43594 3.16163
# Velocity P-wave (km/s) = 4.13232 5.49494 4.86161
#
# Compressibility (1/GPa) = 0.07520498
#
# Stress axis : x y z
#
# Youngs Moduli (GPa) = 16.22899 90.58991 82.01253
#
# Poissons Ratio (x) = 0.66227 -0.48136
# Poissons Ratio (y) = 0.11864 0.27731
# Poissons Ratio (z) = -0.09525 0.30632
#
# Static dielectric constant tensor:
#      x y z
#    x 3.327960 0.000000 -0.033710 
#    y 0.000000 4.326580 0.000000 
#    z -0.033710 0.000000 3.813170 
# 
# 
# High freq. dielectric constant tensor:
#      x y z
#    x 1.800850 0.000000 -0.008110 
#    y 0.000000 1.863010 0.000000 
#    z -0.008110 0.000000 1.849280 
# 
# From -- ./inp_files/25106.got.cif
#   From: 2010.03.12/outbox.cif.g09.slc.cpg/sg14_13_cif.got.tgz:25106.got - 2010.03.31 13:35:05.
