data_PCOD8125858
_publ_section_title
;
Structure prediction by ZEFSAII (Michael W. Deem and Ramdas Pophale) SiO2 
 PCOD8125858
Probable space group: P 21/C
;
_chemical_formula_sum "Si O2"
_cell_formula_units_Z 32
_cell_length_a 6.892876
_cell_length_b 12.523200
_cell_length_c 22.757618
_cell_angle_alpha 90.000000
_cell_angle_beta 127.893816
_cell_angle_gamma 90.000000
_cell_volume 1550.252198
_symmetry_space_group_name_H-M "P 21/C"
_symmetry_group_IT_number 14
_symmetry_cell_setting 'monoclinic'
loop_
_space_group_symop_operation_xyz
x,y,z
-x,1/2+y,1/2-z
-x,-y,-z
x,1/2-y,1/2+z
loop_
_atom_site_type_symbol
_atom_site_label
_atom_site_fract_x
_atom_site_fract_y
_atom_site_fract_z
Si Si1 0.634243 0.115748 0.090420
Si Si2 0.708571 0.742599 0.392989
Si Si3 0.534631 0.113245 0.942363
Si Si4 0.849541 0.275298 0.939268
Si Si5 0.940665 0.756801 0.150291
Si Si6 0.190110 0.412067 0.690130
Si Si7 0.381476 0.098784 0.343055
Si Si8 0.345205 0.890427 0.275682
O O1 0.519210 0.210634 0.107527
O O2 0.909184 0.086716 0.160840
O O3 0.452184 0.014120 0.062725
O O4 0.645707 0.152319 0.024946
O O5 0.785945 0.640435 0.368889
O O6 0.613958 0.835862 0.331391
O O7 0.932306 0.787037 0.473087
O O8 0.696042 0.166722 0.921417
O O9 0.251091 0.146816 0.888046
O O10 0.663369 0.375369 0.913452
O O11 0.951419 0.270255 0.892967
O O12 0.810566 0.648311 0.147041
O O13 0.148111 0.794153 0.235544
O O14 0.339511 0.349890 0.769647
O O15 0.301846 0.534181 0.709603
O O16 0.324866 0.970963 0.328560
#
# Coordination Sequence:
#
# PCOD8125858 Si02
#       8
#     4   4   4   4   4   4   4   4
#     4  11  21  37  62  95 126 163 213 266 326 378
#     4  12  24  40  67  95 129 169 217 263 328 392
#     4  10  21  35  60  95 131 160 201 271 324 370
#     4  11  23  38  66  96 128 169 209 267 324 386
#     4  11  20  42  65  91 126 164 215 264 322 380
#     4  10  22  44  60  94 130 163 220 268 311 398
#     4   9  23  43  61  89 130 164 213 263 314 388
#     4  10  24  43  65  93 128 172 218 263 321 393
#
# _framework density 20.641801999999998
#
# number of rings (size 3 to 8) (size 9 to 14) (size 15 to 20)
#    0.750    0.750    3.750    1.500    1.750    1.000 
#    0.000    5.625    0.000    0.000    0.000    0.000 
#    0.000    0.000    0.000    0.000    0.000    0.000 
#
# Total GULP energy -396538.164737 kJ/mol
# GULP energy per Si atom -12391.817648 kJ/mol
# Density = 2.059482 g / cm^3
# Si number density = 20.641802 Si / 1000 Ang^3
#
#
#
# Elastic Constant Matrix: (Units=GPa)
#
#
# Indices 1 2 3 4 5 6 
#
# 1 103.9305 36.3265 49.2420 0.0000 5.1107 0.0000
# 2 36.3265 58.3244 30.5900 0.0000 11.3908 0.0000
# 3 49.2420 30.5900 113.1757 0.0000 29.3204 0.0000
# 4 0.0000 0.0000 0.0000 34.8803 0.0000 -1.5224
# 5 5.1107 11.3908 29.3204 0.0000 34.7612 0.0000
# 6 0.0000 0.0000 0.0000 -1.5224 0.0000 18.9131
#
#
#
# Elastic Compliance Matrix: (Units=1/GPa)
#
#
# Indices 1 2 3 4 5 6 
#
# 1 0.014545 -0.007034 -0.005721 0.000000 0.004992 0.000000
# 2 -0.007034 0.023557 -0.002015 0.000000 -0.004985 0.000000
# 3 -0.005721 -0.002015 0.014691 0.000000 -0.010890 0.000000
# 4 0.000000 0.000000 0.000000 0.028771 0.000000 0.002316
# 5 0.004992 -0.004985 -0.010890 0.000000 0.038853 0.000000
# 6 0.000000 0.000000 0.000000 0.002316 0.000000 0.053060
#
#
# Mechanical properties :
#
#
# Convention : Reuss Voigt Hill
#
# Bulk Modulus (GPa) = 43.00379 56.41640 49.71009
# Shear Modulus (GPa) = 23.72290 28.32905 26.02598
#
# Velocity S-wave (km/s) = 3.39376 3.70863 3.55468
# Velocity P-wave (km/s) = 6.01958 6.76232 6.40173
#
# Compressibility (1/GPa) = 0.02325376
#
# Stress axis : x y z
#
# Youngs Moduli (GPa) = 68.75095 42.45025 68.07013
#
# Poissons Ratio (x) = 0.29859 0.38940
# Poissons Ratio (y) = 0.48358 0.13718
# Poissons Ratio (z) = 0.39329 0.08555
#
# Static dielectric constant tensor:
#      x y z
#    x 3.478580 0.000000 0.179620 
#    y 0.000000 3.503280 0.000000 
#    z 0.179620 0.000000 3.849990 
# 
# 
# High freq. dielectric constant tensor:
#      x y z
#    x 1.791130 0.000000 0.016230 
#    y 0.000000 1.789030 0.000000 
#    z 0.016230 0.000000 1.819990 
# 
# From -- ./inp_files/63785.got.cif
#   From: 2010.03.12/outbox.cif.g09.slc.cpg/sg14_32_cif.got.tgz:63785.got - 2010.03.31 13:35:05.
