data_PCOD8125547
_publ_section_title
;
Structure prediction by ZEFSAII (Michael W. Deem and Ramdas Pophale) SiO2 
 PCOD8125547
Probable space group: P 21/C
;
_chemical_formula_sum "Si O2"
_cell_formula_units_Z 16
_cell_length_a 9.048125
_cell_length_b 5.105670
_cell_length_c 25.550376
_cell_angle_alpha 90.000000
_cell_angle_beta 142.521639
_cell_angle_gamma 90.000000
_cell_volume 718.194238
_symmetry_space_group_name_H-M "P 21/C"
_symmetry_group_IT_number 14
_symmetry_cell_setting 'monoclinic'
loop_
_space_group_symop_operation_xyz
x,y,z
-x,1/2+y,1/2-z
-x,-y,-z
x,1/2-y,1/2+z
loop_
_atom_site_type_symbol
_atom_site_label
_atom_site_fract_x
_atom_site_fract_y
_atom_site_fract_z
Si Si1 0.351453 0.455958 0.326164
Si Si2 0.914334 0.297482 0.836936
Si Si3 0.098450 0.784331 0.840442
Si Si4 0.144576 0.750188 0.559309
O O1 0.322527 0.638539 0.265948
O O2 0.340018 0.641930 0.374883
O O3 0.591091 0.279634 0.392560
O O4 0.120754 0.256095 0.263853
O O5 0.819929 0.286333 0.869165
O O6 0.119018 0.524086 0.882672
O O7 0.034613 0.019547 0.860943
O O8 0.000000 0.500000 0.500000
O O9 0.000000 0.000000 0.500000
#
# Coordination Sequence:
#
# PCOD8125547 Si02
#       4
#     4   4   4   4
#     4  10  23  41  75  94 135 165 244 276 340 386
#     4  10  22  41  68  97 127 175 237 271 337 390
#     4  10  20  39  73 101 118 167 242 294 314 382
#     4  12  29  43  61 100 148 181 213 277 354 412
#
# _framework density 22.278096000000001
#
# number of rings (size 3 to 8) (size 9 to 14) (size 15 to 20)
#    1.500    0.000    2.500    1.500    7.000    0.000 
#    0.000    7.500    0.000    0.000    0.000    0.000 
#    0.000    0.000    0.000    0.000    0.000    0.000 
#
# Total GULP energy -198240.586743 kJ/mol
# GULP energy per Si atom -12390.036671 kJ/mol
# Density = 2.222739 g / cm^3
# Si number density = 22.278096 Si / 1000 Ang^3
#
#
#
# Elastic Constant Matrix: (Units=GPa)
#
#
# Indices 1 2 3 4 5 6 
#
# 1 118.8222 28.3707 22.6440 0.0000 9.3617 0.0000
# 2 28.3707 137.7313 11.5333 0.0000 2.8484 0.0000
# 3 22.6440 11.5333 36.4223 0.0000 9.4595 0.0000
# 4 0.0000 0.0000 0.0000 32.1879 0.0000 -1.2896
# 5 9.3617 2.8484 9.4595 0.0000 13.7439 0.0000
# 6 0.0000 0.0000 0.0000 -1.2896 0.0000 44.5256
#
#
#
# Elastic Compliance Matrix: (Units=1/GPa)
#
#
# Indices 1 2 3 4 5 6 
#
# 1 0.009970 -0.001580 -0.004894 0.000000 -0.003095 0.000000
# 2 -0.001580 0.007709 -0.001611 0.000000 0.000588 0.000000
# 3 -0.004894 -0.001611 0.036598 0.000000 -0.021522 0.000000
# 4 0.000000 0.000000 0.000000 0.031104 0.000000 0.000901
# 5 -0.003095 0.000588 -0.021522 0.000000 0.089559 0.000000
# 6 0.000000 0.000000 0.000000 0.000901 0.000000 0.022485
#
#
# Mechanical properties :
#
#
# Convention : Reuss Voigt Hill
#
# Bulk Modulus (GPa) = 26.24258 46.45242 36.34750
# Shear Modulus (GPa) = 22.09484 33.45333 27.77409
#
# Velocity S-wave (km/s) = 3.15266 3.87928 3.53469
# Velocity P-wave (km/s) = 5.00574 6.40012 5.74539
#
# Compressibility (1/GPa) = 0.03810601
#
# Stress axis : x y z
#
# Youngs Moduli (GPa) = 100.30437 129.72336 27.32361
#
# Poissons Ratio (x) = 0.20493 0.13373
# Poissons Ratio (y) = 0.15846 0.04403
# Poissons Ratio (z) = 0.49090 0.20904
#
# Static dielectric constant tensor:
#      x y z
#    x 3.925570 0.000000 -0.123960 
#    y 0.000000 4.169340 0.000000 
#    z -0.123960 0.000000 3.657610 
# 
# 
# High freq. dielectric constant tensor:
#      x y z
#    x 1.880180 0.000000 -0.018550 
#    y 0.000000 1.895210 0.000000 
#    z -0.018550 0.000000 1.829610 
# 
# From -- ./inp_files/47781.got.cif
#   From: 2010.03.12/outbox.cif.g09.slc.cpg/sg14_24_cif.got.tgz:47781.got - 2010.03.31 13:35:05.
