data_PCOD8125269
_publ_section_title
;
Structure prediction by ZEFSAII (Michael W. Deem and Ramdas Pophale) SiO2 
 PCOD8125269
Probable space group: P 21/C
;
_chemical_formula_sum "Si O2"
_cell_formula_units_Z 24
_cell_length_a 16.114689
_cell_length_b 16.153054
_cell_length_c 15.231261
_cell_angle_alpha 90.000000
_cell_angle_beta 161.994430
_cell_angle_gamma 90.000000
_cell_volume 1225.532169
_symmetry_space_group_name_H-M "P 21/C"
_symmetry_group_IT_number 14
_symmetry_cell_setting 'monoclinic'
loop_
_space_group_symop_operation_xyz
x,y,z
-x,1/2+y,1/2-z
-x,-y,-z
x,1/2-y,1/2+z
loop_
_atom_site_type_symbol
_atom_site_label
_atom_site_fract_x
_atom_site_fract_y
_atom_site_fract_z
Si Si1 0.115145 0.900111 0.334323
Si Si2 0.592337 0.823658 0.892591
Si Si3 0.363522 0.835110 0.065883
Si Si4 0.763240 0.792419 0.706338
Si Si5 0.277346 0.785959 0.337086
Si Si6 0.839802 0.590226 0.123596
O O1 0.343146 0.887659 0.639088
O O2 0.199314 0.854935 0.329569
O O3 0.075296 0.996406 0.274112
O O4 0.838731 0.863549 0.089756
O O5 0.498013 0.742463 0.747890
O O6 0.676264 0.795289 0.074640
O O7 0.586733 0.907404 0.300717
O O8 0.304211 0.806212 0.906590
O O9 0.086121 0.858950 0.831802
O O10 0.560537 0.813564 0.580964
O O11 0.756802 0.868835 0.632281
O O12 0.061433 0.781147 0.042672
#
# Coordination Sequence:
#
# PCOD8125269 Si02
#       6
#     4   4   4   4   4   4
#     4  11  22  37  59  85 114 147 184 230 280 331
#     4  10  20  38  58  79 110 153 196 220 259 336
#     4  10  20  38  58  79 110 153 196 220 259 336
#     4  11  21  35  58  85 113 145 184 232 280 328
#     4  11  21  35  58  85 113 145 184 232 280 328
#     4  11  22  37  59  85 114 147 184 230 280 331
#
# _framework density 19.58333
#
# number of rings (size 3 to 8) (size 9 to 14) (size 15 to 20)
#    0.000    1.333    0.000   11.000    0.000    1.333 
#    0.000    0.000    0.000   20.000    0.000    0.000 
#    0.000    0.000    0.000    0.000    0.000    0.000 
#
# Total GULP energy -297562.614703 kJ/mol
# GULP energy per Si atom -12398.442279 kJ/mol
# Density = 1.953876 g / cm^3
# Si number density = 19.583330 Si / 1000 Ang^3
#
#
#
# Elastic Constant Matrix: (Units=GPa)
#
#
# Indices 1 2 3 4 5 6 
#
# 1 -278.2459 -272.8818 60.6314 0.0000 -294.2880 0.0000
# 2 -272.8818 -227.0052 55.7936 0.0000 -286.9141 0.0000
# 3 60.6314 55.7936 75.8951 0.0000 44.7354 0.0000
# 4 0.0000 0.0000 0.0000 -192.2030 0.0000 -88.1017
# 5 -294.2880 -286.9141 44.7354 0.0000 -224.9209 0.0000
# 6 0.0000 0.0000 0.0000 -88.1017 0.0000 -16.8259
#
#
#
# Elastic Compliance Matrix: (Units=1/GPa)
#
#
# Indices 1 2 3 4 5 6 
#
# 1 0.032179 -0.023746 -0.001153 0.000000 -0.012042 0.000000
# 2 -0.023746 0.024719 0.000959 0.000000 -0.000272 0.000000
# 3 -0.001153 0.000959 0.011836 0.000000 0.002640 0.000000
# 4 0.000000 0.000000 0.000000 0.003716 0.000000 -0.019457
# 5 -0.012042 -0.000272 0.002640 0.000000 0.012181 0.000000
# 6 0.000000 0.000000 0.000000 -0.019457 0.000000 0.042448
#
#
# Mechanical properties :
#
#
# Convention : Reuss Voigt Hill
#
# Bulk Modulus (GPa) = 47.95266 -82.47439 -17.26086
# Shear Modulus (GPa) = 27.48580 -104.98326 -38.74873
#
# Velocity S-wave (km/s) = 3.75044 -7.32972 -4.45304
# Velocity P-wave (km/s) = 6.57982 10.66954 5.93907
#
# Compressibility (1/GPa) = 0.02085390
#
# Stress axis : x y z
#
# Youngs Moduli (GPa) = 31.07583 40.45501 84.48525
#
# Poissons Ratio (x) = 0.96065 0.09740
# Poissons Ratio (y) = 0.73793 -0.08099
# Poissons Ratio (z) = 0.03583 -0.03878
#
# Static dielectric constant tensor:
#      x y z
#    x 3.597220 0.000000 -0.281570 
#    y 0.000000 3.700820 0.000000 
#    z -0.281570 0.000000 4.279020 
# 
# 
# High freq. dielectric constant tensor:
#      x y z
#    x 1.750190 0.000000 0.005920 
#    y 0.000000 1.744240 0.000000 
#    z 0.005920 0.000000 1.794000 
# 
# From -- ./inp_files/47509.got.cif
#   From: 2010.03.12/outbox.cif.g09.slc.cpg/sg14_24_cif.got.tgz:47509.got - 2010.03.31 13:35:05.
