data_PCOD8125440
_publ_section_title
;
Structure prediction by ZEFSAII (Michael W. Deem and Ramdas Pophale) SiO2 
 PCOD8125440
Probable space group: P 21/C
;
_chemical_formula_sum "Si O2"
_cell_formula_units_Z 20
_cell_length_a 15.182712
_cell_length_b 13.816404
_cell_length_c 9.051614
_cell_angle_alpha 90.000000
_cell_angle_beta 30.168464
_cell_angle_gamma 90.000000
_cell_volume 954.211487
_symmetry_space_group_name_H-M "P 21/C"
_symmetry_group_IT_number 14
_symmetry_cell_setting 'monoclinic'
loop_
_space_group_symop_operation_xyz
x,y,z
-x,1/2+y,1/2-z
-x,-y,-z
x,1/2-y,1/2+z
loop_
_atom_site_type_symbol
_atom_site_label
_atom_site_fract_x
_atom_site_fract_y
_atom_site_fract_z
Si Si1 0.366466 0.052310 0.089605
Si Si2 0.637522 0.441236 0.705536
Si Si3 0.374168 0.715018 0.795564
Si Si4 0.868315 0.266261 0.111099
Si Si5 0.001340 0.122240 0.695850
O O1 0.180018 0.062846 0.441687
O O2 0.444246 0.158936 0.943716
O O3 0.500000 0.000000 0.000000
O O4 0.347711 0.988951 0.973655
O O5 0.580094 0.329259 0.777683
O O6 0.835882 0.444967 0.483327
O O7 0.500000 0.500000 0.000000
O O8 0.269665 0.680178 0.799482
O O9 0.247854 0.694010 0.118743
O O10 0.969576 0.340008 0.073048
O O11 0.008817 0.208832 0.805842
#
# Coordination Sequence:
#
# PCOD8125440 Si02
#       5
#     4   4   4   4   4
#     4  12  24  38  60  91 124 159 200 249 302 360
#     4  10  22  41  63  87 121 164 204 250 303 358
#     4  10  20  39  60  87 120 155 201 253 301 359
#     4   8  18  38  62  84 115 158 199 248 301 354
#     4  10  21  38  61  91 120 156 203 248 300 361
#
# _framework density 20.959714000000002
#
# number of rings (size 3 to 8) (size 9 to 14) (size 15 to 20)
#    0.000    2.400    0.000    5.400    0.000    4.800 
#    0.000   10.000    0.000    0.000    0.000    0.000 
#    0.000    0.000    0.000    0.000    0.000    0.000 
#
# Total GULP energy -247842.521623 kJ/mol
# GULP energy per Si atom -12392.126081 kJ/mol
# Density = 2.091201 g / cm^3
# Si number density = 20.959714 Si / 1000 Ang^3
#
#
#
# Elastic Constant Matrix: (Units=GPa)
#
#
# Indices 1 2 3 4 5 6 
#
# 1 76.8383 20.3587 44.8532 0.0000 2.8568 0.0000
# 2 20.3587 92.3431 49.2137 0.0000 -15.0605 0.0000
# 3 44.8532 49.2137 121.9902 0.0000 -18.1916 0.0000
# 4 0.0000 0.0000 0.0000 41.9149 0.0000 -5.3295
# 5 2.8568 -15.0605 -18.1916 0.0000 39.8548 0.0000
# 6 0.0000 0.0000 0.0000 -5.3295 0.0000 28.5332
#
#
#
# Elastic Compliance Matrix: (Units=1/GPa)
#
#
# Indices 1 2 3 4 5 6 
#
# 1 0.017349 -0.001040 -0.006657 0.000000 -0.004675 0.000000
# 2 -0.001040 0.014170 -0.004855 0.000000 0.003213 0.000000
# 3 -0.006657 -0.004855 0.013307 0.000000 0.004716 0.000000
# 4 0.000000 0.000000 0.000000 0.024438 0.000000 0.004565
# 5 -0.004675 0.003213 0.004716 0.000000 0.028793 0.000000
# 6 0.000000 0.000000 0.000000 0.004565 0.000000 0.035900
#
#
# Mechanical properties :
#
#
# Convention : Reuss Voigt Hill
#
# Bulk Modulus (GPa) = 50.70181 57.78032 54.24107
# Shear Modulus (GPa) = 30.18695 33.84363 32.01529
#
# Velocity S-wave (km/s) = 3.79916 4.02269 3.91252
# Velocity P-wave (km/s) = 6.59450 7.01450 6.80774
#
# Compressibility (1/GPa) = 0.01972316
#
# Stress axis : x y z
#
# Youngs Moduli (GPa) = 57.63886 70.57209 75.14924
#
# Poissons Ratio (x) = 0.07338 0.50024
# Poissons Ratio (y) = 0.05993 0.36485
# Poissons Ratio (z) = 0.38368 0.34263
#
# Static dielectric constant tensor:
#      x y z
#    x 3.822990 0.000000 0.060260 
#    y 0.000000 3.789670 0.000000 
#    z 0.060260 0.000000 3.987100 
# 
# 
# High freq. dielectric constant tensor:
#      x y z
#    x 1.822990 0.000000 0.011720 
#    y 0.000000 1.809570 0.000000 
#    z 0.011720 0.000000 1.823320 
# 
# From -- ./inp_files/9244.got.cif
#   From: 2010.03.12/outbox.cif.g09.slc.cpg/sg14_5_cif.got.tgz:9244.got - 2010.03.31 13:35:05.
