data_PCOD8125750
_publ_section_title
;
Structure prediction by ZEFSAII (Michael W. Deem and Ramdas Pophale) SiO2 
 PCOD8125750
Probable space group: P 21/C
;
_chemical_formula_sum "Si O2"
_cell_formula_units_Z 28
_cell_length_a 6.421335
_cell_length_b 9.171550
_cell_length_c 22.731579
_cell_angle_alpha 90.000000
_cell_angle_beta 102.719859
_cell_angle_gamma 90.000000
_cell_volume 1305.889325
_symmetry_space_group_name_H-M "P 21/C"
_symmetry_group_IT_number 14
_symmetry_cell_setting 'monoclinic'
loop_
_space_group_symop_operation_xyz
x,y,z
-x,1/2+y,1/2-z
-x,-y,-z
x,1/2-y,1/2+z
loop_
_atom_site_type_symbol
_atom_site_label
_atom_site_fract_x
_atom_site_fract_y
_atom_site_fract_z
Si Si1 0.597913 0.743676 0.045307
Si Si2 0.143092 0.721798 0.987457
Si Si3 0.193458 0.003015 0.814201
Si Si4 0.039902 0.448792 0.919663
Si Si5 0.920954 0.207195 0.296392
Si Si6 0.949441 0.984133 0.068541
Si Si7 0.614640 0.139039 0.857303
O O1 0.717160 0.589378 0.046557
O O2 0.526795 0.761712 0.108432
O O3 0.774088 0.864268 0.038619
O O4 0.394697 0.744763 0.989124
O O5 0.022393 0.621654 0.931348
O O6 0.038115 0.884340 0.979089
O O7 0.122604 0.646289 0.050309
O O8 0.451296 0.014285 0.823979
O O9 0.087213 0.161750 0.796046
O O10 0.109342 0.880486 0.765071
O O11 0.127892 0.945854 0.874659
O O12 0.003499 0.408821 0.849862
O O13 0.696813 0.272824 0.305546
O O14 0.186724 0.920657 0.092183
#
# Coordination Sequence:
#
# PCOD8125750 Si02
#       7
#     4   4   4   4   4   4   4
#     4  11  19  41  64  88 122 165 203 247 306 362
#     4  11  24  38  62  94 127 164 205 249 309 365
#     4  10  24  41  68  89 120 160 208 253 312 359
#     4  11  23  41  61  90 128 164 200 257 310 364
#     4  11  22  45  64  90 121 162 204 258 304 364
#     4  10  22  40  62  92 125 159 209 252 297 372
#     4  10  20  42  64  91 123 158 202 251 313 355
#
# _framework density 21.441327999999999
#
# number of rings (size 3 to 8) (size 9 to 14) (size 15 to 20)
#    0.000    1.429    5.714    0.857    2.000    6.857 
#    0.000    0.000    0.000    0.000    0.000    0.000 
#    0.000    0.000    0.000    0.000    0.000    0.000 
#
# Total GULP energy -347087.243987 kJ/mol
# GULP energy per Si atom -12395.973000 kJ/mol
# Density = 2.139253 g / cm^3
# Si number density = 21.441328 Si / 1000 Ang^3
#
#
#
# Elastic Constant Matrix: (Units=GPa)
#
#
# Indices 1 2 3 4 5 6 
#
# 1 127.1223 32.6863 19.2825 0.0000 8.3223 0.0000
# 2 32.6863 98.2983 16.7333 0.0000 8.0435 0.0000
# 3 19.2825 16.7333 70.6273 0.0000 -0.4890 0.0000
# 4 0.0000 0.0000 0.0000 40.4129 0.0000 -0.4202
# 5 8.3223 8.0435 -0.4890 0.0000 27.5893 0.0000
# 6 0.0000 0.0000 0.0000 -0.4202 0.0000 21.8722
#
#
#
# Elastic Compliance Matrix: (Units=1/GPa)
#
#
# Indices 1 2 3 4 5 6 
#
# 1 0.008918 -0.002485 -0.001860 0.000000 -0.001999 0.000000
# 2 -0.002485 0.011572 -0.002081 0.000000 -0.002661 0.000000
# 3 -0.001860 -0.002081 0.015170 0.000000 0.001437 0.000000
# 4 0.000000 0.000000 0.000000 0.024749 0.000000 0.000476
# 5 -0.001999 -0.002661 0.001437 0.000000 0.037650 0.000000
# 6 0.000000 0.000000 0.000000 0.000476 0.000000 0.045729
#
#
# Mechanical properties :
#
#
# Convention : Reuss Voigt Hill
#
# Bulk Modulus (GPa) = 43.84762 48.16136 46.00449
# Shear Modulus (GPa) = 30.44249 33.13128 31.78689
#
# Velocity S-wave (km/s) = 3.77212 3.93518 3.85451
# Velocity P-wave (km/s) = 6.28222 6.56949 6.42746
#
# Compressibility (1/GPa) = 0.02280625
#
# Stress axis : x y z
#
# Youngs Moduli (GPa) = 112.12697 86.41828 65.92090
#
# Poissons Ratio (x) = 0.21479 0.12260
# Poissons Ratio (y) = 0.27868 0.13721
# Poissons Ratio (z) = 0.20854 0.17988
#
# Static dielectric constant tensor:
#      x y z
#    x 4.225160 0.000000 0.018820 
#    y 0.000000 3.768620 0.000000 
#    z 0.018820 0.000000 3.747080 
# 
# 
# High freq. dielectric constant tensor:
#      x y z
#    x 1.860450 0.000000 -0.006940 
#    y 0.000000 1.832190 0.000000 
#    z -0.006940 0.000000 1.826880 
# 
# From -- ./inp_files/75714.got.cif
#   From: 2010.03.12/outbox.cif.g09.slc.cpg/sg14_38_cif.got.tgz:75714.got - 2010.03.31 13:35:05.
