data_PCOD8125071
_publ_section_title
;
Structure prediction by ZEFSAII (Michael W. Deem and Ramdas Pophale) SiO2 
 PCOD8125071
Probable space group: P 21/C
;
_chemical_formula_sum "Si O2"
_cell_formula_units_Z 32
_cell_length_a 8.358552
_cell_length_b 8.846786
_cell_length_c 27.060199
_cell_angle_alpha 90.000000
_cell_angle_beta 51.898149
_cell_angle_gamma 90.000000
_cell_volume 1574.618787
_symmetry_space_group_name_H-M "P 21/C"
_symmetry_group_IT_number 14
_symmetry_cell_setting 'monoclinic'
loop_
_space_group_symop_operation_xyz
x,y,z
-x,1/2+y,1/2-z
-x,-y,-z
x,1/2-y,1/2+z
loop_
_atom_site_type_symbol
_atom_site_label
_atom_site_fract_x
_atom_site_fract_y
_atom_site_fract_z
Si Si1 0.913529 0.257254 0.682154
Si Si2 0.358061 0.755988 0.182595
Si Si3 0.769691 0.499316 0.364750
Si Si4 0.103918 0.825104 0.428486
Si Si5 0.544377 0.264199 0.071698
Si Si6 0.170487 0.734323 0.071584
Si Si7 0.181965 0.173749 0.427999
Si Si8 0.207066 0.499268 0.146831
O O1 0.685557 0.250777 0.749633
O O2 0.922558 0.236582 0.621665
O O3 0.012782 0.418086 0.677271
O O4 0.034186 0.125467 0.688092
O O5 0.591194 0.735016 0.122521
O O6 0.213871 0.624656 0.188127
O O7 0.279424 0.917097 0.177470
O O8 0.595889 0.620071 0.408575
O O9 0.768384 0.378066 0.408417
O O10 0.289621 0.731852 0.417269
O O11 0.896980 0.801143 0.500331
O O12 0.166844 0.999282 0.416410
O O13 0.424135 0.417271 0.106227
O O14 0.651470 0.298721 0.000156
O O15 0.155043 0.580546 0.105387
O O16 0.959424 0.766345 0.083177
#
# Coordination Sequence:
#
# PCOD8125071 Si02
#       8
#     4   4   4   4   4   4   4   4
#     4  11  23  42  62  90 122 165 206 253 308 367
#     4  11  23  42  62  90 122 165 206 253 308 367
#     4  10  24  40  58  92 125 160 203 258 313 360
#     4  10  21  40  64  93 122 159 207 256 298 360
#     4  10  20  37  61  90 123 158 201 249 305 361
#     4  10  20  37  61  90 123 158 201 249 305 361
#     4  10  21  40  64  93 122 159 207 256 298 360
#     4  10  20  36  62  86 117 162 207 250 289 366
#
# _framework density 20.322379000000002
#
# number of rings (size 3 to 8) (size 9 to 14) (size 15 to 20)
#    0.000    1.750    2.500    1.500    0.000    6.000 
#    4.500    3.750    0.000    0.000    0.000    0.000 
#    0.000    0.000    0.000    0.000    0.000    0.000 
#
# Total GULP energy -396694.399650 kJ/mol
# GULP energy per Si atom -12396.699989 kJ/mol
# Density = 2.027612 g / cm^3
# Si number density = 20.322379 Si / 1000 Ang^3
#
#
#
# Elastic Constant Matrix: (Units=GPa)
#
#
# Indices 1 2 3 4 5 6 
#
# 1 79.7108 21.5381 56.2408 0.0000 -0.9353 0.0000
# 2 21.5381 69.5985 18.3072 0.0000 -0.4671 0.0000
# 3 56.2408 18.3072 136.8452 0.0000 -3.3232 0.0000
# 4 0.0000 0.0000 0.0000 6.9955 0.0000 0.4697
# 5 -0.9353 -0.4671 -3.3232 0.0000 7.0020 0.0000
# 6 0.0000 0.0000 0.0000 0.4697 0.0000 26.7207
#
#
#
# Elastic Compliance Matrix: (Units=1/GPa)
#
#
# Indices 1 2 3 4 5 6 
#
# 1 0.018641 -0.003891 -0.007169 0.000000 -0.001172 0.000000
# 2 -0.003891 0.015704 -0.000495 0.000000 0.000293 0.000000
# 3 -0.007169 -0.000495 0.010416 0.000000 0.003953 0.000000
# 4 0.000000 0.000000 0.000000 0.143119 0.000000 -0.002516
# 5 -0.001172 0.000293 0.003953 0.000000 0.144555 0.000000
# 6 0.000000 0.000000 0.000000 -0.002516 0.000000 0.037468
#
#
# Mechanical properties :
#
#
# Convention : Reuss Voigt Hill
#
# Bulk Modulus (GPa) = 46.18482 53.14742 49.66612
# Shear Modulus (GPa) = 12.49282 20.81486 16.65384
#
# Velocity S-wave (km/s) = 2.48207 3.20384 2.86577
# Velocity P-wave (km/s) = 5.56683 6.31625 5.95335
#
# Compressibility (1/GPa) = 0.02165214
#
# Stress axis : x y z
#
# Youngs Moduli (GPa) = 53.64473 63.67686 96.00542
#
# Poissons Ratio (x) = 0.24776 0.68827
# Poissons Ratio (y) = 0.20872 0.04750
# Poissons Ratio (z) = 0.38458 0.03150
#
# Static dielectric constant tensor:
#      x y z
#    x 3.799760 0.000000 0.003770 
#    y 0.000000 3.790160 0.000000 
#    z 0.003770 0.000000 3.597600 
# 
# 
# High freq. dielectric constant tensor:
#      x y z
#    x 1.790030 0.000000 -0.000200 
#    y 0.000000 1.797240 0.000000 
#    z -0.000200 0.000000 1.794600 
# 
# From -- ./inp_files/76343.got.cif
#   From: 2010.03.12/outbox.cif.g09.slc.cpg/sg14_39_cif.got.tgz:76343.got - 2010.03.31 13:35:05.
