data_PCOD8125512
_publ_section_title
;
Structure prediction by ZEFSAII (Michael W. Deem and Ramdas Pophale) SiO2 
 PCOD8125512
Probable space group: P 21/C
;
_chemical_formula_sum "Si O2"
_cell_formula_units_Z 32
_cell_length_a 8.589005
_cell_length_b 9.774444
_cell_length_c 18.471204
_cell_angle_alpha 90.000000
_cell_angle_beta 105.656607
_cell_angle_gamma 90.000000
_cell_volume 1493.171495
_symmetry_space_group_name_H-M "P 21/C"
_symmetry_group_IT_number 14
_symmetry_cell_setting 'monoclinic'
loop_
_space_group_symop_operation_xyz
x,y,z
-x,1/2+y,1/2-z
-x,-y,-z
x,1/2-y,1/2+z
loop_
_atom_site_type_symbol
_atom_site_label
_atom_site_fract_x
_atom_site_fract_y
_atom_site_fract_z
Si Si1 0.864916 0.129819 0.804635
Si Si2 0.661034 0.618249 0.243593
Si Si3 0.171944 0.109457 0.751349
Si Si4 0.491277 0.672562 0.942034
Si Si5 0.680597 0.587591 0.089527
Si Si6 0.638353 0.158272 0.197198
Si Si7 0.001572 0.826425 0.566168
Si Si8 0.811634 0.590886 0.912520
O O1 0.778429 0.246708 0.746865
O O2 0.920641 0.188575 0.889939
O O3 0.014150 0.073681 0.777082
O O4 0.752135 0.997006 0.802795
O O5 0.769054 0.739401 0.222752
O O6 0.605855 0.558148 0.159771
O O7 0.518398 0.680607 0.272736
O O8 0.135248 0.118969 0.662106
O O9 0.307638 0.998776 0.790585
O O10 0.356106 0.561667 0.949634
O O11 0.405044 0.801927 0.891635
O O12 0.621747 0.612323 0.900882
O O13 0.586235 0.704848 0.029851
O O14 0.872913 0.614079 0.108986
O O15 0.908960 0.804346 0.478143
O O16 0.144490 0.932986 0.566945
#
# Coordination Sequence:
#
# PCOD8125512 Si02
#       8
#     4   4   4   4   4   4   4   4
#     4  12  24  41  64  97 128 164 220 268 318 382
#     4  12  23  40  64  94 127 171 209 261 321 380
#     4  12  23  40  64  94 127 171 209 261 321 380
#     4  10  21  38  64  95 128 163 211 267 313 384
#     4  10  20  39  64  93 127 164 211 257 324 374
#     4  12  24  41  64  97 128 164 220 268 318 382
#     4  10  21  38  64  95 128 163 211 267 313 384
#     4  10  20  39  64  93 127 164 211 257 324 374
#
# _framework density 21.430893999999999
#
# number of rings (size 3 to 8) (size 9 to 14) (size 15 to 20)
#    0.000    1.000    5.000    3.000    0.000    0.000 
#    0.000    1.250    0.000    0.000    0.000    0.000 
#    0.000    0.000    0.000    0.000    0.000    0.000 
#
# Total GULP energy -396504.708267 kJ/mol
# GULP energy per Si atom -12390.772133 kJ/mol
# Density = 2.138212 g / cm^3
# Si number density = 21.430894 Si / 1000 Ang^3
#
#
#
# Elastic Constant Matrix: (Units=GPa)
#
#
# Indices 1 2 3 4 5 6 
#
# 1 62.9669 21.7363 30.9051 0.0000 8.8366 0.0000
# 2 21.7363 91.5447 33.0566 0.0000 15.6622 0.0000
# 3 30.9051 33.0566 109.4559 0.0000 3.7782 0.0000
# 4 0.0000 0.0000 0.0000 37.9924 0.0000 1.3911
# 5 8.8366 15.6622 3.7782 0.0000 24.7177 0.0000
# 6 0.0000 0.0000 0.0000 1.3911 0.0000 22.4704
#
#
#
# Elastic Compliance Matrix: (Units=1/GPa)
#
#
# Indices 1 2 3 4 5 6 
#
# 1 0.019628 -0.002101 -0.004736 0.000000 -0.004961 0.000000
# 2 -0.002101 0.013926 -0.003352 0.000000 -0.007561 0.000000
# 3 -0.004736 -0.003352 0.011414 0.000000 0.002072 0.000000
# 4 0.000000 0.000000 0.000000 0.026381 0.000000 -0.001633
# 5 -0.004961 -0.007561 0.002072 0.000000 0.046705 0.000000
# 6 0.000000 0.000000 0.000000 -0.001633 0.000000 0.044604
#
#
# Mechanical properties :
#
#
# Convention : Reuss Voigt Hill
#
# Bulk Modulus (GPa) = 40.66685 48.37374 44.52029
# Shear Modulus (GPa) = 26.14623 28.92072 27.53348
#
# Velocity S-wave (km/s) = 3.49668 3.67752 3.58824
# Velocity P-wave (km/s) = 5.94301 6.37599 6.16330
#
# Compressibility (1/GPa) = 0.02459006
#
# Stress axis : x y z
#
# Youngs Moduli (GPa) = 50.94886 71.80618 87.61172
#
# Poissons Ratio (x) = 0.15089 0.41493
# Poissons Ratio (y) = 0.10706 0.29364
# Poissons Ratio (z) = 0.24129 0.24066
#
# Static dielectric constant tensor:
#      x y z
#    x 3.996300 0.000000 0.403100 
#    y 0.000000 3.724760 0.000000 
#    z 0.403100 0.000000 4.314970 
# 
# 
# High freq. dielectric constant tensor:
#      x y z
#    x 1.848100 0.000000 0.008690 
#    y 0.000000 1.809870 0.000000 
#    z 0.008690 0.000000 1.846280 
# 
# From -- ./inp_files/64863.got.cif
#   From: 2010.03.12/outbox.cif.g09.slc.cpg/sg14_33_cif.got.tgz:64863.got - 2010.03.31 13:35:05.
