data_PCOD8125578
_publ_section_title
;
Structure prediction by ZEFSAII (Michael W. Deem and Ramdas Pophale) SiO2 
 PCOD8125578
Probable space group: P 21/C
;
_chemical_formula_sum "Si O2"
_cell_formula_units_Z 32
_cell_length_a 8.386374
_cell_length_b 8.650705
_cell_length_c 26.916738
_cell_angle_alpha 90.000000
_cell_angle_beta 51.502913
_cell_angle_gamma 90.000000
_cell_volume 1528.305192
_symmetry_space_group_name_H-M "P 21/C"
_symmetry_group_IT_number 14
_symmetry_cell_setting 'monoclinic'
loop_
_space_group_symop_operation_xyz
x,y,z
-x,1/2+y,1/2-z
-x,-y,-z
x,1/2-y,1/2+z
loop_
_atom_site_type_symbol
_atom_site_label
_atom_site_fract_x
_atom_site_fract_y
_atom_site_fract_z
Si Si1 0.393203 0.686843 0.819023
Si Si2 0.868342 0.231127 0.929128
Si Si3 0.669770 0.678188 0.184447
Si Si4 0.036196 0.772990 0.320765
Si Si5 0.295704 0.973337 0.608252
Si Si6 0.334755 0.772922 0.177933
Si Si7 0.400266 0.773737 0.435046
Si Si8 0.722598 0.524746 0.390574
O O1 0.375093 0.503884 0.812101
O O2 0.593599 0.758669 0.753087
O O3 0.192035 0.765929 0.835184
O O4 0.399316 0.734781 0.875569
O O5 0.707756 0.346239 0.934057
O O6 0.094785 0.278312 0.868803
O O7 0.806919 0.057797 0.924157
O O8 0.825578 0.251870 0.996791
O O9 0.548395 0.766146 0.165033
O O10 0.157096 0.826199 0.248921
O O11 0.912101 0.619370 0.331483
O O12 0.890794 0.911678 0.364680
O O13 0.275342 0.892113 0.665970
O O14 0.511501 0.060393 0.565832
O O15 0.360714 0.900764 0.131496
O O16 0.537116 0.642296 0.435203
#
# Coordination Sequence:
#
# PCOD8125578 Si02
#       8
#     4   4   4   4   4   4   4   4
#     4  11  25  43  67  95 134 169 212 266 322 380
#     4  11  24  43  66  94 129 173 217 265 320 382
#     4  11  25  43  67  95 134 169 212 266 322 380
#     4  10  21  38  63  94 128 166 214 262 322 379
#     4  10  20  40  62  92 125 170 215 272 311 374
#     4  10  21  38  63  94 128 166 214 262 322 379
#     4  11  24  43  66  94 129 173 217 265 320 382
#     4  10  24  40  64  94 129 168 215 266 321 378
#
# _framework density 20.938226
#
# number of rings (size 3 to 8) (size 9 to 14) (size 15 to 20)
#    0.000    1.500    2.500    1.500    7.000    4.500 
#    0.000    3.750    0.000    0.000    0.000    0.000 
#    0.000    0.000    0.000    0.000    0.000    0.000 
#
# Total GULP energy -396673.869618 kJ/mol
# GULP energy per Si atom -12396.058426 kJ/mol
# Density = 2.089057 g / cm^3
# Si number density = 20.938226 Si / 1000 Ang^3
#
#
#
# Elastic Constant Matrix: (Units=GPa)
#
#
# Indices 1 2 3 4 5 6 
#
# 1 71.0538 17.3826 43.8122 0.0000 1.8595 0.0000
# 2 17.3826 92.9506 29.3012 0.0000 0.9472 0.0000
# 3 43.8122 29.3012 125.4705 0.0000 4.4564 0.0000
# 4 0.0000 0.0000 0.0000 13.5531 0.0000 2.0961
# 5 1.8595 0.9472 4.4564 0.0000 23.9369 0.0000
# 6 0.0000 0.0000 0.0000 2.0961 0.0000 26.4562
#
#
#
# Elastic Compliance Matrix: (Units=1/GPa)
#
#
# Indices 1 2 3 4 5 6 
#
# 1 0.018130 -0.001506 -0.005971 0.000000 -0.000237 0.000000
# 2 -0.001506 0.011738 -0.002218 0.000000 0.000065 0.000000
# 3 -0.005971 -0.002218 0.010623 0.000000 -0.001426 0.000000
# 4 0.000000 0.000000 0.000000 0.074699 0.000000 -0.005918
# 5 -0.000237 0.000065 -0.001426 0.000000 0.042058 0.000000
# 6 0.000000 0.000000 0.000000 -0.005918 0.000000 0.038267
#
#
# Mechanical properties :
#
#
# Convention : Reuss Voigt Hill
#
# Bulk Modulus (GPa) = 47.38596 52.27408 49.83002
# Shear Modulus (GPa) = 22.52869 26.05449 24.29159
#
# Velocity S-wave (km/s) = 3.28374 3.53136 3.40980
# Velocity P-wave (km/s) = 6.08751 6.45348 6.27316
#
# Compressibility (1/GPa) = 0.02110330
#
# Stress axis : x y z
#
# Youngs Moduli (GPa) = 55.15739 85.18990 94.13187
#
# Poissons Ratio (x) = 0.12829 0.56202
# Poissons Ratio (y) = 0.08306 0.20876
# Poissons Ratio (z) = 0.32932 0.18893
#
# Static dielectric constant tensor:
#      x y z
#    x 3.890390 0.000000 0.021030 
#    y 0.000000 3.988070 0.000000 
#    z 0.021030 0.000000 3.663060 
# 
# 
# High freq. dielectric constant tensor:
#      x y z
#    x 1.817250 0.000000 0.000450 
#    y 0.000000 1.832390 0.000000 
#    z 0.000450 0.000000 1.812510 
# 
# From -- ./inp_files/76368.got.cif
#   From: 2010.03.12/outbox.cif.g09.slc.cpg/sg14_39_cif.got.tgz:76368.got - 2010.03.31 13:35:05.
