data_PCOD8125920
_publ_section_title
;
Structure prediction by ZEFSAII (Michael W. Deem and Ramdas Pophale) SiO2 
 PCOD8125920
Probable space group: P 21/C
;
_chemical_formula_sum "Si O2"
_cell_formula_units_Z 28
_cell_length_a 14.996401
_cell_length_b 17.492981
_cell_length_c 8.997990
_cell_angle_alpha 90.000000
_cell_angle_beta 143.669854
_cell_angle_gamma 90.000000
_cell_volume 1398.423287
_symmetry_space_group_name_H-M "P 21/C"
_symmetry_group_IT_number 14
_symmetry_cell_setting 'monoclinic'
loop_
_space_group_symop_operation_xyz
x,y,z
-x,1/2+y,1/2-z
-x,-y,-z
x,1/2-y,1/2+z
loop_
_atom_site_type_symbol
_atom_site_label
_atom_site_fract_x
_atom_site_fract_y
_atom_site_fract_z
Si Si1 0.365925 0.602973 0.091330
Si Si2 0.996073 0.343881 0.120753
Si Si3 0.695726 0.589421 0.491623
Si Si4 0.044953 0.413365 0.695763
Si Si5 0.088053 0.708094 0.668998
Si Si6 0.773821 0.993168 0.811742
Si Si7 0.208503 0.514848 0.130191
O O1 0.538646 0.631196 0.321978
O O2 0.325641 0.567913 0.197842
O O3 0.256203 0.672784 0.899611
O O4 0.353418 0.534126 0.956702
O O5 0.983829 0.304724 0.265892
O O6 0.171174 0.349150 0.308706
O O7 0.907174 0.297247 0.871813
O O8 0.937368 0.431486 0.040892
O O9 0.691369 0.562083 0.315566
O O10 0.714732 0.512761 0.615945
O O11 0.105649 0.447371 0.623634
O O12 0.014533 0.325901 0.604983
O O13 0.882585 0.444215 0.533442
O O14 0.163139 0.435480 0.983649
#
# Coordination Sequence:
#
# PCOD8125920 Si02
#       7
#     4   4   4   4   4   4   4
#     4   9  21  38  57  82 122 156 182 241 312 346
#     4  11  23  37  59  86 118 152 204 240 289 354
#     4  12  20  34  60  93 114 142 204 252 279 346
#     4   9  16  35  57  81 114 153 189 235 288 341
#     4  10  22  40  58  80 117 165 192 236 298 356
#     4   9  16  31  57  83 111 145 189 237 286 339
#     4  10  21  36  60  90 118 150 194 250 296 341
#
# _framework density 20.022549000000001
#
# number of rings (size 3 to 8) (size 9 to 14) (size 15 to 20)
#    0.000    2.000    2.857    3.000    2.000    1.143 
#    0.000    2.857    6.286    0.000    0.000    0.000 
#    0.000    0.000    0.000    0.000    0.000    0.000 
#
# Total GULP energy -346911.489416 kJ/mol
# GULP energy per Si atom -12389.696051 kJ/mol
# Density = 1.997698 g / cm^3
# Si number density = 20.022549 Si / 1000 Ang^3
#
#
#
# Elastic Constant Matrix: (Units=GPa)
#
#
# Indices 1 2 3 4 5 6 
#
# 1 89.5502 35.4724 55.7807 0.0000 25.3238 0.0000
# 2 35.4724 66.0125 37.3558 0.0000 -3.6990 0.0000
# 3 55.7807 37.3558 73.8756 0.0000 13.3520 0.0000
# 4 0.0000 0.0000 0.0000 31.0845 0.0000 -9.1706
# 5 25.3238 -3.6990 13.3520 0.0000 33.2472 0.0000
# 6 0.0000 0.0000 0.0000 -9.1706 0.0000 19.0971
#
#
#
# Elastic Compliance Matrix: (Units=1/GPa)
#
#
# Indices 1 2 3 4 5 6 
#
# 1 0.027510 -0.007848 -0.013865 0.000000 -0.016259 0.000000
# 2 -0.007848 0.025184 -0.009053 0.000000 0.012415 0.000000
# 3 -0.013865 -0.009053 0.028958 0.000000 -0.002076 0.000000
# 4 0.000000 0.000000 0.000000 0.037480 0.000000 0.017998
# 5 -0.016259 0.012415 -0.002076 0.000000 0.044677 0.000000
# 6 0.000000 0.000000 0.000000 0.017998 0.000000 0.061007
#
#
# Mechanical properties :
#
#
# Convention : Reuss Voigt Hill
#
# Bulk Modulus (GPa) = 49.69911 54.07292 51.88601
# Shear Modulus (GPa) = 17.06173 23.40773 20.23473
#
# Velocity S-wave (km/s) = 2.92229 3.42287 3.18244
# Velocity P-wave (km/s) = 6.02178 6.53346 6.28283
#
# Compressibility (1/GPa) = 0.02012108
#
# Stress axis : x y z
#
# Youngs Moduli (GPa) = 36.35096 39.70720 34.53286
#
# Poissons Ratio (x) = 0.31161 0.47879
# Poissons Ratio (y) = 0.28527 0.31263
# Poissons Ratio (z) = 0.50399 0.35947
#
# Static dielectric constant tensor:
#      x y z
#    x 3.666660 0.000000 -0.068290 
#    y 0.000000 3.411480 0.000000 
#    z -0.068290 0.000000 3.457610 
# 
# 
# High freq. dielectric constant tensor:
#      x y z
#    x 1.787040 0.000000 -0.009610 
#    y 0.000000 1.751530 0.000000 
#    z -0.009610 0.000000 1.764170 
# 
# From -- ./inp_files/14138.got.cif
#   From: 2010.03.12/outbox.cif.g09.slc.cpg/sg14_8_cif.got.tgz:14138.got - 2010.03.31 13:35:05.
