data_PCOD8125565
_publ_section_title
;
Structure prediction by ZEFSAII (Michael W. Deem and Ramdas Pophale) SiO2 
 PCOD8125565
Probable space group: P 21/C
;
_chemical_formula_sum "Si O2"
_cell_formula_units_Z 24
_cell_length_a 9.338375
_cell_length_b 9.713404
_cell_length_c 18.871014
_cell_angle_alpha 90.000000
_cell_angle_beta 50.548280
_cell_angle_gamma 90.000000
_cell_volume 1321.738275
_symmetry_space_group_name_H-M "P 21/C"
_symmetry_group_IT_number 14
_symmetry_cell_setting 'monoclinic'
loop_
_space_group_symop_operation_xyz
x,y,z
-x,1/2+y,1/2-z
-x,-y,-z
x,1/2-y,1/2+z
loop_
_atom_site_type_symbol
_atom_site_label
_atom_site_fract_x
_atom_site_fract_y
_atom_site_fract_z
Si Si1 0.593715 0.630383 0.003144
Si Si2 0.373809 0.099045 0.085083
Si Si3 0.038325 0.846313 0.776780
Si Si4 0.627042 0.004427 0.757280
Si Si5 0.970903 0.948325 0.339244
Si Si6 0.427064 0.684307 0.207719
O O1 0.508244 0.673885 0.103864
O O2 0.500000 0.500000 0.000000
O O3 0.563580 0.747367 0.953353
O O4 0.812363 0.596441 0.944486
O O5 0.153466 0.083141 0.135509
O O6 0.410752 0.067772 0.155580
O O7 0.500000 0.000000 0.000000
O O8 0.210468 0.862577 0.777186
O O9 0.011836 0.681663 0.773433
O O10 0.095778 0.920068 0.685439
O O11 0.543785 0.157645 0.778770
O O12 0.847063 0.011673 0.673698
O O13 0.536512 0.913578 0.725460
#
# Coordination Sequence:
#
# PCOD8125565 Si02
#       6
#     4   4   4   4   4   4
#     4  11  21  34  62  88 112 143 198 234 276 337
#     4  10  20  40  61  82 110 150 193 235 276 336
#     4   9  19  34  58  82 112 144 190 229 282 335
#     4  10  23  38  59  81 120 150 187 232 291 334
#     4   9  19  36  56  84 111 150 187 234 277 341
#     4  11  22  38  56  86 117 152 184 237 285 336
#
# _framework density 18.157906000000001
#
# number of rings (size 3 to 8) (size 9 to 14) (size 15 to 20)
#    0.000    2.000    3.333    0.000    2.333    2.000 
#    0.000    0.833    0.000    0.000    0.000    0.000 
#    0.000    0.000    0.000    0.000    0.000    0.000 
#
# Total GULP energy -297461.952243 kJ/mol
# GULP energy per Si atom -12394.248010 kJ/mol
# Density = 1.811658 g / cm^3
# Si number density = 18.157906 Si / 1000 Ang^3
#
#
#
# Elastic Constant Matrix: (Units=GPa)
#
#
# Indices 1 2 3 4 5 6 
#
# 1 92.2334 63.4495 20.1943 0.0000 -10.6046 0.0000
# 2 63.4495 119.3526 31.9999 0.0000 -10.7538 0.0000
# 3 20.1943 31.9999 59.6716 0.0000 -14.4282 0.0000
# 4 0.0000 0.0000 0.0000 30.5300 0.0000 4.2377
# 5 -10.6046 -10.7538 -14.4282 0.0000 17.4511 0.0000
# 6 0.0000 0.0000 0.0000 4.2377 0.0000 38.9560
#
#
#
# Elastic Compliance Matrix: (Units=1/GPa)
#
#
# Indices 1 2 3 4 5 6 
#
# 1 0.017528 -0.008870 0.000098 0.000000 0.005267 0.000000
# 2 -0.008870 0.014337 -0.004817 0.000000 -0.000538 0.000000
# 3 0.000098 -0.004817 0.023253 0.000000 0.016317 0.000000
# 4 0.000000 0.000000 0.000000 0.033257 0.000000 -0.003618
# 5 0.005267 -0.000538 0.016317 0.000000 0.073663 0.000000
# 6 0.000000 0.000000 0.000000 -0.003618 0.000000 0.026064
#
#
# Mechanical properties :
#
#
# Convention : Reuss Voigt Hill
#
# Bulk Modulus (GPa) = 35.78879 55.83835 45.81357
# Shear Modulus (GPa) = 22.26261 27.76166 25.01213
#
# Velocity S-wave (km/s) = 3.50531 3.91436 3.71547
# Velocity P-wave (km/s) = 6.01128 7.15876 6.60997
#
# Compressibility (1/GPa) = 0.02794171
#
# Stress axis : x y z
#
# Youngs Moduli (GPa) = 57.05196 69.75041 43.00432
#
# Poissons Ratio (x) = 0.61868 -0.00422
# Poissons Ratio (y) = 0.50604 0.20713
# Poissons Ratio (z) = -0.00560 0.33596
#
# Static dielectric constant tensor:
#      x y z
#    x 3.280280 0.000000 -0.354470 
#    y 0.000000 3.631080 0.000000 
#    z -0.354470 0.000000 3.633170 
# 
# 
# High freq. dielectric constant tensor:
#      x y z
#    x 1.685250 0.000000 -0.028540 
#    y 0.000000 1.722040 0.000000 
#    z -0.028540 0.000000 1.701290 
# 
# From -- ./inp_files/54469.got.cif
#   From: 2010.03.12/outbox.cif.g09.slc.cpg/sg14_28_cif.got.tgz:54469.got - 2010.03.31 13:35:05.
