data_PCOD8125632
_publ_section_title
;
Structure prediction by ZEFSAII (Michael W. Deem and Ramdas Pophale) SiO2 
 PCOD8125632
Probable space group: P 21/C
;
_chemical_formula_sum "Si O2"
_cell_formula_units_Z 32
_cell_length_a 11.557433
_cell_length_b 10.981814
_cell_length_c 14.923705
_cell_angle_alpha 90.000000
_cell_angle_beta 121.897049
_cell_angle_gamma 90.000000
_cell_volume 1608.122962
_symmetry_space_group_name_H-M "P 21/C"
_symmetry_group_IT_number 14
_symmetry_cell_setting 'monoclinic'
loop_
_space_group_symop_operation_xyz
x,y,z
-x,1/2+y,1/2-z
-x,-y,-z
x,1/2-y,1/2+z
loop_
_atom_site_type_symbol
_atom_site_label
_atom_site_fract_x
_atom_site_fract_y
_atom_site_fract_z
Si Si1 0.781076 0.824754 0.591170
Si Si2 0.530203 0.703425 0.566848
Si Si3 0.572830 0.612942 0.239972
Si Si4 0.798817 0.710548 0.896124
Si Si5 0.754906 0.194980 0.147971
Si Si6 0.227822 0.533195 0.788505
Si Si7 0.031007 0.163310 0.174266
Si Si8 0.344078 0.499441 0.267142
O O1 0.645291 0.743834 0.543233
O O2 0.839335 0.816370 0.515034
O O3 0.893060 0.774406 0.708420
O O4 0.746669 0.965309 0.604873
O O5 0.514313 0.801690 0.638410
O O6 0.389562 0.693376 0.458267
O O7 0.570037 0.573085 0.623444
O O8 0.681023 0.688256 0.343005
O O9 0.645506 0.495101 0.225822
O O10 0.448824 0.573040 0.249530
O O11 0.932871 0.757937 0.898974
O O12 0.749049 0.585809 0.831666
O O13 0.788129 0.324287 0.206043
O O14 0.869345 0.162248 0.121312
O O15 0.757433 0.094577 0.226943
O O16 0.089475 0.475005 0.688455
#
# Coordination Sequence:
#
# PCOD8125632 Si02
#       8
#     4   4   4   4   4   4   4   4
#     4   9  19  42  68  84 122 170 208 260 317 373
#     4  10  22  40  62  98 124 164 215 261 320 372
#     4   9  20  38  60  92 129 155 211 264 311 374
#     4  10  20  40  66  86 120 173 209 255 326 372
#     4  12  24  37  65  90 129 167 210 263 313 372
#     4   8  21  39  59  90 121 166 208 251 313 375
#     4   9  22  44  58  92 127 170 206 260 316 378
#     4  11  23  37  62  94 128 162 205 270 317 368
#
# _framework density 19.898976000000001
#
# number of rings (size 3 to 8) (size 9 to 14) (size 15 to 20)
#    0.750    1.500    2.500    1.125    8.750    1.000 
#    2.250    1.250    0.000    3.750    0.000    0.000 
#    0.000    0.000    0.000    0.000    0.000    0.000 
#
# Total GULP energy -396694.864136 kJ/mol
# GULP energy per Si atom -12396.714504 kJ/mol
# Density = 1.985368 g / cm^3
# Si number density = 19.898976 Si / 1000 Ang^3
#
#
#
# Elastic Constant Matrix: (Units=GPa)
#
#
# Indices 1 2 3 4 5 6 
#
# 1 119.2461 36.1087 16.5011 0.0000 -16.4922 0.0000
# 2 36.1087 104.1465 10.6269 0.0000 -16.0384 0.0000
# 3 16.5011 10.6269 42.8482 0.0000 -3.6396 0.0000
# 4 0.0000 0.0000 0.0000 10.0081 0.0000 -1.1926
# 5 -16.4922 -16.0384 -3.6396 0.0000 27.6282 0.0000
# 6 0.0000 0.0000 0.0000 -1.1926 0.0000 17.5916
#
#
#
# Elastic Compliance Matrix: (Units=1/GPa)
#
#
# Indices 1 2 3 4 5 6 
#
# 1 0.010147 -0.002578 -0.002914 0.000000 0.004177 0.000000
# 2 -0.002578 0.011393 -0.001418 0.000000 0.004888 0.000000
# 3 -0.002914 -0.001418 0.024873 0.000000 0.000714 0.000000
# 4 0.000000 0.000000 0.000000 0.100733 0.000000 0.006829
# 5 0.004177 0.004888 0.000714 0.000000 0.041620 0.000000
# 6 0.000000 0.000000 0.000000 0.006829 0.000000 0.057308
#
#
# Mechanical properties :
#
#
# Convention : Reuss Voigt Hill
#
# Bulk Modulus (GPa) = 30.67972 43.63493 37.15733
# Shear Modulus (GPa) = 18.46668 24.57918 21.52293
#
# Velocity S-wave (km/s) = 3.04965 3.51835 3.29235
# Velocity P-wave (km/s) = 5.27747 6.20330 5.75902
#
# Compressibility (1/GPa) = 0.03259482
#
# Stress axis : x y z
#
# Youngs Moduli (GPa) = 98.54682 87.77316 40.20492
#
# Poissons Ratio (x) = 0.22625 0.11715
# Poissons Ratio (y) = 0.25402 0.05700
# Poissons Ratio (z) = 0.28714 0.12444
#
# Static dielectric constant tensor:
#      x y z
#    x 3.553500 0.000000 -0.151070 
#    y 0.000000 3.601590 0.000000 
#    z -0.151070 0.000000 3.357490 
# 
# 
# High freq. dielectric constant tensor:
#      x y z
#    x 1.777440 0.000000 -0.012550 
#    y 0.000000 1.773720 0.000000 
#    z -0.012550 0.000000 1.756420 
# 
# From -- ./inp_files/44409.got.cif
#   From: 2010.03.12/outbox.cif.g09.slc.cpg/sg14_23_cif.got.tgz:44409.got - 2010.03.31 13:35:05.
