data_PCOD8125080
_publ_section_title
;
Structure prediction by ZEFSAII (Michael W. Deem and Ramdas Pophale) SiO2 
 PCOD8125080
Probable space group: P 21/C
;
_chemical_formula_sum "Si O2"
_cell_formula_units_Z 32
_cell_length_a 16.146857
_cell_length_b 9.707438
_cell_length_c 20.268532
_cell_angle_alpha 90.000000
_cell_angle_beta 148.818937
_cell_angle_gamma 90.000000
_cell_volume 1644.864859
_symmetry_space_group_name_H-M "P 21/C"
_symmetry_group_IT_number 14
_symmetry_cell_setting 'monoclinic'
loop_
_space_group_symop_operation_xyz
x,y,z
-x,1/2+y,1/2-z
-x,-y,-z
x,1/2-y,1/2+z
loop_
_atom_site_type_symbol
_atom_site_label
_atom_site_fract_x
_atom_site_fract_y
_atom_site_fract_z
Si Si1 0.991978 0.021698 0.844069
Si Si2 0.708021 0.836495 0.279156
Si Si3 0.199437 0.856478 0.665420
Si Si4 0.451883 0.640700 0.052111
Si Si5 0.348056 0.612155 0.837908
Si Si6 0.879380 0.459321 0.124074
Si Si7 0.879167 0.804451 0.525686
Si Si8 0.981092 0.232696 0.583534
O O1 0.817427 0.042322 0.755065
O O2 0.981469 0.003898 0.758273
O O3 0.105443 0.148577 0.939259
O O4 0.069113 0.886229 0.929120
O O5 0.537894 0.772668 0.142974
O O6 0.735814 0.809404 0.375565
O O7 0.844857 0.760389 0.330527
O O8 0.708995 0.999367 0.266167
O O9 0.322894 0.740515 0.772530
O O10 0.042181 0.861218 0.603864
O O11 0.149595 0.827847 0.556077
O O12 0.548652 0.499875 0.131380
O O13 0.440476 0.665475 0.965787
O O14 0.278505 0.627523 0.966439
O O15 0.834887 0.602085 0.058072
O O16 0.989271 0.365002 0.152625
#
# Coordination Sequence:
#
# PCOD8125080 Si02
#       8
#     4   4   4   4   4   4   4   4
#     4  10  21  34  63  86 113 147 197 240 283 342
#     4  11  20  38  62  84 115 156 192 239 282 344
#     4  10  20  36  63  84 113 148 197 242 281 340
#     4  10  22  38  59  81 117 155 189 235 288 344
#     4   9  20  39  57  85 108 151 196 231 282 349
#     4  11  21  40  55  84 125 153 184 241 299 342
#     4  10  20  37  58  89 114 145 192 245 290 337
#     4  11  20  37  61  89 113 150 194 241 288 336
#
# _framework density 19.454484999999998
#
# number of rings (size 3 to 8) (size 9 to 14) (size 15 to 20)
#    0.000    1.750    3.750    1.500    1.750    2.000 
#    2.250    1.250    0.000    0.000    0.000    0.000 
#    0.000    0.000    0.000    0.000    0.000    0.000 
#
# Total GULP energy -396943.284457 kJ/mol
# GULP energy per Si atom -12404.477639 kJ/mol
# Density = 1.941021 g / cm^3
# Si number density = 19.454485 Si / 1000 Ang^3
#
#
#
# Elastic Constant Matrix: (Units=GPa)
#
#
# Indices 1 2 3 4 5 6 
#
# 1 54.5147 23.9499 10.2313 0.0000 -22.8176 0.0000
# 2 23.9499 123.6799 35.6977 0.0000 -20.2173 0.0000
# 3 10.2313 35.6977 60.8685 0.0000 -11.0993 0.0000
# 4 0.0000 0.0000 0.0000 34.9133 0.0000 -6.1965
# 5 -22.8176 -20.2173 -11.0993 0.0000 22.0254 0.0000
# 6 0.0000 0.0000 0.0000 -6.1965 0.0000 23.8422
#
#
#
# Elastic Compliance Matrix: (Units=1/GPa)
#
#
# Indices 1 2 3 4 5 6 
#
# 1 0.032563 -0.001252 0.001324 0.000000 0.033253 0.000000
# 2 -0.001252 0.010761 -0.004995 0.000000 0.006063 0.000000
# 3 0.001324 -0.004995 0.020427 0.000000 0.007081 0.000000
# 4 0.000000 0.000000 0.000000 0.030027 0.000000 0.007804
# 5 0.033253 0.006063 0.007081 0.000000 0.088984 0.000000
# 6 0.000000 0.000000 0.000000 0.007804 0.000000 0.043971
#
#
# Mechanical properties :
#
#
# Convention : Reuss Voigt Hill
#
# Bulk Modulus (GPa) = 18.55101 42.09121 30.32111
# Shear Modulus (GPa) = 19.64276 27.43513 23.53894
#
# Velocity S-wave (km/s) = 3.18099 3.75937 3.48221
# Velocity P-wave (km/s) = 4.80082 6.36604 5.63801
#
# Compressibility (1/GPa) = 0.05390542
#
# Stress axis : x y z
#
# Youngs Moduli (GPa) = 30.70930 92.93176 48.95548
#
# Poissons Ratio (x) = 0.11639 -0.06484
# Poissons Ratio (y) = 0.03846 0.24452
# Poissons Ratio (z) = -0.04067 0.46417
#
# Static dielectric constant tensor:
#      x y z
#    x 3.409870 0.000000 -0.234570 
#    y 0.000000 3.556880 0.000000 
#    z -0.234570 0.000000 3.482980 
# 
# 
# High freq. dielectric constant tensor:
#      x y z
#    x 1.742360 0.000000 -0.022720 
#    y 0.000000 1.768280 0.000000 
#    z -0.022720 0.000000 1.745850 
# 
# From -- ./inp_files/69168.got.cif
#   From: 2010.03.12/outbox.cif.g09.slc.cpg/sg14_35_cif.got.tgz:69168.got - 2010.03.31 13:35:05.
