data_PCOD8125644
_publ_section_title
;
Structure prediction by ZEFSAII (Michael W. Deem and Ramdas Pophale) SiO2 
 PCOD8125644
Probable space group: P 21/C
;
_chemical_formula_sum "Si O2"
_cell_formula_units_Z 24
_cell_length_a 10.865567
_cell_length_b 11.047141
_cell_length_c 9.131133
_cell_angle_alpha 90.000000
_cell_angle_beta 96.720805
_cell_angle_gamma 90.000000
_cell_volume 1088.509646
_symmetry_space_group_name_H-M "P 21/C"
_symmetry_group_IT_number 14
_symmetry_cell_setting 'monoclinic'
loop_
_space_group_symop_operation_xyz
x,y,z
-x,1/2+y,1/2-z
-x,-y,-z
x,1/2-y,1/2+z
loop_
_atom_site_type_symbol
_atom_site_label
_atom_site_fract_x
_atom_site_fract_y
_atom_site_fract_z
Si Si1 0.796980 0.527211 0.512010
Si Si2 0.954209 0.140410 0.845975
Si Si3 0.539173 0.779780 0.654181
Si Si4 0.983757 0.862810 0.458412
Si Si5 0.294566 0.212746 0.576988
Si Si6 0.576111 0.395349 0.584555
O O1 0.915622 0.571977 0.616675
O O2 0.715195 0.640137 0.441755
O O3 0.718464 0.439104 0.607347
O O4 0.842171 0.444507 0.382536
O O5 0.936330 0.165750 0.673436
O O6 0.958259 0.273243 0.915602
O O7 0.618886 0.687524 0.768705
O O8 0.640893 0.843675 0.560210
O O9 0.465134 0.869231 0.753300
O O10 0.441586 0.717429 0.529720
O O11 0.838311 0.842780 0.413366
O O12 0.000000 0.000000 0.500000
O O13 0.500000 0.500000 0.500000
#
# Coordination Sequence:
#
# PCOD8125644 Si02
#       6
#     4   4   4   4   4   4
#     4  10  21  42  71  87 136 178 211 271 336 385
#     4  10  25  42  67  98 130 175 222 268 339 393
#     4  10  21  38  66  96 120 173 221 255 327 386
#     4  11  25  40  68  98 130 169 227 276 330 396
#     4  10  20  40  67  91 129 173 223 263 322 405
#     4  11  22  41  65  92 132 167 212 272 319 376
#
# _framework density 22.048496
#
# number of rings (size 3 to 8) (size 9 to 14) (size 15 to 20)
#    0.000    1.667    3.333    2.000    9.333    1.333 
#    0.000    3.333    0.000    0.000    0.000    0.000 
#    0.000    0.000    0.000    0.000    0.000    0.000 
#
# Total GULP energy -297441.765955 kJ/mol
# GULP energy per Si atom -12393.406915 kJ/mol
# Density = 2.199831 g / cm^3
# Si number density = 22.048496 Si / 1000 Ang^3
#
#
#
# Elastic Constant Matrix: (Units=GPa)
#
#
# Indices 1 2 3 4 5 6 
#
# 1 61.7223 28.6832 15.9613 0.0000 -27.1141 0.0000
# 2 28.6832 106.1108 36.7334 0.0000 -19.7843 0.0000
# 3 15.9613 36.7334 132.9797 0.0000 -37.7019 0.0000
# 4 0.0000 0.0000 0.0000 27.4119 0.0000 -8.2167
# 5 -27.1141 -19.7843 -37.7019 0.0000 37.0998 0.0000
# 6 0.0000 0.0000 0.0000 -8.2167 0.0000 38.3940
#
#
#
# Elastic Compliance Matrix: (Units=1/GPa)
#
#
# Indices 1 2 3 4 5 6 
#
# 1 0.026573 -0.004664 0.004073 0.000000 0.021073 0.000000
# 2 -0.004664 0.011613 -0.002611 0.000000 0.000131 0.000000
# 3 0.004073 -0.002611 0.011521 0.000000 0.013293 0.000000
# 4 0.000000 0.000000 0.000000 0.038981 0.000000 0.008342
# 5 0.021073 0.000131 0.013293 0.000000 0.055933 0.000000
# 6 0.000000 0.000000 0.000000 0.008342 0.000000 0.027831
#
#
# Mechanical properties :
#
#
# Convention : Reuss Voigt Hill
#
# Bulk Modulus (GPa) = 23.09283 51.50762 37.30022
# Shear Modulus (GPa) = 25.86781 35.21014 30.53898
#
# Velocity S-wave (km/s) = 3.42895 4.00051 3.72571
# Velocity P-wave (km/s) = 5.11599 6.68958 5.95499
#
# Compressibility (1/GPa) = 0.04330349
#
# Stress axis : x y z
#
# Youngs Moduli (GPa) = 37.63234 86.10916 86.79860
#
# Poissons Ratio (x) = 0.40162 -0.35357
# Poissons Ratio (y) = 0.17552 0.22663
# Poissons Ratio (z) = -0.15329 0.22483
#
# Static dielectric constant tensor:
#      x y z
#    x 4.351420 0.000000 -0.356550 
#    y 0.000000 4.540450 0.000000 
#    z -0.356550 0.000000 3.766110 
# 
# 
# High freq. dielectric constant tensor:
#      x y z
#    x 1.870630 0.000000 -0.020450 
#    y 0.000000 1.848840 0.000000 
#    z -0.020450 0.000000 1.872200 
# 
# From -- ./inp_files/12431.got.cif
#   From: 2010.03.12/outbox.cif.g09.slc.cpg/sg14_7_cif.got.tgz:12431.got - 2010.03.31 13:35:05.
