data_PCOD8125313
_publ_section_title
;
Structure prediction by ZEFSAII (Michael W. Deem and Ramdas Pophale) SiO2 
 PCOD8125313
Probable space group: P 21/C
;
_chemical_formula_sum "Si O2"
_cell_formula_units_Z 32
_cell_length_a 12.616948
_cell_length_b 8.749093
_cell_length_c 15.994487
_cell_angle_alpha 90.000000
_cell_angle_beta 61.109316
_cell_angle_gamma 90.000000
_cell_volume 1545.842305
_symmetry_space_group_name_H-M "P 21/C"
_symmetry_group_IT_number 14
_symmetry_cell_setting 'monoclinic'
loop_
_space_group_symop_operation_xyz
x,y,z
-x,1/2+y,1/2-z
-x,-y,-z
x,1/2-y,1/2+z
loop_
_atom_site_type_symbol
_atom_site_label
_atom_site_fract_x
_atom_site_fract_y
_atom_site_fract_z
Si Si1 0.125927 0.322664 0.459792
Si Si2 0.145353 0.825531 0.951882
Si Si3 0.356958 0.873008 0.754913
Si Si4 0.678235 0.321449 0.997932
Si Si5 0.283411 0.325373 0.043980
Si Si6 0.466849 0.830884 0.081290
Si Si7 0.513213 0.637183 0.342909
Si Si8 0.741455 0.820038 0.261624
O O1 0.142276 0.497527 0.480773
O O2 0.206695 0.223215 0.492137
O O3 0.156751 0.307745 0.348899
O O4 0.987822 0.267239 0.522631
O O5 0.234190 0.799454 0.839556
O O6 0.193185 0.730503 0.013055
O O7 0.437964 0.741332 0.682564
O O8 0.443426 0.945207 0.793605
O O9 0.320053 0.012866 0.709736
O O10 0.566771 0.285670 0.102684
O O11 0.682260 0.498812 0.977458
O O12 0.650941 0.219209 0.926674
O O13 0.213023 0.293377 0.159496
O O14 0.409212 0.234916 0.003884
O O15 0.480491 0.014414 0.083727
O O16 0.646860 0.690908 0.268901
#
# Coordination Sequence:
#
# PCOD8125313 Si02
#       8
#     4   4   4   4   4   4   4   4
#     4  10  23  45  67  88 123 168 209 259 310 365
#     4   9  22  44  66  85 120 163 213 255 308 364
#     4  10  20  38  60  89 123 166 199 255 314 369
#     4  11  22  38  62  88 126 160 200 257 309 367
#     4  12  23  39  64  91 130 166 201 257 316 367
#     4  12  22  37  59  94 128 159 201 257 312 372
#     4  11  22  35  61  89 127 163 208 249 309 379
#     4  11  22  39  59  94 125 162 210 250 313 369
#
# _framework density 20.700689000000001
#
# number of rings (size 3 to 8) (size 9 to 14) (size 15 to 20)
#    0.000    1.250    2.500    5.250    1.750    3.500 
#    2.250    0.000    0.000    0.000    0.000    0.000 
#    0.000    0.000    0.000    0.000    0.000    0.000 
#
# Total GULP energy -396705.813783 kJ/mol
# GULP energy per Si atom -12397.056681 kJ/mol
# Density = 2.065357 g / cm^3
# Si number density = 20.700689 Si / 1000 Ang^3
#
#
#
# Elastic Constant Matrix: (Units=GPa)
#
#
# Indices 1 2 3 4 5 6 
#
# 1 95.5078 32.7305 33.5102 0.0000 5.5085 0.0000
# 2 32.7305 68.9528 24.5771 0.0000 -3.6685 0.0000
# 3 33.5102 24.5771 96.4180 0.0000 11.0518 0.0000
# 4 0.0000 0.0000 0.0000 23.8239 0.0000 3.3667
# 5 5.5085 -3.6685 11.0518 0.0000 26.4780 0.0000
# 6 0.0000 0.0000 0.0000 3.3667 0.0000 26.2450
#
#
#
# Elastic Compliance Matrix: (Units=1/GPa)
#
#
# Indices 1 2 3 4 5 6 
#
# 1 0.013547 -0.005465 -0.003051 0.000000 -0.002302 0.000000
# 2 -0.005465 0.018593 -0.003430 0.000000 0.005145 0.000000
# 3 -0.003051 -0.003430 0.012905 0.000000 -0.005227 0.000000
# 4 0.000000 0.000000 0.000000 0.042750 0.000000 -0.005484
# 5 -0.002302 0.005145 -0.005227 0.000000 0.041141 0.000000
# 6 0.000000 0.000000 0.000000 -0.005484 0.000000 0.038806
#
#
# Mechanical properties :
#
#
# Convention : Reuss Voigt Hill
#
# Bulk Modulus (GPa) = 47.27492 49.16823 48.22157
# Shear Modulus (GPa) = 25.16556 26.64676 25.90616
#
# Velocity S-wave (km/s) = 3.49045 3.59171 3.54144
# Velocity P-wave (km/s) = 6.25550 6.40344 6.32990
#
# Compressibility (1/GPa) = 0.02115287
#
# Stress axis : x y z
#
# Youngs Moduli (GPa) = 73.81933 53.78354 77.48749
#
# Poissons Ratio (x) = 0.29394 0.23643
# Poissons Ratio (y) = 0.40344 0.26575
# Poissons Ratio (z) = 0.22524 0.18446
#
# Static dielectric constant tensor:
#      x y z
#    x 3.714360 0.000000 0.156480 
#    y 0.000000 3.653740 0.000000 
#    z 0.156480 0.000000 3.855310 
# 
# 
# High freq. dielectric constant tensor:
#      x y z
#    x 1.797680 0.000000 0.017320 
#    y 0.000000 1.807130 0.000000 
#    z 0.017320 0.000000 1.814770 
# 
# From -- ./inp_files/43689.got.cif
#   From: 2010.03.12/outbox.cif.g09.slc.cpg/sg14_22_cif.got.tgz:43689.got - 2010.03.31 13:35:05.
