data_PCOD8125248
_publ_section_title
;
Structure prediction by ZEFSAII (Michael W. Deem and Ramdas Pophale) SiO2 
 PCOD8125248
Probable space group: P 21/C
;
_chemical_formula_sum "Si O2"
_cell_formula_units_Z 32
_cell_length_a 12.289960
_cell_length_b 13.971669
_cell_length_c 14.726954
_cell_angle_alpha 90.000000
_cell_angle_beta 35.546564
_cell_angle_gamma 90.000000
_cell_volume 1470.144812
_symmetry_space_group_name_H-M "P 21/C"
_symmetry_group_IT_number 14
_symmetry_cell_setting 'monoclinic'
loop_
_space_group_symop_operation_xyz
x,y,z
-x,1/2+y,1/2-z
-x,-y,-z
x,1/2-y,1/2+z
loop_
_atom_site_type_symbol
_atom_site_label
_atom_site_fract_x
_atom_site_fract_y
_atom_site_fract_z
Si Si1 0.822861 0.107864 0.622579
Si Si2 0.012585 0.202280 0.263913
Si Si3 0.407635 0.614650 0.233030
Si Si4 0.040956 0.801585 0.910208
Si Si5 0.218938 0.110814 0.631717
Si Si6 0.705690 0.590145 0.721157
Si Si7 0.385466 0.715674 0.870458
Si Si8 0.038830 0.492112 0.822751
O O1 0.968727 0.197263 0.534942
O O2 0.631723 0.153450 0.711975
O O3 0.799041 0.056247 0.737700
O O4 0.891963 0.030343 0.502566
O O5 0.020771 0.210893 0.150797
O O6 0.800067 0.202219 0.443574
O O7 0.129419 0.289472 0.225487
O O8 0.117317 0.105548 0.225902
O O9 0.250052 0.656691 0.272983
O O10 0.366146 0.503561 0.283830
O O11 0.411161 0.673002 0.325941
O O12 0.608070 0.627586 0.051483
O O13 0.907954 0.877765 0.049506
O O14 0.284922 0.059407 0.679367
O O15 0.060532 0.048993 0.690379
O O16 0.562193 0.678090 0.806218
#
# Coordination Sequence:
#
# PCOD8125248 Si02
#       8
#     4   4   4   4   4   4   4   4
#     4   9  19  39  61  89 121 170 215 256 326 390
#     4  11  22  40  62  98 127 172 217 270 339 386
#     4  11  23  40  64  94 131 174 216 272 333 392
#     4  11  22  41  67  92 136 171 217 281 325 394
#     4  12  23  40  66  98 131 170 218 276 334 396
#     4  12  24  42  64  99 129 174 222 274 335 391
#     4  10  23  41  62  92 134 169 219 274 323 406
#     4  10  20  37  65  92 123 169 218 261 324 406
#
# _framework density 21.766563000000001
#
# number of rings (size 3 to 8) (size 9 to 14) (size 15 to 20)
#    0.000    1.250    1.250    6.750    0.000    1.000 
#    2.250    0.000    0.000    2.250    0.000    0.000 
#    0.000    0.000    0.000    0.000    0.000    0.000 
#
# Total GULP energy -396756.367633 kJ/mol
# GULP energy per Si atom -12398.636489 kJ/mol
# Density = 2.171702 g / cm^3
# Si number density = 21.766563 Si / 1000 Ang^3
#
#
#
# Elastic Constant Matrix: (Units=GPa)
#
#
# Indices 1 2 3 4 5 6 
#
# 1 96.3230 34.7279 10.2414 0.0000 16.3467 0.0000
# 2 34.7279 131.5326 18.1192 0.0000 4.4326 0.0000
# 3 10.2414 18.1192 46.7652 0.0000 3.8129 0.0000
# 4 0.0000 0.0000 0.0000 28.4177 0.0000 7.9743
# 5 16.3467 4.4326 3.8129 0.0000 26.7802 0.0000
# 6 0.0000 0.0000 0.0000 7.9743 0.0000 32.0957
#
#
#
# Elastic Compliance Matrix: (Units=1/GPa)
#
#
# Indices 1 2 3 4 5 6 
#
# 1 0.012787 -0.002989 -0.001058 0.000000 -0.007160 0.000000
# 2 -0.002989 0.008751 -0.002799 0.000000 0.000775 0.000000
# 3 -0.001058 -0.002799 0.022875 0.000000 -0.002147 0.000000
# 4 0.000000 0.000000 0.000000 0.037827 0.000000 -0.009398
# 5 -0.007160 0.000775 -0.002147 0.000000 0.041889 0.000000
# 6 0.000000 0.000000 0.000000 -0.009398 0.000000 0.033492
#
#
# Mechanical properties :
#
#
# Convention : Reuss Voigt Hill
#
# Bulk Modulus (GPa) = 32.55234 44.53307 38.54270
# Shear Modulus (GPa) = 27.54004 31.56089 29.55047
#
# Velocity S-wave (km/s) = 3.56089 3.81198 3.68857
# Velocity P-wave (km/s) = 5.64750 6.31496 5.99053
#
# Compressibility (1/GPa) = 0.03071976
#
# Stress axis : x y z
#
# Youngs Moduli (GPa) = 78.20467 114.26798 43.71600
#
# Poissons Ratio (x) = 0.34155 0.04627
# Poissons Ratio (y) = 0.23375 0.12237
# Poissons Ratio (z) = 0.08278 0.31987
#
# Static dielectric constant tensor:
#      x y z
#    x 4.099360 0.000000 0.100310 
#    y 0.000000 4.303600 0.000000 
#    z 0.100310 0.000000 3.493970 
# 
# 
# High freq. dielectric constant tensor:
#      x y z
#    x 1.864520 0.000000 0.009940 
#    y 0.000000 1.874700 0.000000 
#    z 0.009940 0.000000 1.815570 
# 
# From -- ./inp_files/45078.got.cif
#   From: 2010.03.12/outbox.cif.g09.slc.cpg/sg14_23_cif.got.tgz:45078.got - 2010.03.31 13:35:05.
