data_PCOD8125598
_publ_section_title
;
Structure prediction by ZEFSAII (Michael W. Deem and Ramdas Pophale) SiO2 
 PCOD8125598
Probable space group: P 21/C
;
_chemical_formula_sum "Si O2"
_cell_formula_units_Z 32
_cell_length_a 15.719521
_cell_length_b 8.601831
_cell_length_c 10.553149
_cell_angle_alpha 90.000000
_cell_angle_beta 98.107199
_cell_angle_gamma 90.000000
_cell_volume 1412.700461
_symmetry_space_group_name_H-M "P 21/C"
_symmetry_group_IT_number 14
_symmetry_cell_setting 'monoclinic'
loop_
_space_group_symop_operation_xyz
x,y,z
-x,1/2+y,1/2-z
-x,-y,-z
x,1/2-y,1/2+z
loop_
_atom_site_type_symbol
_atom_site_label
_atom_site_fract_x
_atom_site_fract_y
_atom_site_fract_z
Si Si1 0.571374 0.816509 0.902662
Si Si2 0.236734 0.165372 0.113111
Si Si3 0.468474 0.106158 0.839247
Si Si4 0.739411 0.183913 0.894226
Si Si5 0.692467 0.390231 0.646252
Si Si6 0.922076 0.698158 0.072221
Si Si7 0.899142 0.114177 0.474384
Si Si8 0.159380 0.400374 0.262836
O O1 0.673407 0.796078 0.937065
O O2 0.529499 0.703160 0.789784
O O3 0.551805 0.994382 0.855707
O O4 0.530159 0.785012 0.033566
O O5 0.155542 0.214574 0.013857
O O6 0.231387 0.275013 0.234603
O O7 0.233387 0.985018 0.150331
O O8 0.384459 0.999797 0.829538
O O9 0.700525 0.270581 0.764490
O O10 0.821358 0.269882 0.972035
O O11 0.674405 0.183768 0.002701
O O12 0.782490 0.483963 0.639100
O O13 0.903596 0.512623 0.090346
O O14 0.921189 0.800848 0.199180
O O15 0.013732 0.714683 0.021120
O O16 0.887810 0.001121 0.352169
#
# Coordination Sequence:
#
# PCOD8125598 Si02
#       8
#     4   4   4   4   4   4   4   4
#     4  11  25  45  72 103 138 177 225 278 340 408
#     4  11  22  40  67  98 125 181 222 275 343 406
#     4  11  25  47  71 100 142 176 226 280 337 411
#     4  11  24  42  66 100 135 177 229 283 339 400
#     4  11  23  45  65  97 138 176 226 285 339 405
#     4  10  20  42  64  85 135 175 226 280 341 400
#     4   9  23  39  58  99 127 172 232 282 337 402
#     4  10  20  40  64  90 130 181 226 278 341 410
#
# _framework density 22.651651999999999
#
# number of rings (size 3 to 8) (size 9 to 14) (size 15 to 20)
#    0.000    1.500    3.750    0.000    3.500    2.000 
#   13.500    0.000    0.000    0.000    0.000    0.000 
#    0.000    0.000    0.000    0.000    0.000    0.000 
#
# Total GULP energy -396418.173788 kJ/mol
# GULP energy per Si atom -12388.067931 kJ/mol
# Density = 2.260010 g / cm^3
# Si number density = 22.651652 Si / 1000 Ang^3
#
#
#
# Elastic Constant Matrix: (Units=GPa)
#
#
# Indices 1 2 3 4 5 6 
#
# 1 62.4723 21.6944 27.8479 0.0000 -0.6449 0.0000
# 2 21.6944 82.2133 49.4608 0.0000 -8.3871 0.0000
# 3 27.8479 49.4608 110.6444 0.0000 -5.7287 0.0000
# 4 0.0000 0.0000 0.0000 44.4729 0.0000 -4.8029
# 5 -0.6449 -8.3871 -5.7287 0.0000 23.4457 0.0000
# 6 0.0000 0.0000 0.0000 -4.8029 0.0000 33.2037
#
#
#
# Elastic Compliance Matrix: (Units=1/GPa)
#
#
# Indices 1 2 3 4 5 6 
#
# 1 0.018548 -0.002988 -0.003405 0.000000 -0.001391 0.000000
# 2 -0.002988 0.017536 -0.006853 0.000000 0.004516 0.000000
# 3 -0.003405 -0.006853 0.012991 0.000000 0.000629 0.000000
# 4 0.000000 0.000000 0.000000 0.022842 0.000000 0.003304
# 5 -0.001391 0.004516 0.000629 0.000000 0.044383 0.000000
# 6 0.000000 0.000000 0.000000 0.003304 0.000000 0.030595
#
#
# Mechanical properties :
#
#
# Convention : Reuss Voigt Hill
#
# Bulk Modulus (GPa) = 44.28054 50.37068 47.32561
# Shear Modulus (GPa) = 27.63750 30.64624 29.14187
#
# Velocity S-wave (km/s) = 3.49680 3.68222 3.59070
# Velocity P-wave (km/s) = 5.99119 6.35324 6.17487
#
# Compressibility (1/GPa) = 0.02258328
#
# Stress axis : x y z
#
# Youngs Moduli (GPa) = 53.91408 57.02705 76.97714
#
# Poissons Ratio (x) = 0.17040 0.26208
# Poissons Ratio (y) = 0.16110 0.52752
# Poissons Ratio (z) = 0.18356 0.39080
#
# Static dielectric constant tensor:
#      x y z
#    x 4.201620 0.000000 0.034230 
#    y 0.000000 4.558360 0.000000 
#    z 0.034230 0.000000 4.480900 
# 
# 
# High freq. dielectric constant tensor:
#      x y z
#    x 1.897910 0.000000 0.011890 
#    y 0.000000 1.892990 0.000000 
#    z 0.011890 0.000000 1.890360 
# 
# From -- ./inp_files/31823.got.cif
#   From: 2010.03.12/outbox.cif.g09.slc.cpg/sg14_16_cif.got.tgz:31823.got - 2010.03.31 13:35:05.
