data_PCOD8125985
_publ_section_title
;
Structure prediction by ZEFSAII (Michael W. Deem and Ramdas Pophale) SiO2 
 PCOD8125985
Probable space group: P 21/C
;
_chemical_formula_sum "Si O2"
_cell_formula_units_Z 32
_cell_length_a 10.926771
_cell_length_b 9.965494
_cell_length_c 26.012515
_cell_angle_alpha 90.000000
_cell_angle_beta 146.636901
_cell_angle_gamma 90.000000
_cell_volume 1557.724512
_symmetry_space_group_name_H-M "P 21/C"
_symmetry_group_IT_number 14
_symmetry_cell_setting 'monoclinic'
loop_
_space_group_symop_operation_xyz
x,y,z
-x,1/2+y,1/2-z
-x,-y,-z
x,1/2-y,1/2+z
loop_
_atom_site_type_symbol
_atom_site_label
_atom_site_fract_x
_atom_site_fract_y
_atom_site_fract_z
Si Si1 0.663103 0.326033 0.265620
Si Si2 0.262795 0.949160 0.938007
Si Si3 0.996328 0.333970 0.293978
Si Si4 0.244415 0.841618 0.393766
Si Si5 0.968239 0.535626 0.428482
Si Si6 0.150990 0.329569 0.091725
Si Si7 0.744458 0.624500 0.058143
Si Si8 0.918666 0.115019 0.406595
O O1 0.778234 0.304319 0.251033
O O2 0.404859 0.343700 0.162279
O O3 0.694593 0.192022 0.311126
O O4 0.767191 0.449564 0.334222
O O5 0.244166 0.789221 0.929207
O O6 0.194838 0.988895 0.973559
O O7 0.083753 0.016937 0.837318
O O8 0.500000 0.000000 0.000000
O O9 0.938890 0.324923 0.214310
O O10 0.189152 0.223238 0.371722
O O11 0.486578 0.863371 0.453926
O O12 0.185428 0.971678 0.406309
O O13 0.000000 0.500000 0.500000
O O14 0.896461 0.690429 0.396426
O O15 0.109902 0.456744 0.114355
O O16 0.973951 0.346162 0.984019
O O17 0.878796 0.674673 0.055762
#
# Coordination Sequence:
#
# PCOD8125985 Si02
#       8
#     4   4   4   4   4   4   4   4
#     4  10  21  38  61  89 121 160 205 251 307 370
#     4  11  23  41  63  91 127 163 207 256 305 364
#     4  10  21  38  61  89 121 160 205 251 307 370
#     4  11  21  37  62  86 121 159 203 250 306 359
#     4  11  23  41  63  91 127 163 207 256 305 364
#     4  11  21  37  62  86 121 159 203 250 306 359
#     4  10  21  37  58  86 119 157 200 250 303 360
#     4  10  21  37  58  86 119 157 200 250 303 360
#
# _framework density 20.542784000000001
#
# number of rings (size 3 to 8) (size 9 to 14) (size 15 to 20)
#    0.000    1.500    2.500    3.000    0.000    1.000 
#    0.000    2.500    0.000    0.000    0.000    0.000 
#    0.000    0.000    0.000    0.000    0.000    0.000 
#
# Total GULP energy -396676.424800 kJ/mol
# GULP energy per Si atom -12396.138275 kJ/mol
# Density = 2.049603 g / cm^3
# Si number density = 20.542784 Si / 1000 Ang^3
#
#
#
# Elastic Constant Matrix: (Units=GPa)
#
#
# Indices 1 2 3 4 5 6 
#
# 1 81.3772 8.6076 17.4348 0.0000 5.1068 0.0000
# 2 8.6076 135.6523 9.0309 0.0000 -8.2596 0.0000
# 3 17.4348 9.0309 56.8089 0.0000 1.5670 0.0000
# 4 0.0000 0.0000 0.0000 25.5860 0.0000 5.3872
# 5 5.1068 -8.2596 1.5670 0.0000 27.2956 0.0000
# 6 0.0000 0.0000 0.0000 5.3872 0.0000 21.7561
#
#
#
# Elastic Compliance Matrix: (Units=1/GPa)
#
#
# Indices 1 2 3 4 5 6 
#
# 1 0.013362 -0.000739 -0.003914 0.000000 -0.002499 0.000000
# 2 -0.000739 0.007642 -0.001057 0.000000 0.002511 0.000000
# 3 -0.003914 -0.001057 0.018991 0.000000 -0.000678 0.000000
# 4 0.000000 0.000000 0.000000 0.041234 0.000000 -0.010210
# 5 -0.002499 0.002511 -0.000678 0.000000 0.037902 0.000000
# 6 0.000000 0.000000 0.000000 -0.010210 0.000000 0.048492
#
#
# Mechanical properties :
#
#
# Convention : Reuss Voigt Hill
#
# Bulk Modulus (GPa) = 34.99799 38.22056 36.60927
# Shear Modulus (GPa) = 26.51538 30.84521 28.68029
#
# Velocity S-wave (km/s) = 3.59658 3.87914 3.74053
# Velocity P-wave (km/s) = 5.85840 6.22168 6.04277
#
# Compressibility (1/GPa) = 0.02857307
#
# Stress axis : x y z
#
# Youngs Moduli (GPa) = 74.83839 130.85566 52.65665
#
# Poissons Ratio (x) = 0.09676 0.20612
# Poissons Ratio (y) = 0.05534 0.05567
# Poissons Ratio (z) = 0.29295 0.13834
#
# Static dielectric constant tensor:
#      x y z
#    x 3.540480 0.000000 0.074030 
#    y 0.000000 4.103830 0.000000 
#    z 0.074030 0.000000 3.525780 
# 
# 
# High freq. dielectric constant tensor:
#      x y z
#    x 1.791250 0.000000 0.005340 
#    y 0.000000 1.825400 0.000000 
#    z 0.005340 0.000000 1.790450 
# 
# From -- ./inp_files/41259.got.cif
#   From: 2010.03.12/outbox.cif.g09.slc.cpg/sg14_21_cif.got.tgz:41259.got - 2010.03.31 13:35:05.
