data_PCOD8125857
_publ_section_title
;
Structure prediction by ZEFSAII (Michael W. Deem and Ramdas Pophale) SiO2 
 PCOD8125857
Probable space group: P 21/C
;
_chemical_formula_sum "Si O2"
_cell_formula_units_Z 28
_cell_length_a 20.073990
_cell_length_b 9.192795
_cell_length_c 14.700790
_cell_angle_alpha 90.000000
_cell_angle_beta 28.222687
_cell_angle_gamma 90.000000
_cell_volume 1282.894618
_symmetry_space_group_name_H-M "P 21/C"
_symmetry_group_IT_number 14
_symmetry_cell_setting 'monoclinic'
loop_
_space_group_symop_operation_xyz
x,y,z
-x,1/2+y,1/2-z
-x,-y,-z
x,1/2-y,1/2+z
loop_
_atom_site_type_symbol
_atom_site_label
_atom_site_fract_x
_atom_site_fract_y
_atom_site_fract_z
Si Si1 0.736246 0.335279 0.048826
Si Si2 0.722862 0.236082 0.363584
Si Si3 0.919864 0.089197 0.492939
Si Si4 0.396689 0.539924 0.256876
Si Si5 0.555016 0.512374 0.601944
Si Si6 0.321890 0.432636 0.166148
Si Si7 0.825539 0.665303 0.212184
O O1 0.866399 0.384939 0.955176
O O2 0.715942 0.166685 0.095649
O O3 0.603479 0.439789 0.233943
O O4 0.775876 0.338544 0.894245
O O5 0.841641 0.327926 0.169736
O O6 0.585922 0.340231 0.545845
O O7 0.687643 0.104819 0.339531
O O8 0.083432 0.140386 0.304675
O O9 0.903718 0.917779 0.534982
O O10 0.425806 0.453135 0.314548
O O11 0.341218 0.420127 0.251738
O O12 0.539122 0.621401 0.053293
O O13 0.666918 0.606632 0.411571
O O14 0.187992 0.336830 0.295604
#
# Coordination Sequence:
#
# PCOD8125857 Si02
#       7
#     4   4   4   4   4   4   4
#     4  11  20  39  65  91 121 168 202 258 314 368
#     4  10  22  38  62  91 126 160 207 261 308 377
#     4  10  23  45  62  87 128 170 212 247 306 382
#     4  10  21  35  60  94 127 151 204 263 315 370
#     4  10  21  39  63  91 125 159 210 259 310 372
#     4  11  20  38  60  93 122 160 199 263 317 356
#     4  10  23  43  64  87 126 167 208 259 305 374
#
# _framework density 21.825642999999999
#
# number of rings (size 3 to 8) (size 9 to 14) (size 15 to 20)
#    0.000    1.714    4.286    0.000    0.000    5.143 
#    5.143    2.857    0.000    0.000    0.000    0.000 
#    0.000    0.000    0.000    0.000    0.000    0.000 
#
# Total GULP energy -347036.074693 kJ/mol
# GULP energy per Si atom -12394.145525 kJ/mol
# Density = 2.177597 g / cm^3
# Si number density = 21.825643 Si / 1000 Ang^3
#
#
#
# Elastic Constant Matrix: (Units=GPa)
#
#
# Indices 1 2 3 4 5 6 
#
# 1 78.2769 14.3618 10.1813 0.0000 -13.9709 0.0000
# 2 14.3618 76.6957 10.6633 0.0000 -12.3570 0.0000
# 3 10.1813 10.6633 29.4311 0.0000 -0.7880 0.0000
# 4 0.0000 0.0000 0.0000 21.2171 0.0000 -6.2422
# 5 -13.9709 -12.3570 -0.7880 0.0000 31.8030 0.0000
# 6 0.0000 0.0000 0.0000 -6.2422 0.0000 29.4854
#
#
#
# Elastic Compliance Matrix: (Units=1/GPa)
#
#
# Indices 1 2 3 4 5 6 
#
# 1 0.014617 -0.001172 -0.004475 0.000000 0.005855 0.000000
# 2 -0.001172 0.014747 -0.004801 0.000000 0.005096 0.000000
# 3 -0.004475 -0.004801 0.037188 0.000000 -0.002910 0.000000
# 4 0.000000 0.000000 0.000000 0.050262 0.000000 0.010641
# 5 0.005855 0.005096 -0.002910 0.000000 0.035924 0.000000
# 6 0.000000 0.000000 0.000000 0.010641 0.000000 0.036168
#
#
# Mechanical properties :
#
#
# Convention : Reuss Voigt Hill
#
# Bulk Modulus (GPa) = 21.90338 28.31293 25.10815
# Shear Modulus (GPa) = 22.22026 26.44758 24.33392
#
# Velocity S-wave (km/s) = 3.19420 3.48482 3.34267
# Velocity P-wave (km/s) = 4.86429 5.40300 5.14071
#
# Compressibility (1/GPa) = 0.04565506
#
# Stress axis : x y z
#
# Youngs Moduli (GPa) = 68.41224 67.81266 26.89074
#
# Poissons Ratio (x) = 0.07945 0.12035
# Poissons Ratio (y) = 0.08015 0.12911
# Poissons Ratio (z) = 0.30617 0.32558
#
# Static dielectric constant tensor:
#      x y z
#    x 3.911650 0.000000 0.068130 
#    y 0.000000 3.862080 0.000000 
#    z 0.068130 0.000000 3.797280 
# 
# 
# High freq. dielectric constant tensor:
#      x y z
#    x 1.857300 0.000000 0.005640 
#    y 0.000000 1.855070 0.000000 
#    z 0.005640 0.000000 1.830830 
# 
# From -- ./inp_files/43485.got.cif
#   From: 2010.03.12/outbox.cif.g09.slc.cpg/sg14_22_cif.got.tgz:43485.got - 2010.03.31 13:35:05.
