data_PCOD8125171
_publ_section_title
;
Structure prediction by ZEFSAII (Michael W. Deem and Ramdas Pophale) SiO2 
 PCOD8125171
Probable space group: P 21/C
;
_chemical_formula_sum "Si O2"
_cell_formula_units_Z 32
_cell_length_a 11.854127
_cell_length_b 8.504632
_cell_length_c 16.458321
_cell_angle_alpha 90.000000
_cell_angle_beta 89.982874
_cell_angle_gamma 90.000000
_cell_volume 1659.245357
_symmetry_space_group_name_H-M "P 21/C"
_symmetry_group_IT_number 14
_symmetry_cell_setting 'monoclinic'
loop_
_space_group_symop_operation_xyz
x,y,z
-x,1/2+y,1/2-z
-x,-y,-z
x,1/2-y,1/2+z
loop_
_atom_site_type_symbol
_atom_site_label
_atom_site_fract_x
_atom_site_fract_y
_atom_site_fract_z
Si Si1 0.758054 0.569327 0.087631
Si Si2 0.015054 0.572838 0.912217
Si Si3 0.235339 0.451727 0.100175
Si Si4 0.632758 0.079391 0.259440
Si Si5 0.997831 0.063227 0.090834
Si Si6 0.613220 0.442224 0.225213
Si Si7 0.216686 0.354044 0.679815
Si Si8 0.195461 0.365457 0.329576
O O1 0.876047 0.508380 0.128431
O O2 0.653774 0.494909 0.135908
O O3 0.759391 0.759321 0.094859
O O4 0.748296 0.513429 0.994734
O O5 0.041945 0.757305 0.913970
O O6 0.895628 0.536818 0.868386
O O7 0.000000 0.500000 0.000000
O O8 0.308597 0.574976 0.151674
O O9 0.274557 0.272717 0.118984
O O10 0.619765 0.256287 0.231243
O O11 0.513917 0.994123 0.263014
O O12 0.707419 0.987615 0.193721
O O13 0.119349 0.050188 0.133492
O O14 0.915323 0.959748 0.145760
O O15 0.000000 0.000000 0.000000
O O16 0.689251 0.521266 0.294555
O O17 0.168537 0.256485 0.756863
#
# Coordination Sequence:
#
# PCOD8125171 Si02
#       8
#     4   4   4   4   4   4   4   4
#     4  10  20  37  60  84 116 150 187 233 279 330
#     4   9  18  33  53  83 117 147 178 223 281 330
#     4   9  19  37  59  83 114 149 188 232 276 328
#     4  11  23  40  60  81 110 148 191 234 282 337
#     4  11  21  35  59  88 118 149 188 234 277 330
#     4  11  23  40  60  81 110 149 190 234 282 336
#     4   9  21  36  55  83 115 152 187 227 281 333
#     4  10  21  36  56  83 116 152 188 229 280 336
#
# _framework density 19.285875999999998
#
# number of rings (size 3 to 8) (size 9 to 14) (size 15 to 20)
#    0.000    2.000    0.000    5.250    0.000   10.500 
#    0.000    1.250    0.000    5.250    0.000    0.000 
#    0.000    0.000    0.000    0.000    0.000    0.000 
#
# Total GULP energy -396701.646371 kJ/mol
# GULP energy per Si atom -12396.926449 kJ/mol
# Density = 1.924198 g / cm^3
# Si number density = 19.285876 Si / 1000 Ang^3
#
#
#
# Elastic Constant Matrix: (Units=GPa)
#
#
# Indices 1 2 3 4 5 6 
#
# 1 102.1873 44.8061 37.3846 0.0000 0.9512 0.0000
# 2 44.8061 115.1756 24.2833 0.0000 6.2859 0.0000
# 3 37.3846 24.2833 63.6422 0.0000 4.5552 0.0000
# 4 0.0000 0.0000 0.0000 32.2703 0.0000 -0.0398
# 5 0.9512 6.2859 4.5552 0.0000 21.1429 0.0000
# 6 0.0000 0.0000 0.0000 -0.0398 0.0000 38.7332
#
#
#
# Elastic Compliance Matrix: (Units=1/GPa)
#
#
# Indices 1 2 3 4 5 6 
#
# 1 0.014090 -0.004152 -0.006841 0.000000 0.002074 0.000000
# 2 -0.004152 0.010755 -0.001472 0.000000 -0.002694 0.000000
# 3 -0.006841 -0.001472 0.020556 0.000000 -0.003684 0.000000
# 4 0.000000 0.000000 0.000000 0.030988 0.000000 0.000032
# 5 0.002074 -0.002694 -0.003684 0.000000 0.048798 0.000000
# 6 0.000000 0.000000 0.000000 0.000032 0.000000 0.025818
#
#
# Mechanical properties :
#
#
# Convention : Reuss Voigt Hill
#
# Bulk Modulus (GPa) = 48.84781 54.88368 51.86574
# Shear Modulus (GPa) = 27.35838 30.06470 28.71154
#
# Velocity S-wave (km/s) = 3.77048 3.95257 3.86260
# Velocity P-wave (km/s) = 6.65872 7.02497 6.84430
#
# Compressibility (1/GPa) = 0.02047175
#
# Stress axis : x y z
#
# Youngs Moduli (GPa) = 70.97252 92.97971 48.64644
#
# Poissons Ratio (x) = 0.38608 0.33278
# Poissons Ratio (y) = 0.29470 0.07160
# Poissons Ratio (z) = 0.48551 0.13685
#
# Static dielectric constant tensor:
#      x y z
#    x 3.673710 0.000000 0.081490 
#    y 0.000000 3.736300 0.000000 
#    z 0.081490 0.000000 3.535360 
# 
# 
# High freq. dielectric constant tensor:
#      x y z
#    x 1.746700 0.000000 -0.000040 
#    y 0.000000 1.759160 0.000000 
#    z -0.000040 0.000000 1.746390 
# 
# From -- ./inp_files/57069.got.cif
#   From: 2010.03.12/outbox.cif.g09.slc.cpg/sg14_29_cif.got.tgz:57069.got - 2010.03.31 13:35:05.
