data_PCOD8125978
_publ_section_title
;
Structure prediction by ZEFSAII (Michael W. Deem and Ramdas Pophale) SiO2 
 PCOD8125978
Probable space group: P 21/C
;
_chemical_formula_sum "Si O2"
_cell_formula_units_Z 20
_cell_length_a 9.039651
_cell_length_b 11.792940
_cell_length_c 12.488699
_cell_angle_alpha 90.000000
_cell_angle_beta 133.758009
_cell_angle_gamma 90.000000
_cell_volume 961.587701
_symmetry_space_group_name_H-M "P 21/C"
_symmetry_group_IT_number 14
_symmetry_cell_setting 'monoclinic'
loop_
_space_group_symop_operation_xyz
x,y,z
-x,1/2+y,1/2-z
-x,-y,-z
x,1/2-y,1/2+z
loop_
_atom_site_type_symbol
_atom_site_label
_atom_site_fract_x
_atom_site_fract_y
_atom_site_fract_z
Si Si1 0.437728 0.115896 0.341340
Si Si2 0.832400 0.970507 0.178854
Si Si3 0.273395 0.306337 0.540819
Si Si4 0.549728 0.338928 0.493022
Si Si5 0.768295 0.562465 0.041464
O O1 0.297506 0.137726 0.168453
O O2 0.575278 0.227157 0.433830
O O3 0.284127 0.093145 0.362168
O O4 0.587808 0.010015 0.396668
O O5 0.762333 0.092755 0.096213
O O6 0.024813 0.987417 0.353242
O O7 0.886165 0.884862 0.107106
O O8 0.638218 0.917550 0.147178
O O9 0.492037 0.304770 0.587081
O O10 0.193230 0.176765 0.507603
#
# Coordination Sequence:
#
# PCOD8125978 Si02
#       5
#     4   4   4   4   4
#     4  10  21  37  58  84 119 146 188 236 284 336
#     4   9  19  38  59  78 114 149 191 233 283 330
#     4   9  20  37  57  83 114 145 192 226 287 338
#     4   8  19  37  58  77 117 147 182 242 281 322
#     4  10  22  37  60  85 114 150 189 235 282 335
#
# _framework density 20.798933999999999
#
# number of rings (size 3 to 8) (size 9 to 14) (size 15 to 20)
#    1.200    1.600    0.000    0.000    5.600    0.800 
#    0.000    6.000    0.000    0.000    0.000    0.000 
#    0.000    0.000    0.000    0.000    0.000    0.000 
#
# Total GULP energy -247847.870356 kJ/mol
# GULP energy per Si atom -12392.393518 kJ/mol
# Density = 2.075159 g / cm^3
# Si number density = 20.798934 Si / 1000 Ang^3
#
#
#
# Elastic Constant Matrix: (Units=GPa)
#
#
# Indices 1 2 3 4 5 6 
#
# 1 18.7948 7.6115 20.1631 0.0000 -0.0442 0.0000
# 2 7.6115 118.8202 34.9258 0.0000 -5.0823 0.0000
# 3 20.1631 34.9258 90.3529 0.0000 -4.6642 0.0000
# 4 0.0000 0.0000 0.0000 37.9111 0.0000 -3.3114
# 5 -0.0442 -5.0823 -4.6642 0.0000 25.3515 0.0000
# 6 0.0000 0.0000 0.0000 -3.3114 0.0000 11.6941
#
#
#
# Elastic Compliance Matrix: (Units=1/GPa)
#
#
# Indices 1 2 3 4 5 6 
#
# 1 0.070148 0.000035 -0.015811 0.000000 -0.002780 0.000000
# 2 0.000035 0.009534 -0.003629 0.000000 0.001244 0.000000
# 3 -0.015811 -0.003629 0.016113 0.000000 0.002209 0.000000
# 4 0.000000 0.000000 0.000000 0.027046 0.000000 0.007659
# 5 -0.002780 0.001244 0.002209 0.000000 0.040096 0.000000
# 6 0.000000 0.000000 0.000000 0.007659 0.000000 0.087682
#
#
# Mechanical properties :
#
#
# Convention : Reuss Voigt Hill
#
# Bulk Modulus (GPa) = 17.54870 39.26318 28.40594
# Shear Modulus (GPa) = 16.21147 26.00918 21.11033
#
# Velocity S-wave (km/s) = 2.79487 3.54009 3.18932
# Velocity P-wave (km/s) = 4.34404 5.96893 5.22009
#
# Compressibility (1/GPa) = 0.05698427
#
# Stress axis : x y z
#
# Youngs Moduli (GPa) = 14.25567 104.89120 62.06215
#
# Poissons Ratio (x) = -0.00367 0.98127
# Poissons Ratio (y) = -0.00050 0.22521
# Poissons Ratio (z) = 0.22540 0.38063
#
# Static dielectric constant tensor:
#      x y z
#    x 3.202650 0.000000 -0.044880 
#    y 0.000000 3.996880 0.000000 
#    z -0.044880 0.000000 3.314270 
# 
# 
# High freq. dielectric constant tensor:
#      x y z
#    x 1.762990 0.000000 -0.004730 
#    y 0.000000 1.835660 0.000000 
#    z -0.004730 0.000000 1.787030 
# 
# From -- ./inp_files/39200.got.cif
#   From: 2010.03.12/outbox.cif.g09.slc.cpg/sg14_20_cif.got.tgz:39200.got - 2010.03.31 13:35:05.
