data_PCOD8125571
_publ_section_title
;
Structure prediction by ZEFSAII (Michael W. Deem and Ramdas Pophale) SiO2 
 PCOD8125571
Probable space group: P 21/C
;
_chemical_formula_sum "Si O2"
_cell_formula_units_Z 28
_cell_length_a 8.667873
_cell_length_b 17.452265
_cell_length_c 13.288802
_cell_angle_alpha 90.000000
_cell_angle_beta 139.255466
_cell_angle_gamma 90.000000
_cell_volume 1312.065299
_symmetry_space_group_name_H-M "P 21/C"
_symmetry_group_IT_number 14
_symmetry_cell_setting 'monoclinic'
loop_
_space_group_symop_operation_xyz
x,y,z
-x,1/2+y,1/2-z
-x,-y,-z
x,1/2-y,1/2+z
loop_
_atom_site_type_symbol
_atom_site_label
_atom_site_fract_x
_atom_site_fract_y
_atom_site_fract_z
Si Si1 0.602478 0.670636 0.637222
Si Si2 0.047478 0.712162 0.620165
Si Si3 0.172557 0.013604 0.234733
Si Si4 0.450974 0.343812 0.825472
Si Si5 0.906009 0.115220 0.659202
Si Si6 0.531006 0.700435 0.376552
Si Si7 0.221074 0.914330 0.077702
O O1 0.636713 0.758913 0.686639
O O2 0.506820 0.663611 0.474838
O O3 0.434241 0.627359 0.629762
O O4 0.841152 0.622356 0.768432
O O5 0.098110 0.670553 0.748561
O O6 0.282461 0.762409 0.721107
O O7 0.037063 0.651579 0.522999
O O8 0.781884 0.750768 0.496959
O O9 0.304000 0.093997 0.316692
O O10 0.152688 0.971193 0.332507
O O11 0.310521 0.961518 0.220068
O O12 0.907718 0.028600 0.063203
O O13 0.429533 0.360120 0.694772
O O14 0.723001 0.353839 0.988104
#
# Coordination Sequence:
#
# PCOD8125571 Si02
#       7
#     4   4   4   4   4   4   4
#     4  11  25  41  70  99 131 175 227 284 321 402
#     4  10  20  40  61  96 134 169 215 273 331 397
#     4  10  23  43  69  94 135 181 217 266 345 408
#     4  12  23  40  70  97 130 175 223 282 332 396
#     4  10  24  43  63  98 135 172 223 273 339 395
#     4  11  23  38  65  99 132 167 223 277 337 387
#     4  10  21  41  68  94 130 180 216 269 334 403
#
# _framework density 21.340401
#
# number of rings (size 3 to 8) (size 9 to 14) (size 15 to 20)
#    0.000    1.429    4.286    0.429    6.000    0.571 
#    0.000    0.714    0.000    0.000    0.000    0.000 
#    0.000    0.000    0.000    0.000    0.000    0.000 
#
# Total GULP energy -346878.962505 kJ/mol
# GULP energy per Si atom -12388.534375 kJ/mol
# Density = 2.129183 g / cm^3
# Si number density = 21.340401 Si / 1000 Ang^3
#
#
#
# Elastic Constant Matrix: (Units=GPa)
#
#
# Indices 1 2 3 4 5 6 
#
# 1 117.4538 55.2038 39.1668 0.0000 11.8943 0.0000
# 2 55.2038 95.3159 18.6582 0.0000 12.0400 0.0000
# 3 39.1668 18.6582 74.1145 0.0000 17.2950 0.0000
# 4 0.0000 0.0000 0.0000 30.9420 0.0000 5.9553
# 5 11.8943 12.0400 17.2950 0.0000 34.0450 0.0000
# 6 0.0000 0.0000 0.0000 5.9553 0.0000 16.1276
#
#
#
# Elastic Compliance Matrix: (Units=1/GPa)
#
#
# Indices 1 2 3 4 5 6 
#
# 1 0.013509 -0.006802 -0.005544 0.000000 0.000502 0.000000
# 2 -0.006802 0.014705 0.000626 0.000000 -0.003142 0.000000
# 3 -0.005544 0.000626 0.017998 0.000000 -0.007428 0.000000
# 4 0.000000 0.000000 0.000000 0.034791 0.000000 -0.012847
# 5 0.000502 -0.003142 -0.007428 0.000000 0.034082 0.000000
# 6 0.000000 0.000000 0.000000 -0.012847 0.000000 0.066749
#
#
# Mechanical properties :
#
#
# Convention : Reuss Voigt Hill
#
# Bulk Modulus (GPa) = 43.91316 56.99354 50.45335
# Shear Modulus (GPa) = 23.48906 27.81327 25.65116
#
# Velocity S-wave (km/s) = 3.32126 3.61406 3.47075
# Velocity P-wave (km/s) = 5.94389 6.64681 6.30515
#
# Compressibility (1/GPa) = 0.02277222
#
# Stress axis : x y z
#
# Youngs Moduli (GPa) = 74.02604 68.00245 55.56174
#
# Poissons Ratio (x) = 0.46256 0.30802
# Poissons Ratio (y) = 0.50353 -0.03477
# Poissons Ratio (z) = 0.41038 -0.04256
#
# Static dielectric constant tensor:
#      x y z
#    x 4.049940 0.000000 0.110080 
#    y 0.000000 3.766760 0.000000 
#    z 0.110080 0.000000 4.053920 
# 
# 
# High freq. dielectric constant tensor:
#      x y z
#    x 1.842290 0.000000 0.002070 
#    y 0.000000 1.806350 0.000000 
#    z 0.002070 0.000000 1.847060 
# 
# From -- ./inp_files/41813.got.cif
#   From: 2010.03.12/outbox.cif.g09.slc.cpg/sg14_21_cif.got.tgz:41813.got - 2010.03.31 13:35:05.
