data_PCOD8125514
_publ_section_title
;
Structure prediction by ZEFSAII (Michael W. Deem and Ramdas Pophale) SiO2 
 PCOD8125514
Probable space group: P 21/C
;
_chemical_formula_sum "Si O2"
_cell_formula_units_Z 28
_cell_length_a 6.088435
_cell_length_b 29.422858
_cell_length_c 8.763489
_cell_angle_alpha 90.000000
_cell_angle_beta 55.512136
_cell_angle_gamma 90.000000
_cell_volume 1293.970868
_symmetry_space_group_name_H-M "P 21/C"
_symmetry_group_IT_number 14
_symmetry_cell_setting 'monoclinic'
loop_
_space_group_symop_operation_xyz
x,y,z
-x,1/2+y,1/2-z
-x,-y,-z
x,1/2-y,1/2+z
loop_
_atom_site_type_symbol
_atom_site_label
_atom_site_fract_x
_atom_site_fract_y
_atom_site_fract_z
Si Si1 0.617294 0.549945 0.472039
Si Si2 0.150067 0.734213 0.150814
Si Si3 0.320407 0.053467 0.706233
Si Si4 0.888336 0.028095 0.401820
Si Si5 0.642325 0.310232 0.220478
Si Si6 0.138347 0.618646 0.657620
Si Si7 0.057492 0.190426 0.976756
O O1 0.500000 0.500000 0.500000
O O2 0.734237 0.556052 0.593525
O O3 0.383026 0.585245 0.529338
O O4 0.866283 0.557985 0.259352
O O5 0.341787 0.765664 0.177936
O O6 0.992031 0.701379 0.327040
O O7 0.313964 0.701942 0.973137
O O8 0.952482 0.764263 0.124337
O O9 0.638204 0.060032 0.549290
O O10 0.139466 0.092618 0.702021
O O11 0.219948 0.004924 0.687018
O O12 0.000000 0.000000 0.500000
O O13 0.835914 0.350369 0.200830
O O14 0.349344 0.330776 0.350287
O O15 0.139405 0.651677 0.509218
#
# Coordination Sequence:
#
# PCOD8125514 Si02
#       7
#     4   4   4   4   4   4   4
#     4  12  23  43  68  89 126 171 224 274 333 386
#     4   9  20  38  68  94 122 170 216 253 314 398
#     4  11  23  42  65  92 123 167 218 271 329 383
#     4  11  23  41  68  94 116 163 227 269 326 392
#     4  10  20  40  64  95 132 167 212 262 320 385
#     4  11  24  40  61  93 137 170 210 275 329 385
#     4  10  20  39  64  95 128 168 210 261 321 383
#
# _framework density 21.638819999999999
#
# number of rings (size 3 to 8) (size 9 to 14) (size 15 to 20)
#    0.000    1.429    2.857    2.143    0.000    0.000 
#    0.000   14.286    0.000    0.000    0.000    0.000 
#    0.000    0.000    0.000    0.000    0.000    0.000 
#
# Total GULP energy -347203.386506 kJ/mol
# GULP energy per Si atom -12400.120947 kJ/mol
# Density = 2.158957 g / cm^3
# Si number density = 21.638820 Si / 1000 Ang^3
#
#
#
# Elastic Constant Matrix: (Units=GPa)
#
#
# Indices 1 2 3 4 5 6 
#
# 1 114.1848 40.3684 69.2202 0.0000 -9.1815 0.0000
# 2 40.3684 95.5434 52.0944 0.0000 -5.3025 0.0000
# 3 69.2202 52.0944 161.4971 0.0000 -2.8708 0.0000
# 4 0.0000 0.0000 0.0000 1.9966 0.0000 -9.6588
# 5 -9.1815 -5.3025 -2.8708 0.0000 40.6842 0.0000
# 6 0.0000 0.0000 0.0000 -9.6588 0.0000 30.2196
#
#
#
# Elastic Compliance Matrix: (Units=1/GPa)
#
#
# Indices 1 2 3 4 5 6 
#
# 1 0.012628 -0.002773 -0.004480 0.000000 0.002172 0.000000
# 2 -0.002773 0.013385 -0.003113 0.000000 0.000899 0.000000
# 3 -0.004480 -0.003113 0.009103 0.000000 -0.000774 0.000000
# 4 0.000000 0.000000 0.000000 -0.916951 0.000000 -0.293078
# 5 0.002172 0.000899 -0.000774 0.000000 0.025132 0.000000
# 6 0.000000 0.000000 0.000000 -0.293078 0.000000 -0.060583
#
#
# Mechanical properties :
#
#
# Convention : Reuss Voigt Hill
#
# Bulk Modulus (GPa) = 69.51687 77.17681 73.34684
# Shear Modulus (GPa) = -5.60689 28.54956 11.47133
#
# Velocity S-wave (km/s) = -1.61144 3.63625 2.30495
# Velocity P-wave (km/s) = 5.36036 7.30569 6.40728
#
# Compressibility (1/GPa) = 0.01438500
#
# Stress axis : x y z
#
# Youngs Moduli (GPa) = 79.18753 74.70862 109.85784
#
# Poissons Ratio (x) = 0.20713 0.49213
# Poissons Ratio (y) = 0.21955 0.34203
# Poissons Ratio (z) = 0.35474 0.23260
#
# Static dielectric constant tensor:
#      x y z
#    x 4.132060 0.000000 0.029520 
#    y 0.000000 3.874320 0.000000 
#    z 0.029520 0.000000 3.934760 
# 
# 
# High freq. dielectric constant tensor:
#      x y z
#    x 1.866730 0.000000 0.008570 
#    y 0.000000 1.841610 0.000000 
#    z 0.008570 0.000000 1.839670 
# 
# From -- ./inp_files/6740.got.cif
#   From: 2010.03.12/outbox.cif.g09.slc.cpg/sg14_4_cif.got.tgz:6740.got - 2010.03.31 13:35:05.
