data_PCOD8125294
_publ_section_title
;
Structure prediction by ZEFSAII (Michael W. Deem and Ramdas Pophale) SiO2 
 PCOD8125294
Probable space group: P 21/C
;
_chemical_formula_sum "Si O2"
_cell_formula_units_Z 24
_cell_length_a 23.203146
_cell_length_b 9.313968
_cell_length_c 16.525937
_cell_angle_alpha 90.000000
_cell_angle_beta 19.453303
_cell_angle_gamma 90.000000
_cell_volume 1189.438860
_symmetry_space_group_name_H-M "P 21/C"
_symmetry_group_IT_number 14
_symmetry_cell_setting 'monoclinic'
loop_
_space_group_symop_operation_xyz
x,y,z
-x,1/2+y,1/2-z
-x,-y,-z
x,1/2-y,1/2+z
loop_
_atom_site_type_symbol
_atom_site_label
_atom_site_fract_x
_atom_site_fract_y
_atom_site_fract_z
Si Si1 0.191288 0.411072 0.082339
Si Si2 0.879425 0.299380 0.585102
Si Si3 0.369267 0.012965 0.505039
Si Si4 0.261404 0.088659 0.012247
Si Si5 0.809086 0.700424 0.226398
Si Si6 0.118238 0.512925 0.007375
O O1 0.308674 0.494373 0.992026
O O2 0.199970 0.498943 0.987939
O O3 0.994368 0.403764 0.376251
O O4 0.262448 0.249919 0.975388
O O5 0.711764 0.380701 0.838687
O O6 0.997744 0.249860 0.504205
O O7 0.816595 0.161725 0.617360
O O8 0.575785 0.999526 0.236086
O O9 0.315017 0.161927 0.618774
O O10 0.263935 0.095831 0.106807
O O11 0.089694 0.005809 0.210889
O O12 0.813104 0.619557 0.136411
#
# Coordination Sequence:
#
# PCOD8125294 Si02
#       6
#     4   4   4   4   4   4
#     4   9  20  37  57  85 114 148 193 234 278 337
#     4   9  19  35  58  82 109 153 191 223 280 347
#     4  10  20  38  60  83 112 149 190 233 279 334
#     4   9  20  37  57  85 114 148 193 234 278 337
#     4   9  19  35  58  82 109 153 191 223 280 347
#     4  10  20  38  60  83 112 149 190 233 279 334
#
# _framework density 20.177584
#
# number of rings (size 3 to 8) (size 9 to 14) (size 15 to 20)
#    0.000    3.333    0.000    4.000    0.000   10.667 
#    0.000    6.667    0.000    0.000    0.000    0.000 
#    0.000    0.000    0.000    0.000    0.000    0.000 
#
# Total GULP energy -297571.647170 kJ/mol
# GULP energy per Si atom -12398.818632 kJ/mol
# Density = 2.013166 g / cm^3
# Si number density = 20.177584 Si / 1000 Ang^3
#
#
#
# Elastic Constant Matrix: (Units=GPa)
#
#
# Indices 1 2 3 4 5 6 
#
# 1 93.6454 48.9980 29.5630 0.0000 5.1562 0.0000
# 2 48.9980 78.8948 48.8035 0.0000 0.4938 0.0000
# 3 29.5630 48.8035 92.9492 0.0000 -3.4881 0.0000
# 4 0.0000 0.0000 0.0000 25.0452 0.0000 -2.0580
# 5 5.1562 0.4938 -3.4881 0.0000 9.7851 0.0000
# 6 0.0000 0.0000 0.0000 -2.0580 0.0000 25.9258
#
#
#
# Elastic Compliance Matrix: (Units=1/GPa)
#
#
# Indices 1 2 3 4 5 6 
#
# 1 0.016450 -0.009976 -0.000304 0.000000 -0.008273 0.000000
# 2 -0.009976 0.025022 -0.009948 0.000000 0.000448 0.000000
# 3 -0.000304 -0.009948 0.016322 0.000000 0.006481 0.000000
# 4 0.000000 0.000000 0.000000 0.040190 0.000000 0.003190
# 5 -0.008273 0.000448 0.006481 0.000000 0.108843 0.000000
# 6 0.000000 0.000000 0.000000 0.003190 0.000000 0.038825
#
#
# Mechanical properties :
#
#
# Convention : Reuss Voigt Hill
#
# Bulk Modulus (GPa) = 57.68234 57.80202 57.74218
# Shear Modulus (GPa) = 17.12984 21.35955 19.24470
#
# Velocity S-wave (km/s) = 2.91684 3.25711 3.09166
# Velocity P-wave (km/s) = 6.32403 6.54629 6.43612
#
# Compressibility (1/GPa) = 0.01733633
#
# Stress axis : x y z
#
# Youngs Moduli (GPa) = 60.78985 39.96492 61.26751
#
# Poissons Ratio (x) = 0.39870 0.01865
# Poissons Ratio (y) = 0.60646 0.60949
# Poissons Ratio (z) = 0.01850 0.39757
#
# Static dielectric constant tensor:
#      x y z
#    x 3.397230 0.000000 0.123560 
#    y 0.000000 3.542750 0.000000 
#    z 0.123560 0.000000 3.439280 
# 
# 
# High freq. dielectric constant tensor:
#      x y z
#    x 1.768220 0.000000 0.011770 
#    y 0.000000 1.784920 0.000000 
#    z 0.011770 0.000000 1.772230 
# 
# From -- ./inp_files/61753.got.cif
#   From: 2010.03.12/outbox.cif.g09.slc.cpg/sg14_31_cif.got.tgz:61753.got - 2010.03.31 13:35:05.
