data_PCOD8125323
_publ_section_title
;
Structure prediction by ZEFSAII (Michael W. Deem and Ramdas Pophale) SiO2 
 PCOD8125323
Probable space group: P 21/C
;
_chemical_formula_sum "Si O2"
_cell_formula_units_Z 32
_cell_length_a 20.546778
_cell_length_b 8.933175
_cell_length_c 21.259416
_cell_angle_alpha 90.000000
_cell_angle_beta 155.005039
_cell_angle_gamma 90.000000
_cell_volume 1648.797200
_symmetry_space_group_name_H-M "P 21/C"
_symmetry_group_IT_number 14
_symmetry_cell_setting 'monoclinic'
loop_
_space_group_symop_operation_xyz
x,y,z
-x,1/2+y,1/2-z
-x,-y,-z
x,1/2-y,1/2+z
loop_
_atom_site_type_symbol
_atom_site_label
_atom_site_fract_x
_atom_site_fract_y
_atom_site_fract_z
Si Si1 0.615901 0.115295 0.735660
Si Si2 0.168083 0.125752 0.453942
Si Si3 0.819346 0.132890 0.138437
Si Si4 0.597343 0.454590 0.762654
Si Si5 0.716978 0.461921 0.059053
Si Si6 0.290694 0.046724 0.067735
Si Si7 0.639638 0.106055 0.617117
Si Si8 0.548357 0.087693 0.981333
O O1 0.587712 0.281771 0.735716
O O2 0.458818 0.019420 0.597449
O O3 0.700805 0.132369 0.741580
O O4 0.731537 0.027663 0.883187
O O5 0.178704 0.074436 0.390166
O O6 0.260514 0.277785 0.545442
O O7 0.990366 0.151556 0.315976
O O8 0.241478 0.998570 0.563259
O O9 0.739665 0.292883 0.052130
O O10 0.716901 0.043383 0.100701
O O11 0.829233 0.032216 0.084514
O O12 0.463754 0.487593 0.696035
O O13 0.577180 0.558293 0.683219
O O14 0.765551 0.458024 0.176661
O O15 0.557825 0.243229 0.510763
O O16 0.500000 0.000000 0.500000
O O17 0.500000 0.000000 0.000000
#
# Coordination Sequence:
#
# PCOD8125323 Si02
#       8
#     4   4   4   4   4   4   4   4
#     4  11  20  36  60  94 117 156 208 264 295 359
#     4  12  23  38  60  91 129 163 200 260 322 375
#     4  10  24  39  60  90 126 164 203 253 326 375
#     4  11  21  35  62  93 121 156 209 257 310 360
#     4  10  20  38  61  84 125 159 204 256 307 363
#     4  11  22  35  60  92 120 160 209 256 311 365
#     4   9  20  33  59  91 119 155 201 254 307 352
#     4  10  20  39  64  90 119 159 208 259 298 376
#
# _framework density 19.408087999999999
#
# number of rings (size 3 to 8) (size 9 to 14) (size 15 to 20)
#    0.000    1.500    3.750    1.500    7.000    0.000 
#    0.000    0.625    0.000    6.750    0.000    0.000 
#    0.000    0.000    0.000    0.000    0.000    0.000 
#
# Total GULP energy -396489.498781 kJ/mol
# GULP energy per Si atom -12390.296837 kJ/mol
# Density = 1.936391 g / cm^3
# Si number density = 19.408088 Si / 1000 Ang^3
#
#
#
# Elastic Constant Matrix: (Units=GPa)
#
#
# Indices 1 2 3 4 5 6 
#
# 1 125.5376 48.6781 43.0662 0.0000 -26.5609 0.0000
# 2 48.6781 88.5834 40.7476 0.0000 -13.7236 0.0000
# 3 43.0662 40.7476 87.1980 0.0000 -4.4450 0.0000
# 4 0.0000 0.0000 0.0000 21.5784 0.0000 -9.3388
# 5 -26.5609 -13.7236 -4.4450 0.0000 26.3708 0.0000
# 6 0.0000 0.0000 0.0000 -9.3388 0.0000 32.7848
#
#
#
# Elastic Compliance Matrix: (Units=1/GPa)
#
#
# Indices 1 2 3 4 5 6 
#
# 1 0.013039 -0.003586 -0.004226 0.000000 0.010555 0.000000
# 2 -0.003586 0.016525 -0.005746 0.000000 0.004019 0.000000
# 3 -0.004226 -0.005746 0.016009 0.000000 -0.004549 0.000000
# 4 0.000000 0.000000 0.000000 0.052859 0.000000 0.015057
# 5 0.010555 0.004019 -0.004549 0.000000 0.049876 0.000000
# 6 0.000000 0.000000 0.000000 0.015057 0.000000 0.034791
#
#
# Mechanical properties :
#
#
# Convention : Reuss Voigt Hill
#
# Bulk Modulus (GPa) = 54.18199 62.92253 58.55226
# Shear Modulus (GPa) = 23.10870 27.40195 25.25532
#
# Velocity S-wave (km/s) = 3.45436 3.76158 3.61124
# Velocity P-wave (km/s) = 6.62480 7.16639 6.90091
#
# Compressibility (1/GPa) = 0.01845632
#
# Stress axis : x y z
#
# Youngs Moduli (GPa) = 76.69195 60.51308 62.46586
#
# Poissons Ratio (x) = 0.21701 0.26399
# Poissons Ratio (y) = 0.27503 0.35894
# Poissons Ratio (z) = 0.32411 0.34772
#
# Static dielectric constant tensor:
#      x y z
#    x 4.452710 0.000000 -0.303180 
#    y 0.000000 3.437610 0.000000 
#    z -0.303180 0.000000 3.169470 
# 
# 
# High freq. dielectric constant tensor:
#      x y z
#    x 1.765150 0.000000 -0.019610 
#    y 0.000000 1.768800 0.000000 
#    z -0.019610 0.000000 1.715530 
# 
# From -- ./inp_files/74926.got.cif
#   From: 2010.03.12/outbox.cif.g09.slc.cpg/sg14_38_cif.got.tgz:74926.got - 2010.03.31 13:35:05.
