data_PCOD8125656
_publ_section_title
;
Structure prediction by ZEFSAII (Michael W. Deem and Ramdas Pophale) SiO2 
 PCOD8125656
Probable space group: P 21/C
;
_chemical_formula_sum "Si O2"
_cell_formula_units_Z 28
_cell_length_a 8.612677
_cell_length_b 11.941219
_cell_length_c 20.462975
_cell_angle_alpha 90.000000
_cell_angle_beta 138.944563
_cell_angle_gamma 90.000000
_cell_volume 1382.233559
_symmetry_space_group_name_H-M "P 21/C"
_symmetry_group_IT_number 14
_symmetry_cell_setting 'monoclinic'
loop_
_space_group_symop_operation_xyz
x,y,z
-x,1/2+y,1/2-z
-x,-y,-z
x,1/2-y,1/2+z
loop_
_atom_site_type_symbol
_atom_site_label
_atom_site_fract_x
_atom_site_fract_y
_atom_site_fract_z
Si Si1 0.688469 0.941990 0.438041
Si Si2 0.931357 0.259141 0.670458
Si Si3 0.429939 0.287963 0.543810
Si Si4 0.427190 0.616916 0.280700
Si Si5 0.722084 0.945263 0.756077
Si Si6 0.914462 0.564920 0.872763
Si Si7 0.070842 0.813715 0.183261
O O1 0.547045 0.834683 0.417222
O O2 0.834728 0.904386 0.420621
O O3 0.504432 0.040513 0.362823
O O4 0.855912 0.985526 0.549200
O O5 0.660346 0.297272 0.570277
O O6 0.021829 0.178908 0.642597
O O7 0.953002 0.197523 0.746651
O O8 0.086884 0.371274 0.721086
O O9 0.455178 0.377827 0.610430
O O10 0.189783 0.304163 0.429217
O O11 0.638387 0.618404 0.295080
O O12 0.244310 0.718763 0.209125
O O13 0.288306 0.499478 0.231471
O O14 0.828437 0.066634 0.806541
#
# Coordination Sequence:
#
# PCOD8125656 Si02
#       7
#     4   4   4   4   4   4   4
#     4  10  20  40  70  94 119 164 230 267 311 369
#     4  11  26  40  63  95 136 167 211 262 328 384
#     4  11  23  41  63  93 131 171 210 264 318 389
#     4  10  22  43  67  90 128 163 218 275 314 369
#     4  11  24  43  65  95 129 169 213 268 321 381
#     4  10  22  40  67  97 121 169 216 273 317 379
#     4  11  25  43  64  96 130 169 214 262 325 386
#
# _framework density 20.257068
#
# number of rings (size 3 to 8) (size 9 to 14) (size 15 to 20)
#    0.000    1.429    4.286    0.857    8.000    1.714 
#    0.000    0.000    0.000    0.000    0.000    0.000 
#    0.000    0.000    0.000    0.000    0.000    0.000 
#
# Total GULP energy -347270.015607 kJ/mol
# GULP energy per Si atom -12402.500557 kJ/mol
# Density = 2.021096 g / cm^3
# Si number density = 20.257068 Si / 1000 Ang^3
#
#
#
# Elastic Constant Matrix: (Units=GPa)
#
#
# Indices 1 2 3 4 5 6 
#
# 1 98.0441 44.9949 35.9039 0.0000 23.5287 0.0000
# 2 44.9949 71.6814 20.8396 0.0000 3.1065 0.0000
# 3 35.9039 20.8396 109.3631 0.0000 15.0396 0.0000
# 4 0.0000 0.0000 0.0000 23.4586 0.0000 4.1888
# 5 23.5287 3.1065 15.0396 0.0000 25.4103 0.0000
# 6 0.0000 0.0000 0.0000 4.1888 0.0000 39.4896
#
#
#
# Elastic Compliance Matrix: (Units=1/GPa)
#
#
# Indices 1 2 3 4 5 6 
#
# 1 0.019934 -0.011176 -0.002247 0.000000 -0.015762 0.000000
# 2 -0.011176 0.021036 -0.001534 0.000000 0.008685 0.000000
# 3 -0.002247 -0.001534 0.010736 0.000000 -0.004086 0.000000
# 4 0.000000 0.000000 0.000000 0.043451 0.000000 -0.004609
# 5 -0.015762 0.008685 -0.004086 0.000000 0.055305 0.000000
# 6 0.000000 0.000000 0.000000 -0.004609 0.000000 0.025812
#
#
# Mechanical properties :
#
#
# Convention : Reuss Voigt Hill
#
# Bulk Modulus (GPa) = 45.88996 53.61840 49.75418
# Shear Modulus (GPa) = 23.42454 29.49503 26.45979
#
# Velocity S-wave (km/s) = 3.40422 3.81994 3.61806
# Velocity P-wave (km/s) = 6.17694 6.78103 6.48603
#
# Compressibility (1/GPa) = 0.02179126
#
# Stress axis : x y z
#
# Youngs Moduli (GPa) = 50.16573 47.53857 93.14719
#
# Poissons Ratio (x) = 0.53131 0.20931
# Poissons Ratio (y) = 0.56067 0.14285
# Poissons Ratio (z) = 0.11273 0.07290
#
# Static dielectric constant tensor:
#      x y z
#    x 3.722930 0.000000 0.234270 
#    y 0.000000 3.581490 0.000000 
#    z 0.234270 0.000000 3.744990 
# 
# 
# High freq. dielectric constant tensor:
#      x y z
#    x 1.795680 0.000000 0.018190 
#    y 0.000000 1.786900 0.000000 
#    z 0.018190 0.000000 1.792760 
# 
# From -- ./inp_files/65527.got.cif
#   From: 2010.03.12/outbox.cif.g09.slc.cpg/sg14_33_cif.got.tgz:65527.got - 2010.03.31 13:35:05.
