data_PCOD8125406
_publ_section_title
;
Structure prediction by ZEFSAII (Michael W. Deem and Ramdas Pophale) SiO2 
 PCOD8125406
Probable space group: P 21/C
;
_chemical_formula_sum "Si O2"
_cell_formula_units_Z 24
_cell_length_a 12.915149
_cell_length_b 12.232645
_cell_length_c 12.835832
_cell_angle_alpha 90.000000
_cell_angle_beta 32.915448
_cell_angle_gamma 90.000000
_cell_volume 1101.955601
_symmetry_space_group_name_H-M "P 21/C"
_symmetry_group_IT_number 14
_symmetry_cell_setting 'monoclinic'
loop_
_space_group_symop_operation_xyz
x,y,z
-x,1/2+y,1/2-z
-x,-y,-z
x,1/2-y,1/2+z
loop_
_atom_site_type_symbol
_atom_site_label
_atom_site_fract_x
_atom_site_fract_y
_atom_site_fract_z
Si Si1 0.515329 0.508370 0.656599
Si Si2 0.896357 0.840199 0.630545
Si Si3 0.897906 0.493161 0.427801
Si Si4 0.154471 0.845685 0.835447
Si Si5 0.126246 0.491024 0.047960
Si Si6 0.471012 0.825985 0.017380
O O1 0.710319 0.554522 0.541589
O O2 0.566251 0.391029 0.559546
O O3 0.420495 0.591676 0.653763
O O4 0.352078 0.501399 0.884351
O O5 0.692973 0.795977 0.842255
O O6 0.994358 0.739792 0.494861
O O7 0.018395 0.892303 0.622080
O O8 0.869928 0.929113 0.563923
O O9 0.810261 0.412595 0.588102
O O10 0.062418 0.575145 0.327495
O O11 0.009911 0.430182 0.238984
O O12 0.344809 0.784909 0.632331
#
# Coordination Sequence:
#
# PCOD8125406 Si02
#       6
#     4   4   4   4   4   4
#     4  10  20  40  68  95 124 162 218 279 324 373
#     4  10  20  38  66  96 124 163 214 273 327 377
#     4  11  25  42  60  91 139 179 212 258 324 394
#     4  11  25  42  60  91 137 178 212 259 323 392
#     4  10  20  38  67  96 125 164 215 276 326 376
#     4  10  20  40  69  95 123 160 219 275 323 381
#
# _framework density 21.779461000000001
#
# number of rings (size 3 to 8) (size 9 to 14) (size 15 to 20)
#    0.000    1.667    3.333    1.000    0.000    5.333 
#    6.000    3.333    0.000    0.000    0.000    0.000 
#    0.000    0.000    0.000    0.000    0.000    0.000 
#
# Total GULP energy -297374.516364 kJ/mol
# GULP energy per Si atom -12390.604849 kJ/mol
# Density = 2.172989 g / cm^3
# Si number density = 21.779461 Si / 1000 Ang^3
#
#
#
# Elastic Constant Matrix: (Units=GPa)
#
#
# Indices 1 2 3 4 5 6 
#
# 1 91.0130 30.8363 47.3661 0.0000 -13.3947 0.0000
# 2 30.8363 88.7512 29.1253 0.0000 -12.7592 0.0000
# 3 47.3661 29.1253 189.6649 0.0000 -26.2737 0.0000
# 4 0.0000 0.0000 0.0000 44.5601 0.0000 -6.0216
# 5 -13.3947 -12.7592 -26.2737 0.0000 27.3155 0.0000
# 6 0.0000 0.0000 0.0000 -6.0216 0.0000 4.6928
#
#
#
# Elastic Compliance Matrix: (Units=1/GPa)
#
#
# Indices 1 2 3 4 5 6 
#
# 1 0.013938 -0.003618 -0.002553 0.000000 0.002689 0.000000
# 2 -0.003618 0.013275 -0.000602 0.000000 0.003848 0.000000
# 3 -0.002553 -0.000602 0.006680 0.000000 0.004892 0.000000
# 4 0.000000 0.000000 0.000000 0.027149 0.000000 0.034837
# 5 0.002689 0.003848 0.004892 0.000000 0.044431 0.000000
# 6 0.000000 0.000000 0.000000 0.034837 0.000000 0.257793
#
#
# Mechanical properties :
#
#
# Convention : Reuss Voigt Hill
#
# Bulk Modulus (GPa) = 49.14635 64.89830 57.02232
# Shear Modulus (GPa) = 13.03459 32.78710 22.91085
#
# Velocity S-wave (km/s) = 2.44904 3.88418 3.24689
# Velocity P-wave (km/s) = 5.53277 7.06954 6.34783
#
# Compressibility (1/GPa) = 0.02034739
#
# Stress axis : x y z
#
# Youngs Moduli (GPa) = 71.74852 75.32780 149.69849
#
# Poissons Ratio (x) = 0.27256 0.38211
# Poissons Ratio (y) = 0.25961 0.09011
# Poissons Ratio (z) = 0.18314 0.04534
#
# Static dielectric constant tensor:
#      x y z
#    x 3.759690 0.000000 -0.175930 
#    y 0.000000 5.066630 0.000000 
#    z -0.175930 0.000000 4.272580 
# 
# 
# High freq. dielectric constant tensor:
#      x y z
#    x 1.844220 0.000000 -0.009960 
#    y 0.000000 1.818340 0.000000 
#    z -0.009960 0.000000 1.883210 
# 
# From -- ./inp_files/47070.got.cif
#   From: 2010.03.12/outbox.cif.g09.slc.cpg/sg14_24_cif.got.tgz:47070.got - 2010.03.31 13:35:05.
