data_PCOD8125694
_publ_section_title
;
Structure prediction by ZEFSAII (Michael W. Deem and Ramdas Pophale) SiO2 
 PCOD8125694
Probable space group: P 21/C
;
_chemical_formula_sum "Si O2"
_cell_formula_units_Z 28
_cell_length_a 15.394460
_cell_length_b 19.425591
_cell_length_c 8.991258
_cell_angle_alpha 90.000000
_cell_angle_beta 32.037715
_cell_angle_gamma 90.000000
_cell_volume 1426.349742
_symmetry_space_group_name_H-M "P 21/C"
_symmetry_group_IT_number 14
_symmetry_cell_setting 'monoclinic'
loop_
_space_group_symop_operation_xyz
x,y,z
-x,1/2+y,1/2-z
-x,-y,-z
x,1/2-y,1/2+z
loop_
_atom_site_type_symbol
_atom_site_label
_atom_site_fract_x
_atom_site_fract_y
_atom_site_fract_z
Si Si1 0.596049 0.898787 0.240813
Si Si2 0.099297 0.569802 0.829396
Si Si3 0.431143 0.517042 0.441674
Si Si4 0.103271 0.187929 0.217297
Si Si5 0.031081 0.173821 0.983278
Si Si6 0.265456 0.049990 0.669200
Si Si7 0.777749 0.403936 0.681085
O O1 0.695222 0.945117 0.213694
O O2 0.412671 0.883243 0.563693
O O3 0.598240 0.942537 0.088002
O O4 0.702682 0.829651 0.067878
O O5 0.266452 0.562342 0.681425
O O6 0.135336 0.585003 0.603920
O O7 0.000000 0.500000 0.000000
O O8 0.997421 0.633831 0.038704
O O9 0.500000 0.500000 0.500000
O O10 0.566424 0.562190 0.161698
O O11 0.104428 0.261944 0.290276
O O12 0.022591 0.190274 0.170506
O O13 0.139083 0.106135 0.793779
O O14 0.855230 0.157890 0.165298
O O15 0.199865 0.972054 0.748049
#
# Coordination Sequence:
#
# PCOD8125694 Si02
#       7
#     4   4   4   4   4   4   4
#     4  10  20  44  62  89 124 167 201 261 311 375
#     4  12  22  39  66  96 129 168 204 265 308 371
#     4  11  22  34  61  99 127 153 205 258 313 366
#     4  11  25  44  63  86 131 166 215 250 323 373
#     4  11  25  42  63  92 120 171 209 261 307 383
#     4  10  20  41  65  91 126 163 205 256 320 369
#     4  11  21  40  69  94 129 159 214 259 318 366
#
# _framework density 19.63053
#
# number of rings (size 3 to 8) (size 9 to 14) (size 15 to 20)
#    0.000    1.143    4.286    3.000    6.000    1.143 
#    2.571    1.429    0.000    0.000    0.000    0.000 
#    0.000    0.000    0.000    0.000    0.000    0.000 
#
# Total GULP energy -347163.351257 kJ/mol
# GULP energy per Si atom -12398.691116 kJ/mol
# Density = 1.958585 g / cm^3
# Si number density = 19.630530 Si / 1000 Ang^3
#
#
#
# Elastic Constant Matrix: (Units=GPa)
#
#
# Indices 1 2 3 4 5 6 
#
# 1 104.3766 35.3122 36.5634 0.0000 2.8169 0.0000
# 2 35.3122 97.0019 48.7141 0.0000 3.0742 0.0000
# 3 36.5634 48.7141 113.7679 0.0000 0.3587 0.0000
# 4 0.0000 0.0000 0.0000 29.8628 0.0000 5.1573
# 5 2.8169 3.0742 0.3587 0.0000 22.5448 0.0000
# 6 0.0000 0.0000 0.0000 5.1573 0.0000 25.7785
#
#
#
# Elastic Compliance Matrix: (Units=1/GPa)
#
#
# Indices 1 2 3 4 5 6 
#
# 1 0.011444 -0.002916 -0.002426 0.000000 -0.000994 0.000000
# 2 -0.002916 0.013942 -0.005028 0.000000 -0.001457 0.000000
# 3 -0.002426 -0.005028 0.011720 0.000000 0.000802 0.000000
# 4 0.000000 0.000000 0.000000 0.034685 0.000000 -0.006939
# 5 -0.000994 -0.001457 0.000802 0.000000 0.044666 0.000000
# 6 0.000000 0.000000 0.000000 -0.006939 0.000000 0.040180
#
#
# Mechanical properties :
#
#
# Convention : Reuss Voigt Hill
#
# Bulk Modulus (GPa) = 61.10484 61.81397 61.45941
# Shear Modulus (GPa) = 27.34742 28.60766 27.97754
#
# Velocity S-wave (km/s) = 3.73648 3.82161 3.77928
# Velocity P-wave (km/s) = 7.05763 7.14353 7.10071
#
# Compressibility (1/GPa) = 0.01636532
#
# Stress axis : x y z
#
# Youngs Moduli (GPa) = 87.38232 71.72655 85.32475
#
# Poissons Ratio (x) = 0.20916 0.20701
# Poissons Ratio (y) = 0.25482 0.42901
# Poissons Ratio (z) = 0.21200 0.36064
#
# Static dielectric constant tensor:
#      x y z
#    x 3.550680 0.000000 -0.188260 
#    y 0.000000 3.416410 0.000000 
#    z -0.188260 0.000000 3.703270 
# 
# 
# High freq. dielectric constant tensor:
#      x y z
#    x 1.772980 0.000000 -0.002250 
#    y 0.000000 1.748490 0.000000 
#    z -0.002250 0.000000 1.775590 
# 
# From -- ./inp_files/16920.got.cif
#   From: 2010.03.12/outbox.cif.g09.slc.cpg/sg14_9_cif.got.tgz:16920.got - 2010.03.31 13:35:05.
