data_PCOD8125772
_publ_section_title
;
Structure prediction by ZEFSAII (Michael W. Deem and Ramdas Pophale) SiO2 
 PCOD8125772
Probable space group: P 21/C
;
_chemical_formula_sum "Si O2"
_cell_formula_units_Z 32
_cell_length_a 11.549337
_cell_length_b 17.179636
_cell_length_c 14.026501
_cell_angle_alpha 90.000000
_cell_angle_beta 32.762965
_cell_angle_gamma 90.000000
_cell_volume 1506.086357
_symmetry_space_group_name_H-M "P 21/C"
_symmetry_group_IT_number 14
_symmetry_cell_setting 'monoclinic'
loop_
_space_group_symop_operation_xyz
x,y,z
-x,1/2+y,1/2-z
-x,-y,-z
x,1/2-y,1/2+z
loop_
_atom_site_type_symbol
_atom_site_label
_atom_site_fract_x
_atom_site_fract_y
_atom_site_fract_z
Si Si1 0.272387 0.288622 0.092064
Si Si2 0.506494 0.046326 0.770096
Si Si3 0.979737 0.705389 0.983832
Si Si4 0.817713 0.579392 0.975783
Si Si5 0.830900 0.260853 0.452358
Si Si6 0.394334 0.843538 0.132172
Si Si7 0.760726 0.421731 0.437161
Si Si8 0.617413 0.681987 0.772060
O O1 0.406099 0.210874 0.986085
O O2 0.328724 0.356088 0.977476
O O3 0.027856 0.260954 0.240791
O O4 0.299571 0.325698 0.177994
O O5 0.629787 0.098624 0.761765
O O6 0.386593 0.098120 0.774179
O O7 0.680141 0.996067 0.593262
O O8 0.326412 0.996720 0.948660
O O9 0.079342 0.715506 0.018874
O O10 0.788488 0.765815 0.094556
O O11 0.888980 0.617942 0.027484
O O12 0.183078 0.711812 0.771183
O O13 0.018757 0.555994 0.769479
O O14 0.784551 0.353243 0.499918
O O15 0.618652 0.219509 0.561023
O O16 0.413784 0.891460 0.020245
#
# Coordination Sequence:
#
# PCOD8125772 Si02
#       8
#     4   4   4   4   4   4   4   4
#     4  10  23  42  70  94 130 174 232 279 313 392
#     4  12  25  40  67  99 140 174 213 271 354 403
#     4  10  22  40  69  94 127 170 232 269 314 392
#     4  10  24  43  62  98 140 176 217 275 335 394
#     4  10  20  42  68  94 126 175 225 277 318 382
#     4  11  22  41  67  99 126 176 225 274 332 381
#     4  10  23  42  62  98 138 169 218 274 333 397
#     4  11  22  43  66 100 126 176 228 269 333 401
#
# _framework density 21.247122000000001
#
# number of rings (size 3 to 8) (size 9 to 14) (size 15 to 20)
#    0.000    1.500    2.500    1.875    3.500    3.500 
#    2.250    5.625    0.000    0.000    0.000    0.000 
#    0.000    0.000    0.000    0.000    0.000    0.000 
#
# Total GULP energy -396566.767235 kJ/mol
# GULP energy per Si atom -12392.711476 kJ/mol
# Density = 2.119876 g / cm^3
# Si number density = 21.247122 Si / 1000 Ang^3
#
#
#
# Elastic Constant Matrix: (Units=GPa)
#
#
# Indices 1 2 3 4 5 6 
#
# 1 80.6430 41.1844 35.5149 0.0000 -2.1750 0.0000
# 2 41.1844 120.6132 73.2470 0.0000 3.7407 0.0000
# 3 35.5149 73.2470 111.2774 0.0000 -5.8087 0.0000
# 4 0.0000 0.0000 0.0000 42.7948 0.0000 9.3577
# 5 -2.1750 3.7407 -5.8087 0.0000 28.4111 0.0000
# 6 0.0000 0.0000 0.0000 9.3577 0.0000 41.3234
#
#
#
# Elastic Compliance Matrix: (Units=1/GPa)
#
#
# Indices 1 2 3 4 5 6 
#
# 1 0.015443 -0.003927 -0.002279 0.000000 0.001233 0.000000
# 2 -0.003927 0.015211 -0.008975 0.000000 -0.004138 0.000000
# 3 -0.002279 -0.008975 0.015843 0.000000 0.004246 0.000000
# 4 0.000000 0.000000 0.000000 0.024585 0.000000 -0.005567
# 5 0.001233 -0.004138 0.004246 0.000000 0.036705 0.000000
# 6 0.000000 0.000000 0.000000 -0.005567 0.000000 0.025460
#
#
# Mechanical properties :
#
#
# Convention : Reuss Voigt Hill
#
# Bulk Modulus (GPa) = 61.98026 68.04735 65.01380
# Shear Modulus (GPa) = 29.58801 33.34500 31.46651
#
# Velocity S-wave (km/s) = 3.73576 3.96585 3.85252
# Velocity P-wave (km/s) = 6.91681 7.28469 7.10314
#
# Compressibility (1/GPa) = 0.01613417
#
# Stress axis : x y z
#
# Youngs Moduli (GPa) = 64.75415 65.74363 63.11830
#
# Poissons Ratio (x) = 0.25819 0.14387
# Poissons Ratio (y) = 0.25430 0.56648
# Poissons Ratio (z) = 0.14760 0.59004
#
# Static dielectric constant tensor:
#      x y z
#    x 4.019770 0.000000 -0.060190 
#    y 0.000000 3.786900 0.000000 
#    z -0.060190 0.000000 4.024930 
# 
# 
# High freq. dielectric constant tensor:
#      x y z
#    x 1.840990 0.000000 -0.005880 
#    y 0.000000 1.818690 0.000000 
#    z -0.005880 0.000000 1.840870 
# 
# From -- ./inp_files/45442.got.cif
#   From: 2010.03.12/outbox.cif.g09.slc.cpg/sg14_23_cif.got.tgz:45442.got - 2010.03.31 13:35:05.
