data_PCOD8125890
_publ_section_title
;
Structure prediction by ZEFSAII (Michael W. Deem and Ramdas Pophale) SiO2 
 PCOD8125890
Probable space group: P 21/C
;
_chemical_formula_sum "Si O2"
_cell_formula_units_Z 20
_cell_length_a 18.065060
_cell_length_b 9.284090
_cell_length_c 9.916104
_cell_angle_alpha 90.000000
_cell_angle_beta 39.247656
_cell_angle_gamma 90.000000
_cell_volume 1052.203079
_symmetry_space_group_name_H-M "P 21/C"
_symmetry_group_IT_number 14
_symmetry_cell_setting 'monoclinic'
loop_
_space_group_symop_operation_xyz
x,y,z
-x,1/2+y,1/2-z
-x,-y,-z
x,1/2-y,1/2+z
loop_
_atom_site_type_symbol
_atom_site_label
_atom_site_fract_x
_atom_site_fract_y
_atom_site_fract_z
Si Si1 0.200819 0.746507 0.323222
Si Si2 0.914249 0.138121 0.260414
Si Si3 0.585062 0.631811 0.035913
Si Si4 0.159732 0.065824 0.849584
Si Si5 0.540276 0.196056 0.561390
O O1 0.140161 0.761922 0.261129
O O2 0.138974 0.852878 0.515554
O O3 0.186268 0.581137 0.396265
O O4 0.337952 0.783813 0.117930
O O5 0.881268 0.980653 0.244713
O O6 0.055307 0.154834 0.068027
O O7 0.548096 0.717837 0.220034
O O8 0.562204 0.462430 0.091451
O O9 0.723357 0.661748 0.819661
O O10 0.513261 0.690741 0.011299
#
# Coordination Sequence:
#
# PCOD8125890 Si02
#       5
#     4   4   4   4   4
#     4   9  17  33  54  72 100 141 170 215 267 319
#     4   9  17  34  54  72  99 139 171 215 266 317
#     4  10  21  38  54  81 111 146 176 227 267 322
#     4   8  19  35  52  72 109 134 173 222 269 307
#     4  10  21  36  57  79 113 142 182 219 273 319
#
# _framework density 19.007738
#
# number of rings (size 3 to 8) (size 9 to 14) (size 15 to 20)
#    1.200    1.600    0.000    1.200    0.000    2.400 
#    0.000    1.000    0.000    0.000    0.000    0.000 
#    0.000    0.000    0.000    0.000    0.000    0.000 
#
# Total GULP energy -247878.731370 kJ/mol
# GULP energy per Si atom -12393.936568 kJ/mol
# Density = 1.896448 g / cm^3
# Si number density = 19.007738 Si / 1000 Ang^3
#
#
#
# Elastic Constant Matrix: (Units=GPa)
#
#
# Indices 1 2 3 4 5 6 
#
# 1 37.5713 -1.5485 21.4474 0.0000 -19.2192 0.0000
# 2 -1.5485 26.0010 23.8238 0.0000 0.1981 0.0000
# 3 21.4474 23.8238 102.6246 0.0000 -28.7141 0.0000
# 4 0.0000 0.0000 0.0000 33.1463 0.0000 4.5883
# 5 -19.2192 0.1981 -28.7141 0.0000 43.5143 0.0000
# 6 0.0000 0.0000 0.0000 4.5883 0.0000 6.8505
#
#
#
# Elastic Compliance Matrix: (Units=1/GPa)
#
#
# Indices 1 2 3 4 5 6 
#
# 1 0.036575 0.007586 -0.006003 0.000000 0.012159 0.000000
# 2 0.007586 0.053813 -0.016200 0.000000 -0.007584 0.000000
# 3 -0.006003 -0.016200 0.017217 0.000000 0.008784 0.000000
# 4 0.000000 0.000000 0.000000 0.033252 0.000000 -0.022272
# 5 0.012159 -0.007584 0.008784 0.000000 0.034182 0.000000
# 6 0.000000 0.000000 0.000000 -0.022272 0.000000 0.160893
#
#
# Mechanical properties :
#
#
# Convention : Reuss Voigt Hill
#
# Bulk Modulus (GPa) = 12.75974 28.18246 20.47110
# Shear Modulus (GPa) = 12.77825 24.86716 18.82271
#
# Velocity S-wave (km/s) = 2.59562 3.62092 3.15026
# Velocity P-wave (km/s) = 3.96365 5.68686 4.90158
#
# Compressibility (1/GPa) = 0.07837151
#
# Stress axis : x y z
#
# Youngs Moduli (GPa) = 27.34103 18.58286 58.08170
#
# Poissons Ratio (x) = -0.14097 0.34866
# Poissons Ratio (y) = -0.20741 0.94092
# Poissons Ratio (z) = 0.16412 0.30104
#
# Static dielectric constant tensor:
#      x y z
#    x 3.407750 0.000000 -0.258310 
#    y 0.000000 3.045300 0.000000 
#    z -0.258310 0.000000 3.356240 
# 
# 
# High freq. dielectric constant tensor:
#      x y z
#    x 1.737860 0.000000 -0.019860 
#    y 0.000000 1.688900 0.000000 
#    z -0.019860 0.000000 1.743500 
# 
# From -- ./inp_files/17653.got.cif
#   From: 2010.03.12/outbox.cif.g09.slc.cpg/sg14_9_cif.got.tgz:17653.got - 2010.03.31 13:35:05.
