data_PCOD8125009
_publ_section_title
;
Structure prediction by ZEFSAII (Michael W. Deem and Ramdas Pophale) SiO2 
 PCOD8125009
Probable space group: P 21/C
;
_chemical_formula_sum "Si O2"
_cell_formula_units_Z 28
_cell_length_a 7.763142
_cell_length_b 10.552463
_cell_length_c 18.921628
_cell_angle_alpha 90.000000
_cell_angle_beta 66.039305
_cell_angle_gamma 90.000000
_cell_volume 1416.486872
_symmetry_space_group_name_H-M "P 21/C"
_symmetry_group_IT_number 14
_symmetry_cell_setting 'monoclinic'
loop_
_space_group_symop_operation_xyz
x,y,z
-x,1/2+y,1/2-z
-x,-y,-z
x,1/2-y,1/2+z
loop_
_atom_site_type_symbol
_atom_site_label
_atom_site_fract_x
_atom_site_fract_y
_atom_site_fract_z
Si Si1 0.518884 0.139034 0.150801
Si Si2 0.112268 0.644605 0.048309
Si Si3 0.749954 0.856932 0.682372
Si Si4 0.518747 0.860871 0.150781
Si Si5 0.112472 0.144529 0.548325
Si Si6 0.249874 0.643165 0.817610
Si Si7 0.500058 0.286619 0.500019
O O1 0.322248 0.163778 0.225586
O O2 0.657778 0.254084 0.145267
O O3 0.482739 0.129820 0.073309
O O4 0.599876 0.999922 0.160088
O O5 0.156997 0.500042 0.023597
O O6 0.976193 0.660752 0.139840
O O7 0.311271 0.705859 0.029571
O O8 0.999859 0.704471 0.999997
O O9 0.657468 0.754288 0.645243
O O10 0.698067 0.000076 0.664601
O O11 0.322062 0.836193 0.225559
O O12 0.482763 0.870173 0.073254
O O13 0.311585 0.205634 0.529588
O O14 0.976392 0.160722 0.639855
#
# Coordination Sequence:
#
# PCOD8125009 Si02
#       7
#     4   4   4   4   4   4   4
#     4  10  21  37  58  86 119 153 190 235 287 345
#     4  10  20  36  58  87 117 149 193 242 284 332
#     4   9  19  39  62  82 113 154 196 239 282 334
#     4  10  21  37  58  86 119 153 190 235 287 345
#     4  10  20  36  58  87 117 149 193 242 284 332
#     4   9  19  39  62  82 113 154 196 239 282 334
#     4  12  22  34  58  88 119 152 187 234 291 350
#
# _framework density 19.767216000000001
#
# number of rings (size 3 to 8) (size 9 to 14) (size 15 to 20)
#    0.000    2.000    2.857    0.857    0.000    2.286 
#    0.000    4.286    0.000    0.000    0.000    0.000 
#    0.000    0.000    0.000    0.000    0.000    0.000 
#
# Total GULP energy -346870.252682 kJ/mol
# GULP energy per Si atom -12388.223310 kJ/mol
# Density = 1.972222 g / cm^3
# Si number density = 19.767216 Si / 1000 Ang^3
#
#
#
# Elastic Constant Matrix: (Units=GPa)
#
#
# Indices 1 2 3 4 5 6 
#
# 1 101.9378 53.9706 46.6233 0.0000 -24.2929 0.0000
# 2 53.9706 106.2413 41.5140 0.0000 -10.4892 0.0000
# 3 46.6233 41.5140 136.1984 0.0000 -6.6881 0.0000
# 4 0.0000 0.0000 0.0000 15.1009 0.0000 16.3783
# 5 -24.2929 -10.4892 -6.6881 0.0000 36.0276 0.0000
# 6 0.0000 0.0000 0.0000 16.3783 0.0000 -14.4131
#
#
#
# Elastic Compliance Matrix: (Units=1/GPa)
#
#
# Indices 1 2 3 4 5 6 
#
# 1 0.016840 -0.006353 -0.003392 0.000000 0.008876 0.000000
# 2 -0.006353 0.013315 -0.001921 0.000000 -0.000764 0.000000
# 3 -0.003392 -0.001921 0.009032 0.000000 -0.001170 0.000000
# 4 0.000000 0.000000 0.000000 0.029663 0.000000 0.033707
# 5 0.008876 -0.000764 -0.001170 0.000000 0.033302 0.000000
# 6 0.000000 0.000000 0.000000 0.033707 0.000000 -0.031078
#
#
# Mechanical properties :
#
#
# Convention : Reuss Voigt Hill
#
# Bulk Modulus (GPa) = 63.07686 69.84371 66.46028
# Shear Modulus (GPa) = 50.15487 20.82774 35.49130
#
# Velocity S-wave (km/s) = 5.04260 3.24952 4.24189
# Velocity P-wave (km/s) = 8.11683 7.03484 7.59513
#
# Compressibility (1/GPa) = 0.01585368
#
# Stress axis : x y z
#
# Youngs Moduli (GPa) = 59.38156 75.10227 110.72111
#
# Poissons Ratio (x) = 0.47712 0.37562
# Poissons Ratio (y) = 0.37725 0.21273
# Poissons Ratio (z) = 0.20145 0.14429
#
# Static dielectric constant tensor:
#      x y z
#    x 3.250730 0.000000 -0.174570 
#    y 0.000000 3.577940 0.000000 
#    z -0.174570 0.000000 4.110600 
# 
# 
# High freq. dielectric constant tensor:
#      x y z
#    x 1.726070 0.000000 -0.022670 
#    y 0.000000 1.769430 0.000000 
#    z -0.022670 0.000000 1.801470 
# 
# From -- ./inp_files/65205.got.cif
#   From: 2010.03.12/outbox.cif.g09.slc.cpg/sg14_33_cif.got.tgz:65205.got - 2010.03.31 13:35:05.
