data_PCOD8125216
_publ_section_title
;
Structure prediction by ZEFSAII (Michael W. Deem and Ramdas Pophale) SiO2 
 PCOD8125216
Probable space group: P 21/C
;
_chemical_formula_sum "Si O2"
_cell_formula_units_Z 20
_cell_length_a 9.089150
_cell_length_b 8.043723
_cell_length_c 22.505687
_cell_angle_alpha 90.000000
_cell_angle_beta 31.444060
_cell_angle_gamma 90.000000
_cell_volume 858.351282
_symmetry_space_group_name_H-M "P 21/C"
_symmetry_group_IT_number 14
_symmetry_cell_setting 'monoclinic'
loop_
_space_group_symop_operation_xyz
x,y,z
-x,1/2+y,1/2-z
-x,-y,-z
x,1/2-y,1/2+z
loop_
_atom_site_type_symbol
_atom_site_label
_atom_site_fract_x
_atom_site_fract_y
_atom_site_fract_z
Si Si1 0.015466 0.035371 0.257551
Si Si2 0.009687 0.745428 0.339655
Si Si3 0.545781 0.025377 0.267714
Si Si4 0.128684 0.304059 0.832292
Si Si5 0.629832 0.508397 0.039685
O O1 0.096271 0.080176 0.161507
O O2 0.128556 0.187326 0.260404
O O3 0.680557 0.003265 0.380995
O O4 0.143200 0.865696 0.241832
O O5 0.256053 0.688366 0.299140
O O6 0.773314 0.828210 0.461520
O O7 0.323278 0.045327 0.290998
O O8 0.751768 0.869026 0.185477
O O9 0.373591 0.016304 0.388149
O O10 0.807705 0.341508 0.963325
#
# Coordination Sequence:
#
# PCOD8125216 Si02
#       5
#     4   4   4   4   4
#     4  10  20  37  62  90 121 158 198 246 298 353
#     4  10  20  39  61  88 120 157 200 244 296 355
#     4  11  24  41  62  89 122 161 201 249 300 357
#     4  11  21  39  62  88 121 159 201 247 298 356
#     4  10  22  42  63  87 123 161 195 248 306 353
#
# _framework density 23.300483
#
# number of rings (size 3 to 8) (size 9 to 14) (size 15 to 20)
#    0.000    1.600    0.000    7.800    0.000    0.000 
#    0.000   28.000    0.000    0.000    0.000    0.000 
#    0.000    0.000    0.000    0.000    0.000    0.000 
#
# Total GULP energy -247843.534068 kJ/mol
# GULP energy per Si atom -12392.176703 kJ/mol
# Density = 2.324745 g / cm^3
# Si number density = 23.300483 Si / 1000 Ang^3
#
#
#
# Elastic Constant Matrix: (Units=GPa)
#
#
# Indices 1 2 3 4 5 6 
#
# 1 86.2019 -8.1235 33.7770 0.0000 -1.6525 0.0000
# 2 -8.1235 75.0585 43.0309 0.0000 -4.7897 0.0000
# 3 33.7770 43.0309 91.3566 0.0000 3.4318 0.0000
# 4 0.0000 0.0000 0.0000 30.7184 0.0000 -6.4598
# 5 -1.6525 -4.7897 3.4318 0.0000 26.8638 0.0000
# 6 0.0000 0.0000 0.0000 -6.4598 0.0000 42.1720
#
#
#
# Elastic Compliance Matrix: (Units=1/GPa)
#
#
# Indices 1 2 3 4 5 6 
#
# 1 0.016153 0.007502 -0.009640 0.000000 0.003563 0.000000
# 2 0.007502 0.022262 -0.013491 0.000000 0.006154 0.000000
# 3 -0.009640 -0.013491 0.021078 0.000000 -0.005691 0.000000
# 4 0.000000 0.000000 0.000000 0.033637 0.000000 0.005152
# 5 0.003563 0.006154 -0.005691 0.000000 0.039268 0.000000
# 6 0.000000 0.000000 0.000000 0.005152 0.000000 0.024502
#
#
# Mechanical properties :
#
#
# Convention : Reuss Voigt Hill
#
# Bulk Modulus (GPa) = 35.41511 43.33176 39.37344
# Shear Modulus (GPa) = 25.30763 32.21303 28.76033
#
# Velocity S-wave (km/s) = 3.29924 3.72224 3.51711
# Velocity P-wave (km/s) = 5.45396 6.09186 5.78171
#
# Compressibility (1/GPa) = 0.02823654
#
# Stress axis : x y z
#
# Youngs Moduli (GPa) = 61.90764 44.92021 47.44219
#
# Poissons Ratio (x) = -0.33699 0.45733
# Poissons Ratio (y) = -0.46443 0.64002
# Poissons Ratio (z) = 0.59677 0.60600
#
# Static dielectric constant tensor:
#      x y z
#    x 4.489270 0.000000 -0.107160 
#    y 0.000000 4.174180 0.000000 
#    z -0.107160 0.000000 3.763860 
# 
# 
# High freq. dielectric constant tensor:
#      x y z
#    x 1.951900 0.000000 -0.010040 
#    y 0.000000 1.922560 0.000000 
#    z -0.010040 0.000000 1.880670 
# 
# From -- ./inp_files/36402.got.cif
#   From: 2010.03.12/outbox.cif.g09.slc.cpg/sg14_19_cif.got.tgz:36402.got - 2010.03.31 13:35:05.
