data_PCOD8125603
_publ_section_title
;
Structure prediction by ZEFSAII (Michael W. Deem and Ramdas Pophale) SiO2 
 PCOD8125603
Probable space group: P 21/C
;
_chemical_formula_sum "Si O2"
_cell_formula_units_Z 32
_cell_length_a 9.082802
_cell_length_b 25.748840
_cell_length_c 8.474058
_cell_angle_alpha 90.000000
_cell_angle_beta 48.015137
_cell_angle_gamma 90.000000
_cell_volume 1473.145650
_symmetry_space_group_name_H-M "P 21/C"
_symmetry_group_IT_number 14
_symmetry_cell_setting 'monoclinic'
loop_
_space_group_symop_operation_xyz
x,y,z
-x,1/2+y,1/2-z
-x,-y,-z
x,1/2-y,1/2+z
loop_
_atom_site_type_symbol
_atom_site_label
_atom_site_fract_x
_atom_site_fract_y
_atom_site_fract_z
Si Si1 0.548403 0.634780 0.016232
Si Si2 0.783167 0.416917 0.213514
Si Si3 0.418863 0.728427 0.908325
Si Si4 0.422342 0.948594 0.839346
Si Si5 0.761686 0.691637 0.131862
Si Si6 0.198925 0.083928 0.256565
Si Si7 0.390669 0.062471 0.806086
Si Si8 0.805296 0.299334 0.229271
O O1 0.405543 0.601013 0.234428
O O2 0.714880 0.665359 0.995924
O O3 0.418329 0.677388 0.018189
O O4 0.656621 0.595689 0.816627
O O5 0.740522 0.449996 0.402576
O O6 0.603537 0.420055 0.219900
O O7 0.803803 0.359662 0.269574
O O8 0.984762 0.432564 0.978556
O O9 0.620895 0.760676 0.775328
O O10 0.372948 0.712206 0.763915
O O11 0.239378 0.766171 0.083837
O O12 0.640113 0.949629 0.762751
O O13 0.394700 0.001363 0.759779
O O14 0.751229 0.645279 0.266803
O O15 0.977931 0.717057 0.984044
O O16 0.215906 0.072066 0.058446
#
# Coordination Sequence:
#
# PCOD8125603 Si02
#       8
#     4   4   4   4   4   4   4   4
#     4  11  23  42  62  93 134 167 203 271 319 366
#     4  10  20  40  64  92 129 163 212 261 311 385
#     4  12  23  41  64  91 127 167 214 256 313 380
#     4  10  22  39  63  89 127 170 212 259 321 374
#     4  10  24  43  63  93 130 167 206 261 316 381
#     4   9  20  39  65  94 125 165 210 261 316 373
#     4  11  21  38  64  94 122 168 216 260 318 377
#     4  11  24  40  65  94 123 168 211 255 318 383
#
# _framework density 21.722223
#
# number of rings (size 3 to 8) (size 9 to 14) (size 15 to 20)
#    0.000    1.500    2.500    4.125    1.750    2.000 
#    2.250    5.000    0.000    9.000    0.000    0.000 
#    0.000    0.000    0.000    0.000    0.000    0.000 
#
# Total GULP energy -396749.711202 kJ/mol
# GULP energy per Si atom -12398.428475 kJ/mol
# Density = 2.167278 g / cm^3
# Si number density = 21.722223 Si / 1000 Ang^3
#
#
#
# Elastic Constant Matrix: (Units=GPa)
#
#
# Indices 1 2 3 4 5 6 
#
# 1 45.3395 18.9534 32.5634 0.0000 -1.9460 0.0000
# 2 18.9534 87.1348 39.5465 0.0000 -7.2108 0.0000
# 3 32.5634 39.5465 130.8288 0.0000 -9.8782 0.0000
# 4 0.0000 0.0000 0.0000 25.6359 0.0000 12.3144
# 5 -1.9460 -7.2108 -9.8782 0.0000 35.5837 0.0000
# 6 0.0000 0.0000 0.0000 12.3144 0.0000 27.4876
#
#
#
# Elastic Compliance Matrix: (Units=1/GPa)
#
#
# Indices 1 2 3 4 5 6 
#
# 1 0.027701 -0.003403 -0.005928 0.000000 -0.000820 0.000000
# 2 -0.003403 0.013811 -0.003197 0.000000 0.001725 0.000000
# 3 -0.005928 -0.003197 0.010227 0.000000 0.001867 0.000000
# 4 0.000000 0.000000 0.000000 0.049704 0.000000 -0.022267
# 5 -0.000820 0.001725 0.001867 0.000000 0.028926 0.000000
# 6 0.000000 0.000000 0.000000 -0.022267 0.000000 0.046356
#
#
# Mechanical properties :
#
#
# Convention : Reuss Voigt Hill
#
# Bulk Modulus (GPa) = 37.47958 49.49219 43.48588
# Shear Modulus (GPa) = 23.73340 29.22410 26.47875
#
# Velocity S-wave (km/s) = 3.30902 3.67189 3.49516
# Velocity P-wave (km/s) = 5.64720 6.38832 6.02916
#
# Compressibility (1/GPa) = 0.02668120
#
# Stress axis : x y z
#
# Youngs Moduli (GPa) = 36.10018 72.40847 97.78488
#
# Poissons Ratio (x) = 0.24639 0.57968
# Poissons Ratio (y) = 0.12284 0.31266
# Poissons Ratio (z) = 0.21400 0.23152
#
# Static dielectric constant tensor:
#      x y z
#    x 3.721020 0.000000 0.024200 
#    y 0.000000 4.081970 0.000000 
#    z 0.024200 0.000000 4.017710 
# 
# 
# High freq. dielectric constant tensor:
#      x y z
#    x 1.824460 0.000000 0.007140 
#    y 0.000000 1.870100 0.000000 
#    z 0.007140 0.000000 1.853150 
# 
# From -- ./inp_files/11043.got.cif
#   From: 2010.03.12/outbox.cif.g09.slc.cpg/sg14_6_cif.got.tgz:11043.got - 2010.03.31 13:35:05.
