data_PCOD8125835
_publ_section_title
;
Structure prediction by ZEFSAII (Michael W. Deem and Ramdas Pophale) SiO2 
 PCOD8125835
Probable space group: P 21/C
;
_chemical_formula_sum "Si O2"
_cell_formula_units_Z 32
_cell_length_a 9.985466
_cell_length_b 13.322496
_cell_length_c 26.714493
_cell_angle_alpha 90.000000
_cell_angle_beta 29.422997
_cell_angle_gamma 90.000000
_cell_volume 1745.848033
_symmetry_space_group_name_H-M "P 21/C"
_symmetry_group_IT_number 14
_symmetry_cell_setting 'monoclinic'
loop_
_space_group_symop_operation_xyz
x,y,z
-x,1/2+y,1/2-z
-x,-y,-z
x,1/2-y,1/2+z
loop_
_atom_site_type_symbol
_atom_site_label
_atom_site_fract_x
_atom_site_fract_y
_atom_site_fract_z
Si Si1 0.736770 0.637711 0.484228
Si Si2 0.408676 0.424269 0.731056
Si Si3 0.434876 0.391272 0.255590
Si Si4 0.031099 0.281854 0.912139
Si Si5 0.692013 0.528858 0.344384
Si Si6 0.857003 0.256207 0.577878
Si Si7 0.023996 0.485005 0.324957
Si Si8 0.402144 0.679803 0.504514
O O1 0.533473 0.558918 0.576852
O O2 0.577234 0.709800 0.496646
O O3 0.871579 0.708095 0.482155
O O4 0.978016 0.583145 0.374503
O O5 0.532305 0.524382 0.713586
O O6 0.204811 0.377066 0.838027
O O7 0.243156 0.453953 0.734986
O O8 0.651397 0.348854 0.636814
O O9 0.203287 0.319624 0.352839
O O10 0.714087 0.332211 0.155865
O O11 0.322780 0.439782 0.239746
O O12 0.940118 0.294646 0.998716
O O13 0.767314 0.273815 0.961638
O O14 0.589346 0.634967 0.399656
O O15 0.976834 0.504772 0.280963
O O16 0.787173 0.410137 0.416763
#
# Coordination Sequence:
#
# PCOD8125835 Si02
#       8
#     4   4   4   4   4   4   4   4
#     4   9  16  29  56  82 101 129 174 223 267 303
#     4  11  21  34  54  78 107 142 177 221 262 320
#     4  10  21  35  53  79 110 137 179 220 263 319
#     4  10  21  35  53  79 108 140 181 214 264 319
#     4   9  16  29  56  81  98 134 175 219 273 298
#     4  11  21  34  54  78 107 146 172 219 275 307
#     4   8  15  30  52  80 104 127 169 223 264 312
#     4   8  15  30  52  79 103 127 169 223 265 310
#
# _framework density 18.329201000000001
#
# number of rings (size 3 to 8) (size 9 to 14) (size 15 to 20)
#    0.000    2.500    2.500    2.250    0.000    1.500 
#    0.000    2.500    8.250    1.500    0.000    0.000 
#    0.000    0.000    0.000    0.000    0.000    0.000 
#
# Total GULP energy -396621.362401 kJ/mol
# GULP energy per Si atom -12394.417575 kJ/mol
# Density = 1.828748 g / cm^3
# Si number density = 18.329201 Si / 1000 Ang^3
#
#
#
# Elastic Constant Matrix: (Units=GPa)
#
#
# Indices 1 2 3 4 5 6 
#
# 1 112.5206 22.9919 19.1914 0.0000 8.2943 0.0000
# 2 22.9919 42.9165 11.1709 0.0000 3.9923 0.0000
# 3 19.1914 11.1709 38.9040 0.0000 10.5720 0.0000
# 4 0.0000 0.0000 0.0000 11.0681 0.0000 1.1849
# 5 8.2943 3.9923 10.5720 0.0000 23.0267 0.0000
# 6 0.0000 0.0000 0.0000 1.1849 0.0000 18.8288
#
#
#
# Elastic Compliance Matrix: (Units=1/GPa)
#
#
# Indices 1 2 3 4 5 6 
#
# 1 0.010526 -0.004600 -0.003494 0.000000 -0.001390 0.000000
# 2 -0.004600 0.027223 -0.005387 0.000000 -0.000589 0.000000
# 3 -0.003494 -0.005387 0.032424 0.000000 -0.012694 0.000000
# 4 0.000000 0.000000 0.000000 0.090962 0.000000 -0.005724
# 5 -0.001390 -0.000589 -0.012694 0.000000 0.049859 0.000000
# 6 0.000000 0.000000 0.000000 -0.005724 0.000000 0.053470
#
#
# Mechanical properties :
#
#
# Convention : Reuss Voigt Hill
#
# Bulk Modulus (GPa) = 23.14278 33.44994 28.29636
# Shear Modulus (GPa) = 16.34896 19.98384 18.16640
#
# Velocity S-wave (km/s) = 2.98981 3.30551 3.15162
# Velocity P-wave (km/s) = 4.95704 5.73216 5.35863
#
# Compressibility (1/GPa) = 0.04321003
#
# Stress axis : x y z
#
# Youngs Moduli (GPa) = 95.00662 36.73409 30.84111
#
# Poissons Ratio (x) = 0.16899 0.10775
# Poissons Ratio (y) = 0.43705 0.16615
# Poissons Ratio (z) = 0.33193 0.19790
#
# Static dielectric constant tensor:
#      x y z
#    x 3.647140 0.000000 -0.203810 
#    y 0.000000 3.139700 0.000000 
#    z -0.203810 0.000000 3.064040 
# 
# 
# High freq. dielectric constant tensor:
#      x y z
#    x 1.727760 0.000000 -0.008180 
#    y 0.000000 1.680540 0.000000 
#    z -0.008180 0.000000 1.674200 
# 
# From -- ./inp_files/40939.got.cif
#   From: 2010.03.12/outbox.cif.g09.slc.cpg/sg14_21_cif.got.tgz:40939.got - 2010.03.31 13:35:05.
