data_PCOD8125693
_publ_section_title
;
Structure prediction by ZEFSAII (Michael W. Deem and Ramdas Pophale) SiO2 
 PCOD8125693
Probable space group: P 21/C
;
_chemical_formula_sum "Si O2"
_cell_formula_units_Z 32
_cell_length_a 8.658092
_cell_length_b 8.704890
_cell_length_c 21.842421
_cell_angle_alpha 90.000000
_cell_angle_beta 86.829220
_cell_angle_gamma 90.000000
_cell_volume 1643.693689
_symmetry_space_group_name_H-M "P 21/C"
_symmetry_group_IT_number 14
_symmetry_cell_setting 'monoclinic'
loop_
_space_group_symop_operation_xyz
x,y,z
-x,1/2+y,1/2-z
-x,-y,-z
x,1/2-y,1/2+z
loop_
_atom_site_type_symbol
_atom_site_label
_atom_site_fract_x
_atom_site_fract_y
_atom_site_fract_z
Si Si1 0.936686 0.394329 0.054118
Si Si2 0.161194 0.304593 0.152635
Si Si3 0.052213 0.751034 0.729358
Si Si4 0.747731 0.462749 0.357940
Si Si5 0.153053 0.174341 0.377894
Si Si6 0.329826 0.532269 0.222703
Si Si7 0.451740 0.200676 0.819387
Si Si8 0.923372 0.140756 0.968315
O O1 0.826662 0.497154 0.100052
O O2 0.080245 0.327613 0.089515
O O3 0.850123 0.251800 0.022687
O O4 0.000000 0.500000 0.000000
O O5 0.282224 0.444548 0.160830
O O6 0.035371 0.310348 0.209564
O O7 0.253222 0.144978 0.149954
O O8 0.132905 0.607210 0.693784
O O9 0.182325 0.870784 0.749276
O O10 0.932359 0.831908 0.685728
O O11 0.575903 0.401445 0.351744
O O12 0.789635 0.414017 0.425909
O O13 0.321595 0.248808 0.370183
O O14 0.055993 0.270997 0.428460
O O15 0.474488 0.644565 0.210095
O O16 0.370723 0.399881 0.269334
O O17 0.000000 0.000000 0.000000
#
# Coordination Sequence:
#
# PCOD8125693 Si02
#       8
#     4   4   4   4   4   4   4   4
#     4  10  22  37  63  88 118 158 214 262 299 347
#     4  12  20  36  65  94 118 160 208 261 305 367
#     4  10  21  36  62  94 121 152 208 255 313 361
#     4  10  23  38  61  91 128 162 197 260 316 380
#     4  10  21  39  62  88 125 158 201 259 301 377
#     4  11  23  38  59  89 133 161 195 245 313 391
#     4  11  24  40  57  91 134 168 191 243 328 381
#     4  10  20  41  65  91 114 158 218 267 299 347
#
# _framework density 19.468347999999999
#
# number of rings (size 3 to 8) (size 9 to 14) (size 15 to 20)
#    0.000    1.500    3.750    1.500    3.500    1.000 
#    0.000    2.500    0.000    0.000    0.000    0.000 
#    0.000    0.000    0.000    0.000    0.000    0.000 
#
# Total GULP energy -396774.376788 kJ/mol
# GULP energy per Si atom -12399.199275 kJ/mol
# Density = 1.942404 g / cm^3
# Si number density = 19.468348 Si / 1000 Ang^3
#
#
#
# Elastic Constant Matrix: (Units=GPa)
#
#
# Indices 1 2 3 4 5 6 
#
# 1 80.5676 25.3608 29.9576 0.0000 0.9149 0.0000
# 2 25.3608 109.1709 30.1243 0.0000 4.6348 0.0000
# 3 29.9576 30.1243 82.1053 0.0000 15.8501 0.0000
# 4 0.0000 0.0000 0.0000 31.0566 0.0000 14.8269
# 5 0.9149 4.6348 15.8501 0.0000 23.7652 0.0000
# 6 0.0000 0.0000 0.0000 14.8269 0.0000 36.0423
#
#
#
# Elastic Compliance Matrix: (Units=1/GPa)
#
#
# Indices 1 2 3 4 5 6 
#
# 1 0.015045 -0.002162 -0.005355 0.000000 0.003414 0.000000
# 2 -0.002162 0.010510 -0.003085 0.000000 0.000091 0.000000
# 3 -0.005355 -0.003085 0.017342 0.000000 -0.010758 0.000000
# 4 0.000000 0.000000 0.000000 0.040069 0.000000 -0.016483
# 5 0.003414 0.000091 -0.010758 0.000000 0.049105 0.000000
# 6 0.000000 0.000000 0.000000 -0.016483 0.000000 0.034526
#
#
# Mechanical properties :
#
#
# Convention : Reuss Voigt Hill
#
# Bulk Modulus (GPa) = 46.09871 49.19214 47.64542
# Shear Modulus (GPa) = 25.63701 30.59955 28.11828
#
# Velocity S-wave (km/s) = 3.63279 3.96884 3.80453
# Velocity P-wave (km/s) = 6.42856 6.80624 6.62009
#
# Compressibility (1/GPa) = 0.02169258
#
# Stress axis : x y z
#
# Youngs Moduli (GPa) = 66.46708 95.15171 57.66347
#
# Poissons Ratio (x) = 0.20574 0.30880
# Poissons Ratio (y) = 0.14372 0.17786
# Poissons Ratio (z) = 0.35594 0.29350
#
# Static dielectric constant tensor:
#      x y z
#    x 4.507200 0.000000 0.982540 
#    y 0.000000 4.010610 0.000000 
#    z 0.982540 0.000000 4.557950 
# 
# 
# High freq. dielectric constant tensor:
#      x y z
#    x 1.736160 0.000000 0.021440 
#    y 0.000000 1.785110 0.000000 
#    z 0.021440 0.000000 1.752020 
# 
# From -- ./inp_files/64804.got.cif
#   From: 2010.03.12/outbox.cif.g09.slc.cpg/sg14_33_cif.got.tgz:64804.got - 2010.03.31 13:35:05.
