data_PCOD8125335
_publ_section_title
;
Structure prediction by ZEFSAII (Michael W. Deem and Ramdas Pophale) SiO2 
 PCOD8125335
Probable space group: P 21/C
;
_chemical_formula_sum "Si O2"
_cell_formula_units_Z 28
_cell_length_a 8.399695
_cell_length_b 17.197671
_cell_length_c 18.032975
_cell_angle_alpha 90.000000
_cell_angle_beta 146.958543
_cell_angle_gamma 90.000000
_cell_volume 1420.341578
_symmetry_space_group_name_H-M "P 21/C"
_symmetry_group_IT_number 14
_symmetry_cell_setting 'monoclinic'
loop_
_space_group_symop_operation_xyz
x,y,z
-x,1/2+y,1/2-z
-x,-y,-z
x,1/2-y,1/2+z
loop_
_atom_site_type_symbol
_atom_site_label
_atom_site_fract_x
_atom_site_fract_y
_atom_site_fract_z
Si Si1 0.985204 0.390610 0.448250
Si Si2 0.909939 0.757760 0.605439
Si Si3 0.882449 0.611271 0.820366
Si Si4 0.515980 0.986153 0.790212
Si Si5 0.253346 0.780175 0.381738
Si Si6 0.812269 0.354163 0.913386
Si Si7 0.661458 0.207605 0.933147
O O1 0.708536 0.447232 0.323899
O O2 0.920590 0.343279 0.498317
O O3 0.035392 0.329917 0.401968
O O4 0.280473 0.439788 0.572877
O O5 0.573992 0.783554 0.472272
O O6 0.033467 0.757201 0.736502
O O7 0.064545 0.823451 0.616498
O O8 0.750831 0.523951 0.765647
O O9 0.648251 0.668236 0.693481
O O10 0.162782 0.632893 0.877992
O O11 0.933792 0.627382 0.927906
O O12 0.381732 0.930619 0.675272
O O13 0.245850 0.719436 0.446240
O O14 0.610608 0.288064 0.869895
#
# Coordination Sequence:
#
# PCOD8125335 Si02
#       7
#     4   4   4   4   4   4   4
#     4   9  21  38  65  87 118 155 210 250 289 359
#     4  11  23  38  64  94 118 155 207 253 291 348
#     4  10  21  39  57  89 122 162 195 250 297 370
#     4  10  20  38  61  89 118 158 200 250 308 350
#     4  11  22  38  60  87 126 157 195 249 303 352
#     4  10  22  34  65  87 117 151 207 256 295 348
#     4   9  20  37  62  87 116 156 209 245 297 350
#
# _framework density 19.713567000000001
#
# number of rings (size 3 to 8) (size 9 to 14) (size 15 to 20)
#    0.000    2.000    1.429    1.286   12.000    0.000 
#    0.000    1.429    9.429    0.000    0.000    0.000 
#    0.000    0.000    0.000    0.000    0.000    0.000 
#
# Total GULP energy -347042.090992 kJ/mol
# GULP energy per Si atom -12394.360393 kJ/mol
# Density = 1.966870 g / cm^3
# Si number density = 19.713567 Si / 1000 Ang^3
#
#
#
# Elastic Constant Matrix: (Units=GPa)
#
#
# Indices 1 2 3 4 5 6 
#
# 1 84.2937 43.0399 33.1898 0.0000 -7.1351 0.0000
# 2 43.0399 110.0706 40.3483 0.0000 4.3119 0.0000
# 3 33.1898 40.3483 88.1722 0.0000 -8.7416 0.0000
# 4 0.0000 0.0000 0.0000 38.9000 0.0000 8.4287
# 5 -7.1351 4.3119 -8.7416 0.0000 27.7714 0.0000
# 6 0.0000 0.0000 0.0000 8.4287 0.0000 24.9080
#
#
#
# Elastic Compliance Matrix: (Units=1/GPa)
#
#
# Indices 1 2 3 4 5 6 
#
# 1 0.016187 -0.005279 -0.003286 0.000000 0.003944 0.000000
# 2 -0.005279 0.012953 -0.004412 0.000000 -0.004756 0.000000
# 3 -0.003286 -0.004412 0.015051 0.000000 0.004578 0.000000
# 4 0.000000 0.000000 0.000000 0.027741 0.000000 -0.009387
# 5 0.003944 -0.004756 0.004578 0.000000 0.039201 0.000000
# 6 0.000000 0.000000 0.000000 -0.009387 0.000000 0.043324
#
#
# Mechanical properties :
#
#
# Convention : Reuss Voigt Hill
#
# Bulk Modulus (GPa) = 54.83494 57.29917 56.06706
# Shear Modulus (GPa) = 26.81115 29.37979 28.09547
#
# Velocity S-wave (km/s) = 3.69187 3.86467 3.77926
# Velocity P-wave (km/s) = 6.78597 7.00309 6.89538
#
# Compressibility (1/GPa) = 0.01823655
#
# Stress axis : x y z
#
# Youngs Moduli (GPa) = 61.77985 77.20318 66.44023
#
# Poissons Ratio (x) = 0.40757 0.21833
# Poissons Ratio (y) = 0.32615 0.29311
# Poissons Ratio (z) = 0.20302 0.34059
#
# Static dielectric constant tensor:
#      x y z
#    x 3.557970 0.000000 0.137280 
#    y 0.000000 3.727370 0.000000 
#    z 0.137280 0.000000 3.609170 
# 
# 
# High freq. dielectric constant tensor:
#      x y z
#    x 1.752630 0.000000 0.006390 
#    y 0.000000 1.763670 0.000000 
#    z 0.006390 0.000000 1.778780 
# 
# From -- ./inp_files/56164.got.cif
#   From: 2010.03.12/outbox.cif.g09.slc.cpg/sg14_29_cif.got.tgz:56164.got - 2010.03.31 13:35:05.
