data_PCOD8125925
_publ_section_title
;
Structure prediction by ZEFSAII (Michael W. Deem and Ramdas Pophale) SiO2 
 PCOD8125925
Probable space group: P 21/C
;
_chemical_formula_sum "Si O2"
_cell_formula_units_Z 32
_cell_length_a 11.469419
_cell_length_b 8.402024
_cell_length_c 18.378854
_cell_angle_alpha 90.000000
_cell_angle_beta 70.349675
_cell_angle_gamma 90.000000
_cell_volume 1667.958091
_symmetry_space_group_name_H-M "P 21/C"
_symmetry_group_IT_number 14
_symmetry_cell_setting 'monoclinic'
loop_
_space_group_symop_operation_xyz
x,y,z
-x,1/2+y,1/2-z
-x,-y,-z
x,1/2-y,1/2+z
loop_
_atom_site_type_symbol
_atom_site_label
_atom_site_fract_x
_atom_site_fract_y
_atom_site_fract_z
Si Si1 0.680037 0.574400 0.909801
Si Si2 0.479728 0.264035 0.657284
Si Si3 0.630017 0.059697 0.735550
Si Si4 0.319646 0.281969 0.452384
Si Si5 0.583879 0.243649 0.876273
Si Si6 0.150629 0.072374 0.402219
Si Si7 0.322250 0.626100 0.502918
Si Si8 0.122857 0.605869 0.056402
O O1 0.648753 0.699842 0.852551
O O2 0.602734 0.417302 0.906133
O O3 0.822131 0.518629 0.894582
O O4 0.641926 0.653447 0.994118
O O5 0.538794 0.124369 0.692921
O O6 0.444008 0.415755 0.711774
O O7 0.585207 0.302411 0.576103
O O8 0.663586 0.197560 0.788040
O O9 0.761396 0.005449 0.676472
O O10 0.443641 0.286722 0.378074
O O11 0.209437 0.231769 0.422767
O O12 0.277302 0.450029 0.493194
O O13 0.606705 0.114601 0.935183
O O14 0.021155 0.124457 0.392217
O O15 0.130677 0.949209 0.471495
O O16 0.198799 0.730182 0.542230
#
# Coordination Sequence:
#
# PCOD8125925 Si02
#       8
#     4   4   4   4   4   4   4   4
#     4  10  21  36  61  83 114 157 201 242 290 357
#     4  12  22  37  57  91 126 155 194 246 316 364
#     4  12  24  36  58  89 129 154 187 255 318 360
#     4  11  19  34  59  88 118 151 197 250 294 355
#     4  11  21  36  57  90 121 156 198 246 308 363
#     4  10  21  39  58  83 117 157 197 244 300 354
#     4  11  21  36  62  89 119 158 207 247 289 368
#     4   9  21  40  62  80 109 159 211 241 283 357
#
# _framework density 19.185134000000001
#
# number of rings (size 3 to 8) (size 9 to 14) (size 15 to 20)
#    0.000    1.250    3.750    3.750    1.750    0.500 
#    0.000    2.500    0.000    0.000    0.000    0.000 
#    0.000    0.000    0.000    0.000    0.000    0.000 
#
# Total GULP energy -396567.708064 kJ/mol
# GULP energy per Si atom -12392.740877 kJ/mol
# Density = 1.914147 g / cm^3
# Si number density = 19.185134 Si / 1000 Ang^3
#
#
#
# Elastic Constant Matrix: (Units=GPa)
#
#
# Indices 1 2 3 4 5 6 
#
# 1 140.8733 50.7415 53.6090 0.0000 -3.5621 0.0000
# 2 50.7415 101.5343 37.5199 0.0000 0.1281 0.0000
# 3 53.6090 37.5199 96.0097 0.0000 2.5514 0.0000
# 4 0.0000 0.0000 0.0000 27.7282 0.0000 9.6563
# 5 -3.5621 0.1281 2.5514 0.0000 23.2528 0.0000
# 6 0.0000 0.0000 0.0000 9.6563 0.0000 22.6300
#
#
#
# Elastic Compliance Matrix: (Units=1/GPa)
#
#
# Indices 1 2 3 4 5 6 
#
# 1 0.010023 -0.003417 -0.004315 0.000000 0.002028 0.000000
# 2 -0.003417 0.012680 -0.003041 0.000000 -0.000260 0.000000
# 3 -0.004315 -0.003041 0.014071 0.000000 -0.002188 0.000000
# 4 0.000000 0.000000 0.000000 0.042359 0.000000 -0.018075
# 5 0.002028 -0.000260 -0.002188 0.000000 0.043558 0.000000
# 6 0.000000 0.000000 0.000000 -0.018075 0.000000 0.051901
#
#
# Mechanical properties :
#
#
# Convention : Reuss Voigt Hill
#
# Bulk Modulus (GPa) = 65.66196 69.12867 67.39531
# Shear Modulus (GPa) = 24.84921 27.82534 26.33727
#
# Velocity S-wave (km/s) = 3.60284 3.81249 3.70915
# Velocity P-wave (km/s) = 7.18380 7.44921 7.31771
#
# Compressibility (1/GPa) = 0.01522952
#
# Stress axis : x y z
#
# Youngs Moduli (GPa) = 99.77453 78.86201 71.06631
#
# Poissons Ratio (x) = 0.26946 0.30665
# Poissons Ratio (y) = 0.34091 0.21609
# Poissons Ratio (z) = 0.43052 0.23979
#
# Static dielectric constant tensor:
#      x y z
#    x 3.654220 0.000000 0.184020 
#    y 0.000000 3.634780 0.000000 
#    z 0.184020 0.000000 3.514170 
# 
# 
# High freq. dielectric constant tensor:
#      x y z
#    x 1.737200 0.000000 0.018750 
#    y 0.000000 1.753840 0.000000 
#    z 0.018750 0.000000 1.733870 
# 
# From -- ./inp_files/57043.got.cif
#   From: 2010.03.12/outbox.cif.g09.slc.cpg/sg14_29_cif.got.tgz:57043.got - 2010.03.31 13:35:05.
