data_PCOD8126642
_publ_section_title
;
Structure prediction by ZEFSAII (Michael W. Deem and Ramdas Pophale) SiO2 
 PCOD8126642
Probable space group: P 21/C
;
_chemical_formula_sum "Si O2"
_cell_formula_units_Z 24
_cell_length_a 14.100354
_cell_length_b 8.208944
_cell_length_c 16.259511
_cell_angle_alpha 90.000000
_cell_angle_beta 36.409180
_cell_angle_gamma 90.000000
_cell_volume 1117.070333
_symmetry_space_group_name_H-M "P 21/C"
_symmetry_group_IT_number 14
_symmetry_cell_setting 'monoclinic'
loop_
_space_group_symop_operation_xyz
x,y,z
-x,1/2+y,1/2-z
-x,-y,-z
x,1/2-y,1/2+z
loop_
_atom_site_type_symbol
_atom_site_label
_atom_site_fract_x
_atom_site_fract_y
_atom_site_fract_z
Si Si1 0.843917 0.552517 0.657008
Si Si2 0.006096 0.700990 0.152001
Si Si3 0.649495 0.184636 0.071247
Si Si4 0.866853 0.629852 0.901369
Si Si5 0.356106 0.145637 0.849589
Si Si6 0.340890 0.925844 0.572720
O O1 0.691940 0.565378 0.703706
O O2 0.795672 0.419820 0.760843
O O3 0.000000 0.500000 0.500000
O O4 0.876980 0.726944 0.678431
O O5 0.012544 0.504460 0.143863
O O6 0.965098 0.750293 0.274105
O O7 0.178274 0.776303 0.010304
O O8 0.523131 0.264538 0.221762
O O9 0.625021 0.989406 0.091490
O O10 0.631052 0.248871 0.989506
O O11 0.720462 0.541709 0.957397
O O12 0.787988 0.732223 0.029205
O O13 0.500000 0.000000 0.500000
#
# Coordination Sequence:
#
# PCOD8126642 Si02
#       6
#     4   4   4   4   4   4
#     4  11  23  40  67  98 132 172 219 273 332 383
#     4  10  21  41  65  94 128 177 214 269 328 396
#     4  11  22  39  66  91 131 174 220 262 336 388
#     4  10  23  39  67  92 128 170 220 269 328 399
#     4  12  24  41  67  98 129 172 224 277 326 394
#     4  10  21  42  64  89 131 177 210 261 333 391
#
# _framework density 21.484770000000001
#
# number of rings (size 3 to 8) (size 9 to 14) (size 15 to 20)
#    0.000    1.333    3.333    3.000    4.667    0.667 
#    0.000    0.833    7.333    0.000    0.000    0.000 
#    0.000    0.000    0.000    0.000    0.000    0.000 
#
# Total GULP energy -297595.043933 kJ/mol
# GULP energy per Si atom -12399.793497 kJ/mol
# Density = 2.143587 g / cm^3
# Si number density = 21.484770 Si / 1000 Ang^3
#
#
#
# Elastic Constant Matrix: (Units=GPa)
#
#
# Indices 1 2 3 4 5 6 
#
# 1 71.6912 18.0337 10.2755 0.0000 5.5203 0.0000
# 2 18.0337 109.6106 54.7319 0.0000 13.2436 0.0000
# 3 10.2755 54.7319 138.1696 0.0000 4.3779 0.0000
# 4 0.0000 0.0000 0.0000 41.5338 0.0000 -0.1102
# 5 5.5203 13.2436 4.3779 0.0000 32.2820 0.0000
# 6 0.0000 0.0000 0.0000 -0.1102 0.0000 27.3685
#
#
#
# Elastic Compliance Matrix: (Units=1/GPa)
#
#
# Indices 1 2 3 4 5 6 
#
# 1 0.014633 -0.002113 -0.000200 0.000000 -0.001608 0.000000
# 2 -0.002113 0.012237 -0.004562 0.000000 -0.004040 0.000000
# 3 -0.000200 -0.004562 0.009038 0.000000 0.000680 0.000000
# 4 0.000000 0.000000 0.000000 0.024077 0.000000 0.000097
# 5 -0.001608 -0.004040 0.000680 0.000000 0.032817 0.000000
# 6 0.000000 0.000000 0.000000 0.000097 0.000000 0.036539
#
#
# Mechanical properties :
#
#
# Convention : Reuss Voigt Hill
#
# Bulk Modulus (GPa) = 45.13306 53.95040 49.54173
# Shear Modulus (GPa) = 33.22751 35.99886 34.61319
#
# Velocity S-wave (km/s) = 3.93690 4.09779 4.01815
# Velocity P-wave (km/s) = 6.45896 6.89599 6.68105
#
# Compressibility (1/GPa) = 0.02215671
#
# Stress axis : x y z
#
# Youngs Moduli (GPa) = 68.33961 81.71886 110.64392
#
# Poissons Ratio (x) = 0.17269 0.02215
# Poissons Ratio (y) = 0.14442 0.50478
# Poissons Ratio (z) = 0.01368 0.37282
#
# Static dielectric constant tensor:
#      x y z
#    x 3.815060 0.000000 -0.021710 
#    y 0.000000 3.948260 0.000000 
#    z -0.021710 0.000000 4.128050 
# 
# 
# High freq. dielectric constant tensor:
#      x y z
#    x 1.823560 0.000000 -0.008070 
#    y 0.000000 1.829220 0.000000 
#    z -0.008070 0.000000 1.865850 
# 
# From -- ./inp_files/46358.got.cif
#   From: 2010.03.12/outbox.cif.g09.slc.cpg/sg14_24_cif.got.tgz:46358.got - 2010.03.31 13:35:05.
