data_PCOD8126336
_publ_section_title
;
Structure prediction by ZEFSAII (Michael W. Deem and Ramdas Pophale) SiO2 
 PCOD8126336
Probable space group: P 21/C
;
_chemical_formula_sum "Si O2"
_cell_formula_units_Z 32
_cell_length_a 18.053190
_cell_length_b 14.383470
_cell_length_c 11.932872
_cell_angle_alpha 90.000000
_cell_angle_beta 28.964993
_cell_angle_gamma 90.000000
_cell_volume 1500.564921
_symmetry_space_group_name_H-M "P 21/C"
_symmetry_group_IT_number 14
_symmetry_cell_setting 'monoclinic'
loop_
_space_group_symop_operation_xyz
x,y,z
-x,1/2+y,1/2-z
-x,-y,-z
x,1/2-y,1/2+z
loop_
_atom_site_type_symbol
_atom_site_label
_atom_site_fract_x
_atom_site_fract_y
_atom_site_fract_z
Si Si1 0.310024 0.335600 0.063971
Si Si2 0.029173 0.300382 0.577469
Si Si3 0.326102 0.009486 0.195538
Si Si4 0.845557 0.155234 0.107292
Si Si5 0.576812 0.474338 0.014790
Si Si6 0.126912 0.362250 0.096683
Si Si7 0.773609 0.162978 0.582626
Si Si8 0.532402 0.642869 0.649021
O O1 0.185350 0.350220 0.329303
O O2 0.406360 0.431673 0.933170
O O3 0.230256 0.309471 0.052042
O O4 0.423751 0.249593 0.929304
O O5 0.083828 0.199819 0.546878
O O6 0.913716 0.292093 0.625623
O O7 0.937262 0.349693 0.801889
O O8 0.223548 0.050002 0.431015
O O9 0.245571 0.908261 0.285694
O O10 0.331793 0.078294 0.082228
O O11 0.500000 0.000000 0.000000
O O12 0.741880 0.069310 0.276944
O O13 0.756465 0.232923 0.152491
O O14 0.974239 0.105422 0.861984
O O15 0.500000 0.500000 0.000000
O O16 0.478132 0.395251 0.209920
O O17 0.635965 0.134642 0.681801
#
# Coordination Sequence:
#
# PCOD8126336 Si02
#       8
#     4   4   4   4   4   4   4   4
#     4  11  24  40  69  96 133 180 220 284 339 404
#     4  10  21  42  66  93 135 173 229 270 343 394
#     4  10  21  39  65  97 126 171 225 269 340 408
#     4  10  23  42  66  99 135 176 228 283 334 406
#     4  12  27  44  68 105 135 178 228 279 344 406
#     4  10  22  40  67  96 131 175 228 273 342 400
#     4  10  21  41  68  92 133 181 218 280 340 401
#     4  11  23  43  65  97 135 172 223 278 337 411
#
# _framework density 21.325301
#
# number of rings (size 3 to 8) (size 9 to 14) (size 15 to 20)
#    0.000    1.500    2.500    2.250    3.500    4.000 
#    4.500    0.625    0.000    0.000    0.000    0.000 
#    0.000    0.000    0.000    0.000    0.000    0.000 
#
# Total GULP energy -396481.050652 kJ/mol
# GULP energy per Si atom -12390.032833 kJ/mol
# Density = 2.127676 g / cm^3
# Si number density = 21.325301 Si / 1000 Ang^3
#
#
#
# Elastic Constant Matrix: (Units=GPa)
#
#
# Indices 1 2 3 4 5 6 
#
# 1 84.9093 31.9022 22.1611 0.0000 1.1950 0.0000
# 2 31.9022 120.7795 65.0002 0.0000 -1.1664 0.0000
# 3 22.1611 65.0002 117.8859 0.0000 4.0348 0.0000
# 4 0.0000 0.0000 0.0000 43.2554 0.0000 -0.0655
# 5 1.1950 -1.1664 4.0348 0.0000 22.2717 0.0000
# 6 0.0000 0.0000 0.0000 -0.0655 0.0000 27.8285
#
#
#
# Elastic Compliance Matrix: (Units=1/GPa)
#
#
# Indices 1 2 3 4 5 6 
#
# 1 0.013138 -0.003074 -0.000750 0.000000 -0.000730 0.000000
# 2 -0.003074 0.012565 -0.006418 0.000000 0.001986 0.000000
# 3 -0.000750 -0.006418 0.012249 0.000000 -0.002515 0.000000
# 4 0.000000 0.000000 0.000000 0.023119 0.000000 0.000054
# 5 -0.000730 0.001986 -0.002515 0.000000 0.045499 0.000000
# 6 0.000000 0.000000 0.000000 0.000054 0.000000 0.035935
#
#
# Mechanical properties :
#
#
# Convention : Reuss Voigt Hill
#
# Bulk Modulus (GPa) = 57.24795 62.41130 59.82963
# Shear Modulus (GPa) = 29.61920 32.30520 30.96220
#
# Velocity S-wave (km/s) = 3.73087 3.89636 3.81451
# Velocity P-wave (km/s) = 6.74259 7.04074 6.89328
#
# Compressibility (1/GPa) = 0.01746787
#
# Stress axis : x y z
#
# Youngs Moduli (GPa) = 76.11425 79.58861 81.64161
#
# Poissons Ratio (x) = 0.24463 0.06124
# Poissons Ratio (y) = 0.23395 0.52398
# Poissons Ratio (z) = 0.05709 0.51080
#
# Static dielectric constant tensor:
#      x y z
#    x 3.708730 0.000000 0.177220 
#    y 0.000000 3.463240 0.000000 
#    z 0.177220 0.000000 4.250840 
# 
# 
# High freq. dielectric constant tensor:
#      x y z
#    x 1.812800 0.000000 0.008480 
#    y 0.000000 1.833720 0.000000 
#    z 0.008480 0.000000 1.855590 
# 
# From -- ./inp_files/34221.got.cif
#   From: 2010.03.12/outbox.cif.g09.slc.cpg/sg14_18_cif.got.tgz:34221.got - 2010.03.31 13:35:05.
