data_PCOD8126149
_publ_section_title
;
Structure prediction by ZEFSAII (Michael W. Deem and Ramdas Pophale) SiO2 
 PCOD8126149
Probable space group: P 21/C
;
_chemical_formula_sum "Si O2"
_cell_formula_units_Z 24
_cell_length_a 22.218058
_cell_length_b 12.424749
_cell_length_c 19.866321
_cell_angle_alpha 90.000000
_cell_angle_beta 168.432662
_cell_angle_gamma 90.000000
_cell_volume 1099.683533
_symmetry_space_group_name_H-M "P 21/C"
_symmetry_group_IT_number 14
_symmetry_cell_setting 'monoclinic'
loop_
_space_group_symop_operation_xyz
x,y,z
-x,1/2+y,1/2-z
-x,-y,-z
x,1/2-y,1/2+z
loop_
_atom_site_type_symbol
_atom_site_label
_atom_site_fract_x
_atom_site_fract_y
_atom_site_fract_z
Si Si1 0.469480 0.354273 0.161992
Si Si2 0.808878 0.496321 0.639652
Si Si3 0.915001 0.218747 0.581715
Si Si4 0.679027 0.266988 0.184631
Si Si5 0.545046 0.558508 0.619881
Si Si6 0.225660 0.401616 0.756783
O O1 0.595953 0.436957 0.354241
O O2 0.688432 0.249833 0.394149
O O3 0.144522 0.318030 0.830829
O O4 0.427667 0.416633 0.045003
O O5 0.901935 0.609186 0.707543
O O6 0.630893 0.508441 0.515252
O O7 0.107704 0.429085 0.981242
O O8 0.707956 0.207846 0.288375
O O9 0.012294 0.297879 0.527497
O O10 0.565082 0.182083 0.004569
O O11 0.455808 0.372330 0.947324
O O12 0.500000 0.500000 0.500000
O O13 0.000000 0.500000 0.500000
#
# Coordination Sequence:
#
# PCOD8126149 Si02
#       6
#     4   4   4   4   4   4
#     4  10  23  42  61  92 127 166 213 254 316 389
#     4  12  24  41  65  94 132 167 211 269 317 386
#     4  10  21  40  66  86 123 172 204 249 329 380
#     4  10  21  38  63  90 123 157 206 265 310 375
#     4  12  24  39  66  99 126 162 215 265 329 377
#     4  10  21  41  66  88 121 169 214 253 312 375
#
# _framework density 21.824460999999999
#
# number of rings (size 3 to 8) (size 9 to 14) (size 15 to 20)
#    0.000    1.333    1.667    4.000    4.667    0.000 
#    9.000    0.000    0.000    0.000    0.000    0.000 
#    0.000    0.000    0.000    0.000    0.000    0.000 
#
# Total GULP energy -297584.057618 kJ/mol
# GULP energy per Si atom -12399.335734 kJ/mol
# Density = 2.177479 g / cm^3
# Si number density = 21.824461 Si / 1000 Ang^3
#
#
#
# Elastic Constant Matrix: (Units=GPa)
#
#
# Indices 1 2 3 4 5 6 
#
# 1 76.1509 22.9970 33.8790 0.0000 4.0578 0.0000
# 2 22.9970 74.1233 25.2829 0.0000 -22.3132 0.0000
# 3 33.8790 25.2829 118.8688 0.0000 -4.1316 0.0000
# 4 0.0000 0.0000 0.0000 42.1705 0.0000 3.7579
# 5 4.0578 -22.3132 -4.1316 0.0000 36.9737 0.0000
# 6 0.0000 0.0000 0.0000 3.7579 0.0000 20.1301
#
#
#
# Elastic Compliance Matrix: (Units=1/GPa)
#
#
# Indices 1 2 3 4 5 6 
#
# 1 0.016822 -0.005632 -0.003794 0.000000 -0.005669 0.000000
# 2 -0.005632 0.019656 -0.002150 0.000000 0.012240 0.000000
# 3 -0.003794 -0.002150 0.009959 0.000000 0.000232 0.000000
# 4 0.000000 0.000000 0.000000 0.024114 0.000000 -0.004502
# 5 -0.005669 0.012240 0.000232 0.000000 0.035081 0.000000
# 6 0.000000 0.000000 0.000000 -0.004502 0.000000 0.050517
#
#
# Mechanical properties :
#
#
# Convention : Reuss Voigt Hill
#
# Bulk Modulus (GPa) = 42.94310 48.16231 45.55271
# Shear Modulus (GPa) = 26.72875 32.32047 29.52461
#
# Velocity S-wave (km/s) = 3.50339 3.85246 3.68206
# Velocity P-wave (km/s) = 6.00702 6.47337 6.24455
#
# Compressibility (1/GPa) = 0.02328663
#
# Stress axis : x y z
#
# Youngs Moduli (GPa) = 59.44443 50.87415 100.40842
#
# Poissons Ratio (x) = 0.28650 0.38093
# Poissons Ratio (y) = 0.33477 0.21591
# Poissons Ratio (z) = 0.22552 0.10939
#
# Static dielectric constant tensor:
#      x y z
#    x 3.920160 0.000000 0.225360 
#    y 0.000000 4.906300 0.000000 
#    z 0.225360 0.000000 4.219330 
# 
# 
# High freq. dielectric constant tensor:
#      x y z
#    x 1.835850 0.000000 0.017770 
#    y 0.000000 1.849120 0.000000 
#    z 0.017770 0.000000 1.883020 
# 
# From -- ./inp_files/75227.got.cif
#   From: 2010.03.12/outbox.cif.g09.slc.cpg/sg14_38_cif.got.tgz:75227.got - 2010.03.31 13:35:05.
