data_PCOD8126135
_publ_section_title
;
Structure prediction by ZEFSAII (Michael W. Deem and Ramdas Pophale) SiO2 
 PCOD8126135
Probable space group: P 21/C
;
_chemical_formula_sum "Si O2"
_cell_formula_units_Z 32
_cell_length_a 7.880462
_cell_length_b 8.988031
_cell_length_c 18.515885
_cell_angle_alpha 90.000000
_cell_angle_beta 92.120806
_cell_angle_gamma 90.000000
_cell_volume 1310.578778
_symmetry_space_group_name_H-M "P 21/C"
_symmetry_group_IT_number 14
_symmetry_cell_setting 'monoclinic'
loop_
_space_group_symop_operation_xyz
x,y,z
-x,1/2+y,1/2-z
-x,-y,-z
x,1/2-y,1/2+z
loop_
_atom_site_type_symbol
_atom_site_label
_atom_site_fract_x
_atom_site_fract_y
_atom_site_fract_z
Si Si1 0.230939 0.523939 0.458028
Si Si2 0.480250 0.225739 0.211610
Si Si3 0.426150 0.203894 0.051005
Si Si4 0.182705 0.961691 0.794537
Si Si5 0.007480 0.329155 0.189277
Si Si6 0.966780 0.202203 0.521344
Si Si7 0.723452 0.953183 0.530787
Si Si8 0.325941 0.008716 0.307127
O O1 0.391690 0.634759 0.460093
O O2 0.272427 0.384749 0.509607
O O3 0.189174 0.471132 0.376030
O O4 0.075708 0.622402 0.488314
O O5 0.646010 0.124552 0.219099
O O6 0.163989 0.402666 0.236439
O O7 0.347072 0.169074 0.269466
O O8 0.531037 0.397135 0.223284
O O9 0.382441 0.204153 0.134494
O O10 0.421889 0.374818 0.021144
O O11 0.029951 0.840163 0.786995
O O12 0.034272 0.336052 0.103392
O O13 0.854789 0.436843 0.210521
O O14 0.109352 0.155030 0.466252
O O15 0.791105 0.112081 0.503268
O O16 0.643252 0.968766 0.608024
#
# Coordination Sequence:
#
# PCOD8126135 Si02
#       8
#     4   4   4   4   4   4   4   4
#     4   9  20  38  59  88 126 160 200 250 299 352
#     4  10  23  41  60  87 123 155 197 252 302 357
#     4  10  21  38  62  91 122 161 201 244 299 359
#     4   9  19  36  58  86 121 158 196 247 297 351
#     4   9  19  37  60  87 120 157 200 246 299 356
#     4   9  20  39  60  89 125 160 203 254 301 356
#     4  10  21  39  63  88 119 159 203 246 299 361
#     4  10  23  42  62  89 120 154 200 251 302 362
#
# _framework density 24.416695000000001
#
# number of rings (size 3 to 8) (size 9 to 14) (size 15 to 20)
#    0.000    2.500    0.000    2.250    0.000   11.500 
#    0.000   10.000    0.000    0.000    0.000    0.000 
#    0.000    0.000    0.000    0.000    0.000    0.000 
#
# Total GULP energy -396698.294969 kJ/mol
# GULP energy per Si atom -12396.821718 kJ/mol
# Density = 2.436112 g / cm^3
# Si number density = 24.416695 Si / 1000 Ang^3
#
#
#
# Elastic Constant Matrix: (Units=GPa)
#
#
# Indices 1 2 3 4 5 6 
#
# 1 50.9367 19.8854 -3.2172 0.0000 29.6276 0.0000
# 2 19.8854 105.6660 31.6357 0.0000 21.7090 0.0000
# 3 -3.2172 31.6357 37.2457 0.0000 6.8656 0.0000
# 4 0.0000 0.0000 0.0000 25.9365 0.0000 10.0453
# 5 29.6276 21.7090 6.8656 0.0000 32.1052 0.0000
# 6 0.0000 0.0000 0.0000 10.0453 0.0000 46.4413
#
#
#
# Elastic Compliance Matrix: (Units=1/GPa)
#
#
# Indices 1 2 3 4 5 6 
#
# 1 0.049166 -0.004915 0.016836 0.000000 -0.045649 0.000000
# 2 -0.004915 0.014651 -0.012366 0.000000 -0.002727 0.000000
# 3 0.016836 -0.012366 0.041776 0.000000 -0.016108 0.000000
# 4 0.000000 0.000000 0.000000 0.042081 0.000000 -0.009102
# 5 -0.045649 -0.002727 -0.016108 0.000000 0.078562 0.000000
# 6 0.000000 0.000000 0.000000 -0.009102 0.000000 0.023501
#
#
# Mechanical properties :
#
#
# Convention : Reuss Voigt Hill
#
# Bulk Modulus (GPa) = 9.55084 32.27292 20.91188
# Shear Modulus (GPa) = 17.51134 30.59958 24.05546
#
# Velocity S-wave (km/s) = 2.68094 3.54393 3.14220
# Velocity P-wave (km/s) = 3.67469 5.47651 4.66345
#
# Compressibility (1/GPa) = 0.10470283
#
# Stress axis : x y z
#
# Youngs Moduli (GPa) = 20.33926 68.25299 23.93723
#
# Poissons Ratio (x) = 0.33543 -0.40300
# Poissons Ratio (y) = 0.09996 0.29602
# Poissons Ratio (z) = -0.34243 0.84404
#
# Static dielectric constant tensor:
#      x y z
#    x 4.387660 0.000000 -0.016880 
#    y 0.000000 4.662820 0.000000 
#    z -0.016880 0.000000 4.076070 
# 
# 
# High freq. dielectric constant tensor:
#      x y z
#    x 1.981750 0.000000 -0.012600 
#    y 0.000000 1.986950 0.000000 
#    z -0.012600 0.000000 1.946510 
# 
# From -- ./inp_files/79352.got.cif
#   From: 2010.03.12/outbox.cif.g09.slc.cpg/sg14_40_cif.got.tgz:79352.got - 2010.03.31 13:35:05.
