data_PCOD8126597
_publ_section_title
;
Structure prediction by ZEFSAII (Michael W. Deem and Ramdas Pophale) SiO2 
 PCOD8126597
Probable space group: P 21/C
;
_chemical_formula_sum "Si O2"
_cell_formula_units_Z 32
_cell_length_a 15.421540
_cell_length_b 5.374011
_cell_length_c 14.232934
_cell_angle_alpha 90.000000
_cell_angle_beta 90.923738
_cell_angle_gamma 90.000000
_cell_volume 1179.408589
_symmetry_space_group_name_H-M "P 21/C"
_symmetry_group_IT_number 14
_symmetry_cell_setting 'monoclinic'
loop_
_space_group_symop_operation_xyz
x,y,z
-x,1/2+y,1/2-z
-x,-y,-z
x,1/2-y,1/2+z
loop_
_atom_site_type_symbol
_atom_site_label
_atom_site_fract_x
_atom_site_fract_y
_atom_site_fract_z
Si Si1 0.705834 0.216882 0.193630
Si Si2 0.525196 0.273047 0.421522
Si Si3 0.236604 0.872182 0.110613
Si Si4 0.810578 0.484934 0.043091
Si Si5 0.924615 0.643405 0.341209
Si Si6 0.474288 0.774086 0.371308
Si Si7 0.666074 0.639814 0.533209
Si Si8 0.981725 0.644877 0.129506
O O1 0.736332 0.193314 0.301949
O O2 0.608029 0.333634 0.195697
O O3 0.778067 0.380453 0.142783
O O4 0.695905 0.958387 0.136958
O O5 0.526250 0.513706 0.351264
O O6 0.571339 0.296700 0.525769
O O7 0.426519 0.225825 0.461779
O O8 0.540683 0.010697 0.367736
O O9 0.177303 0.728280 0.034359
O O10 0.178567 0.106065 0.144221
O O11 0.326629 0.947766 0.058024
O O12 0.738474 0.667922 0.001709
O O13 0.902573 0.620442 0.055454
O O14 0.974077 0.409952 0.390024
O O15 0.942368 0.638807 0.231883
O O16 0.953570 0.909403 0.384251
#
# Coordination Sequence:
#
# PCOD8126597 Si02
#       8
#     4   4   4   4   4   4   4   4
#     4  10  21  41  63  91 128 169 217 261 318 390
#     4   9  17  34  61  92 125 161 215 259 305 382
#     4  11  25  40  63  93 129 164 216 263 325 382
#     4  11  23  40  63  93 124 169 205 270 317 384
#     4  10  23  42  63  92 119 167 210 267 320 390
#     4   9  17  33  63  92 119 170 212 253 315 371
#     4  10  23  39  63  94 130 168 214 270 322 379
#     4  10  23  41  66  87 123 162 216 261 324 382
#
# _framework density 27.132244
#
# number of rings (size 3 to 8) (size 9 to 14) (size 15 to 20)
#    0.000    2.000    2.500    0.000    5.250    3.000 
#    0.000    0.000    2.750    0.000    0.000    0.000 
#    0.000    0.000    0.000    0.000    0.000    0.000 
#
# Total GULP energy -396495.402454 kJ/mol
# GULP energy per Si atom -12390.481327 kJ/mol
# Density = 2.707049 g / cm^3
# Si number density = 27.132244 Si / 1000 Ang^3
#
#
#
# Elastic Constant Matrix: (Units=GPa)
#
#
# Indices 1 2 3 4 5 6 
#
# 1 64.8897 -14.0713 31.4422 0.0000 6.4966 0.0000
# 2 -14.0713 108.8027 9.3786 0.0000 -7.1463 0.0000
# 3 31.4422 9.3786 90.7774 0.0000 -0.6610 0.0000
# 4 0.0000 0.0000 0.0000 16.2314 0.0000 6.4733
# 5 6.4966 -7.1463 -0.6610 0.0000 32.0181 0.0000
# 6 0.0000 0.0000 0.0000 6.4733 0.0000 36.1627
#
#
#
# Elastic Compliance Matrix: (Units=1/GPa)
#
#
# Indices 1 2 3 4 5 6 
#
# 1 0.019909 0.002966 -0.007228 0.000000 -0.003527 0.000000
# 2 0.002966 0.009852 -0.002034 0.000000 0.001555 0.000000
# 3 -0.007228 -0.002034 0.013739 0.000000 0.001296 0.000000
# 4 0.000000 0.000000 0.000000 0.066346 0.000000 -0.011876
# 5 -0.003527 0.001555 0.001296 0.000000 0.032322 0.000000
# 6 0.000000 0.000000 0.000000 -0.011876 0.000000 0.029779
#
#
# Mechanical properties :
#
#
# Convention : Reuss Voigt Hill
#
# Bulk Modulus (GPa) = 32.35301 35.32988 33.84144
# Shear Modulus (GPa) = 25.66192 32.73046 29.19619
#
# Velocity S-wave (km/s) = 3.07874 3.47700 3.28391
# Velocity P-wave (km/s) = 4.95865 5.40083 5.18446
#
# Compressibility (1/GPa) = 0.03090902
#
# Stress axis : x y z
#
# Youngs Moduli (GPa) = 50.22742 101.50189 72.78503
#
# Poissons Ratio (x) = -0.30108 0.52610
# Poissons Ratio (y) = -0.14899 0.14804
# Poissons Ratio (z) = 0.36305 0.20645
#
# Static dielectric constant tensor:
#      x y z
#    x 4.936510 0.000000 -0.017390 
#    y 0.000000 5.002340 0.000000 
#    z -0.017390 0.000000 4.620980 
# 
# 
# High freq. dielectric constant tensor:
#      x y z
#    x 2.096810 0.000000 -0.005170 
#    y 0.000000 2.091290 0.000000 
#    z -0.005170 0.000000 2.084320 
# 
# From -- ./inp_files/48174.got.cif
#   From: 2010.03.12/outbox.cif.g09.slc.cpg/sg14_25_cif.got.tgz:48174.got - 2010.03.31 13:35:05.
