data_PCOD8126620
_publ_section_title
;
Structure prediction by ZEFSAII (Michael W. Deem and Ramdas Pophale) SiO2 
 PCOD8126620
Probable space group: P 21/C
;
_chemical_formula_sum "Si O2"
_cell_formula_units_Z 28
_cell_length_a 8.875361
_cell_length_b 13.318477
_cell_length_c 12.141654
_cell_angle_alpha 90.000000
_cell_angle_beta 89.999935
_cell_angle_gamma 90.000000
_cell_volume 1435.219890
_symmetry_space_group_name_H-M "P 21/C"
_symmetry_group_IT_number 14
_symmetry_cell_setting 'monoclinic'
loop_
_space_group_symop_operation_xyz
x,y,z
-x,1/2+y,1/2-z
-x,-y,-z
x,1/2-y,1/2+z
loop_
_atom_site_type_symbol
_atom_site_label
_atom_site_fract_x
_atom_site_fract_y
_atom_site_fract_z
Si Si1 0.500000 0.250000 0.597419
Si Si2 0.775413 0.719696 0.543566
Si Si3 0.947664 0.609260 0.965152
Si Si4 0.224586 0.719696 0.043566
Si Si5 0.723126 0.887541 0.271678
Si Si6 0.052336 0.609261 0.465153
Si Si7 0.276874 0.887541 0.771678
O O1 0.381933 0.302711 0.515878
O O2 0.618068 0.197289 0.515878
O O3 0.417793 0.168297 0.673081
O O4 0.582205 0.331701 0.673083
O O5 0.823654 0.838564 0.548492
O O6 0.773984 0.670678 0.662756
O O7 0.899542 0.672747 0.462262
O O8 0.872878 0.606903 0.845148
O O9 0.000000 0.500000 0.000000
O O10 0.100457 0.672747 0.962262
O O11 0.226014 0.670678 0.162757
O O12 0.176345 0.838564 0.048493
O O13 0.665506 0.000000 0.249999
O O14 0.127124 0.606904 0.345149
O O15 0.000000 0.500000 0.500000
#
# Coordination Sequence:
#
# PCOD8126620 Si02
#       7
#     4   4   4   4   4   4   4
#     4  10  24  42  58  94 128 166 208 260 310 386
#     4  10  22  40  64  90 127 162 209 262 313 378
#     4  10  21  41  64  92 123 162 212 266 313 370
#     4  10  22  40  64  90 127 162 209 262 313 378
#     4  11  22  42  65  91 126 169 213 258 323 379
#     4  10  21  41  64  92 123 162 212 266 313 370
#     4  11  22  42  65  91 126 169 213 258 323 379
#
# _framework density 19.509207
#
# number of rings (size 3 to 8) (size 9 to 14) (size 15 to 20)
#    0.000    1.714    2.857    0.857    0.000   10.286 
#    5.143    0.000    0.000    0.000    0.000    0.000 
#    0.000    0.000    0.000    0.000    0.000    0.000 
#
# Total GULP energy -347014.910625 kJ/mol
# GULP energy per Si atom -12393.389665 kJ/mol
# Density = 1.946480 g / cm^3
# Si number density = 19.509207 Si / 1000 Ang^3
#
#
#
# Elastic Constant Matrix: (Units=GPa)
#
#
# Indices 1 2 3 4 5 6 
#
# 1 153.6479 57.5305 75.1332 0.0000 0.0000 0.0000
# 2 57.5305 142.6729 80.5460 0.0000 -0.0007 0.0000
# 3 75.1332 80.5460 143.9872 0.0000 -0.0001 0.0000
# 4 0.0000 0.0000 0.0000 33.5266 0.0000 0.0000
# 5 0.0000 -0.0007 -0.0001 0.0000 26.9447 0.0000
# 6 0.0000 0.0000 0.0000 0.0000 0.0000 33.4272
#
#
#
# Elastic Compliance Matrix: (Units=1/GPa)
#
#
# Indices 1 2 3 4 5 6 
#
# 1 0.008930 -0.001418 -0.003866 0.000000 0.000000 0.000000
# 2 -0.001418 0.010469 -0.005117 0.000000 0.000000 0.000000
# 3 -0.003866 -0.005117 0.011825 0.000000 0.000000 0.000000
# 4 0.000000 0.000000 0.000000 0.029827 0.000000 0.000000
# 5 0.000000 0.000000 0.000000 0.000000 0.037113 0.000000
# 6 0.000000 0.000000 0.000000 0.000000 0.000000 0.029916
#
#
# Mechanical properties :
#
#
# Convention : Reuss Voigt Hill
#
# Bulk Modulus (GPa) = 95.95101 96.30304 96.12703
# Shear Modulus (GPa) = 32.81778 33.91959 33.36869
#
# Velocity S-wave (km/s) = 4.10587 4.17423 4.14019
# Velocity P-wave (km/s) = 8.47153 8.52656 8.49909
#
# Compressibility (1/GPa) = 0.01042198
#
# Stress axis : x y z
#
# Youngs Moduli (GPa) = 111.98148 95.51614 84.56786
#
# Poissons Ratio (x) = 0.13545 0.32698
# Poissons Ratio (y) = 0.15880 0.43270
# Poissons Ratio (z) = 0.43297 0.48872
#
# Static dielectric constant tensor:
#      x y z
#    x 3.721230 0.000000 0.000010 
#    y 0.000000 4.595120 0.000000 
#    z 0.000010 0.000000 3.520290 
# 
# 
# High freq. dielectric constant tensor:
#      x y z
#    x 1.771180 0.000000 0.000000 
#    y 0.000000 1.769220 0.000000 
#    z 0.000000 0.000000 1.754200 
# 
# From -- ./inp_files/24925.got.cif
#   From: 2010.03.12/outbox.cif.g09.slc.cpg/sg14_13_cif.got.tgz:24925.got - 2010.03.31 13:35:05.
