data_PCOD8126144
_publ_section_title
;
Structure prediction by ZEFSAII (Michael W. Deem and Ramdas Pophale) SiO2 
 PCOD8126144
Probable space group: P 21/C
;
_chemical_formula_sum "Si O2"
_cell_formula_units_Z 32
_cell_length_a 23.286087
_cell_length_b 7.134720
_cell_length_c 23.779302
_cell_angle_alpha 90.000000
_cell_angle_beta 157.753647
_cell_angle_gamma 90.000000
_cell_volume 1495.689177
_symmetry_space_group_name_H-M "P 21/C"
_symmetry_group_IT_number 14
_symmetry_cell_setting 'monoclinic'
loop_
_space_group_symop_operation_xyz
x,y,z
-x,1/2+y,1/2-z
-x,-y,-z
x,1/2-y,1/2+z
loop_
_atom_site_type_symbol
_atom_site_label
_atom_site_fract_x
_atom_site_fract_y
_atom_site_fract_z
Si Si1 0.663724 0.043777 0.513716
Si Si2 0.622122 0.884241 0.997881
Si Si3 0.680077 0.553113 0.324226
Si Si4 0.888419 0.555196 0.129544
Si Si5 0.785857 0.975580 0.039658
Si Si6 0.890823 0.909873 0.506524
Si Si7 0.232235 0.677006 0.297741
Si Si8 0.713106 0.298404 0.781092
O O1 0.497850 0.095708 0.341348
O O2 0.702660 0.163100 0.603297
O O3 0.679447 0.828020 0.546396
O O4 0.783965 0.085458 0.572093
O O5 0.672985 0.010132 0.989942
O O6 0.700124 0.975248 0.123343
O O7 0.441467 0.893721 0.837484
O O8 0.710666 0.459527 0.413079
O O9 0.768977 0.744429 0.395129
O O10 0.734053 0.407085 0.326052
O O11 0.810368 0.754918 0.058308
O O12 0.899239 0.486119 0.074885
O O13 0.054430 0.579720 0.307026
O O14 0.051300 0.821530 0.636002
O O15 0.849751 0.066766 0.423572
O O16 0.289428 0.725717 0.287736
#
# Coordination Sequence:
#
# PCOD8126144 Si02
#       8
#     4   4   4   4   4   4   4   4
#     4  10  23  41  65  96 127 167 209 262 322 379
#     4  10  23  42  63  95 125 168 215 264 318 377
#     4  10  24  42  63  97 130 164 207 267 322 378
#     4  10  21  38  62  95 124 164 208 255 321 383
#     4  10  21  39  62  95 129 160 208 258 327 380
#     4  11  24  42  62  96 130 166 215 262 319 373
#     4  12  24  43  67  92 127 176 217 257 317 376
#     4  11  26  42  65  94 128 175 216 260 313 376
#
# _framework density 21.394818000000001
#
# number of rings (size 3 to 8) (size 9 to 14) (size 15 to 20)
#    0.000    1.500    1.250    3.000    3.500    4.500 
#    2.250    0.000    0.000    0.000    0.000    0.000 
#    0.000    0.000    0.000    0.000    0.000    0.000 
#
# Total GULP energy -396967.426973 kJ/mol
# GULP energy per Si atom -12405.232093 kJ/mol
# Density = 2.134612 g / cm^3
# Si number density = 21.394818 Si / 1000 Ang^3
#
#
#
# Elastic Constant Matrix: (Units=GPa)
#
#
# Indices 1 2 3 4 5 6 
#
# 1 119.3479 21.4176 50.1911 0.0000 -11.2913 0.0000
# 2 21.4176 42.4548 35.9961 0.0000 -1.5689 0.0000
# 3 50.1911 35.9961 131.4479 0.0000 1.8746 0.0000
# 4 0.0000 0.0000 0.0000 34.7051 0.0000 -10.3809
# 5 -11.2913 -1.5689 1.8746 0.0000 33.5637 0.0000
# 6 0.0000 0.0000 0.0000 -10.3809 0.0000 29.1777
#
#
#
# Elastic Compliance Matrix: (Units=1/GPa)
#
#
# Indices 1 2 3 4 5 6 
#
# 1 0.010593 -0.002260 -0.003478 0.000000 0.003652 0.000000
# 2 -0.002260 0.031281 -0.007719 0.000000 0.001133 0.000000
# 3 -0.003478 -0.007719 0.011080 0.000000 -0.002150 0.000000
# 4 0.000000 0.000000 0.000000 0.032246 0.000000 0.011472
# 5 0.003652 0.001133 -0.002150 0.000000 0.031196 0.000000
# 6 0.000000 0.000000 0.000000 0.011472 0.000000 0.038354
#
#
# Mechanical properties :
#
#
# Convention : Reuss Voigt Hill
#
# Bulk Modulus (GPa) = 38.40303 56.49558 47.44930
# Shear Modulus (GPa) = 26.26818 31.86570 29.06694
#
# Velocity S-wave (km/s) = 3.50777 3.86348 3.68991
# Velocity P-wave (km/s) = 5.86469 6.80922 6.35453
#
# Compressibility (1/GPa) = 0.02603962
#
# Stress axis : x y z
#
# Youngs Moduli (GPa) = 94.40638 31.96778 90.25229
#
# Poissons Ratio (x) = 0.07225 0.31387
# Poissons Ratio (y) = 0.21337 0.69669
# Poissons Ratio (z) = 0.32832 0.24677
#
# Static dielectric constant tensor:
#      x y z
#    x 4.072560 0.000000 -0.048940 
#    y 0.000000 3.725990 0.000000 
#    z -0.048940 0.000000 3.939640 
# 
# 
# High freq. dielectric constant tensor:
#      x y z
#    x 1.842530 0.000000 0.001670 
#    y 0.000000 1.841210 0.000000 
#    z 0.001670 0.000000 1.847870 
# 
# From -- ./inp_files/74931.got.cif
#   From: 2010.03.12/outbox.cif.g09.slc.cpg/sg14_38_cif.got.tgz:74931.got - 2010.03.31 13:35:05.
