data_PCOD8126933
_publ_section_title
;
Structure prediction by ZEFSAII (Michael W. Deem and Ramdas Pophale) SiO2 
 PCOD8126933
Probable space group: P 21/C
;
_chemical_formula_sum "Si O2"
_cell_formula_units_Z 32
_cell_length_a 11.731053
_cell_length_b 17.110675
_cell_length_c 15.390404
_cell_angle_alpha 90.000000
_cell_angle_beta 151.893909
_cell_angle_gamma 90.000000
_cell_volume 1455.366847
_symmetry_space_group_name_H-M "P 21/C"
_symmetry_group_IT_number 14
_symmetry_cell_setting 'monoclinic'
loop_
_space_group_symop_operation_xyz
x,y,z
-x,1/2+y,1/2-z
-x,-y,-z
x,1/2-y,1/2+z
loop_
_atom_site_type_symbol
_atom_site_label
_atom_site_fract_x
_atom_site_fract_y
_atom_site_fract_z
Si Si1 0.470584 0.663060 0.940123
Si Si2 0.012133 0.803203 0.811426
Si Si3 0.561696 0.167004 0.020860
Si Si4 0.112806 0.096786 0.647906
Si Si5 0.085539 0.625065 0.810603
Si Si6 0.678252 0.067466 0.255208
Si Si7 0.778335 0.946514 0.952583
Si Si8 0.131424 0.615276 0.557453
O O1 0.409997 0.753979 0.906466
O O2 0.350774 0.630536 0.771689
O O3 0.355699 0.623008 0.950050
O O4 0.758480 0.650524 0.128995
O O5 0.994822 0.713777 0.768911
O O6 0.211491 0.848068 0.888721
O O7 0.094960 0.811199 0.968069
O O8 0.548948 0.098613 0.082411
O O9 0.307844 0.166174 0.795916
O O10 0.939760 0.080035 0.615185
O O11 0.925139 0.115612 0.443431
O O12 0.267809 0.022306 0.726356
O O13 0.913868 0.580307 0.629775
O O14 0.502347 0.073162 0.220570
O O15 0.879395 0.897136 0.939289
O O16 0.811821 0.038702 0.960695
#
# Coordination Sequence:
#
# PCOD8126933 Si02
#       8
#     4   4   4   4   4   4   4   4
#     4  10  23  42  61  96 129 168 220 264 321 392
#     4  11  23  41  67  96 128 175 213 267 330 387
#     4  11  23  41  65  92 131 168 211 273 321 381
#     4  11  23  39  61  97 125 165 219 263 321 387
#     4  10  22  42  65  91 134 170 216 268 322 392
#     4  11  24  38  67  96 126 170 214 268 323 384
#     4  10  21  46  65  94 136 172 215 276 327 385
#     4  10  24  41  67  96 131 173 219 269 329 389
#
# _framework density 21.987583999999998
#
# number of rings (size 3 to 8) (size 9 to 14) (size 15 to 20)
#    0.000    1.500    2.500    1.125    5.250    3.000 
#    0.000    4.375    0.000    0.000    0.000    0.000 
#    0.000    0.000    0.000    0.000    0.000    0.000 
#
# Total GULP energy -396651.799137 kJ/mol
# GULP energy per Si atom -12395.368723 kJ/mol
# Density = 2.193754 g / cm^3
# Si number density = 21.987584 Si / 1000 Ang^3
#
#
#
# Elastic Constant Matrix: (Units=GPa)
#
#
# Indices 1 2 3 4 5 6 
#
# 1 141.3998 21.5192 56.4650 0.0000 20.6911 0.0000
# 2 21.5192 35.5811 25.5388 0.0000 -1.4283 0.0000
# 3 56.4650 25.5388 101.5067 0.0000 12.5695 0.0000
# 4 0.0000 0.0000 0.0000 23.9259 0.0000 -0.1837
# 5 20.6911 -1.4283 12.5695 0.0000 36.4033 0.0000
# 6 0.0000 0.0000 0.0000 -0.1837 0.0000 24.3698
#
#
#
# Elastic Compliance Matrix: (Units=1/GPa)
#
#
# Indices 1 2 3 4 5 6 
#
# 1 0.009834 -0.003140 -0.004150 0.000000 -0.004279 0.000000
# 2 -0.003140 0.036028 -0.008058 0.000000 0.005981 0.000000
# 3 -0.004150 -0.008058 0.014557 0.000000 -0.002984 0.000000
# 4 0.000000 0.000000 0.000000 0.041798 0.000000 0.000315
# 5 -0.004279 0.005981 -0.002984 0.000000 0.031167 0.000000
# 6 0.000000 0.000000 0.000000 0.000315 0.000000 0.041037
#
#
# Mechanical properties :
#
#
# Convention : Reuss Voigt Hill
#
# Bulk Modulus (GPa) = 33.64594 53.94820 43.79707
# Shear Modulus (GPa) = 23.25309 28.60412 25.92860
#
# Velocity S-wave (km/s) = 3.25554 3.61074 3.43773
# Velocity P-wave (km/s) = 5.42833 6.47860 5.97658
#
# Compressibility (1/GPa) = 0.02972127
#
# Stress axis : x y z
#
# Youngs Moduli (GPa) = 101.69313 27.75616 68.69532
#
# Poissons Ratio (x) = 0.08716 0.28509
# Poissons Ratio (y) = 0.31934 0.55357
# Poissons Ratio (z) = 0.42203 0.22367
#
# Static dielectric constant tensor:
#      x y z
#    x 4.439490 0.000000 0.165110 
#    y 0.000000 3.724970 0.000000 
#    z 0.165110 0.000000 3.895330 
# 
# 
# High freq. dielectric constant tensor:
#      x y z
#    x 1.886080 0.000000 0.009770 
#    y 0.000000 1.844500 0.000000 
#    z 0.009770 0.000000 1.863190 
# 
# From -- ./inp_files/45398.got.cif
#   From: 2010.03.12/outbox.cif.g09.slc.cpg/sg14_23_cif.got.tgz:45398.got - 2010.03.31 13:35:05.
