data_PCOD8126542
_publ_section_title
;
Structure prediction by ZEFSAII (Michael W. Deem and Ramdas Pophale) SiO2 
 PCOD8126542
Probable space group: P 21/C
;
_chemical_formula_sum "Si O2"
_cell_formula_units_Z 28
_cell_length_a 11.033671
_cell_length_b 12.829661
_cell_length_c 9.756881
_cell_angle_alpha 90.000000
_cell_angle_beta 114.964273
_cell_angle_gamma 90.000000
_cell_volume 1252.126211
_symmetry_space_group_name_H-M "P 21/C"
_symmetry_group_IT_number 14
_symmetry_cell_setting 'monoclinic'
loop_
_space_group_symop_operation_xyz
x,y,z
-x,1/2+y,1/2-z
-x,-y,-z
x,1/2-y,1/2+z
loop_
_atom_site_type_symbol
_atom_site_label
_atom_site_fract_x
_atom_site_fract_y
_atom_site_fract_z
Si Si1 0.395052 0.275258 0.127420
Si Si2 0.575280 0.103831 0.082347
Si Si3 0.124343 0.493624 0.659998
Si Si4 0.818329 0.184187 0.317027
Si Si5 0.646033 0.127195 0.821622
Si Si6 0.783443 0.725837 0.208270
Si Si7 0.951812 0.173546 0.674019
O O1 0.470127 0.170137 0.118212
O O2 0.497664 0.374217 0.181505
O O3 0.338101 0.256362 0.251522
O O4 0.274763 0.300731 0.968458
O O5 0.715424 0.088094 0.234903
O O6 0.625932 0.160671 0.969252
O O7 0.500000 0.000000 0.000000
O O8 0.267142 0.522113 0.656357
O O9 0.133832 0.374241 0.704982
O O10 0.096349 0.568352 0.775464
O O11 0.000000 0.500000 0.500000
O O12 0.724723 0.283211 0.284505
O O13 0.901846 0.164902 0.493822
O O14 0.910718 0.218240 0.231983
O O15 0.886757 0.822627 0.251581
#
# Coordination Sequence:
#
# PCOD8126542 Si02
#       7
#     4   4   4   4   4   4   4
#     4  11  24  42  67  96 139 182 220 284 350 400
#     4  11  22  38  66  97 135 172 225 285 342 408
#     4  11  25  43  72  99 135 184 233 281 352 415
#     4  10  21  40  69  94 129 177 227 281 345 407
#     4  10  21  42  65  96 130 174 228 272 337 421
#     4  12  24  45  67  98 143 179 226 292 344 408
#     4  11  23  44  69 100 135 183 232 285 348 420
#
# _framework density 22.361962999999999
#
# number of rings (size 3 to 8) (size 9 to 14) (size 15 to 20)
#    0.000    1.143    2.857    4.286    0.000    1.714 
#    0.000    1.429    0.000    0.000    0.000    0.000 
#    0.000    0.000    0.000    0.000    0.000    0.000 
#
# Total GULP energy -347027.321299 kJ/mol
# GULP energy per Si atom -12393.832904 kJ/mol
# Density = 2.231107 g / cm^3
# Si number density = 22.361963 Si / 1000 Ang^3
#
#
#
# Elastic Constant Matrix: (Units=GPa)
#
#
# Indices 1 2 3 4 5 6 
#
# 1 120.1172 27.3697 33.0526 0.0000 3.2784 0.0000
# 2 27.3697 41.8749 3.4797 0.0000 7.1565 0.0000
# 3 33.0526 3.4797 138.5969 0.0000 27.1913 0.0000
# 4 0.0000 0.0000 0.0000 30.9407 0.0000 8.7072
# 5 3.2784 7.1565 27.1913 0.0000 45.7670 0.0000
# 6 0.0000 0.0000 0.0000 8.7072 0.0000 35.9898
#
#
#
# Elastic Compliance Matrix: (Units=1/GPa)
#
#
# Indices 1 2 3 4 5 6 
#
# 1 0.010636 -0.007061 -0.002746 0.000000 0.001974 0.000000
# 2 -0.007061 0.029227 0.001978 0.000000 -0.005240 0.000000
# 3 -0.002746 0.001978 0.008877 0.000000 -0.005387 0.000000
# 4 0.000000 0.000000 0.000000 0.034681 0.000000 -0.008391
# 5 0.001974 -0.005240 -0.005387 0.000000 0.025728 0.000000
# 6 0.000000 0.000000 0.000000 -0.008391 0.000000 0.029816
#
#
# Mechanical properties :
#
#
# Convention : Reuss Voigt Hill
#
# Bulk Modulus (GPa) = 30.22842 47.59924 38.91383
# Shear Modulus (GPa) = 30.18400 38.31863 34.25131
#
# Velocity S-wave (km/s) = 3.67794 4.14401 3.91791
# Velocity P-wave (km/s) = 5.61991 6.65050 6.15681
#
# Compressibility (1/GPa) = 0.03308145
#
# Stress axis : x y z
#
# Youngs Moduli (GPa) = 94.02077 34.21521 112.64675
#
# Poissons Ratio (x) = 0.24159 0.30938
# Poissons Ratio (y) = 0.66387 -0.22282
# Poissons Ratio (z) = 0.25822 -0.06768
#
# Static dielectric constant tensor:
#      x y z
#    x 4.688830 0.000000 -0.004090 
#    y 0.000000 3.865730 0.000000 
#    z -0.004090 0.000000 4.293980 
# 
# 
# High freq. dielectric constant tensor:
#      x y z
#    x 1.908410 0.000000 0.004190 
#    y 0.000000 1.846660 0.000000 
#    z 0.004190 0.000000 1.891640 
# 
# From -- ./inp_files/13180.got.cif
#   From: 2010.03.12/outbox.cif.g09.slc.cpg/sg14_7_cif.got.tgz:13180.got - 2010.03.31 13:35:05.
