data_PCOD8126564
_publ_section_title
;
Structure prediction by ZEFSAII (Michael W. Deem and Ramdas Pophale) SiO2 
 PCOD8126564
Probable space group: P 21/C
;
_chemical_formula_sum "Si O2"
_cell_formula_units_Z 28
_cell_length_a 7.478485
_cell_length_b 11.402903
_cell_length_c 20.668727
_cell_angle_alpha 90.000000
_cell_angle_beta 50.295233
_cell_angle_gamma 90.000000
_cell_volume 1356.015693
_symmetry_space_group_name_H-M "P 21/C"
_symmetry_group_IT_number 14
_symmetry_cell_setting 'monoclinic'
loop_
_space_group_symop_operation_xyz
x,y,z
-x,1/2+y,1/2-z
-x,-y,-z
x,1/2-y,1/2+z
loop_
_atom_site_type_symbol
_atom_site_label
_atom_site_fract_x
_atom_site_fract_y
_atom_site_fract_z
Si Si1 0.973952 0.999015 0.302399
Si Si2 0.333964 0.587111 0.622879
Si Si3 0.686875 0.317130 0.799400
Si Si4 0.417310 0.636062 0.462213
Si Si5 0.889378 0.736138 0.883262
Si Si6 0.108293 0.821473 0.461812
Si Si7 0.764172 0.553178 0.134262
O O1 0.176203 0.041036 0.304084
O O2 0.792853 0.102873 0.331806
O O3 0.092043 0.960647 0.207851
O O4 0.832861 0.892351 0.367651
O O5 0.416374 0.700568 0.643884
O O6 0.277916 0.620994 0.561480
O O7 0.541798 0.491428 0.579751
O O8 0.878099 0.287043 0.702007
O O9 0.482118 0.384137 0.810734
O O10 0.281956 0.719853 0.444614
O O11 0.673813 0.682108 0.418839
O O12 0.926606 0.729643 0.951731
O O13 0.966317 0.870044 0.555252
O O14 0.257231 0.926134 0.394888
#
# Coordination Sequence:
#
# PCOD8126564 Si02
#       7
#     4   4   4   4   4   4   4
#     4  10  21  41  61  90 117 157 203 253 296 358
#     4  10  23  38  60  89 122 154 205 240 293 373
#     4  11  21  39  61  87 121 160 197 251 299 351
#     4  11  21  42  61  85 126 164 188 251 305 355
#     4  10  22  37  63  89 120 157 204 247 298 355
#     4  10  22  40  62  92 118 157 203 251 297 360
#     4  10  22  39  64  91 118 153 207 251 299 349
#
# _framework density 20.64873
#
# number of rings (size 3 to 8) (size 9 to 14) (size 15 to 20)
#    0.000    1.714    1.429    2.571    2.000    0.000 
#    0.000   19.286    0.000    0.000    0.000    0.000 
#    0.000    0.000    0.000    0.000    0.000    0.000 
#
# Total GULP energy -347311.647187 kJ/mol
# GULP energy per Si atom -12403.987400 kJ/mol
# Density = 2.060173 g / cm^3
# Si number density = 20.648730 Si / 1000 Ang^3
#
#
#
# Elastic Constant Matrix: (Units=GPa)
#
#
# Indices 1 2 3 4 5 6 
#
# 1 77.9849 63.1425 31.6511 0.0000 -1.8092 0.0000
# 2 63.1425 127.1429 37.3488 0.0000 -0.0416 0.0000
# 3 31.6511 37.3488 83.2426 0.0000 6.8453 0.0000
# 4 0.0000 0.0000 0.0000 22.2542 0.0000 -2.9116
# 5 -1.8092 -0.0416 6.8453 0.0000 19.8443 0.0000
# 6 0.0000 0.0000 0.0000 -2.9116 0.0000 33.6077
#
#
#
# Elastic Compliance Matrix: (Units=1/GPa)
#
#
# Indices 1 2 3 4 5 6 
#
# 1 0.022846 -0.010027 -0.004484 0.000000 0.003609 0.000000
# 2 -0.010027 0.013502 -0.002236 0.000000 -0.000115 0.000000
# 3 -0.004484 -0.002236 0.015186 0.000000 -0.005652 0.000000
# 4 0.000000 0.000000 0.000000 0.045451 0.000000 0.003938
# 5 0.003609 -0.000115 -0.005652 0.000000 0.052671 0.000000
# 6 0.000000 0.000000 0.000000 0.003938 0.000000 0.030096
#
#
# Mechanical properties :
#
#
# Convention : Reuss Voigt Hill
#
# Bulk Modulus (GPa) = 55.43661 61.40615 58.42138
# Shear Modulus (GPa) = 22.80416 25.55644 24.18030
#
# Velocity S-wave (km/s) = 3.32683 3.52188 3.42575
# Velocity P-wave (km/s) = 6.45468 6.80744 6.63340
#
# Compressibility (1/GPa) = 0.01803862
#
# Stress axis : x y z
#
# Youngs Moduli (GPa) = 43.77226 74.06484 65.84991
#
# Poissons Ratio (x) = 0.74266 0.29529
# Poissons Ratio (y) = 0.43891 0.14723
# Poissons Ratio (z) = 0.19629 0.16559
#
# Static dielectric constant tensor:
#      x y z
#    x 3.397820 0.000000 0.165580 
#    y 0.000000 4.083920 0.000000 
#    z 0.165580 0.000000 3.736400 
# 
# 
# High freq. dielectric constant tensor:
#      x y z
#    x 1.785700 0.000000 0.011280 
#    y 0.000000 1.827510 0.000000 
#    z 0.011280 0.000000 1.812840 
# 
# From -- ./inp_files/63443.got.cif
#   From: 2010.03.12/outbox.cif.g09.slc.cpg/sg14_32_cif.got.tgz:63443.got - 2010.03.31 13:35:05.
