data_PCOD8126681
_publ_section_title
;
Structure prediction by ZEFSAII (Michael W. Deem and Ramdas Pophale) SiO2 
 PCOD8126681
Probable space group: P 21/C
;
_chemical_formula_sum "Si O2"
_cell_formula_units_Z 28
_cell_length_a 11.516658
_cell_length_b 9.207400
_cell_length_c 16.054538
_cell_angle_alpha 90.000000
_cell_angle_beta 127.782102
_cell_angle_gamma 90.000000
_cell_volume 1345.484785
_symmetry_space_group_name_H-M "P 21/C"
_symmetry_group_IT_number 14
_symmetry_cell_setting 'monoclinic'
loop_
_space_group_symop_operation_xyz
x,y,z
-x,1/2+y,1/2-z
-x,-y,-z
x,1/2-y,1/2+z
loop_
_atom_site_type_symbol
_atom_site_label
_atom_site_fract_x
_atom_site_fract_y
_atom_site_fract_z
Si Si1 0.842945 0.550406 0.401951
Si Si2 0.787867 0.413261 0.947168
Si Si3 0.297844 0.704710 0.735444
Si Si4 0.704701 0.035986 0.163577
Si Si5 0.435445 0.408717 0.049096
Si Si6 0.373082 0.085819 0.038457
Si Si7 0.896878 0.858551 0.363890
O O1 0.806353 0.432124 0.316622
O O2 0.724155 0.562376 0.423183
O O3 0.838535 0.698545 0.350791
O O4 0.000000 0.500000 0.500000
O O5 0.706065 0.291666 0.854742
O O6 0.678542 0.476119 0.966538
O O7 0.844804 0.544597 0.917106
O O8 0.925902 0.350805 0.060301
O O9 0.234001 0.805933 0.781887
O O10 0.455429 0.637805 0.828240
O O11 0.539946 0.033192 0.132427
O O12 0.818670 0.915030 0.245749
O O13 0.693171 0.023114 0.059653
O O14 0.365364 0.250220 0.995669
O O15 0.500000 0.500000 0.000000
#
# Coordination Sequence:
#
# PCOD8126681 Si02
#       7
#     4   4   4   4   4   4   4
#     4  12  24  42  65 100 132 170 228 274 331 403
#     4  10  21  43  68  95 133 172 223 273 333 400
#     4  10  24  40  67  99 130 174 219 276 327 405
#     4   9  22  43  68  94 131 180 215 270 353 391
#     4  11  25  42  67 103 134 174 224 279 334 409
#     4  10  23  44  66  98 137 172 222 286 332 400
#     4  10  21  41  68  93 130 178 218 276 332 401
#
# _framework density 20.810344000000001
#
# number of rings (size 3 to 8) (size 9 to 14) (size 15 to 20)
#    0.000    1.714    2.857    0.000    8.000    3.429 
#    2.571    0.000    0.000    0.000    0.000    0.000 
#    0.000    0.000    0.000    0.000    0.000    0.000 
#
# Total GULP energy -346944.068447 kJ/mol
# GULP energy per Si atom -12390.859587 kJ/mol
# Density = 2.076298 g / cm^3
# Si number density = 20.810344 Si / 1000 Ang^3
#
#
#
# Elastic Constant Matrix: (Units=GPa)
#
#
# Indices 1 2 3 4 5 6 
#
# 1 84.2006 47.7511 51.6900 0.0000 11.4563 0.0000
# 2 47.7511 127.5725 61.4753 0.0000 4.3431 0.0000
# 3 51.6900 61.4753 121.0496 0.0000 15.9067 0.0000
# 4 0.0000 0.0000 0.0000 39.7547 0.0000 4.7906
# 5 11.4563 4.3431 15.9067 0.0000 17.6801 0.0000
# 6 0.0000 0.0000 0.0000 4.7906 0.0000 28.9927
#
#
#
# Elastic Compliance Matrix: (Units=1/GPa)
#
#
# Indices 1 2 3 4 5 6 
#
# 1 0.018059 -0.004279 -0.004694 0.000000 -0.006428 0.000000
# 2 -0.004279 0.011490 -0.004538 0.000000 0.004033 0.000000
# 3 -0.004694 -0.004538 0.013636 0.000000 -0.008112 0.000000
# 4 0.000000 0.000000 0.000000 0.025665 0.000000 -0.004241
# 5 -0.006428 0.004033 -0.008112 0.000000 0.067033 0.000000
# 6 0.000000 0.000000 0.000000 -0.004241 0.000000 0.035192
#
#
# Mechanical properties :
#
#
# Convention : Reuss Voigt Hill
#
# Bulk Modulus (GPa) = 61.86751 72.73952 67.30352
# Shear Modulus (GPa) = 24.57189 28.74591 26.65890
#
# Velocity S-wave (km/s) = 3.43994 3.72065 3.58305
# Velocity P-wave (km/s) = 6.75065 7.31349 7.03770
#
# Compressibility (1/GPa) = 0.01616357
#
# Stress axis : x y z
#
# Youngs Moduli (GPa) = 55.37389 87.03411 73.33572
#
# Poissons Ratio (x) = 0.37241 0.34422
# Poissons Ratio (y) = 0.23694 0.33279
# Poissons Ratio (z) = 0.25991 0.39495
#
# Static dielectric constant tensor:
#      x y z
#    x 3.555830 0.000000 0.249380 
#    y 0.000000 4.042390 0.000000 
#    z 0.249380 0.000000 3.797630 
# 
# 
# High freq. dielectric constant tensor:
#      x y z
#    x 1.789830 0.000000 0.017840 
#    y 0.000000 1.833650 0.000000 
#    z 0.017840 0.000000 1.818940 
# 
# From -- ./inp_files/43832.got.cif
#   From: 2010.03.12/outbox.cif.g09.slc.cpg/sg14_22_cif.got.tgz:43832.got - 2010.03.31 13:35:05.
