data_PCOD8126834
_publ_section_title
;
Structure prediction by ZEFSAII (Michael W. Deem and Ramdas Pophale) SiO2 
 PCOD8126834
Probable space group: P 21/C
;
_chemical_formula_sum "Si O2"
_cell_formula_units_Z 32
_cell_length_a 21.928477
_cell_length_b 11.741556
_cell_length_c 15.067952
_cell_angle_alpha 90.000000
_cell_angle_beta 22.638122
_cell_angle_gamma 90.000000
_cell_volume 1493.299711
_symmetry_space_group_name_H-M "P 21/C"
_symmetry_group_IT_number 14
_symmetry_cell_setting 'monoclinic'
loop_
_space_group_symop_operation_xyz
x,y,z
-x,1/2+y,1/2-z
-x,-y,-z
x,1/2-y,1/2+z
loop_
_atom_site_type_symbol
_atom_site_label
_atom_site_fract_x
_atom_site_fract_y
_atom_site_fract_z
Si Si1 0.313449 0.496196 0.450253
Si Si2 0.851565 0.341479 0.869713
Si Si3 0.201012 0.264029 0.391974
Si Si4 0.198146 0.867630 0.951121
Si Si5 0.145482 0.398295 0.127901
Si Si6 0.507770 0.365014 0.061109
Si Si7 0.383438 0.776461 0.933371
Si Si8 0.711364 0.769414 0.924493
O O1 0.186229 0.555137 0.555707
O O2 0.361292 0.587307 0.460970
O O3 0.232509 0.385249 0.601840
O O4 0.472737 0.460931 0.182323
O O5 0.790771 0.265125 0.034514
O O6 0.041789 0.338200 0.609113
O O7 0.796601 0.471493 0.954992
O O8 0.775442 0.290911 0.881528
O O9 0.190352 0.158269 0.473666
O O10 0.223619 0.221520 0.261673
O O11 0.346956 0.343545 0.223209
O O12 0.042876 0.889909 0.101462
O O13 0.354752 0.907360 0.688454
O O14 0.225206 0.337822 0.104957
O O15 0.568294 0.251640 0.030517
O O16 0.520596 0.738656 0.679591
#
# Coordination Sequence:
#
# PCOD8126834 Si02
#       8
#     4   4   4   4   4   4   4   4
#     4  10  21  43  65  94 133 171 215 271 323 394
#     4  10  24  43  64  94 135 164 219 272 324 389
#     4  11  23  44  67 100 128 174 219 265 335 392
#     4  10  23  41  68  95 130 175 219 266 328 388
#     4  11  24  43  66  97 134 172 215 277 326 384
#     4  11  22  41  69  98 131 172 225 263 330 392
#     4  10  23  42  63  99 131 170 216 274 323 387
#     4  11  25  41  67  95 132 171 221 271 329 388
#
# _framework density 21.429054000000001
#
# number of rings (size 3 to 8) (size 9 to 14) (size 15 to 20)
#    0.000    1.500    2.500    2.625    7.000    2.500 
#    0.000    7.500    0.000    0.000    0.000    0.000 
#    0.000    0.000    0.000    0.000    0.000    0.000 
#
# Total GULP energy -396826.193724 kJ/mol
# GULP energy per Si atom -12400.818554 kJ/mol
# Density = 2.138028 g / cm^3
# Si number density = 21.429054 Si / 1000 Ang^3
#
#
#
# Elastic Constant Matrix: (Units=GPa)
#
#
# Indices 1 2 3 4 5 6 
#
# 1 101.2109 36.8753 28.6425 0.0000 -2.4689 0.0000
# 2 36.8753 139.0230 4.0621 0.0000 -2.3628 0.0000
# 3 28.6425 4.0621 61.8045 0.0000 -5.0168 0.0000
# 4 0.0000 0.0000 0.0000 19.9827 0.0000 -1.5713
# 5 -2.4689 -2.3628 -5.0168 0.0000 39.9452 0.0000
# 6 0.0000 0.0000 0.0000 -1.5713 0.0000 29.5434
#
#
#
# Elastic Compliance Matrix: (Units=1/GPa)
#
#
# Indices 1 2 3 4 5 6 
#
# 1 0.012641 -0.003190 -0.005658 0.000000 -0.000118 0.000000
# 2 -0.003190 0.008017 0.000984 0.000000 0.000401 0.000000
# 3 -0.005658 0.000984 0.018907 0.000000 0.002083 0.000000
# 4 0.000000 0.000000 0.000000 0.050254 0.000000 0.002673
# 5 -0.000118 0.000401 0.002083 0.000000 0.025312 0.000000
# 6 0.000000 0.000000 0.000000 0.002673 0.000000 0.033991
#
#
# Mechanical properties :
#
#
# Convention : Reuss Voigt Hill
#
# Bulk Modulus (GPa) = 41.95217 49.02200 45.48709
# Shear Modulus (GPa) = 28.93607 33.39150 31.16378
#
# Velocity S-wave (km/s) = 3.67866 3.95173 3.81764
# Velocity P-wave (km/s) = 6.13703 6.61420 6.38008
#
# Compressibility (1/GPa) = 0.02383667
#
# Stress axis : x y z
#
# Youngs Moduli (GPa) = 79.10875 124.73261 52.89136
#
# Poissons Ratio (x) = 0.39785 0.29927
# Poissons Ratio (y) = 0.25233 -0.05203
# Poissons Ratio (z) = 0.44761 -0.12271
#
# Static dielectric constant tensor:
#      x y z
#    x 3.920510 0.000000 -0.154330 
#    y 0.000000 3.911730 0.000000 
#    z -0.154330 0.000000 3.749280 
# 
# 
# High freq. dielectric constant tensor:
#      x y z
#    x 1.842870 0.000000 -0.015780 
#    y 0.000000 1.848160 0.000000 
#    z -0.015780 0.000000 1.825560 
# 
# From -- ./inp_files/62352.got.cif
#   From: 2010.03.12/outbox.cif.g09.slc.cpg/sg14_32_cif.got.tgz:62352.got - 2010.03.31 13:35:05.
