data_PCOD8126202
_publ_section_title
;
Structure prediction by ZEFSAII (Michael W. Deem and Ramdas Pophale) SiO2 
 PCOD8126202
Probable space group: P 21/C
;
_chemical_formula_sum "Si O2"
_cell_formula_units_Z 28
_cell_length_a 7.461864
_cell_length_b 12.327676
_cell_length_c 20.216587
_cell_angle_alpha 90.000000
_cell_angle_beta 136.881491
_cell_angle_gamma 90.000000
_cell_volume 1271.103768
_symmetry_space_group_name_H-M "P 21/C"
_symmetry_group_IT_number 14
_symmetry_cell_setting 'monoclinic'
loop_
_space_group_symop_operation_xyz
x,y,z
-x,1/2+y,1/2-z
-x,-y,-z
x,1/2-y,1/2+z
loop_
_atom_site_type_symbol
_atom_site_label
_atom_site_fract_x
_atom_site_fract_y
_atom_site_fract_z
Si Si1 0.045861 0.339650 0.489844
Si Si2 0.490621 0.659387 0.488509
Si Si3 0.376473 0.111291 0.444295
Si Si4 0.254473 0.489844 0.342496
Si Si5 0.648428 0.503501 0.339412
Si Si6 0.671338 0.009382 0.693761
Si Si7 0.143181 0.104977 0.510294
O O1 0.253139 0.350975 0.487217
O O2 0.143620 0.407042 0.579603
O O3 0.016886 0.214347 0.506321
O O4 0.771794 0.384829 0.387515
O O5 0.434966 0.784508 0.492750
O O6 0.251284 0.602924 0.384168
O O7 0.541796 0.593966 0.569770
O O8 0.121018 0.118629 0.423989
O O9 0.500000 0.000000 0.500000
O O10 0.319725 0.098819 0.350692
O O11 0.364594 0.512095 0.298460
O O12 0.962398 0.439394 0.264425
O O13 0.602672 0.524551 0.249721
O O14 0.453999 0.096999 0.611896
O O15 0.000000 0.000000 0.500000
#
# Coordination Sequence:
#
# PCOD8126202 Si02
#       7
#     4   4   4   4   4   4   4
#     4   9  19  42  66  93 131 172 208 265 329 384
#     4   9  18  40  64  93 126 173 205 264 331 381
#     4   9  21  42  61  86 130 175 209 258 326 384
#     4  10  21  38  69  97 128 163 216 269 322 383
#     4  10  21  39  69  98 128 164 217 270 319 381
#     4  11  23  43  61  99 129 165 225 269 312 387
#     4  10  23  44  67  88 132 178 214 261 333 389
#
# _framework density 22.028098
#
# number of rings (size 3 to 8) (size 9 to 14) (size 15 to 20)
#    0.000    2.286    1.429    0.000    4.000    2.286 
#   15.429    0.000    0.000    0.000    0.000    0.000 
#    0.000    0.000    0.000    0.000    0.000    0.000 
#
# Total GULP energy -346930.974613 kJ/mol
# GULP energy per Si atom -12390.391950 kJ/mol
# Density = 2.197796 g / cm^3
# Si number density = 22.028098 Si / 1000 Ang^3
#
#
#
# Elastic Constant Matrix: (Units=GPa)
#
#
# Indices 1 2 3 4 5 6 
#
# 1 106.2808 28.1042 51.5565 0.0000 -24.2619 0.0000
# 2 28.1042 164.4990 38.2927 0.0000 -8.9947 0.0000
# 3 51.5565 38.2927 91.2369 0.0000 -13.6342 0.0000
# 4 0.0000 0.0000 0.0000 17.9649 0.0000 0.4047
# 5 -24.2619 -8.9947 -13.6342 0.0000 46.0833 0.0000
# 6 0.0000 0.0000 0.0000 0.4047 0.0000 26.7638
#
#
#
# Elastic Compliance Matrix: (Units=1/GPa)
#
#
# Indices 1 2 3 4 5 6 
#
# 1 0.014137 -0.000499 -0.006990 0.000000 0.005277 0.000000
# 2 -0.000499 0.006766 -0.002510 0.000000 0.000315 0.000000
# 3 -0.006990 -0.002510 0.016051 0.000000 0.000579 0.000000
# 4 0.000000 0.000000 0.000000 0.055683 0.000000 -0.000842
# 5 0.005277 0.000315 0.000579 0.000000 0.024711 0.000000
# 6 0.000000 0.000000 0.000000 -0.000842 0.000000 0.037377
#
#
# Mechanical properties :
#
#
# Convention : Reuss Voigt Hill
#
# Bulk Modulus (GPa) = 58.98614 66.43592 62.71103
# Shear Modulus (GPa) = 27.72001 34.43328 31.07665
#
# Velocity S-wave (km/s) = 3.55123 3.95796 3.76010
# Velocity P-wave (km/s) = 6.60688 7.14929 6.88343
#
# Compressibility (1/GPa) = 0.01695314
#
# Stress axis : x y z
#
# Youngs Moduli (GPa) = 70.73801 147.79768 62.30286
#
# Poissons Ratio (x) = 0.07382 0.43551
# Poissons Ratio (y) = 0.03533 0.15641
# Poissons Ratio (z) = 0.49447 0.37104
#
# Static dielectric constant tensor:
#      x y z
#    x 4.359770 0.000000 -0.440870 
#    y 0.000000 4.290920 0.000000 
#    z -0.440870 0.000000 4.087200 
# 
# 
# High freq. dielectric constant tensor:
#      x y z
#    x 1.877850 0.000000 -0.018500 
#    y 0.000000 1.854910 0.000000 
#    z -0.018500 0.000000 1.839550 
# 
# From -- ./inp_files/72304.got.cif
#   From: 2010.03.12/outbox.cif.g09.slc.cpg/sg14_37_cif.got.tgz:72304.got - 2010.03.31 13:35:05.
