data_PCOD8126074
_publ_section_title
;
Structure prediction by ZEFSAII (Michael W. Deem and Ramdas Pophale) SiO2 
 PCOD8126074
Probable space group: P 21/C
;
_chemical_formula_sum "Si O2"
_cell_formula_units_Z 32
_cell_length_a 12.927749
_cell_length_b 8.388685
_cell_length_c 19.273503
_cell_angle_alpha 90.000000
_cell_angle_beta 45.222821
_cell_angle_gamma 90.000000
_cell_volume 1483.695770
_symmetry_space_group_name_H-M "P 21/C"
_symmetry_group_IT_number 14
_symmetry_cell_setting 'monoclinic'
loop_
_space_group_symop_operation_xyz
x,y,z
-x,1/2+y,1/2-z
-x,-y,-z
x,1/2-y,1/2+z
loop_
_atom_site_type_symbol
_atom_site_label
_atom_site_fract_x
_atom_site_fract_y
_atom_site_fract_z
Si Si1 0.899928 0.157588 0.464944
Si Si2 0.006552 0.638683 0.846856
Si Si3 0.259019 0.318097 0.514547
Si Si4 0.346361 0.994929 0.328438
Si Si5 0.165744 0.563233 0.294558
Si Si6 0.164412 0.297127 0.403637
Si Si7 0.452797 0.785904 0.677917
Si Si8 0.904659 0.404476 0.346079
O O1 0.870430 0.246818 0.406210
O O2 0.990961 0.267518 0.475173
O O3 0.749706 0.099246 0.569093
O O4 0.010247 0.013457 0.394449
O O5 0.069401 0.784227 0.863368
O O6 0.103460 0.627799 0.731798
O O7 0.836717 0.673810 0.908141
O O8 0.204368 0.347094 0.462030
O O9 0.428944 0.273274 0.434571
O O10 0.226253 0.474590 0.574750
O O11 0.253040 0.138596 0.338359
O O12 0.482700 0.078363 0.301918
O O13 0.400304 0.869744 0.245677
O O14 0.206966 0.449141 0.338218
O O15 0.321261 0.634947 0.195996
O O16 0.068525 0.471299 0.283190
#
# Coordination Sequence:
#
# PCOD8126074 Si02
#       8
#     4   4   4   4   4   4   4   4
#     4  11  21  35  62  93 122 160 209 264 303 369
#     4  11  21  43  62  87 117 164 215 260 301 350
#     4  10  22  40  61  89 131 158 200 260 305 385
#     4  11  23  35  59  89 140 162 194 249 313 400
#     4  10  23  39  67  90 126 159 204 263 303 382
#     4  10  21  38  59 101 122 158 202 256 326 360
#     4  11  22  39  58  94 129 170 197 246 328 369
#     4  10  24  39  65  86 118 168 217 257 305 353
#
# _framework density 21.567765000000001
#
# number of rings (size 3 to 8) (size 9 to 14) (size 15 to 20)
#    0.000    1.500    2.500    4.125    7.000    2.500 
#    0.000    1.250    0.000    0.000    0.000    0.000 
#    0.000    0.000    0.000    0.000    0.000    0.000 
#
# Total GULP energy -396552.694687 kJ/mol
# GULP energy per Si atom -12392.271709 kJ/mol
# Density = 2.151868 g / cm^3
# Si number density = 21.567765 Si / 1000 Ang^3
#
#
#
# Elastic Constant Matrix: (Units=GPa)
#
#
# Indices 1 2 3 4 5 6 
#
# 1 38.0453 19.9724 26.2055 0.0000 -15.1824 0.0000
# 2 19.9724 98.0049 58.6676 0.0000 -12.8275 0.0000
# 3 26.2055 58.6676 126.3586 0.0000 -14.8797 0.0000
# 4 0.0000 0.0000 0.0000 36.1345 0.0000 -7.2216
# 5 -15.1824 -12.8275 -14.8797 0.0000 28.1250 0.0000
# 6 0.0000 0.0000 0.0000 -7.2216 0.0000 26.8549
#
#
#
# Elastic Compliance Matrix: (Units=1/GPa)
#
#
# Indices 1 2 3 4 5 6 
#
# 1 0.037469 -0.002747 -0.004544 0.000000 0.016569 0.000000
# 2 -0.002747 0.014603 -0.005973 0.000000 0.002017 0.000000
# 3 -0.004544 -0.005973 0.011752 0.000000 0.001040 0.000000
# 4 0.000000 0.000000 0.000000 0.029246 0.000000 0.007865
# 5 0.016569 0.002017 0.001040 0.000000 0.045971 0.000000
# 6 0.000000 0.000000 0.000000 0.007865 0.000000 0.039352
#
#
# Mechanical properties :
#
#
# Convention : Reuss Voigt Hill
#
# Bulk Modulus (GPa) = 26.81252 52.45554 39.63403
# Shear Modulus (GPa) = 23.00420 28.72708 25.86564
#
# Velocity S-wave (km/s) = 3.26943 3.65354 3.46681
# Velocity P-wave (km/s) = 5.16826 6.49399 5.86868
#
# Compressibility (1/GPa) = 0.03729601
#
# Stress axis : x y z
#
# Youngs Moduli (GPa) = 26.68903 68.47994 85.09181
#
# Poissons Ratio (x) = 0.18810 0.38667
# Poissons Ratio (y) = 0.07331 0.50823
# Poissons Ratio (z) = 0.12128 0.40901
#
# Static dielectric constant tensor:
#      x y z
#    x 3.637290 0.000000 -0.312630 
#    y 0.000000 4.193670 0.000000 
#    z -0.312630 0.000000 3.935980 
# 
# 
# High freq. dielectric constant tensor:
#      x y z
#    x 1.817790 0.000000 -0.015710 
#    y 0.000000 1.866860 0.000000 
#    z -0.015710 0.000000 1.838220 
# 
# From -- ./inp_files/68197.got.cif
#   From: 2010.03.12/outbox.cif.g09.slc.cpg/sg14_35_cif.got.tgz:68197.got - 2010.03.31 13:35:05.
