data_PCOD8126239
_publ_section_title
;
Structure prediction by ZEFSAII (Michael W. Deem and Ramdas Pophale) SiO2 
 PCOD8126239
Probable space group: P 21/C
;
_chemical_formula_sum "Si O2"
_cell_formula_units_Z 32
_cell_length_a 12.446358
_cell_length_b 8.279969
_cell_length_c 30.347406
_cell_angle_alpha 90.000000
_cell_angle_beta 152.442537
_cell_angle_gamma 90.000000
_cell_volume 1446.884479
_symmetry_space_group_name_H-M "P 21/C"
_symmetry_group_IT_number 14
_symmetry_cell_setting 'monoclinic'
loop_
_space_group_symop_operation_xyz
x,y,z
-x,1/2+y,1/2-z
-x,-y,-z
x,1/2-y,1/2+z
loop_
_atom_site_type_symbol
_atom_site_label
_atom_site_fract_x
_atom_site_fract_y
_atom_site_fract_z
Si Si1 0.608243 0.003985 0.274537
Si Si2 0.551845 0.332813 0.371788
Si Si3 0.978854 0.293269 0.066223
Si Si4 0.231257 0.841006 0.364573
Si Si5 0.740219 0.576476 0.275060
Si Si6 0.305456 0.485915 0.981413
Si Si7 0.768360 0.470530 0.687501
Si Si8 0.889838 0.224105 0.317036
O O1 0.491576 0.925126 0.189369
O O2 0.783311 0.879670 0.363734
O O3 0.410846 0.055478 0.235836
O O4 0.751599 0.159715 0.309818
O O5 0.832909 0.309473 0.477190
O O6 0.411465 0.163072 0.317819
O O7 0.460420 0.424057 0.382901
O O8 0.797282 0.431987 0.012881
O O9 0.042202 0.187814 0.132218
O O10 0.280049 0.880909 0.433372
O O11 0.254357 0.647523 0.363321
O O12 0.432362 0.937616 0.411767
O O13 0.981821 0.906298 0.257860
O O14 0.850300 0.413142 0.297109
O O15 0.161701 0.321364 0.919208
O O16 0.798169 0.355318 0.739696
#
# Coordination Sequence:
#
# PCOD8126239 Si02
#       8
#     4   4   4   4   4   4   4   4
#     4   9  20  42  59  89 126 161 201 251 303 361
#     4  10  23  40  60  92 126 157 206 253 302 366
#     4  10  22  38  62  88 125 164 196 256 305 360
#     4  10  21  39  61  85 118 161 201 255 298 366
#     4  11  21  37  67  86 121 163 200 250 307 364
#     4   9  21  40  58  84 126 155 200 254 306 354
#     4  10  23  37  60  87 121 157 202 254 301 357
#     4   9  19  37  58  86 117 157 200 249 309 355
#
# _framework density 22.116486999999999
#
# number of rings (size 3 to 8) (size 9 to 14) (size 15 to 20)
#    0.000    2.250    0.000    3.750    5.250    2.000 
#    0.000    0.625    0.000    0.000    0.000    0.000 
#    0.000    0.000    0.000    0.000    0.000    0.000 
#
# Total GULP energy -396537.262864 kJ/mol
# GULP energy per Si atom -12391.789464 kJ/mol
# Density = 2.206615 g / cm^3
# Si number density = 22.116487 Si / 1000 Ang^3
#
#
#
# Elastic Constant Matrix: (Units=GPa)
#
#
# Indices 1 2 3 4 5 6 
#
# 1 46.6857 11.9164 -2.8589 0.0000 11.1475 0.0000
# 2 11.9164 95.0208 8.1950 0.0000 -2.5255 0.0000
# 3 -2.8589 8.1950 89.9958 0.0000 3.9475 0.0000
# 4 0.0000 0.0000 0.0000 17.6327 0.0000 0.5358
# 5 11.1475 -2.5255 3.9475 0.0000 20.6907 0.0000
# 6 0.0000 0.0000 0.0000 0.5358 0.0000 29.4984
#
#
#
# Elastic Compliance Matrix: (Units=1/GPa)
#
#
# Indices 1 2 3 4 5 6 
#
# 1 0.026053 -0.003820 0.001827 0.000000 -0.014851 0.000000
# 2 -0.003820 0.011213 -0.001304 0.000000 0.003675 0.000000
# 3 0.001827 -0.001304 0.011434 0.000000 -0.003325 0.000000
# 4 0.000000 0.000000 0.000000 0.056744 0.000000 -0.001031
# 5 -0.014851 0.003675 -0.003325 0.000000 0.057415 0.000000
# 6 0.000000 0.000000 0.000000 -0.001031 0.000000 0.033919
#
#
# Mechanical properties :
#
#
# Convention : Reuss Voigt Hill
#
# Bulk Modulus (GPa) = 23.74873 29.57859 26.66366
# Shear Modulus (GPa) = 22.99839 27.86101 25.42970
#
# Velocity S-wave (km/s) = 3.22821 3.55313 3.39456
# Velocity P-wave (km/s) = 4.96552 5.49873 5.23891
#
# Compressibility (1/GPa) = 0.04210751
#
# Stress axis : x y z
#
# Youngs Moduli (GPa) = 38.38370 89.18119 87.45686
#
# Poissons Ratio (x) = 0.34063 -0.15977
# Poissons Ratio (y) = 0.14661 0.11401
# Poissons Ratio (z) = -0.07012 0.11626
#
# Static dielectric constant tensor:
#      x y z
#    x 3.780680 0.000000 0.267530 
#    y 0.000000 4.307870 0.000000 
#    z 0.267530 0.000000 4.050580 
# 
# 
# High freq. dielectric constant tensor:
#      x y z
#    x 1.853110 0.000000 0.017180 
#    y 0.000000 1.873630 0.000000 
#    z 0.017180 0.000000 1.862410 
# 
# From -- ./inp_files/80047.got.cif
#   From: 2010.03.12/outbox.cif.g09.slc.cpg/sg14_41_cif.got.tgz:80047.got - 2010.03.31 13:35:05.
