data_PCOD8126682
_publ_section_title
;
Structure prediction by ZEFSAII (Michael W. Deem and Ramdas Pophale) SiO2 
 PCOD8126682
Probable space group: P 21/C
;
_chemical_formula_sum "Si O2"
_cell_formula_units_Z 32
_cell_length_a 22.810658
_cell_length_b 14.774122
_cell_length_c 8.634991
_cell_angle_alpha 90.000000
_cell_angle_beta 149.636512
_cell_angle_gamma 90.000000
_cell_volume 1470.986932
_symmetry_space_group_name_H-M "P 21/C"
_symmetry_group_IT_number 14
_symmetry_cell_setting 'monoclinic'
loop_
_space_group_symop_operation_xyz
x,y,z
-x,1/2+y,1/2-z
-x,-y,-z
x,1/2-y,1/2+z
loop_
_atom_site_type_symbol
_atom_site_label
_atom_site_fract_x
_atom_site_fract_y
_atom_site_fract_z
Si Si1 0.467548 0.360653 0.295340
Si Si2 0.936003 0.593576 0.684484
Si Si3 0.978236 0.894237 0.622835
Si Si4 0.766402 0.649772 0.825004
Si Si5 0.868772 0.228198 0.483509
Si Si6 0.647058 0.789397 0.757784
Si Si7 0.737012 0.154593 0.463619
Si Si8 0.729336 0.961691 0.525339
O O1 0.427146 0.284684 0.322175
O O2 0.604581 0.364900 0.620761
O O3 0.439013 0.343396 0.050445
O O4 0.399023 0.451856 0.191188
O O5 0.816792 0.606827 0.315930
O O6 0.982204 0.494790 0.744013
O O7 0.906008 0.599552 0.797984
O O8 0.028074 0.671308 0.856979
O O9 0.902000 0.857946 0.593167
O O10 0.082625 0.822883 0.838357
O O11 0.746019 0.742190 0.875748
O O12 0.699414 0.645156 0.508146
O O13 0.725262 0.565173 0.834682
O O14 0.812303 0.163552 0.481193
O O15 0.764940 0.256220 0.128650
O O16 0.775639 0.064307 0.644331
#
# Coordination Sequence:
#
# PCOD8126682 Si02
#       8
#     4   4   4   4   4   4   4   4
#     4  10  21  41  68  93 132 174 221 276 330 386
#     4  11  25  44  65  97 138 173 222 272 336 395
#     4  11  24  41  63  98 131 177 215 269 333 401
#     4  10  22  36  62  93 130 162 214 276 330 387
#     4  12  26  42  67  95 135 177 217 273 333 397
#     4   9  20  39  62  99 123 165 223 278 322 386
#     4  12  25  45  64  97 130 179 222 268 334 402
#     4  11  24  42  67  96 133 171 224 279 327 398
#
# _framework density 21.754102
#
# number of rings (size 3 to 8) (size 9 to 14) (size 15 to 20)
#    0.000    1.250    2.500    2.625    8.750    1.000 
#    0.000    0.625    0.000    0.000    0.000    0.000 
#    0.000    0.000    0.000    0.000    0.000    0.000 
#
# Total GULP energy -396693.327194 kJ/mol
# GULP energy per Si atom -12396.666475 kJ/mol
# Density = 2.170459 g / cm^3
# Si number density = 21.754102 Si / 1000 Ang^3
#
#
#
# Elastic Constant Matrix: (Units=GPa)
#
#
# Indices 1 2 3 4 5 6 
#
# 1 73.7419 13.4093 34.9551 0.0000 -8.0101 0.0000
# 2 13.4093 95.2819 31.3299 0.0000 -0.1160 0.0000
# 3 34.9551 31.3299 108.3474 0.0000 -5.7780 0.0000
# 4 0.0000 0.0000 0.0000 30.7543 0.0000 -3.2496
# 5 -8.0101 -0.1160 -5.7780 0.0000 34.4776 0.0000
# 6 0.0000 0.0000 0.0000 -3.2496 0.0000 27.2498
#
#
#
# Elastic Compliance Matrix: (Units=1/GPa)
#
#
# Indices 1 2 3 4 5 6 
#
# 1 0.016337 -0.000679 -0.004916 0.000000 0.002969 0.000000
# 2 -0.000679 0.011636 -0.003180 0.000000 -0.000652 0.000000
# 3 -0.004916 -0.003180 0.011779 0.000000 0.000821 0.000000
# 4 0.000000 0.000000 0.000000 0.032931 0.000000 0.003927
# 5 0.002969 -0.000652 0.000821 0.000000 0.029830 0.000000
# 6 0.000000 0.000000 0.000000 0.003927 0.000000 0.037166
#
#
# Mechanical properties :
#
#
# Convention : Reuss Voigt Hill
#
# Bulk Modulus (GPa) = 45.04282 48.52886 46.78584
# Shear Modulus (GPa) = 30.37135 31.67482 31.02308
#
# Velocity S-wave (km/s) = 3.74052 3.81995 3.78044
# Velocity P-wave (km/s) = 6.27740 6.46625 6.37252
#
# Compressibility (1/GPa) = 0.02220110
#
# Stress axis : x y z
#
# Youngs Moduli (GPa) = 61.21034 85.94269 84.89712
#
# Poissons Ratio (x) = 0.05837 0.41735
# Poissons Ratio (y) = 0.04157 0.26999
# Poissons Ratio (z) = 0.30091 0.27332
#
# Static dielectric constant tensor:
#      x y z
#    x 3.941290 0.000000 -0.122610 
#    y 0.000000 3.848970 0.000000 
#    z -0.122610 0.000000 3.936340 
# 
# 
# High freq. dielectric constant tensor:
#      x y z
#    x 1.858640 0.000000 -0.008740 
#    y 0.000000 1.849560 0.000000 
#    z -0.008740 0.000000 1.855300 
# 
# From -- ./inp_files/19531.got.cif
#   From: 2010.03.12/outbox.cif.g09.slc.cpg/sg14_10_cif.got.tgz:19531.got - 2010.03.31 13:35:05.
