data_PCOD8126893
_publ_section_title
;
Structure prediction by ZEFSAII (Michael W. Deem and Ramdas Pophale) SiO2 
 PCOD8126893
Probable space group: P 21/C
;
_chemical_formula_sum "Si O2"
_cell_formula_units_Z 32
_cell_length_a 9.149396
_cell_length_b 15.513451
_cell_length_c 10.898047
_cell_angle_alpha 90.000000
_cell_angle_beta 69.586271
_cell_angle_gamma 90.000000
_cell_volume 1449.709805
_symmetry_space_group_name_H-M "P 21/C"
_symmetry_group_IT_number 14
_symmetry_cell_setting 'monoclinic'
loop_
_space_group_symop_operation_xyz
x,y,z
-x,1/2+y,1/2-z
-x,-y,-z
x,1/2-y,1/2+z
loop_
_atom_site_type_symbol
_atom_site_label
_atom_site_fract_x
_atom_site_fract_y
_atom_site_fract_z
Si Si1 0.971556 0.049123 0.886623
Si Si2 0.826291 0.620923 0.179633
Si Si3 0.362572 0.815488 0.513368
Si Si4 0.959334 0.786151 0.250383
Si Si5 0.652415 0.016646 0.875903
Si Si6 0.876140 0.464248 0.890563
Si Si7 0.302944 0.131745 0.522230
Si Si8 0.294399 0.809682 0.254076
O O1 0.019914 0.150270 0.873372
O O2 0.786572 0.048543 0.926486
O O3 0.071029 0.997740 0.757496
O O4 0.000000 0.000000 0.000000
O O5 0.936846 0.687618 0.220284
O O6 0.700827 0.573953 0.302040
O O7 0.958499 0.553874 0.087021
O O8 0.723745 0.670065 0.106852
O O9 0.218405 0.875499 0.589438
O O10 0.522090 0.868786 0.480225
O O11 0.343669 0.779063 0.378109
O O12 0.368381 0.741889 0.616954
O O13 0.797619 0.811227 0.358666
O O14 0.105462 0.802636 0.299585
O O15 0.639353 0.092180 0.776633
O O16 0.500000 0.000000 0.000000
O O17 0.759387 0.534458 0.981128
#
# Coordination Sequence:
#
# PCOD8126893 Si02
#       8
#     4   4   4   4   4   4   4   4
#     4   9  21  40  65 100 138 181 229 275 335 413
#     4  11  22  42  70  97 133 185 226 281 346 415
#     4  12  26  44  70  99 140 179 229 291 350 414
#     4  10  23  42  65 100 133 180 231 280 332 420
#     4  10  24  42  67  96 139 177 225 286 351 413
#     4  10  21  44  66  98 131 184 224 278 341 417
#     4  11  25  39  69  99 135 167 232 282 341 411
#     4  11  26  47  67  99 138 188 230 286 356 420
#
# _framework density 22.073384000000001
#
# number of rings (size 3 to 8) (size 9 to 14) (size 15 to 20)
#    0.000    1.500    1.250    3.000    3.500    7.000 
#    0.000    0.000    0.000    0.000    0.000    0.000 
#    0.000    0.000    0.000    0.000    0.000    0.000 
#
# Total GULP energy -396470.514756 kJ/mol
# GULP energy per Si atom -12389.703586 kJ/mol
# Density = 2.202314 g / cm^3
# Si number density = 22.073384 Si / 1000 Ang^3
#
#
#
# Elastic Constant Matrix: (Units=GPa)
#
#
# Indices 1 2 3 4 5 6 
#
# 1 124.4047 27.8376 67.5683 0.0000 -7.9752 0.0000
# 2 27.8376 93.1206 49.8570 0.0000 1.6261 0.0000
# 3 67.5683 49.8570 88.4978 0.0000 -7.2462 0.0000
# 4 0.0000 0.0000 0.0000 22.7225 0.0000 -4.2612
# 5 -7.9752 1.6261 -7.2462 0.0000 42.6997 0.0000
# 6 0.0000 0.0000 0.0000 -4.2612 0.0000 28.9527
#
#
#
# Elastic Compliance Matrix: (Units=1/GPa)
#
#
# Indices 1 2 3 4 5 6 
#
# 1 0.014055 0.002165 -0.011908 0.000000 0.000522 0.000000
# 2 0.002165 0.015896 -0.010774 0.000000 -0.002029 0.000000
# 3 -0.011908 -0.010774 0.026683 0.000000 0.002714 0.000000
# 4 0.000000 0.000000 0.000000 0.045258 0.000000 0.006661
# 5 0.000522 -0.002029 0.002714 0.000000 0.024055 0.000000
# 6 0.000000 0.000000 0.000000 0.006661 0.000000 0.035519
#
#
# Mechanical properties :
#
#
# Convention : Reuss Voigt Hill
#
# Bulk Modulus (GPa) = 64.10392 66.28321 65.19357
# Shear Modulus (GPa) = 24.07319 29.59233 26.83276
#
# Velocity S-wave (km/s) = 3.30600 3.66544 3.49035
# Velocity P-wave (km/s) = 6.60887 6.92876 6.77070
#
# Compressibility (1/GPa) = 0.01559967
#
# Stress axis : x y z
#
# Youngs Moduli (GPa) = 71.15009 62.91085 37.47668
#
# Poissons Ratio (x) = -0.13619 0.44626
# Poissons Ratio (y) = -0.15402 0.40377
# Poissons Ratio (z) = 0.84723 0.67780
#
# Static dielectric constant tensor:
#      x y z
#    x 3.986060 0.000000 0.088830 
#    y 0.000000 3.988210 0.000000 
#    z 0.088830 0.000000 4.123910 
# 
# 
# High freq. dielectric constant tensor:
#      x y z
#    x 1.871140 0.000000 -0.009080 
#    y 0.000000 1.871350 0.000000 
#    z -0.009080 0.000000 1.864890 
# 
# From -- ./inp_files/25497.got.cif
#   From: 2010.03.12/outbox.cif.g09.slc.cpg/sg14_13_cif.got.tgz:25497.got - 2010.03.31 13:35:05.
