data_PCOD8126858
_publ_section_title
;
Structure prediction by ZEFSAII (Michael W. Deem and Ramdas Pophale) SiO2 
 PCOD8126858
Probable space group: P 21/C
;
_chemical_formula_sum "Si O2"
_cell_formula_units_Z 32
_cell_length_a 8.338307
_cell_length_b 11.969135
_cell_length_c 14.414560
_cell_angle_alpha 90.000000
_cell_angle_beta 97.856338
_cell_angle_gamma 90.000000
_cell_volume 1425.103677
_symmetry_space_group_name_H-M "P 21/C"
_symmetry_group_IT_number 14
_symmetry_cell_setting 'monoclinic'
loop_
_space_group_symop_operation_xyz
x,y,z
-x,1/2+y,1/2-z
-x,-y,-z
x,1/2-y,1/2+z
loop_
_atom_site_type_symbol
_atom_site_label
_atom_site_fract_x
_atom_site_fract_y
_atom_site_fract_z
Si Si1 0.376238 0.924293 0.104164
Si Si2 0.831184 0.388820 0.576545
Si Si3 0.839856 0.563751 0.106426
Si Si4 0.953392 0.155926 0.532438
Si Si5 0.424080 0.289282 0.842652
Si Si6 0.925399 0.033211 0.806861
Si Si7 0.186930 0.146323 0.717734
Si Si8 0.622179 0.432571 0.724757
O O1 0.494372 0.817319 0.101750
O O2 0.234406 0.904796 0.168887
O O3 0.475093 0.031387 0.146510
O O4 0.296199 0.954996 0.998728
O O5 0.754095 0.369085 0.671964
O O6 0.858660 0.272081 0.526226
O O7 0.996131 0.459209 0.603751
O O8 0.667804 0.629906 0.090376
O O9 0.889115 0.547166 0.217023
O O10 0.830264 0.442771 0.054643
O O11 0.980327 0.634331 0.065853
O O12 0.107838 0.166282 0.612004
O O13 0.292030 0.252667 0.755521
O O14 0.567104 0.353305 0.802670
O O15 0.051039 0.129073 0.786217
O O16 0.301143 0.038937 0.718558
#
# Coordination Sequence:
#
# PCOD8126858 Si02
#       8
#     4   4   4   4   4   4   4   4
#     4  11  24  41  63  97 130 168 218 266 324 395
#     4  11  24  40  66  98 124 173 214 274 323 381
#     4  10  22  42  63  94 131 169 210 275 321 385
#     4  10  23  40  67  98 125 163 227 269 319 385
#     4  11  23  40  67  91 130 181 209 262 333 391
#     4  10  21  43  68  92 130 170 216 271 323 385
#     4   9  22  40  62  94 126 169 218 270 314 389
#     4  10  23  42  62  91 136 169 212 262 332 388
#
# _framework density 22.454507
#
# number of rings (size 3 to 8) (size 9 to 14) (size 15 to 20)
#    0.000    1.750    1.250    1.500    5.250    5.000 
#    2.250    1.250    0.000    0.000    0.000    0.000 
#    0.000    0.000    0.000    0.000    0.000    0.000 
#
# Total GULP energy -396823.046321 kJ/mol
# GULP energy per Si atom -12400.720198 kJ/mol
# Density = 2.240340 g / cm^3
# Si number density = 22.454507 Si / 1000 Ang^3
#
#
#
# Elastic Constant Matrix: (Units=GPa)
#
#
# Indices 1 2 3 4 5 6 
#
# 1 88.1267 13.2199 12.8435 0.0000 -7.5587 0.0000
# 2 13.2199 42.5837 1.2877 0.0000 -0.8066 0.0000
# 3 12.8435 1.2877 70.9702 0.0000 -1.2339 0.0000
# 4 0.0000 0.0000 0.0000 20.7917 0.0000 -7.3013
# 5 -7.5587 -0.8066 -1.2339 0.0000 33.5587 0.0000
# 6 0.0000 0.0000 0.0000 -7.3013 0.0000 43.2599
#
#
#
# Elastic Compliance Matrix: (Units=1/GPa)
#
#
# Indices 1 2 3 4 5 6 
#
# 1 0.012447 -0.003750 -0.002139 0.000000 0.002635 0.000000
# 2 -0.003750 0.024636 0.000227 0.000000 -0.000244 0.000000
# 3 -0.002139 0.000227 0.014474 0.000000 0.000056 0.000000
# 4 0.000000 0.000000 0.000000 0.051126 0.000000 0.008629
# 5 0.002635 -0.000244 0.000056 0.000000 0.030388 0.000000
# 6 0.000000 0.000000 0.000000 0.008629 0.000000 0.024572
#
#
# Mechanical properties :
#
#
# Convention : Reuss Voigt Hill
#
# Bulk Modulus (GPa) = 24.85380 28.48698 26.67039
# Shear Modulus (GPa) = 27.41553 31.14404 29.27979
#
# Velocity S-wave (km/s) = 3.49798 3.72826 3.61496
# Velocity P-wave (km/s) = 5.23517 5.58993 5.41546
#
# Compressibility (1/GPa) = 0.04023529
#
# Stress axis : x y z
#
# Youngs Moduli (GPa) = 80.33755 40.59149 69.08791
#
# Poissons Ratio (x) = 0.15220 0.14776
# Poissons Ratio (y) = 0.30124 -0.01571
# Poissons Ratio (z) = 0.17182 -0.00923
#
# Static dielectric constant tensor:
#      x y z
#    x 4.221410 0.000000 -0.040650 
#    y 0.000000 3.897440 0.000000 
#    z -0.040650 0.000000 3.837070 
# 
# 
# High freq. dielectric constant tensor:
#      x y z
#    x 1.890880 0.000000 -0.003150 
#    y 0.000000 1.876930 0.000000 
#    z -0.003150 0.000000 1.875710 
# 
# From -- ./inp_files/40312.got.cif
#   From: 2010.03.12/outbox.cif.g09.slc.cpg/sg14_21_cif.got.tgz:40312.got - 2010.03.31 13:35:05.
