data_PCOD8126286
_publ_section_title
;
Structure prediction by ZEFSAII (Michael W. Deem and Ramdas Pophale) SiO2 
 PCOD8126286
Probable space group: P 21/C
;
_chemical_formula_sum "Si O2"
_cell_formula_units_Z 24
_cell_length_a 11.787307
_cell_length_b 11.475725
_cell_length_c 17.478278
_cell_angle_alpha 90.000000
_cell_angle_beta 150.991074
_cell_angle_gamma 90.000000
_cell_volume 1146.533199
_symmetry_space_group_name_H-M "P 21/C"
_symmetry_group_IT_number 14
_symmetry_cell_setting 'monoclinic'
loop_
_space_group_symop_operation_xyz
x,y,z
-x,1/2+y,1/2-z
-x,-y,-z
x,1/2-y,1/2+z
loop_
_atom_site_type_symbol
_atom_site_label
_atom_site_fract_x
_atom_site_fract_y
_atom_site_fract_z
Si Si1 0.634678 0.563739 0.788277
Si Si2 0.672109 0.752481 0.188176
Si Si3 0.298167 0.669793 0.846330
Si Si4 0.558848 0.974822 0.684382
Si Si5 0.944647 0.409290 0.155609
Si Si6 0.907612 0.110990 0.351871
O O1 0.552621 0.656190 0.676421
O O2 0.417034 0.530845 0.716477
O O3 0.722878 0.445053 0.801251
O O4 0.841299 0.622811 0.959763
O O5 0.736225 0.631316 0.270293
O O6 0.912779 0.801979 0.296440
O O7 0.491324 0.731587 0.012733
O O8 0.425370 0.572094 0.871465
O O9 0.092978 0.610236 0.776101
O O10 0.178901 0.761419 0.719995
O O11 0.304918 0.913313 0.533233
O O12 0.077524 0.530867 0.216178
#
# Coordination Sequence:
#
# PCOD8126286 Si02
#       6
#     4   4   4   4   4   4
#     4   9  20  39  61  83 123 160 193 243 301 355
#     4  10  21  39  63  90 116 163 199 247 296 349
#     4  11  23  36  67  91 118 153 209 245 290 359
#     4  10  22  39  62  89 122 159 198 240 308 357
#     4   9  20  37  61  84 123 156 188 249 295 350
#     4   9  20  39  61  87 118 164 194 237 309 352
#
# _framework density 20.932669000000001
#
# number of rings (size 3 to 8) (size 9 to 14) (size 15 to 20)
#    0.000    2.333    0.000    3.000    9.333    2.667 
#    0.000    2.500    0.000    0.000    0.000    0.000 
#    0.000    0.000    0.000    0.000    0.000    0.000 
#
# Total GULP energy -297504.330169 kJ/mol
# GULP energy per Si atom -12396.013757 kJ/mol
# Density = 2.088503 g / cm^3
# Si number density = 20.932669 Si / 1000 Ang^3
#
#
#
# Elastic Constant Matrix: (Units=GPa)
#
#
# Indices 1 2 3 4 5 6 
#
# 1 143.4471 37.1518 17.7472 0.0000 1.7028 0.0000
# 2 37.1518 61.1163 12.5321 0.0000 10.3437 0.0000
# 3 17.7472 12.5321 21.8963 0.0000 3.9064 0.0000
# 4 0.0000 0.0000 0.0000 31.8863 0.0000 -7.1973
# 5 1.7028 10.3437 3.9064 0.0000 21.7343 0.0000
# 6 0.0000 0.0000 0.0000 -7.1973 0.0000 41.5960
#
#
#
# Elastic Compliance Matrix: (Units=1/GPa)
#
#
# Indices 1 2 3 4 5 6 
#
# 1 0.008771 -0.004756 -0.004822 0.000000 0.002443 0.000000
# 2 -0.004756 0.022257 -0.007294 0.000000 -0.008909 0.000000
# 3 -0.004822 -0.007294 0.054824 0.000000 -0.006005 0.000000
# 4 0.000000 0.000000 0.000000 0.032636 0.000000 0.005647
# 5 0.002443 -0.008909 -0.006005 0.000000 0.051138 0.000000
# 6 0.000000 0.000000 0.000000 0.005647 0.000000 0.025018
#
#
# Mechanical properties :
#
#
# Convention : Reuss Voigt Hill
#
# Bulk Modulus (GPa) = 19.19150 40.14689 29.66920
# Shear Modulus (GPa) = 20.34518 29.64522 24.99520
#
# Velocity S-wave (km/s) = 3.12097 3.76735 3.45929
# Velocity P-wave (km/s) = 4.70907 6.17613 5.49181
#
# Compressibility (1/GPa) = 0.05210641
#
# Stress axis : x y z
#
# Youngs Moduli (GPa) = 114.01634 44.92974 18.24004
#
# Poissons Ratio (x) = 0.21370 0.08796
# Poissons Ratio (y) = 0.54229 0.13305
# Poissons Ratio (z) = 0.54984 0.32772
#
# Static dielectric constant tensor:
#      x y z
#    x 4.288780 0.000000 -0.026430 
#    y 0.000000 3.955930 0.000000 
#    z -0.026430 0.000000 3.254040 
# 
# 
# High freq. dielectric constant tensor:
#      x y z
#    x 1.843160 0.000000 -0.004730 
#    y 0.000000 1.826120 0.000000 
#    z -0.004730 0.000000 1.768810 
# 
# From -- ./inp_files/24271.got.cif
#   From: 2010.03.12/outbox.cif.g09.slc.cpg/sg14_13_cif.got.tgz:24271.got - 2010.03.31 13:35:05.
