data_PCOD8126234
_publ_section_title
;
Structure prediction by ZEFSAII (Michael W. Deem and Ramdas Pophale) SiO2 
 PCOD8126234
Probable space group: P 21/C
;
_chemical_formula_sum "Si O2"
_cell_formula_units_Z 32
_cell_length_a 12.577249
_cell_length_b 5.298340
_cell_length_c 29.757501
_cell_angle_alpha 90.000000
_cell_angle_beta 132.470956
_cell_angle_gamma 90.000000
_cell_volume 1462.697273
_symmetry_space_group_name_H-M "P 21/C"
_symmetry_group_IT_number 14
_symmetry_cell_setting 'monoclinic'
loop_
_space_group_symop_operation_xyz
x,y,z
-x,1/2+y,1/2-z
-x,-y,-z
x,1/2-y,1/2+z
loop_
_atom_site_type_symbol
_atom_site_label
_atom_site_fract_x
_atom_site_fract_y
_atom_site_fract_z
Si Si1 0.865428 0.100738 0.580801
Si Si2 0.669697 0.109348 0.438893
Si Si3 0.167553 0.398904 0.371877
Si Si4 0.853383 0.397355 0.259500
Si Si5 0.366351 0.510052 0.275224
Si Si6 0.180837 0.237050 0.162545
Si Si7 0.673100 0.621099 0.382828
Si Si8 0.643577 0.816557 0.644801
O O1 0.777462 0.134173 0.510602
O O2 0.823574 0.331053 0.601673
O O3 0.034008 0.104669 0.616223
O O4 0.827291 0.831229 0.591455
O O5 0.683652 0.370341 0.415488
O O6 0.508501 0.058567 0.413332
O O7 0.716991 0.869047 0.423049
O O8 0.306156 0.382815 0.378622
O O9 0.023886 0.372904 0.300142
O O10 0.777281 0.131829 0.244992
O O11 0.829810 0.551470 0.298469
O O12 0.779526 0.499803 0.192580
O O13 0.319227 0.418378 0.212054
O O14 0.512710 0.672795 0.316007
O O15 0.400633 0.285538 0.319074
O O16 0.214032 0.089618 0.125965
#
# Coordination Sequence:
#
# PCOD8126234 Si02
#       8
#     4   4   4   4   4   4   4   4
#     4  11  25  45  63  92 128 166 218 265 302 367
#     4  11  25  45  63  92 128 166 218 265 302 367
#     4  11  25  40  68  93 124 171 209 255 323 372
#     4  10  21  39  60  92 130 158 201 263 307 379
#     4  10  21  39  60  92 130 158 201 263 307 379
#     4  10  24  39  63  95 128 165 207 257 317 375
#     4  11  25  40  68  93 124 171 209 255 323 372
#     4  10  24  39  63  95 128 165 207 257 317 375
#
# _framework density 21.877390999999999
#
# number of rings (size 3 to 8) (size 9 to 14) (size 15 to 20)
#    0.000    1.500    2.500    0.750    7.000    2.000 
#    0.000    0.000    0.000    0.000    0.000    0.000 
#    0.000    0.000    0.000    0.000    0.000    0.000 
#
# Total GULP energy -396599.778888 kJ/mol
# GULP energy per Si atom -12393.743090 kJ/mol
# Density = 2.182760 g / cm^3
# Si number density = 21.877391 Si / 1000 Ang^3
#
#
#
# Elastic Constant Matrix: (Units=GPa)
#
#
# Indices 1 2 3 4 5 6 
#
# 1 79.2448 -0.3078 27.8946 0.0000 -2.2231 0.0000
# 2 -0.3078 83.6378 21.5931 0.0000 -2.4727 0.0000
# 3 27.8946 21.5931 128.9382 0.0000 2.7571 0.0000
# 4 0.0000 0.0000 0.0000 32.6376 0.0000 -1.2589
# 5 -2.2231 -2.4727 2.7571 0.0000 15.0633 0.0000
# 6 0.0000 0.0000 0.0000 -1.2589 0.0000 20.4319
#
#
#
# Elastic Compliance Matrix: (Units=1/GPa)
#
#
# Indices 1 2 3 4 5 6 
#
# 1 0.013832 0.000963 -0.003213 0.000000 0.002788 0.000000
# 2 0.000963 0.012654 -0.002384 0.000000 0.002656 0.000000
# 3 -0.003213 -0.002384 0.008903 0.000000 -0.002495 0.000000
# 4 0.000000 0.000000 0.000000 0.030712 0.000000 0.001892
# 5 0.002788 0.002656 -0.002495 0.000000 0.067691 0.000000
# 6 0.000000 0.000000 0.000000 0.001892 0.000000 0.049060
#
#
# Mechanical properties :
#
#
# Convention : Reuss Voigt Hill
#
# Bulk Modulus (GPa) = 38.28444 43.35338 40.81891
# Shear Modulus (GPa) = 24.89687 29.80263 27.34975
#
# Velocity S-wave (km/s) = 3.37711 3.69488 3.53956
# Velocity P-wave (km/s) = 5.72224 6.16947 5.95006
#
# Compressibility (1/GPa) = 0.02612027
#
# Stress axis : x y z
#
# Youngs Moduli (GPa) = 72.29523 79.02688 112.31578
#
# Poissons Ratio (x) = -0.07610 0.36091
# Poissons Ratio (y) = -0.06961 0.26779
# Poissons Ratio (z) = 0.23231 0.18842
#
# Static dielectric constant tensor:
#      x y z
#    x 3.858740 0.000000 0.261600 
#    y 0.000000 3.896310 0.000000 
#    z 0.261600 0.000000 4.216420 
# 
# 
# High freq. dielectric constant tensor:
#      x y z
#    x 1.853540 0.000000 0.007730 
#    y 0.000000 1.856980 0.000000 
#    z 0.007730 0.000000 1.864470 
# 
# From -- ./inp_files/79834.got.cif
#   From: 2010.03.12/outbox.cif.g09.slc.cpg/sg14_40_cif.got.tgz:79834.got - 2010.03.31 13:35:05.
