data_PCOD8126698
_publ_section_title
;
Structure prediction by ZEFSAII (Michael W. Deem and Ramdas Pophale) SiO2 
 PCOD8126698
Probable space group: P 21/C
;
_chemical_formula_sum "Si O2"
_cell_formula_units_Z 28
_cell_length_a 19.028675
_cell_length_b 12.439738
_cell_length_c 11.222687
_cell_angle_alpha 90.000000
_cell_angle_beta 28.070037
_cell_angle_gamma 90.000000
_cell_volume 1250.037028
_symmetry_space_group_name_H-M "P 21/C"
_symmetry_group_IT_number 14
_symmetry_cell_setting 'monoclinic'
loop_
_space_group_symop_operation_xyz
x,y,z
-x,1/2+y,1/2-z
-x,-y,-z
x,1/2-y,1/2+z
loop_
_atom_site_type_symbol
_atom_site_label
_atom_site_fract_x
_atom_site_fract_y
_atom_site_fract_z
Si Si1 0.992704 0.245713 0.487094
Si Si2 0.057422 0.906701 0.628775
Si Si3 0.441365 0.983592 0.224669
Si Si4 0.281888 0.775608 0.440892
Si Si5 0.486193 0.576152 0.136863
Si Si6 0.829068 0.612873 0.940064
Si Si7 0.212446 0.305605 0.345867
O O1 0.986474 0.127911 0.437711
O O2 0.026485 0.344526 0.346666
O O3 0.133869 0.235193 0.362026
O O4 0.833241 0.270687 0.779533
O O5 0.191983 0.824561 0.463342
O O6 0.109708 0.029934 0.551946
O O7 0.910176 0.893701 0.930749
O O8 0.541886 0.019014 0.190222
O O9 0.286112 0.048727 0.471142
O O10 0.414667 0.856472 0.280182
O O11 0.500000 0.000000 0.000000
O O12 0.350793 0.658210 0.312358
O O13 0.500000 0.500000 0.000000
O O14 0.640280 0.638693 0.920558
O O15 0.744650 0.717042 0.119052
#
# Coordination Sequence:
#
# PCOD8126698 Si02
#       7
#     4   4   4   4   4   4   4
#     4  10  21  42  69  97 139 185 237 301 352 428
#     4   9  22  39  69 100 135 186 239 296 354 425
#     4  11  25  44  70  98 138 194 230 287 360 431
#     4  10  25  42  69  99 140 179 243 296 350 434
#     4  12  28  46  71 107 142 188 234 296 364 426
#     4  10  21  41  69  97 140 186 241 292 361 420
#     4  10  22  42  65 102 137 187 233 296 352 434
#
# _framework density 22.399336000000002
#
# number of rings (size 3 to 8) (size 9 to 14) (size 15 to 20)
#    0.000    1.714    1.429    0.857    8.000    5.714 
#    5.143    0.000    0.000    0.000    0.000    0.000 
#    0.000    0.000    0.000    0.000    0.000    0.000 
#
# Total GULP energy -346918.225757 kJ/mol
# GULP energy per Si atom -12389.936634 kJ/mol
# Density = 2.234835 g / cm^3
# Si number density = 22.399336 Si / 1000 Ang^3
#
#
#
# Elastic Constant Matrix: (Units=GPa)
#
#
# Indices 1 2 3 4 5 6 
#
# 1 64.1047 17.1879 38.1357 0.0000 21.1031 0.0000
# 2 17.1879 96.2713 41.5623 0.0000 9.6632 0.0000
# 3 38.1357 41.5623 105.6630 0.0000 6.9992 0.0000
# 4 0.0000 0.0000 0.0000 29.9081 0.0000 -6.4073
# 5 21.1031 9.6632 6.9992 0.0000 32.0751 0.0000
# 6 0.0000 0.0000 0.0000 -6.4073 0.0000 25.8439
#
#
#
# Elastic Compliance Matrix: (Units=1/GPa)
#
#
# Indices 1 2 3 4 5 6 
#
# 1 0.025394 0.000607 -0.008407 0.000000 -0.015056 0.000000
# 2 0.000607 0.012768 -0.005033 0.000000 -0.003147 0.000000
# 3 -0.008407 -0.005033 0.014216 0.000000 0.003945 0.000000
# 4 0.000000 0.000000 0.000000 0.035311 0.000000 0.008755
# 5 -0.015056 -0.003147 0.003945 0.000000 0.041170 0.000000
# 6 0.000000 0.000000 0.000000 0.008755 0.000000 0.040864
#
#
# Mechanical properties :
#
#
# Convention : Reuss Voigt Hill
#
# Bulk Modulus (GPa) = 37.43446 51.09008 44.26227
# Shear Modulus (GPa) = 24.47465 28.84230 26.65848
#
# Velocity S-wave (km/s) = 3.30911 3.59226 3.45359
# Velocity P-wave (km/s) = 5.59901 6.32962 5.97549
#
# Compressibility (1/GPa) = 0.02671335
#
# Stress axis : x y z
#
# Youngs Moduli (GPa) = 39.37901 78.32337 70.34139
#
# Poissons Ratio (x) = -0.04752 0.59133
# Poissons Ratio (y) = -0.02389 0.35400
# Poissons Ratio (z) = 0.33104 0.39417
#
# Static dielectric constant tensor:
#      x y z
#    x 4.129190 0.000000 0.117590 
#    y 0.000000 4.170020 0.000000 
#    z 0.117590 0.000000 4.105820 
# 
# 
# High freq. dielectric constant tensor:
#      x y z
#    x 1.875710 0.000000 0.002490 
#    y 0.000000 1.883100 0.000000 
#    z 0.002490 0.000000 1.880940 
# 
# From -- ./inp_files/35159.got.cif
#   From: 2010.03.12/outbox.cif.g09.slc.cpg/sg14_18_cif.got.tgz:35159.got - 2010.03.31 13:35:05.
