data_PCOD8126799
_publ_section_title
;
Structure prediction by ZEFSAII (Michael W. Deem and Ramdas Pophale) SiO2 
 PCOD8126799
Probable space group: P 21/C
;
_chemical_formula_sum "Si O2"
_cell_formula_units_Z 16
_cell_length_a 11.708835
_cell_length_b 6.467957
_cell_length_c 9.814478
_cell_angle_alpha 90.000000
_cell_angle_beta 115.829395
_cell_angle_gamma 90.000000
_cell_volume 669.016055
_symmetry_space_group_name_H-M "P 21/C"
_symmetry_group_IT_number 14
_symmetry_cell_setting 'monoclinic'
loop_
_space_group_symop_operation_xyz
x,y,z
-x,1/2+y,1/2-z
-x,-y,-z
x,1/2-y,1/2+z
loop_
_atom_site_type_symbol
_atom_site_label
_atom_site_fract_x
_atom_site_fract_y
_atom_site_fract_z
Si Si1 0.848578 0.202576 0.117680
Si Si2 0.009415 0.240199 0.460920
Si Si3 0.632137 0.905251 0.110827
Si Si4 0.724842 0.613068 0.951773
O O1 0.933899 0.290166 0.283737
O O2 0.752417 0.037192 0.125721
O O3 0.948432 0.118430 0.052549
O O4 0.769527 0.381578 0.003061
O O5 0.159468 0.274495 0.515411
O O6 0.000000 0.000000 0.500000
O O7 0.632884 0.879797 0.273367
O O8 0.644626 0.685599 0.041242
O O9 0.500000 0.000000 0.000000
#
# Coordination Sequence:
#
# PCOD8126799 Si02
#       4
#     4   4   4   4
#     4  11  23  45  72 102 146 179 229 291 359 417
#     4  10  21  42  70 106 138 177 228 287 361 413
#     4  12  29  47  71 101 141 195 242 283 345 421
#     4  11  27  47  70 109 140 184 238 292 355 418
#
# _framework density 23.91572
#
# number of rings (size 3 to 8) (size 9 to 14) (size 15 to 20)
#    0.000    1.000    5.000    1.500   10.500    2.000 
#    0.000    0.000    0.000    0.000    0.000    0.000 
#    0.000    0.000    0.000    0.000    0.000    0.000 
#
# Total GULP energy -198441.035692 kJ/mol
# GULP energy per Si atom -12402.564731 kJ/mol
# Density = 2.386129 g / cm^3
# Si number density = 23.915720 Si / 1000 Ang^3
#
#
#
# Elastic Constant Matrix: (Units=GPa)
#
#
# Indices 1 2 3 4 5 6 
#
# 1 40.9959 -1.3559 23.5874 0.0000 6.8653 0.0000
# 2 -1.3559 23.2967 11.8090 0.0000 -5.5516 0.0000
# 3 23.5874 11.8090 210.1260 0.0000 -3.4640 0.0000
# 4 0.0000 0.0000 0.0000 35.0785 0.0000 -9.3540
# 5 6.8653 -5.5516 -3.4640 0.0000 47.6627 0.0000
# 6 0.0000 0.0000 0.0000 -9.3540 0.0000 32.7032
#
#
#
# Elastic Compliance Matrix: (Units=1/GPa)
#
#
# Indices 1 2 3 4 5 6 
#
# 1 0.026965 0.002283 -0.003219 0.000000 -0.003852 0.000000
# 2 0.002283 0.045586 -0.002739 0.000000 0.004782 0.000000
# 3 -0.003219 -0.002739 0.005283 0.000000 0.000529 0.000000
# 4 0.000000 0.000000 0.000000 0.030861 0.000000 0.008827
# 5 -0.003852 0.004782 0.000529 0.000000 0.022131 0.000000
# 6 0.000000 0.000000 0.000000 0.008827 0.000000 0.033103
#
#
# Mechanical properties :
#
#
# Convention : Reuss Voigt Hill
#
# Bulk Modulus (GPa) = 14.18769 38.05553 26.12161
# Shear Modulus (GPa) = 25.67082 39.11408 32.39245
#
# Velocity S-wave (km/s) = 3.27981 4.04851 3.68427
# Velocity P-wave (km/s) = 4.50424 6.14824 5.38930
#
# Compressibility (1/GPa) = 0.07048362
#
# Stress axis : x y z
#
# Youngs Moduli (GPa) = 37.08479 21.93678 189.28531
#
# Poissons Ratio (x) = -0.05008 0.60926
# Poissons Ratio (y) = -0.08467 0.51852
# Poissons Ratio (z) = 0.11937 0.06009
#
# Static dielectric constant tensor:
#      x y z
#    x 4.865900 0.000000 -0.477630 
#    y 0.000000 4.537370 0.000000 
#    z -0.477630 0.000000 4.672490 
# 
# 
# High freq. dielectric constant tensor:
#      x y z
#    x 1.951970 0.000000 -0.013480 
#    y 0.000000 1.958790 0.000000 
#    z -0.013480 0.000000 1.960390 
# 
# From -- ./inp_files/11497.got.cif
#   From: 2010.03.12/outbox.cif.g09.slc.cpg/sg14_6_cif.got.tgz:11497.got - 2010.03.31 13:35:05.
