data_PCOD8126874
_publ_section_title
;
Structure prediction by ZEFSAII (Michael W. Deem and Ramdas Pophale) SiO2 
 PCOD8126874
Probable space group: P 21/C
;
_chemical_formula_sum "Si O2"
_cell_formula_units_Z 24
_cell_length_a 5.479126
_cell_length_b 17.568368
_cell_length_c 11.688428
_cell_angle_alpha 90.000000
_cell_angle_beta 106.019099
_cell_angle_gamma 90.000000
_cell_volume 1081.431245
_symmetry_space_group_name_H-M "P 21/C"
_symmetry_group_IT_number 14
_symmetry_cell_setting 'monoclinic'
loop_
_space_group_symop_operation_xyz
x,y,z
-x,1/2+y,1/2-z
-x,-y,-z
x,1/2-y,1/2+z
loop_
_atom_site_type_symbol
_atom_site_label
_atom_site_fract_x
_atom_site_fract_y
_atom_site_fract_z
Si Si1 0.297881 0.414297 0.386379
Si Si2 0.229005 0.050879 0.343103
Si Si3 0.518362 0.935086 0.843474
Si Si4 0.253417 0.655814 0.709244
Si Si5 0.828883 0.330947 0.837479
Si Si6 0.715908 0.401403 0.047223
O O1 0.339112 0.403966 0.527163
O O2 0.304416 0.503709 0.352921
O O3 0.526109 0.369118 0.351089
O O4 0.013994 0.388071 0.327186
O O5 0.297039 0.022137 0.222985
O O6 0.467451 0.073375 0.449476
O O7 0.056215 0.124879 0.304805
O O8 0.115586 0.975592 0.392102
O O9 0.420572 0.863403 0.757110
O O10 0.168798 0.741635 0.675143
O O11 0.362560 0.647728 0.851661
O O12 0.868812 0.349788 0.977299
#
# Coordination Sequence:
#
# PCOD8126874 Si02
#       6
#     4   4   4   4   4   4
#     4  11  27  47  70 103 139 190 228 289 341 418
#     4  10  21  43  72 102 130 184 235 291 335 413
#     4  10  24  44  74  99 136 183 244 278 341 415
#     4  12  28  44  69 103 146 182 227 288 361 406
#     4  11  26  40  71 101 138 187 226 296 347 413
#     4  10  23  43  68  99 137 179 233 286 340 417
#
# _framework density 22.192810999999999
#
# number of rings (size 3 to 8) (size 9 to 14) (size 15 to 20)
#    0.000    1.333    1.667    1.500   11.667    1.333 
#    0.000    0.000    0.000    0.000    0.000    0.000 
#    0.000    0.000    0.000    0.000    0.000    0.000 
#
# Total GULP energy -297374.703061 kJ/mol
# GULP energy per Si atom -12390.612628 kJ/mol
# Density = 2.214230 g / cm^3
# Si number density = 22.192811 Si / 1000 Ang^3
#
#
#
# Elastic Constant Matrix: (Units=GPa)
#
#
# Indices 1 2 3 4 5 6 
#
# 1 83.0940 10.8720 40.2258 0.0000 -15.0406 0.0000
# 2 10.8720 85.0426 33.3264 0.0000 -8.8089 0.0000
# 3 40.2258 33.3264 164.6581 0.0000 -39.5791 0.0000
# 4 0.0000 0.0000 0.0000 12.2723 0.0000 -25.6835
# 5 -15.0406 -8.8089 -39.5791 0.0000 17.8321 0.0000
# 6 0.0000 0.0000 0.0000 -25.6835 0.0000 -16.2755
#
#
#
# Elastic Compliance Matrix: (Units=1/GPa)
#
#
# Indices 1 2 3 4 5 6 
#
# 1 0.014340 -0.000406 -0.001205 0.000000 0.009221 0.000000
# 2 -0.000406 0.012796 -0.002259 0.000000 0.000966 0.000000
# 3 -0.001205 -0.002259 0.013531 0.000000 0.027902 0.000000
# 4 0.000000 0.000000 0.000000 0.018939 0.000000 -0.029886
# 5 0.009221 0.000966 0.027902 0.000000 0.126262 0.000000
# 6 0.000000 0.000000 0.000000 -0.029886 0.000000 -0.014280
#
#
# Mechanical properties :
#
#
# Convention : Reuss Voigt Hill
#
# Bulk Modulus (GPa) = 30.36870 55.73810 43.05340
# Shear Modulus (GPa) = 26.27399 19.32381 22.79890
#
# Velocity S-wave (km/s) = 3.44451 2.95400 3.20865
# Velocity P-wave (km/s) = 5.43445 6.06669 5.75926
#
# Compressibility (1/GPa) = 0.03292864
#
# Stress axis : x y z
#
# Youngs Moduli (GPa) = 69.73563 78.15058 73.90227
#
# Poissons Ratio (x) = 0.03173 0.08902
# Poissons Ratio (y) = 0.02832 0.16691
# Poissons Ratio (z) = 0.08400 0.17651
#
# Static dielectric constant tensor:
#      x y z
#    x 3.899970 0.000000 -0.249300 
#    y 0.000000 4.000540 0.000000 
#    z -0.249300 0.000000 4.427500 
# 
# 
# High freq. dielectric constant tensor:
#      x y z
#    x 1.861510 0.000000 -0.007980 
#    y 0.000000 1.868540 0.000000 
#    z -0.007980 0.000000 1.896140 
# 
# From -- ./inp_files/21185.got.cif
#   From: 2010.03.12/outbox.cif.g09.slc.cpg/sg14_11_cif.got.tgz:21185.got - 2010.03.31 13:35:05.
