data_PCOD8126981
_publ_section_title
;
Structure prediction by ZEFSAII (Michael W. Deem and Ramdas Pophale) SiO2 
 PCOD8126981
Probable space group: P 21/C
;
_chemical_formula_sum "Si O2"
_cell_formula_units_Z 32
_cell_length_a 9.431182
_cell_length_b 12.781185
_cell_length_c 13.850037
_cell_angle_alpha 90.000000
_cell_angle_beta 96.883136
_cell_angle_gamma 90.000000
_cell_volume 1657.474050
_symmetry_space_group_name_H-M "P 21/C"
_symmetry_group_IT_number 14
_symmetry_cell_setting 'monoclinic'
loop_
_space_group_symop_operation_xyz
x,y,z
-x,1/2+y,1/2-z
-x,-y,-z
x,1/2-y,1/2+z
loop_
_atom_site_type_symbol
_atom_site_label
_atom_site_fract_x
_atom_site_fract_y
_atom_site_fract_z
Si Si1 0.131345 0.711520 0.128941
Si Si2 0.015003 0.622611 0.750878
Si Si3 0.321368 0.394626 0.252129
Si Si4 0.794197 0.145942 0.568128
Si Si5 0.610590 0.703268 0.120323
Si Si6 0.399989 0.627876 0.249676
Si Si7 0.486564 0.205839 0.601272
Si Si8 0.877766 0.562589 0.139153
O O1 0.055437 0.820687 0.153184
O O2 0.251408 0.686908 0.217896
O O3 0.018490 0.618252 0.111928
O O4 0.199056 0.717309 0.027297
O O5 0.087063 0.688120 0.845655
O O6 0.081520 0.504731 0.760475
O O7 0.847287 0.619278 0.754117
O O8 0.398678 0.317117 0.332468
O O9 0.369141 0.511209 0.282886
O O10 0.377249 0.368450 0.149741
O O11 0.637855 0.149824 0.601660
O O12 0.822922 0.020703 0.553282
O O13 0.489294 0.628968 0.156806
O O14 0.761970 0.649758 0.155266
O O15 0.588519 0.724440 0.006477
O O16 0.489490 0.684345 0.341501
#
# Coordination Sequence:
#
# PCOD8126981 Si02
#       8
#     4   4   4   4   4   4   4   4
#     4  12  20  38  64  86 125 155 199 255 306 356
#     4  10  23  38  60  94 120 158 200 250 309 358
#     4  11  24  39  64  89 123 163 206 253 306 359
#     4  10  22  37  59  92 117 156 200 250 300 359
#     4  11  24  40  61  93 126 159 205 256 298 362
#     4  11  22  40  63  89 121 167 202 250 307 363
#     4  11  24  40  61  90 124 160 206 253 302 363
#     4  10  22  37  62  95 117 155 204 257 301 358
#
# _framework density 19.306487000000001
#
# number of rings (size 3 to 8) (size 9 to 14) (size 15 to 20)
#    0.750    0.500    5.000    1.125    3.500    1.500 
#    0.000    0.000    0.000    1.500    0.000    0.000 
#    0.000    0.000    0.000    0.000    0.000    0.000 
#
# Total GULP energy -396651.127576 kJ/mol
# GULP energy per Si atom -12395.347737 kJ/mol
# Density = 1.926254 g / cm^3
# Si number density = 19.306487 Si / 1000 Ang^3
#
#
#
# Elastic Constant Matrix: (Units=GPa)
#
#
# Indices 1 2 3 4 5 6 
#
# 1 102.3631 27.5700 21.8243 0.0000 -11.0076 0.0000
# 2 27.5700 66.8230 31.3030 0.0000 -5.0565 0.0000
# 3 21.8243 31.3030 78.9132 0.0000 -7.3344 0.0000
# 4 0.0000 0.0000 0.0000 22.4306 0.0000 1.6443
# 5 -11.0076 -5.0565 -7.3344 0.0000 25.8963 0.0000
# 6 0.0000 0.0000 0.0000 1.6443 0.0000 32.1524
#
#
#
# Elastic Compliance Matrix: (Units=1/GPa)
#
#
# Indices 1 2 3 4 5 6 
#
# 1 0.011487 -0.003845 -0.001302 0.000000 0.003763 0.000000
# 2 -0.003845 0.019729 -0.006734 0.000000 0.000311 0.000000
# 3 -0.001302 -0.006734 0.015950 0.000000 0.002649 0.000000
# 4 0.000000 0.000000 0.000000 0.044750 0.000000 -0.002289
# 5 0.003763 0.000311 0.002649 0.000000 0.041026 0.000000
# 6 0.000000 0.000000 0.000000 -0.002289 0.000000 0.031219
#
#
# Mechanical properties :
#
#
# Convention : Reuss Voigt Hill
#
# Bulk Modulus (GPa) = 42.72661 45.49932 44.11296
# Shear Modulus (GPa) = 25.54630 27.25598 26.40114
#
# Velocity S-wave (km/s) = 3.64152 3.76141 3.70195
# Velocity P-wave (km/s) = 6.31345 6.51784 6.41646
#
# Compressibility (1/GPa) = 0.02340462
#
# Stress axis : x y z
#
# Youngs Moduli (GPa) = 87.05569 50.68648 62.69737
#
# Poissons Ratio (x) = 0.19487 0.08163
# Poissons Ratio (y) = 0.33469 0.42220
# Poissons Ratio (z) = 0.11335 0.34132
#
# Static dielectric constant tensor:
#      x y z
#    x 3.666650 0.000000 -0.030410 
#    y 0.000000 3.428650 0.000000 
#    z -0.030410 0.000000 3.308940 
# 
# 
# High freq. dielectric constant tensor:
#      x y z
#    x 1.771950 0.000000 -0.002460 
#    y 0.000000 1.739470 0.000000 
#    z -0.002460 0.000000 1.729840 
# 
# From -- ./inp_files/40325.got.cif
#   From: 2010.03.12/outbox.cif.g09.slc.cpg/sg14_21_cif.got.tgz:40325.got - 2010.03.31 13:35:05.
