data_PCOD8126288
_publ_section_title
;
Structure prediction by ZEFSAII (Michael W. Deem and Ramdas Pophale) SiO2 
 PCOD8126288
Probable space group: P 21/C
;
_chemical_formula_sum "Si O2"
_cell_formula_units_Z 32
_cell_length_a 8.162160
_cell_length_b 24.547032
_cell_length_c 10.808345
_cell_angle_alpha 90.000000
_cell_angle_beta 135.366289
_cell_angle_gamma 90.000000
_cell_volume 1521.437251
_symmetry_space_group_name_H-M "P 21/C"
_symmetry_group_IT_number 14
_symmetry_cell_setting 'monoclinic'
loop_
_space_group_symop_operation_xyz
x,y,z
-x,1/2+y,1/2-z
-x,-y,-z
x,1/2-y,1/2+z
loop_
_atom_site_type_symbol
_atom_site_label
_atom_site_fract_x
_atom_site_fract_y
_atom_site_fract_z
Si Si1 0.765956 0.134491 0.314351
Si Si2 0.560985 0.938671 0.000773
Si Si3 0.935807 0.560607 0.497816
Si Si4 0.354345 0.867236 0.298574
Si Si5 0.645947 0.248062 0.176394
Si Si6 0.368786 0.134695 0.309061
Si Si7 0.369484 0.253301 0.279308
Si Si8 0.753550 0.631390 0.817275
O O1 0.670966 0.097005 0.151012
O O2 0.811763 0.196718 0.293529
O O3 0.582730 0.133530 0.327814
O O4 0.017283 0.110893 0.487701
O O5 0.709383 0.940442 0.958275
O O6 0.720824 0.910532 0.188943
O O7 0.500000 0.000000 0.000000
O O8 0.848269 0.594266 0.331217
O O9 0.000000 0.500000 0.500000
O O10 0.152836 0.588384 0.682095
O O11 0.232218 0.807701 0.251256
O O12 0.525117 0.881625 0.502717
O O13 0.512749 0.869965 0.262416
O O14 0.451107 0.250284 0.179920
O O15 0.561467 0.239068 0.990379
O O16 0.250246 0.195107 0.245629
O O17 0.200508 0.305928 0.202789
#
# Coordination Sequence:
#
# PCOD8126288 Si02
#       8
#     4   4   4   4   4   4   4   4
#     4  10  21  39  63  90 123 164 206 255 314 368
#     4  11  24  43  65  89 125 164 215 263 307 375
#     4  11  24  42  66  87 119 169 210 256 312 367
#     4  10  22  39  59  93 127 158 204 253 312 374
#     4   9  18  37  58  90 129 166 204 256 311 382
#     4   9  21  41  59  88 123 162 204 250 308 373
#     4   9  18  36  59  90 129 163 206 254 316 377
#     4  11  22  37  63  95 125 161 204 260 312 374
#
# _framework density 21.032743
#
# number of rings (size 3 to 8) (size 9 to 14) (size 15 to 20)
#    0.000    2.000    1.250    1.500    1.750    3.000 
#    0.000    3.750    0.000    0.000    0.000    0.000 
#    0.000    0.000    0.000    0.000    0.000    0.000 
#
# Total GULP energy -396534.037138 kJ/mol
# GULP energy per Si atom -12391.688661 kJ/mol
# Density = 2.098487 g / cm^3
# Si number density = 21.032743 Si / 1000 Ang^3
#
#
#
# Elastic Constant Matrix: (Units=GPa)
#
#
# Indices 1 2 3 4 5 6 
#
# 1 34.4531 15.7070 13.9548 0.0000 -3.0837 0.0000
# 2 15.7070 176.3288 78.0533 0.0000 5.5264 0.0000
# 3 13.9548 78.0533 120.7980 0.0000 -2.9549 0.0000
# 4 0.0000 0.0000 0.0000 31.8528 0.0000 -4.2270
# 5 -3.0837 5.5264 -2.9549 0.0000 30.2254 0.0000
# 6 0.0000 0.0000 0.0000 -4.2270 0.0000 21.0550
#
#
#
# Elastic Compliance Matrix: (Units=1/GPa)
#
#
# Indices 1 2 3 4 5 6 
#
# 1 0.031100 -0.001847 -0.002319 0.000000 0.003284 0.000000
# 2 -0.001847 0.008170 -0.005119 0.000000 -0.002183 0.000000
# 3 -0.002319 -0.005119 0.011900 0.000000 0.001863 0.000000
# 4 0.000000 0.000000 0.000000 0.032254 0.000000 0.006475
# 5 0.003284 -0.002183 0.001863 0.000000 0.034001 0.000000
# 6 0.000000 0.000000 0.000000 0.006475 0.000000 0.048795
#
#
# Mechanical properties :
#
#
# Convention : Reuss Voigt Hill
#
# Bulk Modulus (GPa) = 30.67514 60.77892 45.72703
# Shear Modulus (GPa) = 25.55508 31.55095 28.55301
#
# Velocity S-wave (km/s) = 3.48949 3.87730 3.68849
# Velocity P-wave (km/s) = 5.55441 7.00033 6.31886
#
# Compressibility (1/GPa) = 0.03259969
#
# Stress axis : x y z
#
# Youngs Moduli (GPa) = 32.15425 122.39623 84.03695
#
# Poissons Ratio (x) = 0.22602 0.19490
# Poissons Ratio (y) = 0.05938 0.43020
# Poissons Ratio (z) = 0.07457 0.62657
#
# Static dielectric constant tensor:
#      x y z
#    x 3.600990 0.000000 -0.311240 
#    y 0.000000 3.994610 0.000000 
#    z -0.311240 0.000000 3.640860 
# 
# 
# High freq. dielectric constant tensor:
#      x y z
#    x 1.803750 0.000000 -0.021770 
#    y 0.000000 1.833050 0.000000 
#    z -0.021770 0.000000 1.825960 
# 
# From -- ./inp_files/27032.got.cif
#   From: 2010.03.12/outbox.cif.g09.slc.cpg/sg14_14_cif.got.tgz:27032.got - 2010.03.31 13:35:05.
