data_PCOD8126895
_publ_section_title
;
Structure prediction by ZEFSAII (Michael W. Deem and Ramdas Pophale) SiO2 
 PCOD8126895
Probable space group: P 21/C
;
_chemical_formula_sum "Si O2"
_cell_formula_units_Z 28
_cell_length_a 8.334486
_cell_length_b 11.515936
_cell_length_c 20.698272
_cell_angle_alpha 90.000000
_cell_angle_beta 141.726670
_cell_angle_gamma 90.000000
_cell_volume 1230.532073
_symmetry_space_group_name_H-M "P 21/C"
_symmetry_group_IT_number 14
_symmetry_cell_setting 'monoclinic'
loop_
_space_group_symop_operation_xyz
x,y,z
-x,1/2+y,1/2-z
-x,-y,-z
x,1/2-y,1/2+z
loop_
_atom_site_type_symbol
_atom_site_label
_atom_site_fract_x
_atom_site_fract_y
_atom_site_fract_z
Si Si1 0.042242 0.163818 0.801287
Si Si2 0.717024 0.969270 0.017836
Si Si3 0.554652 0.836998 0.720552
Si Si4 0.618228 0.215671 0.951993
Si Si5 0.516697 0.215352 0.155339
Si Si6 0.260632 0.055451 0.609472
Si Si7 0.970229 0.663105 0.843423
O O1 0.330697 0.217653 0.891472
O O2 0.007035 0.101509 0.719701
O O3 0.816970 0.259963 0.733450
O O4 0.035597 0.078581 0.862257
O O5 0.609871 0.876785 0.932813
O O6 0.773215 0.092318 0.000805
O O7 0.500000 0.000000 0.000000
O O8 0.370489 0.752424 0.619482
O O9 0.480754 0.831931 0.771709
O O10 0.846102 0.793531 0.798255
O O11 0.504456 0.968466 0.681321
O O12 0.753008 0.316200 0.036836
O O13 0.340938 0.331147 0.094349
O O14 0.215708 0.085416 0.670701
O O15 0.000000 0.000000 0.500000
#
# Coordination Sequence:
#
# PCOD8126895 Si02
#       7
#     4   4   4   4   4   4   4
#     4  10  22  41  66  96 133 170 221 267 333 397
#     4  10  23  41  66  95 136 170 218 277 328 397
#     4  10  24  41  70  93 133 176 219 278 333 393
#     4  10  21  44  67  98 132 177 216 277 339 397
#     4  11  26  42  68 102 130 178 230 272 334 403
#     4  11  24  46  66  96 136 175 226 282 328 392
#     4  10  22  44  68  96 135 173 221 270 343 397
#
# _framework density 22.754384999999999
#
# number of rings (size 3 to 8) (size 9 to 14) (size 15 to 20)
#    0.000    1.714    1.429    1.714   12.000    0.000 
#    2.571    4.286    0.000    0.000    0.000    0.000 
#    0.000    0.000    0.000    0.000    0.000    0.000 
#
# Total GULP energy -346922.229341 kJ/mol
# GULP energy per Si atom -12390.079619 kJ/mol
# Density = 2.270260 g / cm^3
# Si number density = 22.754385 Si / 1000 Ang^3
#
#
#
# Elastic Constant Matrix: (Units=GPa)
#
#
# Indices 1 2 3 4 5 6 
#
# 1 68.4080 23.3007 41.5789 0.0000 -21.8452 0.0000
# 2 23.3007 107.5637 42.1333 0.0000 -16.8412 0.0000
# 3 41.5789 42.1333 141.4937 0.0000 -27.0093 0.0000
# 4 0.0000 0.0000 0.0000 37.5956 0.0000 -3.7392
# 5 -21.8452 -16.8412 -27.0093 0.0000 48.0737 0.0000
# 6 0.0000 0.0000 0.0000 -3.7392 0.0000 26.5738
#
#
#
# Elastic Compliance Matrix: (Units=1/GPa)
#
#
# Indices 1 2 3 4 5 6 
#
# 1 0.019614 -0.001698 -0.004111 0.000000 0.006008 0.000000
# 2 -0.001698 0.010875 -0.002419 0.000000 0.001679 0.000000
# 3 -0.004111 -0.002419 0.009496 0.000000 0.002620 0.000000
# 4 0.000000 0.000000 0.000000 0.026976 0.000000 0.003796
# 5 0.006008 0.001679 0.002620 0.000000 0.025592 0.000000
# 6 0.000000 0.000000 0.000000 0.003796 0.000000 0.038165
#
#
# Mechanical properties :
#
#
# Convention : Reuss Voigt Hill
#
# Bulk Modulus (GPa) = 42.50054 59.05459 50.77757
# Shear Modulus (GPa) = 32.25462 36.47880 34.36671
#
# Velocity S-wave (km/s) = 3.76907 4.00829 3.89052
# Velocity P-wave (km/s) = 6.13675 6.88703 6.52269
#
# Compressibility (1/GPa) = 0.02352911
#
# Stress axis : x y z
#
# Youngs Moduli (GPa) = 50.98419 91.95416 105.30884
#
# Poissons Ratio (x) = 0.15611 0.43295
# Poissons Ratio (y) = 0.08656 0.25473
# Poissons Ratio (z) = 0.20961 0.22242
#
# Static dielectric constant tensor:
#      x y z
#    x 3.996150 0.000000 -0.291340 
#    y 0.000000 4.931420 0.000000 
#    z -0.291340 0.000000 4.588080 
# 
# 
# High freq. dielectric constant tensor:
#      x y z
#    x 1.883000 0.000000 -0.012530 
#    y 0.000000 1.883760 0.000000 
#    z -0.012530 0.000000 1.919210 
# 
# From -- ./inp_files/65631.got.cif
#   From: 2010.03.12/outbox.cif.g09.slc.cpg/sg14_33_cif.got.tgz:65631.got - 2010.03.31 13:35:05.
