data_PCOD8126665
_publ_section_title
;
Structure prediction by ZEFSAII (Michael W. Deem and Ramdas Pophale) SiO2 
 PCOD8126665
Probable space group: P 21/C
;
_chemical_formula_sum "Si O2"
_cell_formula_units_Z 24
_cell_length_a 9.573280
_cell_length_b 14.068654
_cell_length_c 17.553152
_cell_angle_alpha 90.000000
_cell_angle_beta 27.885128
_cell_angle_gamma 90.000000
_cell_volume 1105.697095
_symmetry_space_group_name_H-M "P 21/C"
_symmetry_group_IT_number 14
_symmetry_cell_setting 'monoclinic'
loop_
_space_group_symop_operation_xyz
x,y,z
-x,1/2+y,1/2-z
-x,-y,-z
x,1/2-y,1/2+z
loop_
_atom_site_type_symbol
_atom_site_label
_atom_site_fract_x
_atom_site_fract_y
_atom_site_fract_z
Si Si1 0.677898 0.830836 0.485280
Si Si2 0.398997 0.513494 0.747402
Si Si3 0.740995 0.222769 0.711306
Si Si4 0.766748 0.477029 0.001577
Si Si5 0.363667 0.197429 0.665113
Si Si6 0.769062 0.340819 0.542888
O O1 0.380078 0.779121 0.657321
O O2 0.761439 0.797351 0.360292
O O3 0.924814 0.806157 0.429344
O O4 0.639387 0.944778 0.504007
O O5 0.452406 0.626418 0.709693
O O6 0.332325 0.491736 0.866946
O O7 0.697425 0.453533 0.583423
O O8 0.127625 0.474277 0.825762
O O9 0.749271 0.287506 0.632864
O O10 0.638194 0.376072 0.038722
O O11 0.508574 0.298273 0.615250
O O12 0.098097 0.169323 0.849867
#
# Coordination Sequence:
#
# PCOD8126665 Si02
#       6
#     4   4   4   4   4   4
#     4  11  24  43  63  95 131 172 205 265 321 379
#     4  10  22  41  68  97 124 164 218 266 312 367
#     4  11  23  42  67  91 128 168 215 260 318 374
#     4  10  21  41  67  91 130 167 208 265 319 371
#     4  12  25  41  65  97 131 166 215 258 324 374
#     4  12  24  42  68  96 125 170 215 267 306 385
#
# _framework density 21.705765
#
# number of rings (size 3 to 8) (size 9 to 14) (size 15 to 20)
#    0.000    1.000    3.333    3.500    2.333    2.000 
#    0.000    9.167    0.000    0.000    0.000    0.000 
#    0.000    0.000    0.000    0.000    0.000    0.000 
#
# Total GULP energy -297658.563503 kJ/mol
# GULP energy per Si atom -12402.440146 kJ/mol
# Density = 2.165636 g / cm^3
# Si number density = 21.705765 Si / 1000 Ang^3
#
#
#
# Elastic Constant Matrix: (Units=GPa)
#
#
# Indices 1 2 3 4 5 6 
#
# 1 87.4776 29.1322 11.7870 0.0000 12.0356 0.0000
# 2 29.1322 77.2807 18.1666 0.0000 5.9081 0.0000
# 3 11.7870 18.1666 64.3237 0.0000 10.5724 0.0000
# 4 0.0000 0.0000 0.0000 38.3443 0.0000 -7.5090
# 5 12.0356 5.9081 10.5724 0.0000 27.6801 0.0000
# 6 0.0000 0.0000 0.0000 -7.5090 0.0000 21.8918
#
#
#
# Elastic Compliance Matrix: (Units=1/GPa)
#
#
# Indices 1 2 3 4 5 6 
#
# 1 0.013714 -0.004710 -0.000393 0.000000 -0.004808 0.000000
# 2 -0.004710 0.015541 -0.003540 0.000000 0.000083 0.000000
# 3 -0.000393 -0.003540 0.017569 0.000000 -0.005784 0.000000
# 4 0.000000 0.000000 0.000000 0.027957 0.000000 0.009590
# 5 -0.004808 0.000083 -0.005784 0.000000 0.040409 0.000000
# 6 0.000000 0.000000 0.000000 0.009590 0.000000 0.048969
#
#
# Mechanical properties :
#
#
# Convention : Reuss Voigt Hill
#
# Bulk Modulus (GPa) = 33.85297 38.58375 36.21836
# Shear Modulus (GPa) = 26.13822 28.91630 27.52726
#
# Velocity S-wave (km/s) = 3.47393 3.65388 3.56504
# Velocity P-wave (km/s) = 5.63215 5.96788 5.80244
#
# Compressibility (1/GPa) = 0.02953951
#
# Stress axis : x y z
#
# Youngs Moduli (GPa) = 72.91577 64.34538 56.91937
#
# Poissons Ratio (x) = 0.30307 0.02235
# Poissons Ratio (y) = 0.34343 0.20148
# Poissons Ratio (z) = 0.02863 0.22777
#
# Static dielectric constant tensor:
#      x y z
#    x 3.855550 0.000000 -0.081350 
#    y 0.000000 4.037290 0.000000 
#    z -0.081350 0.000000 3.697430 
# 
# 
# High freq. dielectric constant tensor:
#      x y z
#    x 1.852840 0.000000 -0.007140 
#    y 0.000000 1.862000 0.000000 
#    z -0.007140 0.000000 1.839730 
# 
# From -- ./inp_files/18044.got.cif
#   From: 2010.03.12/outbox.cif.g09.slc.cpg/sg14_10_cif.got.tgz:18044.got - 2010.03.31 13:35:05.
