data_PCOD8126161
_publ_section_title
;
Structure prediction by ZEFSAII (Michael W. Deem and Ramdas Pophale) SiO2 
 PCOD8126161
Probable space group: P 21/C
;
_chemical_formula_sum "Si O2"
_cell_formula_units_Z 32
_cell_length_a 27.255355
_cell_length_b 9.696358
_cell_length_c 11.142890
_cell_angle_alpha 90.000000
_cell_angle_beta 32.115586
_cell_angle_gamma 90.000000
_cell_volume 1565.550176
_symmetry_space_group_name_H-M "P 21/C"
_symmetry_group_IT_number 14
_symmetry_cell_setting 'monoclinic'
loop_
_space_group_symop_operation_xyz
x,y,z
-x,1/2+y,1/2-z
-x,-y,-z
x,1/2-y,1/2+z
loop_
_atom_site_type_symbol
_atom_site_label
_atom_site_fract_x
_atom_site_fract_y
_atom_site_fract_z
Si Si1 0.959586 0.335833 0.020881
Si Si2 0.899108 0.196126 0.915794
Si Si3 0.151850 0.082742 0.042444
Si Si4 0.399592 0.998305 0.060858
Si Si5 0.774044 0.016432 0.888732
Si Si6 0.298700 0.726306 0.625446
Si Si7 0.712191 0.778751 0.847793
Si Si8 0.390484 0.003934 0.361652
O O1 0.942001 0.276960 0.192915
O O2 0.881253 0.444720 0.143226
O O3 0.962189 0.231417 0.900754
O O4 0.062466 0.395831 0.812776
O O5 0.877715 0.035020 0.989943
O O6 0.804052 0.281483 0.108084
O O7 0.234184 0.014895 0.952707
O O8 0.190823 0.221716 0.904527
O O9 0.343321 0.131839 0.134062
O O10 0.365379 0.854812 0.076509
O O11 0.387316 0.987475 0.226922
O O12 0.506201 0.013333 0.802737
O O13 0.743060 0.875239 0.891482
O O14 0.706230 0.141919 0.991171
O O15 0.330197 0.882433 0.543466
O O16 0.649232 0.652471 0.020969
#
# Coordination Sequence:
#
# PCOD8126161 Si02
#       8
#     4   4   4   4   4   4   4   4
#     4  10  23  38  63  86 128 161 211 255 310 357
#     4  10  21  40  59  92 117 167 208 254 301 371
#     4  11  22  36  63  84 123 165 206 250 305 371
#     4  10  24  40  60  90 124 157 199 266 312 374
#     4   9  21  39  57  87 121 164 199 252 305 358
#     4  10  21  38  64  86 122 159 207 251 307 376
#     4  11  22  39  62  89 122 159 207 252 315 367
#     4  11  22  40  63  90 121 157 207 253 319 376
#
# _framework density 20.440097999999999
#
# number of rings (size 3 to 8) (size 9 to 14) (size 15 to 20)
#    0.000    1.750    1.250    3.000    8.750    0.000 
#    0.000    0.625    0.000    8.250    0.000    0.000 
#    0.000    0.000    0.000    0.000    0.000    0.000 
#
# Total GULP energy -396449.109604 kJ/mol
# GULP energy per Si atom -12389.034675 kJ/mol
# Density = 2.039358 g / cm^3
# Si number density = 20.440098 Si / 1000 Ang^3
#
#
#
# Elastic Constant Matrix: (Units=GPa)
#
#
# Indices 1 2 3 4 5 6 
#
# 1 75.9912 32.4194 20.3554 0.0000 5.8133 0.0000
# 2 32.4194 104.8330 15.7957 0.0000 4.9277 0.0000
# 3 20.3554 15.7957 61.7185 0.0000 -3.6976 0.0000
# 4 0.0000 0.0000 0.0000 23.7080 0.0000 -0.8658
# 5 5.8133 4.9277 -3.6976 0.0000 22.3264 0.0000
# 6 0.0000 0.0000 0.0000 -0.8658 0.0000 18.9406
#
#
#
# Elastic Compliance Matrix: (Units=1/GPa)
#
#
# Indices 1 2 3 4 5 6 
#
# 1 0.016510 -0.004216 -0.004614 0.000000 -0.004132 0.000000
# 2 -0.004216 0.011154 -0.001561 0.000000 -0.001623 0.000000
# 3 -0.004614 -0.001561 0.018399 0.000000 0.004593 0.000000
# 4 0.000000 0.000000 0.000000 0.042250 0.000000 0.001931
# 5 -0.004132 -0.001623 0.004593 0.000000 0.046985 0.000000
# 6 0.000000 0.000000 0.000000 0.001931 0.000000 0.052885
#
#
# Mechanical properties :
#
#
# Convention : Reuss Voigt Hill
#
# Bulk Modulus (GPa) = 39.55575 42.18705 40.87140
# Shear Modulus (GPa) = 22.99978 24.59315 23.79647
#
# Velocity S-wave (km/s) = 3.35808 3.47245 3.41575
# Velocity P-wave (km/s) = 5.86768 6.06312 5.96620
#
# Compressibility (1/GPa) = 0.02528077
#
# Stress axis : x y z
#
# Youngs Moduli (GPa) = 60.56881 89.65066 54.35073
#
# Poissons Ratio (x) = 0.37800 0.25076
# Poissons Ratio (y) = 0.25538 0.08486
# Poissons Ratio (z) = 0.27945 0.13998
#
# Static dielectric constant tensor:
#      x y z
#    x 3.935640 0.000000 -0.093790 
#    y 0.000000 3.881410 0.000000 
#    z -0.093790 0.000000 3.645490 
# 
# 
# High freq. dielectric constant tensor:
#      x y z
#    x 1.810980 0.000000 -0.006260 
#    y 0.000000 1.804130 0.000000 
#    z -0.006260 0.000000 1.787730 
# 
# From -- ./inp_files/31587.got.cif
#   From: 2010.03.12/outbox.cif.g09.slc.cpg/sg14_16_cif.got.tgz:31587.got - 2010.03.31 13:35:05.
