data_PCOD8126835
_publ_section_title
;
Structure prediction by ZEFSAII (Michael W. Deem and Ramdas Pophale) SiO2 
 PCOD8126835
Probable space group: P 21/C
;
_chemical_formula_sum "Si O2"
_cell_formula_units_Z 32
_cell_length_a 9.522167
_cell_length_b 10.996870
_cell_length_c 30.967313
_cell_angle_alpha 90.000000
_cell_angle_beta 27.022901
_cell_angle_gamma 90.000000
_cell_volume 1473.315263
_symmetry_space_group_name_H-M "P 21/C"
_symmetry_group_IT_number 14
_symmetry_cell_setting 'monoclinic'
loop_
_space_group_symop_operation_xyz
x,y,z
-x,1/2+y,1/2-z
-x,-y,-z
x,1/2-y,1/2+z
loop_
_atom_site_type_symbol
_atom_site_label
_atom_site_fract_x
_atom_site_fract_y
_atom_site_fract_z
Si Si1 0.109988 0.928923 0.537667
Si Si2 0.174652 0.266956 0.949849
Si Si3 0.226100 0.073144 0.863413
Si Si4 0.804106 0.932837 0.332358
Si Si5 0.160536 0.711641 0.189869
Si Si6 0.089060 0.612872 0.842956
Si Si7 0.239994 0.806077 0.862169
Si Si8 0.057574 0.255411 0.841569
O O1 0.439524 0.936182 0.424005
O O2 0.861086 0.887119 0.569973
O O3 0.112948 0.840902 0.577880
O O4 0.015967 0.059135 0.582065
O O5 0.130019 0.151239 0.931032
O O6 0.505560 0.267982 0.881448
O O7 0.900642 0.268095 0.059443
O O8 0.593541 0.057023 0.761003
O O9 0.099795 0.124877 0.852575
O O10 0.088851 0.939224 0.906251
O O11 0.936940 0.811154 0.273473
O O12 0.843429 0.912769 0.372933
O O13 0.937716 0.066369 0.279767
O O14 0.168730 0.750310 0.137474
O O15 0.144464 0.753596 0.840923
O O16 0.610823 0.806775 0.764520
#
# Coordination Sequence:
#
# PCOD8126835 Si02
#       8
#     4   4   4   4   4   4   4   4
#     4  11  23  44  71  97 133 176 234 273 331 409
#     4  11  25  42  68 103 134 176 228 281 340 405
#     4  10  21  43  65  94 138 178 222 281 338 407
#     4  12  26  44  72 100 141 177 226 284 347 396
#     4  12  26  46  68 102 140 178 224 290 340 407
#     4  11  22  40  69  97 129 178 229 284 330 402
#     4  11  22  40  70  94 134 179 226 277 344 396
#     4  10  23  41  67  97 130 177 224 273 335 402
#
# _framework density 21.719722999999998
#
# number of rings (size 3 to 8) (size 9 to 14) (size 15 to 20)
#    0.000    1.000    3.750    2.250    1.750    5.000 
#    4.500    0.625    0.000    0.000    0.000    0.000 
#    0.000    0.000    0.000    0.000    0.000    0.000 
#
# Total GULP energy -396606.376285 kJ/mol
# GULP energy per Si atom -12393.949259 kJ/mol
# Density = 2.167029 g / cm^3
# Si number density = 21.719723 Si / 1000 Ang^3
#
#
#
# Elastic Constant Matrix: (Units=GPa)
#
#
# Indices 1 2 3 4 5 6 
#
# 1 -135.3246 -125.8875 -208.4514 0.0000 140.3224 0.0000
# 2 -125.8875 -1.6331 -120.4733 0.0000 105.0308 0.0000
# 3 -208.4514 -120.4733 -103.5924 0.0000 124.5123 0.0000
# 4 0.0000 0.0000 0.0000 29.8665 0.0000 10.5803
# 5 140.3224 105.0308 124.5123 0.0000 -43.7334 0.0000
# 6 0.0000 0.0000 0.0000 10.5803 0.0000 24.7692
#
#
#
# Elastic Compliance Matrix: (Units=1/GPa)
#
#
# Indices 1 2 3 4 5 6 
#
# 1 0.008083 -0.004917 -0.002656 0.000000 0.006565 0.000000
# 2 -0.004917 0.011085 -0.004145 0.000000 -0.000954 0.000000
# 3 -0.002656 -0.004145 0.008958 0.000000 0.007027 0.000000
# 4 0.000000 0.000000 0.000000 0.039452 0.000000 -0.016852
# 5 0.006565 -0.000954 0.007027 0.000000 0.015914 0.000000
# 6 0.000000 0.000000 0.000000 -0.016852 0.000000 0.047571
#
#
# Mechanical properties :
#
#
# Convention : Reuss Voigt Hill
#
# Bulk Modulus (GPa) = 213.18275 -127.79715 42.69280
# Shear Modulus (GPa) = 32.03838 16.46459 24.25148
#
# Velocity S-wave (km/s) = 3.84485 2.75625 3.34513
# Velocity P-wave (km/s) = 10.86624 6.98840 5.88377
#
# Compressibility (1/GPa) = 0.00469081
#
# Stress axis : x y z
#
# Youngs Moduli (GPa) = 123.71705 90.20938 111.63319
#
# Poissons Ratio (x) = 0.44353 0.29650
# Poissons Ratio (y) = 0.60828 0.46272
# Poissons Ratio (z) = 0.32859 0.37392
#
# Static dielectric constant tensor:
#      x y z
#    x 3.977080 0.000000 0.155630 
#    y 0.000000 4.370740 0.000000 
#    z 0.155630 0.000000 3.757460 
# 
# 
# High freq. dielectric constant tensor:
#      x y z
#    x 1.859120 0.000000 0.010510 
#    y 0.000000 1.864300 0.000000 
#    z 0.010510 0.000000 1.839520 
# 
# From -- ./inp_files/79629.got.cif
#   From: 2010.03.12/outbox.cif.g09.slc.cpg/sg14_40_cif.got.tgz:79629.got - 2010.03.31 13:35:05.
