data_PCOD8126017
_publ_section_title
;
Structure prediction by ZEFSAII (Michael W. Deem and Ramdas Pophale) SiO2 
 PCOD8126017
Probable space group: P 21/C
;
_chemical_formula_sum "Si O2"
_cell_formula_units_Z 24
_cell_length_a 10.041810
_cell_length_b 5.110205
_cell_length_c 22.306821
_cell_angle_alpha 90.000000
_cell_angle_beta 78.650392
_cell_angle_gamma 90.000000
_cell_volume 1122.305470
_symmetry_space_group_name_H-M "P 21/C"
_symmetry_group_IT_number 14
_symmetry_cell_setting 'monoclinic'
loop_
_space_group_symop_operation_xyz
x,y,z
-x,1/2+y,1/2-z
-x,-y,-z
x,1/2-y,1/2+z
loop_
_atom_site_type_symbol
_atom_site_label
_atom_site_fract_x
_atom_site_fract_y
_atom_site_fract_z
Si Si1 0.090278 0.744519 0.986275
Si Si2 0.305031 0.827816 0.376674
Si Si3 0.420110 0.334410 0.425667
Si Si4 0.886835 0.988307 0.699122
Si Si5 0.064380 0.020740 0.169475
Si Si6 0.290596 0.936885 0.053233
O O1 0.207943 0.712388 0.025752
O O2 0.156812 0.739168 0.915445
O O3 0.000000 0.500000 0.000000
O O4 0.000000 0.000000 0.000000
O O5 0.391099 0.559085 0.377513
O O6 0.263847 0.941436 0.314676
O O7 0.386025 0.050965 0.404046
O O8 0.580154 0.324163 0.424036
O O9 0.337165 0.366760 0.495361
O O10 0.864128 0.000575 0.772220
O O11 0.991885 0.205456 0.669678
O O12 0.952914 0.712949 0.670537
O O13 0.184245 0.049029 0.110423
#
# Coordination Sequence:
#
# PCOD8126017 Si02
#       6
#     4   4   4   4   4   4
#     4  11  21  32  54  82 106 138 177 227 280 322
#     4  11  21  38  55  81 116 147 186 233 277 329
#     4  10  24  37  58  81 113 156 186 227 277 330
#     4  10  21  38  59  86 113 144 187 234 283 334
#     4  10  21  37  61  84 112 149 183 233 287 329
#     4  10  22  40  57  83 116 148 191 227 276 343
#
# _framework density 21.384553
#
# number of rings (size 3 to 8) (size 9 to 14) (size 15 to 20)
#    0.000    1.667    0.000    5.000    0.000   11.333 
#    0.000    1.667    0.000    0.000    0.000    0.000 
#    0.000    0.000    0.000    0.000    0.000    0.000 
#
# Total GULP energy -297317.305543 kJ/mol
# GULP energy per Si atom -12388.221064 kJ/mol
# Density = 2.133588 g / cm^3
# Si number density = 21.384553 Si / 1000 Ang^3
#
#
#
# Elastic Constant Matrix: (Units=GPa)
#
#
# Indices 1 2 3 4 5 6 
#
# 1 82.0666 5.0821 14.1827 0.0000 20.9136 0.0000
# 2 5.0821 93.5876 -10.2867 0.0000 1.8995 0.0000
# 3 14.1827 -10.2867 68.0973 0.0000 9.9091 0.0000
# 4 0.0000 0.0000 0.0000 17.2049 0.0000 4.0937
# 5 20.9136 1.8995 9.9091 0.0000 36.1717 0.0000
# 6 0.0000 0.0000 0.0000 4.0937 0.0000 25.5005
#
#
#
# Elastic Compliance Matrix: (Units=1/GPa)
#
#
# Indices 1 2 3 4 5 6 
#
# 1 0.014584 -0.000856 -0.002027 0.000000 -0.007832 0.000000
# 2 -0.000856 0.010955 0.001921 0.000000 -0.000607 0.000000
# 3 -0.002027 0.001921 0.015874 0.000000 -0.003278 0.000000
# 4 0.000000 0.000000 0.000000 0.060431 0.000000 -0.009701
# 5 -0.007832 -0.000607 -0.003278 0.000000 0.033104 0.000000
# 6 0.000000 0.000000 0.000000 -0.009701 0.000000 0.040772
#
#
# Mechanical properties :
#
#
# Convention : Reuss Voigt Hill
#
# Bulk Modulus (GPa) = 25.32238 29.07865 27.20051
# Shear Modulus (GPa) = 26.20436 31.42698 28.81567
#
# Velocity S-wave (km/s) = 3.50435 3.83771 3.67481
# Velocity P-wave (km/s) = 5.31424 5.76757 5.54554
#
# Compressibility (1/GPa) = 0.03949076
#
# Stress axis : x y z
#
# Youngs Moduli (GPa) = 68.56616 91.28115 62.99514
#
# Poissons Ratio (x) = 0.07812 0.12770
# Poissons Ratio (y) = 0.05868 -0.12104
# Poissons Ratio (z) = 0.13899 -0.17539
#
# Static dielectric constant tensor:
#      x y z
#    x 4.012060 0.000000 0.400270 
#    y 0.000000 3.714370 0.000000 
#    z 0.400270 0.000000 4.312540 
# 
# 
# High freq. dielectric constant tensor:
#      x y z
#    x 1.840220 0.000000 0.027860 
#    y 0.000000 1.842190 0.000000 
#    z 0.027860 0.000000 1.833330 
# 
# From -- ./inp_files/71632.got.cif
#   From: 2010.03.12/outbox.cif.g09.slc.cpg/sg14_36_cif.got.tgz:71632.got - 2010.03.31 13:35:05.
