data_PCOD8126133
_publ_section_title
;
Structure prediction by ZEFSAII (Michael W. Deem and Ramdas Pophale) SiO2 
 PCOD8126133
Probable space group: P 21/C
;
_chemical_formula_sum "Si O2"
_cell_formula_units_Z 24
_cell_length_a 5.253148
_cell_length_b 13.410705
_cell_length_c 14.718645
_cell_angle_alpha 90.000000
_cell_angle_beta 86.212285
_cell_angle_gamma 90.000000
_cell_volume 1034.640299
_symmetry_space_group_name_H-M "P 21/C"
_symmetry_group_IT_number 14
_symmetry_cell_setting 'monoclinic'
loop_
_space_group_symop_operation_xyz
x,y,z
-x,1/2+y,1/2-z
-x,-y,-z
x,1/2-y,1/2+z
loop_
_atom_site_type_symbol
_atom_site_label
_atom_site_fract_x
_atom_site_fract_y
_atom_site_fract_z
Si Si1 0.549242 0.811496 0.633501
Si Si2 0.357516 0.881807 0.821852
Si Si3 0.175553 0.477757 0.609886
Si Si4 0.263894 0.784753 0.453513
Si Si5 0.888442 0.653459 0.552548
Si Si6 0.740650 0.496645 0.059475
O O1 0.370143 0.824906 0.725235
O O2 0.383796 0.809932 0.547316
O O3 0.707782 0.707167 0.631395
O O4 0.730242 0.910676 0.629300
O O5 0.580454 0.964555 0.829850
O O6 0.421591 0.797987 0.895509
O O7 0.077626 0.928403 0.839707
O O8 0.243146 0.431022 0.508408
O O9 0.120674 0.596414 0.599321
O O10 0.983726 0.740904 0.482424
O O11 0.253945 0.886393 0.393593
O O12 0.500000 0.500000 0.000000
O O13 0.000000 0.500000 0.000000
#
# Coordination Sequence:
#
# PCOD8126133 Si02
#       6
#     4   4   4   4   4   4
#     4  11  23  40  68  95 132 175 217 267 330 388
#     4  11  25  41  64  97 137 163 227 267 325 383
#     4  10  24  42  62  97 128 171 211 278 319 390
#     4  10  22  42  65  94 129 175 215 271 321 393
#     4  10  21  40  71  87 130 171 220 258 338 382
#     4  10  21  38  62  89 122 164 212 256 317 381
#
# _framework density 23.196466999999998
#
# number of rings (size 3 to 8) (size 9 to 14) (size 15 to 20)
#    0.000    1.667    3.333    0.000    4.667    3.333 
#    0.000    1.667    0.000    0.000    0.000    0.000 
#    0.000    0.000    0.000    0.000    0.000    0.000 
#
# Total GULP energy -297352.975460 kJ/mol
# GULP energy per Si atom -12389.707311 kJ/mol
# Density = 2.314367 g / cm^3
# Si number density = 23.196467 Si / 1000 Ang^3
#
#
#
# Elastic Constant Matrix: (Units=GPa)
#
#
# Indices 1 2 3 4 5 6 
#
# 1 80.1636 4.2579 4.9595 0.0000 -10.6516 0.0000
# 2 4.2579 112.1824 5.3537 0.0000 -8.5011 0.0000
# 3 4.9595 5.3537 86.8578 0.0000 -14.1613 0.0000
# 4 0.0000 0.0000 0.0000 24.1275 0.0000 -2.5312
# 5 -10.6516 -8.5011 -14.1613 0.0000 26.2576 0.0000
# 6 0.0000 0.0000 0.0000 -2.5312 0.0000 31.5318
#
#
#
# Elastic Compliance Matrix: (Units=1/GPa)
#
#
# Indices 1 2 3 4 5 6 
#
# 1 0.013188 -0.000098 0.000132 0.000000 0.005389 0.000000
# 2 -0.000098 0.009140 -0.000090 0.000000 0.002871 0.000000
# 3 0.000132 -0.000090 0.012625 0.000000 0.006833 0.000000
# 4 0.000000 0.000000 0.000000 0.041798 0.000000 0.003355
# 5 0.005389 0.002871 0.006833 0.000000 0.044885 0.000000
# 6 0.000000 0.000000 0.000000 0.003355 0.000000 0.031983
#
#
# Mechanical properties :
#
#
# Convention : Reuss Voigt Hill
#
# Bulk Modulus (GPa) = 28.70309 34.26065 31.48187
# Shear Modulus (GPa) = 30.23972 34.02557 32.13265
#
# Velocity S-wave (km/s) = 3.61451 3.83409 3.72592
# Velocity P-wave (km/s) = 5.46080 5.86534 5.66668
#
# Compressibility (1/GPa) = 0.03483945
#
# Stress axis : x y z
#
# Youngs Moduli (GPa) = 75.82882 109.41387 79.20667
#
# Poissons Ratio (x) = 0.01077 -0.01043
# Poissons Ratio (y) = 0.00747 0.00710
# Poissons Ratio (z) = -0.00998 0.00981
#
# Static dielectric constant tensor:
#      x y z
#    x 3.994030 0.000000 -0.193550 
#    y 0.000000 5.308660 0.000000 
#    z -0.193550 0.000000 3.838390 
# 
# 
# High freq. dielectric constant tensor:
#      x y z
#    x 1.908500 0.000000 -0.017260 
#    y 0.000000 1.942350 0.000000 
#    z -0.017260 0.000000 1.874880 
# 
# From -- ./inp_files/37140.got.cif
#   From: 2010.03.12/outbox.cif.g09.slc.cpg/sg14_19_cif.got.tgz:37140.got - 2010.03.31 13:35:05.
