data_PCOD8126445
_publ_section_title
;
Structure prediction by ZEFSAII (Michael W. Deem and Ramdas Pophale) SiO2 
 PCOD8126445
Probable space group: P 21/C
;
_chemical_formula_sum "Si O2"
_cell_formula_units_Z 28
_cell_length_a 13.285113
_cell_length_b 9.466079
_cell_length_c 19.391532
_cell_angle_alpha 90.000000
_cell_angle_beta 148.021861
_cell_angle_gamma 90.000000
_cell_volume 1291.492572
_symmetry_space_group_name_H-M "P 21/C"
_symmetry_group_IT_number 14
_symmetry_cell_setting 'monoclinic'
loop_
_space_group_symop_operation_xyz
x,y,z
-x,1/2+y,1/2-z
-x,-y,-z
x,1/2-y,1/2+z
loop_
_atom_site_type_symbol
_atom_site_label
_atom_site_fract_x
_atom_site_fract_y
_atom_site_fract_z
Si Si1 0.409433 0.274274 0.217441
Si Si2 0.490090 0.041706 0.883288
Si Si3 0.702122 0.162398 0.132672
Si Si4 0.446068 0.990127 0.633792
Si Si5 0.229684 0.523626 0.785469
Si Si6 0.869805 0.617681 0.135867
Si Si7 0.170001 0.381020 0.477487
O O1 0.358403 0.363155 0.256607
O O2 0.561806 0.151422 0.324416
O O3 0.499877 0.374128 0.211290
O O4 0.216524 0.204767 0.074745
O O5 0.373441 0.904625 0.839846
O O6 0.554963 0.133430 0.986102
O O7 0.671218 0.998369 0.942990
O O8 0.709570 0.329735 0.144239
O O9 0.904836 0.088928 0.234992
O O10 0.610325 0.969284 0.672907
O O11 0.239895 0.009578 0.478791
O O12 0.205725 0.405092 0.830609
O O13 0.032683 0.544816 0.629936
O O14 0.830495 0.778474 0.089903
#
# Coordination Sequence:
#
# PCOD8126445 Si02
#       7
#     4   4   4   4   4   4   4
#     4  11  23  43  63  92 130 174 219 258 328 384
#     4  11  21  42  66  90 131 173 206 270 329 382
#     4  10  22  38  65  97 125 168 215 270 326 382
#     4  11  24  41  66  91 130 175 213 271 320 393
#     4  11  22  41  65  95 130 168 217 270 328 377
#     4  10  21  40  63  96 127 164 218 271 320 380
#     4  10  22  41  64  96 133 166 221 270 310 399
#
# _framework density 21.680342
#
# number of rings (size 3 to 8) (size 9 to 14) (size 15 to 20)
#    0.000    1.429    2.857    3.000    0.000    2.857 
#    2.571    2.143    0.000    0.000    0.000    0.000 
#    0.000    0.000    0.000    0.000    0.000    0.000 
#
# Total GULP energy -347242.643662 kJ/mol
# GULP energy per Si atom -12401.522988 kJ/mol
# Density = 2.163100 g / cm^3
# Si number density = 21.680342 Si / 1000 Ang^3
#
#
#
# Elastic Constant Matrix: (Units=GPa)
#
#
# Indices 1 2 3 4 5 6 
#
# 1 67.9173 12.0409 28.6618 0.0000 -5.2181 0.0000
# 2 12.0409 54.1156 14.2627 0.0000 -9.8372 0.0000
# 3 28.6618 14.2627 78.6221 0.0000 -20.2952 0.0000
# 4 0.0000 0.0000 0.0000 29.5465 0.0000 -7.1560
# 5 -5.2181 -9.8372 -20.2952 0.0000 32.0754 0.0000
# 6 0.0000 0.0000 0.0000 -7.1560 0.0000 31.3245
#
#
#
# Elastic Compliance Matrix: (Units=1/GPa)
#
#
# Indices 1 2 3 4 5 6 
#
# 1 0.017789 -0.002606 -0.006540 0.000000 -0.002043 0.000000
# 2 -0.002606 0.020335 -0.001480 0.000000 0.004876 0.000000
# 3 -0.006540 -0.001480 0.017904 0.000000 0.009811 0.000000
# 4 0.000000 0.000000 0.000000 0.035827 0.000000 0.008185
# 5 -0.002043 0.004876 0.009811 0.000000 0.038547 0.000000
# 6 0.000000 0.000000 0.000000 0.008185 0.000000 0.033794
#
#
# Mechanical properties :
#
#
# Convention : Reuss Voigt Hill
#
# Bulk Modulus (GPa) = 28.75504 34.50956 31.63230
# Shear Modulus (GPa) = 25.37560 28.30191 26.83876
#
# Velocity S-wave (km/s) = 3.42489 3.61698 3.52224
# Velocity P-wave (km/s) = 5.37883 5.77887 5.58243
#
# Compressibility (1/GPa) = 0.03477652
#
# Stress axis : x y z
#
# Youngs Moduli (GPa) = 56.21594 49.17559 55.85314
#
# Poissons Ratio (x) = 0.12814 0.36525
# Poissons Ratio (y) = 0.14649 0.08268
# Poissons Ratio (z) = 0.36762 0.07280
#
# Static dielectric constant tensor:
#      x y z
#    x 3.743080 0.000000 -0.173800 
#    y 0.000000 3.901350 0.000000 
#    z -0.173800 0.000000 4.187560 
# 
# 
# High freq. dielectric constant tensor:
#      x y z
#    x 1.831430 0.000000 -0.017590 
#    y 0.000000 1.854830 0.000000 
#    z -0.017590 0.000000 1.859270 
# 
# From -- ./inp_files/68241.got.cif
#   From: 2010.03.12/outbox.cif.g09.slc.cpg/sg14_35_cif.got.tgz:68241.got - 2010.03.31 13:35:05.
