data_PCOD8126100
_publ_section_title
;
Structure prediction by ZEFSAII (Michael W. Deem and Ramdas Pophale) SiO2 
 PCOD8126100
Probable space group: P 21/C
;
_chemical_formula_sum "Si O2"
_cell_formula_units_Z 24
_cell_length_a 14.588086
_cell_length_b 7.626701
_cell_length_c 14.669659
_cell_angle_alpha 90.000000
_cell_angle_beta 45.892919
_cell_angle_gamma 90.000000
_cell_volume 1171.935920
_symmetry_space_group_name_H-M "P 21/C"
_symmetry_group_IT_number 14
_symmetry_cell_setting 'monoclinic'
loop_
_space_group_symop_operation_xyz
x,y,z
-x,1/2+y,1/2-z
-x,-y,-z
x,1/2-y,1/2+z
loop_
_atom_site_type_symbol
_atom_site_label
_atom_site_fract_x
_atom_site_fract_y
_atom_site_fract_z
Si Si1 0.335773 0.516773 0.015940
Si Si2 0.622289 0.457210 0.810447
Si Si3 0.979098 0.871552 0.655248
Si Si4 0.747991 0.174741 0.596419
Si Si5 0.895246 0.787885 0.393277
Si Si6 0.231415 0.288268 0.842481
O O1 0.471671 0.420799 0.908190
O O2 0.323979 0.675372 0.951537
O O3 0.327131 0.591304 0.123991
O O4 0.219551 0.384528 0.079728
O O5 0.693176 0.328359 0.694101
O O6 0.651998 0.661573 0.766550
O O7 0.964569 0.837027 0.773719
O O8 0.857968 0.806401 0.683622
O O9 0.103541 0.782111 0.524492
O O10 0.999222 0.080058 0.637400
O O11 0.723472 0.982897 0.659120
O O12 0.838969 0.692967 0.522545
#
# Coordination Sequence:
#
# PCOD8126100 Si02
#       6
#     4   4   4   4   4   4
#     4   9  22  42  60  92 126 154 212 257 288 370
#     4  11  22  42  66  86 124 166 202 253 309 355
#     4  10  21  39  59  89 125 155 201 256 306 363
#     4  10  24  39  62  94 120 162 205 251 301 372
#     4  10  21  38  60  89 125 159 203 258 300 366
#     4  10  22  40  61  91 120 162 200 253 309 358
#
# _framework density 20.478933999999999
#
# number of rings (size 3 to 8) (size 9 to 14) (size 15 to 20)
#    0.000    2.333    1.667    2.000    7.000    6.000 
#    0.000    3.333    0.000    0.000    0.000    0.000 
#    0.000    0.000    0.000    0.000    0.000    0.000 
#
# Total GULP energy -297434.752393 kJ/mol
# GULP energy per Si atom -12393.114683 kJ/mol
# Density = 2.043232 g / cm^3
# Si number density = 20.478934 Si / 1000 Ang^3
#
#
#
# Elastic Constant Matrix: (Units=GPa)
#
#
# Indices 1 2 3 4 5 6 
#
# 1 78.4562 21.6320 17.7290 0.0000 16.2474 0.0000
# 2 21.6320 51.2049 22.7920 0.0000 -3.3090 0.0000
# 3 17.7290 22.7920 71.8799 0.0000 15.2165 0.0000
# 4 0.0000 0.0000 0.0000 32.5050 0.0000 10.2766
# 5 16.2474 -3.3090 15.2165 0.0000 28.2876 0.0000
# 6 0.0000 0.0000 0.0000 10.2766 0.0000 18.1356
#
#
#
# Elastic Compliance Matrix: (Units=1/GPa)
#
#
# Indices 1 2 3 4 5 6 
#
# 1 0.017207 -0.008352 0.000794 0.000000 -0.011287 0.000000
# 2 -0.008352 0.028244 -0.009717 0.000000 0.013328 0.000000
# 3 0.000794 -0.009717 0.019337 0.000000 -0.011994 0.000000
# 4 0.000000 0.000000 0.000000 0.037479 0.000000 -0.021238
# 5 -0.011287 0.013328 -0.011994 0.000000 0.049845 0.000000
# 6 0.000000 0.000000 0.000000 -0.021238 0.000000 0.067174
#
#
# Mechanical properties :
#
#
# Convention : Reuss Voigt Hill
#
# Bulk Modulus (GPa) = 33.07253 36.20523 34.63888
# Shear Modulus (GPa) = 18.94544 25.07818 22.01181
#
# Velocity S-wave (km/s) = 3.04488 3.50320 3.28205
# Velocity P-wave (km/s) = 5.34287 5.83788 5.59585
#
# Compressibility (1/GPa) = 0.03023657
#
# Stress axis : x y z
#
# Youngs Moduli (GPa) = 58.11666 35.40538 51.71531
#
# Poissons Ratio (x) = 0.29570 -0.04104
# Poissons Ratio (y) = 0.48538 0.50253
# Poissons Ratio (z) = -0.04612 0.34405
#
# Static dielectric constant tensor:
#      x y z
#    x 3.868310 0.000000 0.213990 
#    y 0.000000 3.355070 0.000000 
#    z 0.213990 0.000000 3.894070 
# 
# 
# High freq. dielectric constant tensor:
#      x y z
#    x 1.812810 0.000000 0.014770 
#    y 0.000000 1.763860 0.000000 
#    z 0.014770 0.000000 1.814850 
# 
# From -- ./inp_files/46365.got.cif
#   From: 2010.03.12/outbox.cif.g09.slc.cpg/sg14_24_cif.got.tgz:46365.got - 2010.03.31 13:35:05.
