data_PCOD8126265
_publ_section_title
;
Structure prediction by ZEFSAII (Michael W. Deem and Ramdas Pophale) SiO2 
 PCOD8126265
Probable space group: P 21/C
;
_chemical_formula_sum "Si O2"
_cell_formula_units_Z 20
_cell_length_a 9.809757
_cell_length_b 7.962138
_cell_length_c 11.404525
_cell_angle_alpha 90.000000
_cell_angle_beta 81.717056
_cell_angle_gamma 90.000000
_cell_volume 881.477253
_symmetry_space_group_name_H-M "P 21/C"
_symmetry_group_IT_number 14
_symmetry_cell_setting 'monoclinic'
loop_
_space_group_symop_operation_xyz
x,y,z
-x,1/2+y,1/2-z
-x,-y,-z
x,1/2-y,1/2+z
loop_
_atom_site_type_symbol
_atom_site_label
_atom_site_fract_x
_atom_site_fract_y
_atom_site_fract_z
Si Si1 0.867180 0.807421 0.142377
Si Si2 0.327201 0.620621 0.797566
Si Si3 0.609451 0.719060 0.307627
Si Si4 0.232890 0.413324 0.029874
Si Si5 0.095569 0.629984 0.249953
O O1 0.706064 0.804319 0.196887
O O2 0.947497 0.701471 0.232417
O O3 0.919726 0.000969 0.137570
O O4 0.879446 0.716020 0.014610
O O5 0.365977 0.481453 0.695148
O O6 0.450845 0.751717 0.795041
O O7 0.191988 0.715491 0.771044
O O8 0.299952 0.533622 0.925352
O O9 0.645467 0.801545 0.428391
O O10 0.155946 0.525414 0.134050
#
# Coordination Sequence:
#
# PCOD8126265 Si02
#       5
#     4   4   4   4   4
#     4  10  21  39  62  90 123 160 202 251 302 361
#     4  11  23  42  64  91 125 163 205 254 305 364
#     4  10  21  39  62  90 123 160 202 251 302 361
#     4  10  22  40  64  94 124 160 204 252 306 366
#     4  11  23  42  64  91 125 163 205 254 305 364
#
# _framework density 22.689184000000001
#
# number of rings (size 3 to 8) (size 9 to 14) (size 15 to 20)
#    0.000    1.600    0.000    6.000    0.000    4.800 
#    0.000   12.000    0.000    0.000    0.000    0.000 
#    0.000    0.000    0.000    0.000    0.000    0.000 
#
# Total GULP energy -247982.422463 kJ/mol
# GULP energy per Si atom -12399.121123 kJ/mol
# Density = 2.263754 g / cm^3
# Si number density = 22.689184 Si / 1000 Ang^3
#
#
#
# Elastic Constant Matrix: (Units=GPa)
#
#
# Indices 1 2 3 4 5 6 
#
# 1 55.5539 4.5872 7.4105 0.0000 10.2071 0.0000
# 2 4.5872 125.3291 34.3327 0.0000 1.2157 0.0000
# 3 7.4105 34.3327 86.4386 0.0000 9.2969 0.0000
# 4 0.0000 0.0000 0.0000 25.5592 0.0000 3.4608
# 5 10.2071 1.2157 9.2969 0.0000 24.6864 0.0000
# 6 0.0000 0.0000 0.0000 3.4608 0.0000 44.3007
#
#
#
# Elastic Compliance Matrix: (Units=1/GPa)
#
#
# Indices 1 2 3 4 5 6 
#
# 1 0.019562 -0.000461 -0.000653 0.000000 -0.007820 0.000000
# 2 -0.000461 0.008985 -0.003650 0.000000 0.001123 0.000000
# 3 -0.000653 -0.003650 0.013576 0.000000 -0.004663 0.000000
# 4 0.000000 0.000000 0.000000 0.039543 0.000000 -0.003089
# 5 -0.007820 0.001123 -0.004663 0.000000 0.045442 0.000000
# 6 0.000000 0.000000 0.000000 -0.003089 0.000000 0.022814
#
#
# Mechanical properties :
#
#
# Convention : Reuss Voigt Hill
#
# Bulk Modulus (GPa) = 30.67922 39.99804 35.33863
# Shear Modulus (GPa) = 29.35711 33.64200 31.49956
#
# Velocity S-wave (km/s) = 3.60096 3.85480 3.73004
# Velocity P-wave (km/s) = 5.55338 6.12206 5.84464
#
# Compressibility (1/GPa) = 0.03259536
#
# Stress axis : x y z
#
# Youngs Moduli (GPa) = 51.11823 111.29849 73.65875
#
# Poissons Ratio (x) = 0.05135 0.04808
# Poissons Ratio (y) = 0.02358 0.26885
# Poissons Ratio (z) = 0.03337 0.40623
#
# Static dielectric constant tensor:
#      x y z
#    x 3.933400 0.000000 0.247790 
#    y 0.000000 4.453780 0.000000 
#    z 0.247790 0.000000 4.166210 
# 
# 
# High freq. dielectric constant tensor:
#      x y z
#    x 1.892800 0.000000 0.015820 
#    y 0.000000 1.911780 0.000000 
#    z 0.015820 0.000000 1.882680 
# 
# From -- ./inp_files/23009.got.cif
#   From: 2010.03.12/outbox.cif.g09.slc.cpg/sg14_12_cif.got.tgz:23009.got - 2010.03.31 13:35:05.
