data_PCOD8126012
_publ_section_title
;
Structure prediction by ZEFSAII (Michael W. Deem and Ramdas Pophale) SiO2 
 PCOD8126012
Probable space group: P 21/C
;
_chemical_formula_sum "Si O2"
_cell_formula_units_Z 32
_cell_length_a 33.920097
_cell_length_b 8.936109
_cell_length_c 18.559647
_cell_angle_alpha 90.000000
_cell_angle_beta 162.997108
_cell_angle_gamma 90.000000
_cell_volume 1645.062069
_symmetry_space_group_name_H-M "P 21/C"
_symmetry_group_IT_number 14
_symmetry_cell_setting 'monoclinic'
loop_
_space_group_symop_operation_xyz
x,y,z
-x,1/2+y,1/2-z
-x,-y,-z
x,1/2-y,1/2+z
loop_
_atom_site_type_symbol
_atom_site_label
_atom_site_fract_x
_atom_site_fract_y
_atom_site_fract_z
Si Si1 0.876449 0.324963 0.074238
Si Si2 0.655835 0.173902 0.950516
Si Si3 0.343855 0.674168 0.900927
Si Si4 0.867099 0.173587 0.724887
Si Si5 0.343855 0.174172 0.400931
Si Si6 0.867099 0.826412 0.724884
Si Si7 0.344165 0.326099 0.549488
Si Si8 0.123553 0.175028 0.425769
O O1 0.890834 0.289157 0.183324
O O2 0.878588 0.499995 0.062034
O O3 0.000001 0.249995 0.250003
O O4 0.735923 0.257554 0.801379
O O5 0.500532 0.206650 0.660836
O O6 0.680808 0.000000 0.008923
O O7 0.702275 0.263887 0.102260
O O8 0.741686 0.228895 0.032813
O O9 0.308084 0.499998 0.836439
O O10 0.500531 0.706645 0.160830
O O11 0.833320 0.999999 0.678568
O O12 0.999998 0.222624 1.000000
O O13 0.297728 0.236107 0.397750
O O14 0.264079 0.257567 0.198630
O O15 0.741689 0.728890 0.532815
O O16 0.890828 0.789159 0.683309
#
# Coordination Sequence:
#
# PCOD8126012 Si02
#       8
#     4   4   4   4   4   4   4   4
#     4  11  23  38  59  86 115 150 191 235 284 337
#     4  10  21  37  60  87 113 148 192 235 281 335
#     4  10  21  38  59  84 117 152 187 232 284 338
#     4  10  22  39  58  82 114 150 187 233 288 340
#     4  10  21  38  59  84 117 152 187 232 284 338
#     4  10  22  39  58  82 114 150 187 233 288 340
#     4  10  21  37  60  87 113 148 192 235 281 335
#     4  11  23  38  59  86 115 150 191 235 284 337
#
# _framework density 19.452155000000001
#
# number of rings (size 3 to 8) (size 9 to 14) (size 15 to 20)
#    0.000    1.750    0.000    3.750    0.000    8.500 
#    0.000    5.000    0.000    0.000    0.000    0.000 
#    0.000    0.000    0.000    0.000    0.000    0.000 
#
# Total GULP energy -397037.731808 kJ/mol
# GULP energy per Si atom -12407.429119 kJ/mol
# Density = 1.940788 g / cm^3
# Si number density = 19.452155 Si / 1000 Ang^3
#
#
#
# Elastic Constant Matrix: (Units=GPa)
#
#
# Indices 1 2 3 4 5 6 
#
# 1 133.4665 76.6230 78.5175 0.0000 -4.1404 0.0000
# 2 76.6230 111.2543 65.4394 0.0000 -2.9084 0.0000
# 3 78.5175 65.4394 110.3752 0.0000 -9.6815 0.0000
# 4 0.0000 0.0000 0.0000 36.7870 0.0000 1.3328
# 5 -4.1404 -2.9084 -9.6815 0.0000 41.2297 0.0000
# 6 0.0000 0.0000 0.0000 1.3328 0.0000 37.4476
#
#
#
# Elastic Compliance Matrix: (Units=1/GPa)
#
#
# Indices 1 2 3 4 5 6 
#
# 1 0.015368 -0.006355 -0.007217 0.000000 -0.000600 0.000000
# 2 -0.006355 0.016467 -0.005306 0.000000 -0.000722 0.000000
# 3 -0.007217 -0.005306 0.017606 0.000000 0.003035 0.000000
# 4 0.000000 0.000000 0.000000 0.027219 0.000000 -0.000969
# 5 -0.000600 -0.000722 0.003035 0.000000 0.024856 0.000000
# 6 0.000000 0.000000 0.000000 -0.000969 0.000000 0.026738
#
#
# Mechanical properties :
#
#
# Convention : Reuss Voigt Hill
#
# Bulk Modulus (GPa) = 85.57660 88.47289 87.02474
# Shear Modulus (GPa) = 29.42817 32.06060 30.74438
#
# Velocity S-wave (km/s) = 3.89376 4.06418 3.97988
# Velocity P-wave (km/s) = 8.01898 8.22219 8.12122
#
# Compressibility (1/GPa) = 0.01168544
#
# Stress axis : x y z
#
# Youngs Moduli (GPa) = 65.06982 60.72749 56.79823
#
# Poissons Ratio (x) = 0.38591 0.40994
# Poissons Ratio (y) = 0.41350 0.30136
# Poissons Ratio (z) = 0.46963 0.32221
#
# Static dielectric constant tensor:
#      x y z
#    x 3.511020 0.000000 -0.094310 
#    y 0.000000 3.627870 0.000000 
#    z -0.094310 0.000000 3.657400 
# 
# 
# High freq. dielectric constant tensor:
#      x y z
#    x 1.759330 0.000000 -0.000650 
#    y 0.000000 1.768210 0.000000 
#    z -0.000650 0.000000 1.766970 
# 
# From -- ./inp_files/62697.got.cif
#   From: 2010.03.12/outbox.cif.g09.slc.cpg/sg14_32_cif.got.tgz:62697.got - 2010.03.31 13:35:05.
