data_PCOD8126960
_publ_section_title
;
Structure prediction by ZEFSAII (Michael W. Deem and Ramdas Pophale) SiO2 
 PCOD8126960
Probable space group: P 21/C
;
_chemical_formula_sum "Si O2"
_cell_formula_units_Z 20
_cell_length_a 18.214622
_cell_length_b 9.826005
_cell_length_c 12.770315
_cell_angle_alpha 90.000000
_cell_angle_beta 158.008243
_cell_angle_gamma 90.000000
_cell_volume 855.893037
_symmetry_space_group_name_H-M "P 21/C"
_symmetry_group_IT_number 14
_symmetry_cell_setting 'monoclinic'
loop_
_space_group_symop_operation_xyz
x,y,z
-x,1/2+y,1/2-z
-x,-y,-z
x,1/2-y,1/2+z
loop_
_atom_site_type_symbol
_atom_site_label
_atom_site_fract_x
_atom_site_fract_y
_atom_site_fract_z
Si Si1 0.822912 0.753064 0.106459
Si Si2 0.295600 0.100949 0.850879
Si Si3 0.547633 0.167763 0.002343
Si Si4 0.819319 0.103602 0.814610
Si Si5 0.949102 0.832250 0.060081
O O1 0.653615 0.661580 0.829783
O O2 0.948114 0.838558 0.185049
O O3 0.712104 0.859371 0.037188
O O4 0.972815 0.654293 0.363046
O O5 0.116560 0.179236 0.557973
O O6 0.287643 0.936403 0.826543
O O7 0.499826 0.138855 0.061475
O O8 0.632903 0.319192 0.112328
O O9 0.841917 0.131107 0.718363
O O10 0.793269 0.944971 0.809412
#
# Coordination Sequence:
#
# PCOD8126960 Si02
#       5
#     4   4   4   4   4
#     4  10  22  36  58  88 116 150 194 234 284 342
#     4   9  21  39  58  85 118 148 192 238 282 340
#     4  10  22  39  60  84 117 153 189 238 286 335
#     4  10  22  39  60  84 117 153 189 238 286 335
#     4   9  21  39  58  85 118 148 192 238 282 340
#
# _framework density 23.367405000000002
#
# number of rings (size 3 to 8) (size 9 to 14) (size 15 to 20)
#    0.000    2.400    0.000    0.000    0.000   20.800 
#    0.000    0.000    0.000    2.400    0.000    0.000 
#    0.000    0.000    0.000    0.000    0.000    0.000 
#
# Total GULP energy -247776.326368 kJ/mol
# GULP energy per Si atom -12388.816318 kJ/mol
# Density = 2.331422 g / cm^3
# Si number density = 23.367405 Si / 1000 Ang^3
#
#
#
# Elastic Constant Matrix: (Units=GPa)
#
#
# Indices 1 2 3 4 5 6 
#
# 1 161.5808 9.8385 -2.7485 0.0000 -8.2252 0.0000
# 2 9.8385 34.9680 -0.5465 0.0000 -0.3220 0.0000
# 3 -2.7485 -0.5465 46.6341 0.0000 -0.8816 0.0000
# 4 0.0000 0.0000 0.0000 28.4433 0.0000 10.1306
# 5 -8.2252 -0.3220 -0.8816 0.0000 18.9450 0.0000
# 6 0.0000 0.0000 0.0000 10.1306 0.0000 36.7923
#
#
#
# Elastic Compliance Matrix: (Units=1/GPa)
#
#
# Indices 1 2 3 4 5 6 
#
# 1 0.006446 -0.001782 0.000412 0.000000 0.002788 0.000000
# 2 -0.001782 0.029100 0.000231 0.000000 -0.000268 0.000000
# 3 0.000412 0.000231 0.021493 0.000000 0.001183 0.000000
# 4 0.000000 0.000000 0.000000 0.038980 0.000000 -0.010733
# 5 0.002788 -0.000268 0.001183 0.000000 0.054045 0.000000
# 6 0.000000 0.000000 0.000000 -0.010733 0.000000 0.030135
#
#
# Mechanical properties :
#
#
# Convention : Reuss Voigt Hill
#
# Bulk Modulus (GPa) = 18.26109 28.47443 23.36776
# Shear Modulus (GPa) = 24.90894 32.61208 28.76051
#
# Velocity S-wave (km/s) = 3.26846 3.73986 3.51208
# Velocity P-wave (km/s) = 4.69846 5.55524 5.14472
#
# Compressibility (1/GPa) = 0.05476124
#
# Stress axis : x y z
#
# Youngs Moduli (GPa) = 155.12916 34.36432 46.52705
#
# Poissons Ratio (x) = 0.06122 -0.01916
# Poissons Ratio (y) = 0.27638 -0.01074
# Poissons Ratio (z) = -0.06387 -0.00794
#
# Static dielectric constant tensor:
#      x y z
#    x 4.806870 0.000000 0.067730 
#    y 0.000000 4.205420 0.000000 
#    z 0.067730 0.000000 3.517170 
# 
# 
# High freq. dielectric constant tensor:
#      x y z
#    x 1.950090 0.000000 0.010720 
#    y 0.000000 1.925310 0.000000 
#    z 0.010720 0.000000 1.870070 
# 
# From -- ./inp_files/33695.got.cif
#   From: 2010.03.12/outbox.cif.g09.slc.cpg/sg14_17_cif.got.tgz:33695.got - 2010.03.31 13:35:05.
