data_PCOD8126277
_publ_section_title
;
Structure prediction by ZEFSAII (Michael W. Deem and Ramdas Pophale) SiO2 
 PCOD8126277
Probable space group: P 21/C
;
_chemical_formula_sum "Si O2"
_cell_formula_units_Z 24
_cell_length_a 7.983121
_cell_length_b 15.764392
_cell_length_c 17.919468
_cell_angle_alpha 90.000000
_cell_angle_beta 147.871704
_cell_angle_gamma 90.000000
_cell_volume 1199.325759
_symmetry_space_group_name_H-M "P 21/C"
_symmetry_group_IT_number 14
_symmetry_cell_setting 'monoclinic'
loop_
_space_group_symop_operation_xyz
x,y,z
-x,1/2+y,1/2-z
-x,-y,-z
x,1/2-y,1/2+z
loop_
_atom_site_type_symbol
_atom_site_label
_atom_site_fract_x
_atom_site_fract_y
_atom_site_fract_z
Si Si1 0.514577 0.685296 0.927547
Si Si2 0.091225 0.765132 0.886938
Si Si3 0.433834 0.001518 0.388192
Si Si4 0.394069 0.832401 0.622875
Si Si5 0.778290 0.173632 0.273635
Si Si6 0.248351 0.565920 0.377711
O O1 0.238823 0.694969 0.885924
O O2 0.519492 0.592280 0.891281
O O3 0.448656 0.749760 0.835702
O O4 0.855449 0.701744 0.094177
O O5 0.280743 0.851996 0.943119
O O6 0.726209 0.785236 0.734781
O O7 0.139025 0.730756 0.988987
O O8 0.500000 0.000000 0.500000
O O9 0.637094 0.075330 0.426632
O O10 0.076573 0.018594 0.232902
O O11 0.314864 0.850463 0.678283
O O12 0.714858 0.093655 0.195141
O O13 0.500000 0.500000 0.500000
#
# Coordination Sequence:
#
# PCOD8126277 Si02
#       6
#     4   4   4   4   4   4
#     4  11  22  41  66  88 123 167 211 249 308 379
#     4  10  21  39  63  85 119 166 206 247 301 381
#     4  11  21  41  63  91 120 163 214 253 300 378
#     4  11  23  41  61  93 128 156 209 262 315 361
#     4  11  24  41  61  94 127 160 205 262 314 365
#     4  10  23  39  61  89 120 162 212 250 302 375
#
# _framework density 20.011243
#
# number of rings (size 3 to 8) (size 9 to 14) (size 15 to 20)
#    0.000    1.333    3.333    3.000    7.000    0.667 
#    3.000    1.667    0.000    0.000    0.000    0.000 
#    0.000    0.000    0.000    0.000    0.000    0.000 
#
# Total GULP energy -297543.905647 kJ/mol
# GULP energy per Si atom -12397.662735 kJ/mol
# Density = 1.996570 g / cm^3
# Si number density = 20.011243 Si / 1000 Ang^3
#
#
#
# Elastic Constant Matrix: (Units=GPa)
#
#
# Indices 1 2 3 4 5 6 
#
# 1 76.5962 16.9386 21.2962 0.0000 -16.9372 0.0000
# 2 16.9386 113.5747 53.3251 0.0000 -8.7631 0.0000
# 3 21.2962 53.3251 86.7497 0.0000 -10.1631 0.0000
# 4 0.0000 0.0000 0.0000 46.9750 0.0000 -5.7581
# 5 -16.9372 -8.7631 -10.1631 0.0000 35.5645 0.0000
# 6 0.0000 0.0000 0.0000 -5.7581 0.0000 25.3279
#
#
#
# Elastic Compliance Matrix: (Units=1/GPa)
#
#
# Indices 1 2 3 4 5 6 
#
# 1 0.015337 -0.000531 -0.002688 0.000000 0.006405 0.000000
# 2 -0.000531 0.012424 -0.007426 0.000000 0.000686 0.000000
# 3 -0.002688 -0.007426 0.016955 0.000000 0.001735 0.000000
# 4 0.000000 0.000000 0.000000 0.021898 0.000000 0.004978
# 5 0.006405 0.000686 0.001735 0.000000 0.031833 0.000000
# 6 0.000000 0.000000 0.000000 0.004978 0.000000 0.040614
#
#
# Mechanical properties :
#
#
# Convention : Reuss Voigt Hill
#
# Bulk Modulus (GPa) = 42.68926 51.11560 46.90243
# Shear Modulus (GPa) = 29.73367 33.93087 31.83227
#
# Velocity S-wave (km/s) = 3.85885 4.12222 3.99271
# Velocity P-wave (km/s) = 6.42131 6.94664 6.68914
#
# Compressibility (1/GPa) = 0.02342509
#
# Stress axis : x y z
#
# Youngs Moduli (GPa) = 65.20361 80.49228 58.97813
#
# Poissons Ratio (x) = 0.04274 0.15855
# Poissons Ratio (y) = 0.03462 0.43797
# Poissons Ratio (z) = 0.17528 0.59774
#
# Static dielectric constant tensor:
#      x y z
#    x 2.567460 0.000000 -0.204720 
#    y 0.000000 4.367860 0.000000 
#    z -0.204720 0.000000 3.705850 
# 
# 
# High freq. dielectric constant tensor:
#      x y z
#    x 1.763720 0.000000 -0.000780 
#    y 0.000000 1.788440 0.000000 
#    z -0.000780 0.000000 1.789180 
# 
# From -- ./inp_files/8466.got.cif
#   From: 2010.03.12/outbox.cif.g09.slc.cpg/sg14_5_cif.got.tgz:8466.got - 2010.03.31 13:35:05.
