data_PCOD8126783
_publ_section_title
;
Structure prediction by ZEFSAII (Michael W. Deem and Ramdas Pophale) SiO2 
 PCOD8126783
Probable space group: P 21/C
;
_chemical_formula_sum "Si O2"
_cell_formula_units_Z 32
_cell_length_a 16.327676
_cell_length_b 22.579824
_cell_length_c 11.058199
_cell_angle_alpha 90.000000
_cell_angle_beta 157.814346
_cell_angle_gamma 90.000000
_cell_volume 1539.471339
_symmetry_space_group_name_H-M "P 21/C"
_symmetry_group_IT_number 14
_symmetry_cell_setting 'monoclinic'
loop_
_space_group_symop_operation_xyz
x,y,z
-x,1/2+y,1/2-z
-x,-y,-z
x,1/2-y,1/2+z
loop_
_atom_site_type_symbol
_atom_site_label
_atom_site_fract_x
_atom_site_fract_y
_atom_site_fract_z
Si Si1 0.692941 0.879318 0.245963
Si Si2 0.521820 0.254316 0.811806
Si Si3 0.740997 0.751774 0.798236
Si Si4 0.380999 0.884495 0.605095
Si Si5 0.932356 0.458467 0.800937
Si Si6 0.377061 0.044986 0.250672
Si Si7 0.976705 0.636819 0.689026
Si Si8 0.728476 0.140268 0.175381
O O1 0.819949 0.816507 0.411365
O O2 0.868131 0.931327 0.504812
O O3 0.586241 0.892406 0.971879
O O4 0.504633 0.879213 0.088932
O O5 0.390904 0.260916 0.757692
O O6 0.387825 0.238940 0.505193
O O7 0.643346 0.316284 0.965090
O O8 0.704081 0.204106 0.079486
O O9 0.938855 0.798297 0.077608
O O10 0.427730 0.930876 0.564418
O O11 0.151722 0.900787 0.352174
O O12 0.809934 0.503869 0.552125
O O13 0.782273 0.405802 0.644235
O O14 0.000000 0.500000 0.000000
O O15 0.500000 0.000000 0.500000
O O16 0.252936 0.102690 0.133112
O O17 0.075398 0.643716 0.959251
#
# Coordination Sequence:
#
# PCOD8126783 Si02
#       8
#     4   4   4   4   4   4   4   4
#     4   9  21  42  63  98 128 166 225 282 325 403
#     4  10  22  42  69 100 141 179 222 289 347 402
#     4  10  22  41  67  99 143 176 224 284 347 409
#     4  10  21  42  67  93 134 175 216 283 344 390
#     4  12  23  41  71  90 124 185 227 265 337 409
#     4  12  27  46  63  94 139 180 225 285 339 410
#     4  11  23  42  68  97 133 182 223 282 349 402
#     4  10  23  40  66 100 130 171 228 283 338 401
#
# _framework density 20.786356999999999
#
# number of rings (size 3 to 8) (size 9 to 14) (size 15 to 20)
#    0.000    1.500    3.750    0.750    5.250    2.000 
#    6.750    0.000    0.000    0.000    0.000    0.000 
#    0.000    0.000    0.000    0.000    0.000    0.000 
#
# Total GULP energy -396446.374767 kJ/mol
# GULP energy per Si atom -12388.949211 kJ/mol
# Density = 2.073905 g / cm^3
# Si number density = 20.786357 Si / 1000 Ang^3
#
#
#
# Elastic Constant Matrix: (Units=GPa)
#
#
# Indices 1 2 3 4 5 6 
#
# 1 73.9404 6.5586 17.1822 0.0000 -3.2063 0.0000
# 2 6.5586 77.9548 24.2368 0.0000 4.6754 0.0000
# 3 17.1822 24.2368 60.2269 0.0000 4.6231 0.0000
# 4 0.0000 0.0000 0.0000 49.3332 0.0000 -0.9481
# 5 -3.2063 4.6754 4.6231 0.0000 22.6578 0.0000
# 6 0.0000 0.0000 0.0000 -0.9481 0.0000 36.6713
#
#
#
# Elastic Compliance Matrix: (Units=1/GPa)
#
#
# Indices 1 2 3 4 5 6 
#
# 1 0.014680 -0.000047 -0.004398 0.000000 0.002984 0.000000
# 2 -0.000047 0.014739 -0.005775 0.000000 -0.001870 0.000000
# 3 -0.004398 -0.005775 0.020459 0.000000 -0.003605 0.000000
# 4 0.000000 0.000000 0.000000 0.020280 0.000000 0.000524
# 5 0.002984 -0.001870 -0.003605 0.000000 0.045679 0.000000
# 6 0.000000 0.000000 0.000000 0.000524 0.000000 0.027283
#
#
# Mechanical properties :
#
#
# Convention : Reuss Voigt Hill
#
# Bulk Modulus (GPa) = 33.96807 34.23081 34.09944
# Shear Modulus (GPa) = 28.83950 32.67542 30.75746
#
# Velocity S-wave (km/s) = 3.72886 3.96910 3.85085
# Velocity P-wave (km/s) = 5.90899 6.12443 6.01768
#
# Compressibility (1/GPa) = 0.02943941
#
# Stress axis : x y z
#
# Youngs Moduli (GPa) = 68.11957 67.84533 48.87738
#
# Poissons Ratio (x) = 0.00316 0.21499
# Poissons Ratio (y) = 0.00317 0.28225
# Poissons Ratio (z) = 0.29962 0.39179
#
# Static dielectric constant tensor:
#      x y z
#    x 3.822220 0.000000 0.016350 
#    y 0.000000 4.238870 0.000000 
#    z 0.016350 0.000000 3.531980 
# 
# 
# High freq. dielectric constant tensor:
#      x y z
#    x 1.814000 0.000000 0.009560 
#    y 0.000000 1.830400 0.000000 
#    z 0.009560 0.000000 1.800940 
# 
# From -- ./inp_files/34456.got.cif
#   From: 2010.03.12/outbox.cif.g09.slc.cpg/sg14_18_cif.got.tgz:34456.got - 2010.03.31 13:35:05.
