data_PCOD8126914
_publ_section_title
;
Structure prediction by ZEFSAII (Michael W. Deem and Ramdas Pophale) SiO2 
 PCOD8126914
Probable space group: P 21/C
;
_chemical_formula_sum "Si O2"
_cell_formula_units_Z 32
_cell_length_a 22.641346
_cell_length_b 11.088832
_cell_length_c 12.982029
_cell_angle_alpha 90.000000
_cell_angle_beta 23.854778
_cell_angle_gamma 90.000000
_cell_volume 1318.144737
_symmetry_space_group_name_H-M "P 21/C"
_symmetry_group_IT_number 14
_symmetry_cell_setting 'monoclinic'
loop_
_space_group_symop_operation_xyz
x,y,z
-x,1/2+y,1/2-z
-x,-y,-z
x,1/2-y,1/2+z
loop_
_atom_site_type_symbol
_atom_site_label
_atom_site_fract_x
_atom_site_fract_y
_atom_site_fract_z
Si Si1 0.755164 0.695763 0.718839
Si Si2 0.825466 0.957446 0.565469
Si Si3 0.240002 0.025139 0.100320
Si Si4 0.903329 0.777341 0.182266
Si Si5 0.772410 0.194777 0.279599
Si Si6 0.842415 0.040927 0.979173
Si Si7 0.483422 0.615122 0.281984
Si Si8 0.714286 0.505399 0.043420
O O1 0.751557 0.825762 0.672499
O O2 0.894144 0.692029 0.574999
O O3 0.775465 0.592117 0.602825
O O4 0.603944 0.679871 0.020882
O O5 0.824943 0.008612 0.682766
O O6 0.728671 0.040019 0.639812
O O7 0.988907 0.955091 0.263485
O O8 0.200769 0.161295 0.132627
O O9 0.181505 0.932827 0.104924
O O10 0.414455 0.000625 0.831265
O O11 0.840629 0.892529 0.341068
O O12 0.067431 0.747574 0.957018
O O13 0.648551 0.295234 0.481743
O O14 0.748071 0.095837 0.406212
O O15 0.762084 0.135346 0.182500
O O16 0.557077 0.564379 0.268974
#
# Coordination Sequence:
#
# PCOD8126914 Si02
#       8
#     4   4   4   4   4   4   4   4
#     4  10  24  45  72 106 147 190 240 308 376 436
#     4  11  25  43  77 106 142 193 252 308 366 424
#     4  11  28  46  71 108 154 188 243 307 371 440
#     4  10  21  44  77 102 143 188 250 309 350 435
#     4  12  25  45  77 112 141 196 252 302 373 441
#     4  12  24  44  74 108 145 190 246 304 370 433
#     4  11  28  46  70 109 152 195 241 303 381 446
#     4  11  23  47  74 104 147 189 249 305 369 438
#
# _framework density 24.276546
#
# number of rings (size 3 to 8) (size 9 to 14) (size 15 to 20)
#    0.000    1.000    3.750    2.250   10.500    2.000 
#    2.250    0.000    0.000    0.000    0.000    0.000 
#    0.000    0.000    0.000    0.000    0.000    0.000 
#
# Total GULP energy -396579.913821 kJ/mol
# GULP energy per Si atom -12393.122307 kJ/mol
# Density = 2.422129 g / cm^3
# Si number density = 24.276546 Si / 1000 Ang^3
#
#
#
# Elastic Constant Matrix: (Units=GPa)
#
#
# Indices 1 2 3 4 5 6 
#
# 1 169.9035 42.7536 45.6464 0.0000 -0.7768 0.0000
# 2 42.7536 90.0677 54.3158 0.0000 1.8144 0.0000
# 3 45.6464 54.3158 97.4433 0.0000 -17.8350 0.0000
# 4 0.0000 0.0000 0.0000 42.4127 0.0000 -11.7607
# 5 -0.7768 1.8144 -17.8350 0.0000 42.8729 0.0000
# 6 0.0000 0.0000 0.0000 -11.7607 0.0000 4.8094
#
#
#
# Elastic Compliance Matrix: (Units=1/GPa)
#
#
# Indices 1 2 3 4 5 6 
#
# 1 0.006991 -0.001870 -0.002376 0.000000 -0.000782 0.000000
# 2 -0.001870 0.018261 -0.010230 0.000000 -0.005062 0.000000
# 3 -0.002376 -0.010230 0.018562 0.000000 0.008112 0.000000
# 4 0.000000 0.000000 0.000000 0.073239 0.000000 0.179093
# 5 -0.000782 -0.005062 0.008112 0.000000 0.026899 0.000000
# 6 0.000000 0.000000 0.000000 0.179093 0.000000 0.645867
#
#
# Mechanical properties :
#
#
# Convention : Reuss Voigt Hill
#
# Bulk Modulus (GPa) = 67.27810 71.42736 69.35273
# Shear Modulus (GPa) = 6.06999 32.33225 19.20112
#
# Velocity S-wave (km/s) = 1.58297 3.65338 2.81540
# Velocity P-wave (km/s) = 5.57803 6.87623 6.26087
#
# Compressibility (1/GPa) = 0.01486368
#
# Stress axis : x y z
#
# Youngs Moduli (GPa) = 143.04234 54.76014 53.87352
#
# Poissons Ratio (x) = 0.10240 0.12799
# Poissons Ratio (y) = 0.26750 0.55111
# Poissons Ratio (z) = 0.33982 0.56018
#
# Static dielectric constant tensor:
#      x y z
#    x 4.928810 0.000000 0.041990 
#    y 0.000000 4.389780 0.000000 
#    z 0.041990 0.000000 4.310210 
# 
# 
# High freq. dielectric constant tensor:
#      x y z
#    x 1.985100 0.000000 0.001230 
#    y 0.000000 1.957230 0.000000 
#    z 0.001230 0.000000 1.954390 
# 
# From -- ./inp_files/52043.got.cif
#   From: 2010.03.12/outbox.cif.g09.slc.cpg/sg14_27_cif.got.tgz:52043.got - 2010.03.31 13:35:05.
