data_PCOD8126995
_publ_section_title
;
Structure prediction by ZEFSAII (Michael W. Deem and Ramdas Pophale) SiO2 
 PCOD8126995
Probable space group: P 21/C
;
_chemical_formula_sum "Si O2"
_cell_formula_units_Z 28
_cell_length_a 8.941001
_cell_length_b 11.438610
_cell_length_c 13.665234
_cell_angle_alpha 90.000000
_cell_angle_beta 93.304170
_cell_angle_gamma 90.000000
_cell_volume 1395.256030
_symmetry_space_group_name_H-M "P 21/C"
_symmetry_group_IT_number 14
_symmetry_cell_setting 'monoclinic'
loop_
_space_group_symop_operation_xyz
x,y,z
-x,1/2+y,1/2-z
-x,-y,-z
x,1/2-y,1/2+z
loop_
_atom_site_type_symbol
_atom_site_label
_atom_site_fract_x
_atom_site_fract_y
_atom_site_fract_z
Si Si1 0.745497 0.049073 0.884103
Si Si2 0.583893 0.871156 0.342742
Si Si3 0.115689 0.744489 0.489303
Si Si4 0.339123 0.636508 0.130939
Si Si5 0.261039 0.794372 0.297175
Si Si6 0.219063 0.192487 0.035842
Si Si7 0.440690 0.159311 0.876838
O O1 0.795874 0.107491 0.782650
O O2 0.564505 0.055652 0.887207
O O3 0.798879 0.914755 0.888122
O O4 0.818664 0.118537 0.977564
O O5 0.411396 0.838564 0.356604
O O6 0.689143 0.797641 0.416214
O O7 0.630953 0.842757 0.233590
O O8 0.606360 0.005370 0.370456
O O9 0.194610 0.846481 0.555414
O O10 0.137855 0.768275 0.374552
O O11 0.939202 0.744143 0.503767
O O12 0.295240 0.674835 0.239537
O O13 0.475569 0.717959 0.098766
O O14 0.306318 0.138705 0.946460
#
# Coordination Sequence:
#
# PCOD8126995 Si02
#       7
#     4   4   4   4   4   4   4
#     4   9  21  40  62  88 117 160 201 246 292 354
#     4  10  22  37  63  89 116 153 203 255 289 350
#     4  10  22  40  59  83 126 164 189 240 304 365
#     4   9  21  42  58  88 118 161 200 241 306 350
#     4   9  21  39  62  84 120 159 198 244 302 353
#     4  12  23  37  60  98 118 152 207 241 298 358
#     4   9  22  37  65  87 119 152 202 255 291 344
#
# _framework density 20.068000999999999
#
# number of rings (size 3 to 8) (size 9 to 14) (size 15 to 20)
#    0.000    2.857    0.000    2.571   10.000    5.143 
#    2.571    0.000    0.000    0.000    0.000    0.000 
#    0.000    0.000    0.000    0.000    0.000    0.000 
#
# Total GULP energy -347181.538556 kJ/mol
# GULP energy per Si atom -12399.340663 kJ/mol
# Density = 2.002232 g / cm^3
# Si number density = 20.068001 Si / 1000 Ang^3
#
#
#
# Elastic Constant Matrix: (Units=GPa)
#
#
# Indices 1 2 3 4 5 6 
#
# 1 92.2882 17.9078 46.9338 0.0000 -0.8625 0.0000
# 2 17.9078 95.2175 13.0857 0.0000 7.4446 0.0000
# 3 46.9338 13.0857 71.1876 0.0000 -2.5322 0.0000
# 4 0.0000 0.0000 0.0000 18.8197 0.0000 7.3363
# 5 -0.8625 7.4446 -2.5322 0.0000 18.1793 0.0000
# 6 0.0000 0.0000 0.0000 7.3363 0.0000 14.8420
#
#
#
# Elastic Compliance Matrix: (Units=1/GPa)
#
#
# Indices 1 2 3 4 5 6 
#
# 1 0.016552 -0.001654 -0.010609 0.000000 -0.000015 0.000000
# 2 -0.001654 0.011357 -0.001171 0.000000 -0.004892 0.000000
# 3 -0.010609 -0.001171 0.021362 0.000000 0.002952 0.000000
# 4 0.000000 0.000000 0.000000 0.065818 0.000000 -0.032533
# 5 -0.000015 -0.004892 0.002952 0.000000 0.057421 0.000000
# 6 0.000000 0.000000 0.000000 -0.032533 0.000000 0.083457
#
#
# Mechanical properties :
#
#
# Convention : Reuss Voigt Hill
#
# Bulk Modulus (GPa) = 44.63789 46.06088 45.34939
# Shear Modulus (GPa) = 17.22336 22.41925 19.82131
#
# Velocity S-wave (km/s) = 2.93277 3.34603 3.14619
# Velocity P-wave (km/s) = 5.81032 6.15874 5.98706
#
# Compressibility (1/GPa) = 0.02240249
#
# Stress axis : x y z
#
# Youngs Moduli (GPa) = 60.41681 88.05311 46.81160
#
# Poissons Ratio (x) = 0.14562 0.49663
# Poissons Ratio (y) = 0.09991 0.05483
# Poissons Ratio (z) = 0.64096 0.10314
#
# Static dielectric constant tensor:
#      x y z
#    x 3.467450 0.000000 0.114420 
#    y 0.000000 3.446790 0.000000 
#    z 0.114420 0.000000 3.658060 
# 
# 
# High freq. dielectric constant tensor:
#      x y z
#    x 1.765370 0.000000 0.011060 
#    y 0.000000 1.773940 0.000000 
#    z 0.011060 0.000000 1.787730 
# 
# From -- ./inp_files/39708.got.cif
#   From: 2010.03.12/outbox.cif.g09.slc.cpg/sg14_20_cif.got.tgz:39708.got - 2010.03.31 13:35:05.
