data_PCOD8126842
_publ_section_title
;
Structure prediction by ZEFSAII (Michael W. Deem and Ramdas Pophale) SiO2 
 PCOD8126842
Probable space group: P 21/C
;
_chemical_formula_sum "Si O2"
_cell_formula_units_Z 32
_cell_length_a 10.381218
_cell_length_b 15.131806
_cell_length_c 13.861870
_cell_angle_alpha 90.000000
_cell_angle_beta 135.314327
_cell_angle_gamma 90.000000
_cell_volume 1531.264532
_symmetry_space_group_name_H-M "P 21/C"
_symmetry_group_IT_number 14
_symmetry_cell_setting 'monoclinic'
loop_
_space_group_symop_operation_xyz
x,y,z
-x,1/2+y,1/2-z
-x,-y,-z
x,1/2-y,1/2+z
loop_
_atom_site_type_symbol
_atom_site_label
_atom_site_fract_x
_atom_site_fract_y
_atom_site_fract_z
Si Si1 0.577143 0.367926 0.967142
Si Si2 0.755553 0.107151 0.936450
Si Si3 0.942770 0.588447 0.247000
Si Si4 0.121741 0.950712 0.640736
Si Si5 0.761684 0.742539 0.708917
Si Si6 0.417772 0.432622 0.380816
Si Si7 0.357875 0.528236 0.819853
Si Si8 0.119726 0.703983 0.005154
O O1 0.417300 0.297912 0.853188
O O2 0.532310 0.463751 0.895130
O O3 0.772458 0.334080 0.031123
O O4 0.590368 0.382991 0.091419
O O5 0.570862 0.114080 0.898738
O O6 0.735562 0.045906 0.832218
O O7 0.800270 0.203038 0.920380
O O8 0.914606 0.072093 0.090631
O O9 0.881995 0.692187 0.204547
O O10 0.771850 0.527487 0.178507
O O11 0.027800 0.556049 0.193761
O O12 0.163412 0.854112 0.622229
O O13 0.301570 0.009243 0.745535
O O14 0.000000 0.000000 0.500000
O O15 0.694149 0.648629 0.627148
O O16 0.900823 0.712989 0.868986
O O17 0.500000 0.500000 0.500000
#
# Coordination Sequence:
#
# PCOD8126842 Si02
#       8
#     4   4   4   4   4   4   4   4
#     4  10  21  43  66  93 131 171 220 276 340 389
#     4  11  23  41  67  96 137 171 225 276 344 403
#     4  10  23  44  67  98 137 173 224 280 341 405
#     4  12  24  43  69 101 133 181 235 275 342 412
#     4  10  23  43  64  93 134 174 218 279 334 395
#     4  12  24  43  66  98 138 177 221 285 340 404
#     4  10  22  40  69  97 126 175 222 275 334 412
#     4  11  23  41  68  95 134 179 218 281 336 405
#
# _framework density 20.897759000000001
#
# number of rings (size 3 to 8) (size 9 to 14) (size 15 to 20)
#    0.000    1.250    3.750    1.875    0.000    5.000 
#    0.000    3.750    0.000    0.000    0.000    0.000 
#    0.000    0.000    0.000    0.000    0.000    0.000 
#
# Total GULP energy -396584.502232 kJ/mol
# GULP energy per Si atom -12393.265695 kJ/mol
# Density = 2.085020 g / cm^3
# Si number density = 20.897759 Si / 1000 Ang^3
#
#
#
# Elastic Constant Matrix: (Units=GPa)
#
#
# Indices 1 2 3 4 5 6 
#
# 1 55.3421 21.8039 33.1921 0.0000 2.8643 0.0000
# 2 21.8039 107.1758 56.2636 0.0000 1.6774 0.0000
# 3 33.1921 56.2636 132.4576 0.0000 2.3200 0.0000
# 4 0.0000 0.0000 0.0000 41.6116 0.0000 6.1297
# 5 2.8643 1.6774 2.3200 0.0000 32.6683 0.0000
# 6 0.0000 0.0000 0.0000 6.1297 0.0000 33.4863
#
#
#
# Elastic Compliance Matrix: (Units=1/GPa)
#
#
# Indices 1 2 3 4 5 6 
#
# 1 0.021663 -0.001992 -0.004557 0.000000 -0.001473 0.000000
# 2 -0.001992 0.012193 -0.004678 0.000000 -0.000119 0.000000
# 3 -0.004557 -0.004678 0.010681 0.000000 -0.000119 0.000000
# 4 0.000000 0.000000 0.000000 0.024698 0.000000 -0.004521
# 5 -0.001473 -0.000119 -0.000119 0.000000 0.030754 0.000000
# 6 0.000000 0.000000 0.000000 -0.004521 0.000000 0.030691
#
#
# Mechanical properties :
#
#
# Convention : Reuss Voigt Hill
#
# Bulk Modulus (GPa) = 45.28186 57.49939 51.39063
# Shear Modulus (GPa) = 31.15364 33.80097 32.47730
#
# Velocity S-wave (km/s) = 3.86523 4.02611 3.94649
# Velocity P-wave (km/s) = 6.45254 7.01335 6.73878
#
# Compressibility (1/GPa) = 0.02208390
#
# Stress axis : x y z
#
# Youngs Moduli (GPa) = 46.16081 82.01132 93.62796
#
# Poissons Ratio (x) = 0.16338 0.42662
# Poissons Ratio (y) = 0.09196 0.43800
# Poissons Ratio (z) = 0.21033 0.38366
#
# Static dielectric constant tensor:
#      x y z
#    x 3.709990 0.000000 0.622290 
#    y 0.000000 3.980760 0.000000 
#    z 0.622290 0.000000 1.415740 
# 
# 
# High freq. dielectric constant tensor:
#      x y z
#    x 1.799990 0.000000 0.024180 
#    y 0.000000 1.834920 0.000000 
#    z 0.024180 0.000000 1.824560 
# 
# From -- ./inp_files/45099.got.cif
#   From: 2010.03.12/outbox.cif.g09.slc.cpg/sg14_23_cif.got.tgz:45099.got - 2010.03.31 13:35:05.
