data_PCOD8126381
_publ_section_title
;
Structure prediction by ZEFSAII (Michael W. Deem and Ramdas Pophale) SiO2 
 PCOD8126381
Probable space group: P 21/C
;
_chemical_formula_sum "Si O2"
_cell_formula_units_Z 28
_cell_length_a 11.065368
_cell_length_b 12.096868
_cell_length_c 13.575700
_cell_angle_alpha 90.000000
_cell_angle_beta 49.338618
_cell_angle_gamma 90.000000
_cell_volume 1378.474730
_symmetry_space_group_name_H-M "P 21/C"
_symmetry_group_IT_number 14
_symmetry_cell_setting 'monoclinic'
loop_
_space_group_symop_operation_xyz
x,y,z
-x,1/2+y,1/2-z
-x,-y,-z
x,1/2-y,1/2+z
loop_
_atom_site_type_symbol
_atom_site_label
_atom_site_fract_x
_atom_site_fract_y
_atom_site_fract_z
Si Si1 0.269098 0.275426 0.519208
Si Si2 0.252768 0.821751 0.952217
Si Si3 0.429477 0.621536 0.548623
Si Si4 0.164259 0.118205 0.425609
Si Si5 0.194502 0.877734 0.347615
Si Si6 0.109096 0.211883 0.798971
Si Si7 0.175125 0.044127 0.919206
O O1 0.440775 0.299202 0.472208
O O2 0.293761 0.182895 0.421959
O O3 0.153803 0.221413 0.661775
O O4 0.190208 0.383981 0.511563
O O5 0.382894 0.823006 0.969694
O O6 0.076698 0.817521 0.092752
O O7 0.278993 0.717280 0.867390
O O8 0.283310 0.934544 0.872936
O O9 0.500000 0.500000 0.500000
O O10 0.273841 0.616166 0.699091
O O11 0.150706 0.168203 0.323130
O O12 0.993240 0.140188 0.568773
O O13 0.218251 0.992027 0.393886
O O14 0.213626 0.118679 0.802224
O O15 0.000000 0.000000 0.000000
#
# Coordination Sequence:
#
# PCOD8126381 Si02
#       7
#     4   4   4   4   4   4   4
#     4  11  21  38  61  91 122 157 201 247 303 367
#     4  10  21  40  58  91 117 158 202 246 304 353
#     4  12  24  38  60  90 123 164 199 238 314 370
#     4   9  20  40  64  90 115 161 206 249 301 346
#     4  10  22  41  62  87 123 156 203 256 296 363
#     4   9  19  37  65  87 118 153 205 252 293 354
#     4   9  19  37  60  89 115 155 205 247 294 351
#
# _framework density 20.312306
#
# number of rings (size 3 to 8) (size 9 to 14) (size 15 to 20)
#    0.000    2.000    1.429    2.571    0.000    3.429 
#   10.286    0.714    0.000    0.000    0.000    0.000 
#    0.000    0.000    0.000    0.000    0.000    0.000 
#
# Total GULP energy -347110.951193 kJ/mol
# GULP energy per Si atom -12396.819685 kJ/mol
# Density = 2.026607 g / cm^3
# Si number density = 20.312306 Si / 1000 Ang^3
#
#
#
# Elastic Constant Matrix: (Units=GPa)
#
#
# Indices 1 2 3 4 5 6 
#
# 1 119.1512 54.8178 4.3291 0.0000 18.2821 0.0000
# 2 54.8178 144.4546 14.3589 0.0000 19.0088 0.0000
# 3 4.3291 14.3589 41.0375 0.0000 14.2431 0.0000
# 4 0.0000 0.0000 0.0000 19.3422 0.0000 4.6303
# 5 18.2821 19.0088 14.2431 0.0000 22.5720 0.0000
# 6 0.0000 0.0000 0.0000 4.6303 0.0000 31.4067
#
#
#
# Elastic Compliance Matrix: (Units=1/GPa)
#
#
# Indices 1 2 3 4 5 6 
#
# 1 0.011077 -0.003450 0.002745 0.000000 -0.007798 0.000000
# 2 -0.003450 0.008871 -0.001430 0.000000 -0.003773 0.000000
# 3 0.002745 -0.001430 0.031924 0.000000 -0.021164 0.000000
# 4 0.000000 0.000000 0.000000 0.053592 0.000000 -0.007901
# 5 -0.007798 -0.003773 -0.021164 0.000000 0.067151 0.000000
# 6 0.000000 0.000000 0.000000 -0.007901 0.000000 0.033005
#
#
# Mechanical properties :
#
#
# Convention : Reuss Voigt Hill
#
# Bulk Modulus (GPa) = 21.00771 50.18388 35.59580
# Shear Modulus (GPa) = 22.14773 30.07335 26.11054
#
# Velocity S-wave (km/s) = 3.30564 3.85196 3.58921
# Velocity P-wave (km/s) = 4.99345 6.67408 5.89397
#
# Compressibility (1/GPa) = 0.04760156
#
# Stress axis : x y z
#
# Youngs Moduli (GPa) = 90.27869 112.73259 31.32427
#
# Poissons Ratio (x) = 0.38894 -0.08600
# Poissons Ratio (y) = 0.31147 0.04480
# Poissons Ratio (z) = -0.24785 0.16123
#
# Static dielectric constant tensor:
#      x y z
#    x 3.779190 0.000000 0.084680 
#    y 0.000000 4.413980 0.000000 
#    z 0.084680 0.000000 3.436210 
# 
# 
# High freq. dielectric constant tensor:
#      x y z
#    x 1.798550 0.000000 0.011510 
#    y 0.000000 1.805250 0.000000 
#    z 0.011510 0.000000 1.767370 
# 
# From -- ./inp_files/44333.got.cif
#   From: 2010.03.12/outbox.cif.g09.slc.cpg/sg14_23_cif.got.tgz:44333.got - 2010.03.31 13:35:05.
