data_PCOD8126487
_publ_section_title
;
Structure prediction by ZEFSAII (Michael W. Deem and Ramdas Pophale) SiO2 
 PCOD8126487
Probable space group: P 21/C
;
_chemical_formula_sum "Si O2"
_cell_formula_units_Z 28
_cell_length_a 8.522785
_cell_length_b 13.388281
_cell_length_c 10.990804
_cell_angle_alpha 90.000000
_cell_angle_beta 62.762005
_cell_angle_gamma 90.000000
_cell_volume 1115.046051
_symmetry_space_group_name_H-M "P 21/C"
_symmetry_group_IT_number 14
_symmetry_cell_setting 'monoclinic'
loop_
_space_group_symop_operation_xyz
x,y,z
-x,1/2+y,1/2-z
-x,-y,-z
x,1/2-y,1/2+z
loop_
_atom_site_type_symbol
_atom_site_label
_atom_site_fract_x
_atom_site_fract_y
_atom_site_fract_z
Si Si1 0.729459 0.386389 0.876334
Si Si2 0.366830 0.946345 0.133515
Si Si3 0.709894 0.814405 0.288473
Si Si4 0.894869 0.183499 0.893841
Si Si5 0.988594 0.905384 0.918209
Si Si6 0.360509 0.208740 0.945316
Si Si7 0.457317 0.501355 0.851863
O O1 0.763985 0.275278 0.912730
O O2 0.905583 0.421030 0.743812
O O3 0.552689 0.395044 0.852310
O O4 0.690681 0.464830 0.998724
O O5 0.184639 0.922059 0.129214
O O6 0.350911 0.010510 0.263303
O O7 0.448822 0.839747 0.140713
O O8 0.500000 0.000000 0.000000
O O9 0.618176 0.782246 0.446746
O O10 0.624499 0.921832 0.285483
O O11 0.918384 0.813242 0.241806
O O12 0.686244 0.746251 0.173021
O O13 0.918985 0.181357 0.031619
O O14 0.787338 0.873897 0.961499
O O15 0.000000 0.000000 0.000000
#
# Coordination Sequence:
#
# PCOD8126487 Si02
#       7
#     4   4   4   4   4   4   4
#     4  11  22  41  64  98 131 177 220 274 343 394
#     4  11  23  42  64  99 130 173 226 277 330 403
#     4  10  21  43  63  97 127 175 222 279 336 406
#     4  11  23  38  72  96 130 167 233 274 330 408
#     4  11  22  42  73  96 131 180 225 271 342 412
#     4  10  21  40  65  92 131 171 221 276 337 401
#     4  10  24  42  65  90 140 174 217 276 344 400
#
# _framework density 25.111072
#
# number of rings (size 3 to 8) (size 9 to 14) (size 15 to 20)
#    0.000    1.429    1.429    5.143    2.000    0.000 
#   12.857    0.000    0.000    8.571    0.000    0.000 
#    0.000    0.000    0.000    0.000    0.000    0.000 
#
# Total GULP energy -346918.998425 kJ/mol
# GULP energy per Si atom -12389.964229 kJ/mol
# Density = 2.505392 g / cm^3
# Si number density = 25.111072 Si / 1000 Ang^3
#
#
#
# Elastic Constant Matrix: (Units=GPa)
#
#
# Indices 1 2 3 4 5 6 
#
# 1 73.5667 -12.0932 20.6254 0.0000 6.1011 0.0000
# 2 -12.0932 36.5791 -6.5018 0.0000 -1.4248 0.0000
# 3 20.6254 -6.5018 140.0866 0.0000 14.4445 0.0000
# 4 0.0000 0.0000 0.0000 30.4987 0.0000 1.1283
# 5 6.1011 -1.4248 14.4445 0.0000 39.4677 0.0000
# 6 0.0000 0.0000 0.0000 1.1283 0.0000 24.4111
#
#
#
# Elastic Compliance Matrix: (Units=1/GPa)
#
#
# Indices 1 2 3 4 5 6 
#
# 1 0.014983 0.004569 -0.001842 0.000000 -0.001477 0.000000
# 2 0.004569 0.028970 0.000662 0.000000 0.000097 0.000000
# 3 -0.001842 0.000662 0.007699 0.000000 -0.002509 0.000000
# 4 0.000000 0.000000 0.000000 0.032844 0.000000 -0.001518
# 5 -0.001477 0.000097 -0.002509 0.000000 0.026487 0.000000
# 6 0.000000 0.000000 0.000000 -0.001518 0.000000 0.041035
#
#
# Mechanical properties :
#
#
# Convention : Reuss Voigt Hill
#
# Bulk Modulus (GPa) = 17.11465 28.25479 22.68472
# Shear Modulus (GPa) = 30.35498 35.42230 32.88864
#
# Velocity S-wave (km/s) = 3.48059 3.75990 3.62294
# Velocity P-wave (km/s) = 4.79407 5.48867 5.15309
#
# Compressibility (1/GPa) = 0.05842947
#
# Stress axis : x y z
#
# Youngs Moduli (GPa) = 66.74254 34.51862 129.88647
#
# Poissons Ratio (x) = -0.15770 0.23920
# Poissons Ratio (y) = -0.30492 -0.08597
# Poissons Ratio (z) = 0.12292 -0.02285
#
# Static dielectric constant tensor:
#      x y z
#    x 5.210540 0.000000 0.218880 
#    y 0.000000 4.555680 0.000000 
#    z 0.218880 0.000000 4.760240 
# 
# 
# High freq. dielectric constant tensor:
#      x y z
#    x 2.008570 0.000000 0.005520 
#    y 0.000000 1.981860 0.000000 
#    z 0.005520 0.000000 2.009050 
# 
# From -- ./inp_files/25126.got.cif
#   From: 2010.03.12/outbox.cif.g09.slc.cpg/sg14_13_cif.got.tgz:25126.got - 2010.03.31 13:35:05.
