data_PCOD8126849
_publ_section_title
;
Structure prediction by ZEFSAII (Michael W. Deem and Ramdas Pophale) SiO2 
 PCOD8126849
Probable space group: P 21/C
;
_chemical_formula_sum "Si O2"
_cell_formula_units_Z 20
_cell_length_a 11.113157
_cell_length_b 8.578039
_cell_length_c 9.691850
_cell_angle_alpha 90.000000
_cell_angle_beta 86.093041
_cell_angle_gamma 90.000000
_cell_volume 921.768112
_symmetry_space_group_name_H-M "P 21/C"
_symmetry_group_IT_number 14
_symmetry_cell_setting 'monoclinic'
loop_
_space_group_symop_operation_xyz
x,y,z
-x,1/2+y,1/2-z
-x,-y,-z
x,1/2-y,1/2+z
loop_
_atom_site_type_symbol
_atom_site_label
_atom_site_fract_x
_atom_site_fract_y
_atom_site_fract_z
Si Si1 0.220490 0.864042 0.518636
Si Si2 0.153160 0.412035 0.243919
Si Si3 0.911160 0.253892 0.724622
Si Si4 0.397201 0.117371 0.850578
Si Si5 0.537045 0.227466 0.095090
O O1 0.162538 0.734026 0.626020
O O2 0.147849 0.862776 0.381010
O O3 0.361267 0.831169 0.486293
O O4 0.205887 0.034856 0.589592
O O5 0.098195 0.565556 0.324132
O O6 0.259926 0.335987 0.326199
O O7 0.051562 0.282306 0.233958
O O8 0.487938 0.176914 0.727442
O O9 0.403082 0.930300 0.853189
O O10 0.430728 0.190932 0.995300
#
# Coordination Sequence:
#
# PCOD8126849 Si02
#       5
#     4   4   4   4   4
#     4  10  21  43  67  91 131 171 210 268 325 379
#     4  10  23  42  64  97 128 170 222 261 323 383
#     4  10  22  41  66  92 130 173 214 268 320 386
#     4  11  24  44  67 100 128 175 214 272 322 391
#     4  11  23  45  70  96 134 169 216 269 333 377
#
# _framework density 21.697431000000002
#
# number of rings (size 3 to 8) (size 9 to 14) (size 15 to 20)
#    1.200    0.400    2.000    3.000    0.000    5.600 
#   10.800    0.000    0.000    0.000    0.000    0.000 
#    0.000    0.000    0.000    0.000    0.000    0.000 
#
# Total GULP energy -247988.073630 kJ/mol
# GULP energy per Si atom -12399.403682 kJ/mol
# Density = 2.164805 g / cm^3
# Si number density = 21.697431 Si / 1000 Ang^3
#
#
#
# Elastic Constant Matrix: (Units=GPa)
#
#
# Indices 1 2 3 4 5 6 
#
# 1 101.5553 11.7366 20.3817 0.0000 32.2198 0.0000
# 2 11.7366 18.3027 1.6968 0.0000 -8.8923 0.0000
# 3 20.3817 1.6968 87.4665 0.0000 10.1338 0.0000
# 4 0.0000 0.0000 0.0000 30.5203 0.0000 -4.5533
# 5 32.2198 -8.8923 10.1338 0.0000 35.4474 0.0000
# 6 0.0000 0.0000 0.0000 -4.5533 0.0000 36.5199
#
#
#
# Elastic Compliance Matrix: (Units=1/GPa)
#
#
# Indices 1 2 3 4 5 6 
#
# 1 0.021094 -0.025616 -0.001502 0.000000 -0.025170 0.000000
# 2 -0.025616 0.094161 -0.001336 0.000000 0.047287 0.000000
# 3 -0.001502 -0.001336 0.012090 0.000000 -0.002426 0.000000
# 4 0.000000 0.000000 0.000000 0.033386 0.000000 0.004163
# 5 -0.025170 0.047287 -0.002426 0.000000 0.063645 0.000000
# 6 0.000000 0.000000 0.000000 0.004163 0.000000 0.027901
#
#
# Mechanical properties :
#
#
# Convention : Reuss Voigt Hill
#
# Bulk Modulus (GPa) = 14.19726 30.55052 22.37389
# Shear Modulus (GPa) = 15.03005 32.06481 23.54743
#
# Velocity S-wave (km/s) = 2.63480 3.84841 3.29791
# Velocity P-wave (km/s) = 3.97664 5.81875 4.98355
#
# Compressibility (1/GPa) = 0.07043614
#
# Stress axis : x y z
#
# Youngs Moduli (GPa) = 47.40584 10.62007 82.71289
#
# Poissons Ratio (x) = 0.27205 0.12426
# Poissons Ratio (y) = 1.21437 0.11051
# Poissons Ratio (z) = 0.07122 0.01419
#
# Static dielectric constant tensor:
#      x y z
#    x 3.816080 0.000000 0.099760 
#    y 0.000000 3.561070 0.000000 
#    z 0.099760 0.000000 3.885160 
# 
# 
# High freq. dielectric constant tensor:
#      x y z
#    x 1.859010 0.000000 0.010550 
#    y 0.000000 1.826400 0.000000 
#    z 0.010550 0.000000 1.856650 
# 
# From -- ./inp_files/11907.got.cif
#   From: 2010.03.12/outbox.cif.g09.slc.cpg/sg14_6_cif.got.tgz:11907.got - 2010.03.31 13:35:05.
