data_PCOD8126104
_publ_section_title
;
Structure prediction by ZEFSAII (Michael W. Deem and Ramdas Pophale) SiO2 
 PCOD8126104
Probable space group: P 21/C
;
_chemical_formula_sum "Si O2"
_cell_formula_units_Z 28
_cell_length_a 9.989137
_cell_length_b 5.247170
_cell_length_c 31.100202
_cell_angle_alpha 90.000000
_cell_angle_beta 128.273092
_cell_angle_gamma 90.000000
_cell_volume 1279.744382
_symmetry_space_group_name_H-M "P 21/C"
_symmetry_group_IT_number 14
_symmetry_cell_setting 'monoclinic'
loop_
_space_group_symop_operation_xyz
x,y,z
-x,1/2+y,1/2-z
-x,-y,-z
x,1/2-y,1/2+z
loop_
_atom_site_type_symbol
_atom_site_label
_atom_site_fract_x
_atom_site_fract_y
_atom_site_fract_z
Si Si1 0.733278 0.410941 0.694764
Si Si2 0.848107 0.466787 0.053100
Si Si3 0.641966 0.543838 0.375225
Si Si4 0.957314 0.019621 0.885268
Si Si5 0.719437 0.453455 0.116610
Si Si6 0.000431 0.317600 0.302079
Si Si7 0.637910 0.063139 0.426761
O O1 0.554687 0.519514 0.676968
O O2 0.808660 0.221945 0.746101
O O3 0.884131 0.611679 0.716438
O O4 0.699854 0.302862 0.640157
O O5 0.957529 0.209627 0.071369
O O6 0.709448 0.415203 0.063315
O O7 0.968186 0.710694 0.084470
O O8 0.748346 0.516265 0.989523
O O9 0.707819 0.328008 0.421568
O O10 0.756157 0.506188 0.355446
O O11 0.653675 0.830174 0.396175
O O12 0.985289 0.985346 0.839234
O O13 0.558378 0.625107 0.098978
O O14 0.907514 0.565729 0.162068
#
# Coordination Sequence:
#
# PCOD8126104 Si02
#       7
#     4   4   4   4   4   4   4
#     4  11  21  40  66  93 121 166 212 261 319 380
#     4  11  23  40  66  94 129 172 214 260 315 375
#     4  11  25  43  63  95 134 167 210 264 315 377
#     4  11  25  43  63  95 134 167 210 264 315 377
#     4  10  21  38  60  96 130 156 213 268 316 366
#     4  11  21  40  66  93 121 166 212 261 319 380
#     4  11  23  40  66  94 129 172 214 260 315 375
#
# _framework density 21.879370999999999
#
# number of rings (size 3 to 8) (size 9 to 14) (size 15 to 20)
#    0.000    1.143    4.286    2.143    0.000    3.429 
#    0.000   11.429    0.000    0.000    0.000    0.000 
#    0.000    0.000    0.000    0.000    0.000    0.000 
#
# Total GULP energy -347009.064911 kJ/mol
# GULP energy per Si atom -12393.180890 kJ/mol
# Density = 2.182957 g / cm^3
# Si number density = 21.879371 Si / 1000 Ang^3
#
#
#
# Elastic Constant Matrix: (Units=GPa)
#
#
# Indices 1 2 3 4 5 6 
#
# 1 138.0843 20.0722 30.9542 0.0000 10.8065 0.0000
# 2 20.0722 97.7775 10.2767 0.0000 5.1171 0.0000
# 3 30.9542 10.2767 84.8609 0.0000 6.1003 0.0000
# 4 0.0000 0.0000 0.0000 23.2595 0.0000 2.4267
# 5 10.8065 5.1171 6.1003 0.0000 17.9075 0.0000
# 6 0.0000 0.0000 0.0000 2.4267 0.0000 24.1738
#
#
#
# Elastic Compliance Matrix: (Units=1/GPa)
#
#
# Indices 1 2 3 4 5 6 
#
# 1 0.008301 -0.001233 -0.002608 0.000000 -0.003769 0.000000
# 2 -0.001233 0.010661 -0.000693 0.000000 -0.002067 0.000000
# 3 -0.002608 -0.000693 0.013010 0.000000 -0.002660 0.000000
# 4 0.000000 0.000000 0.000000 0.043448 0.000000 -0.004362
# 5 -0.003769 -0.002067 -0.002660 0.000000 0.059614 0.000000
# 6 0.000000 0.000000 0.000000 -0.004362 0.000000 0.041805
#
#
# Mechanical properties :
#
#
# Convention : Reuss Voigt Hill
#
# Bulk Modulus (GPa) = 43.65686 49.25877 46.45781
# Shear Modulus (GPa) = 25.83438 30.36279 28.09859
#
# Velocity S-wave (km/s) = 3.43995 3.72927 3.58753
# Velocity P-wave (km/s) = 5.98117 6.41140 6.20002
#
# Compressibility (1/GPa) = 0.02290591
#
# Stress axis : x y z
#
# Youngs Moduli (GPa) = 120.47314 93.79683 76.86219
#
# Poissons Ratio (x) = 0.11562 0.20042
# Poissons Ratio (y) = 0.14851 0.05326
# Poissons Ratio (z) = 0.31414 0.06499
#
# Static dielectric constant tensor:
#      x y z
#    x 4.327780 0.000000 -0.018210 
#    y 0.000000 3.755240 0.000000 
#    z -0.018210 0.000000 3.881080 
# 
# 
# High freq. dielectric constant tensor:
#      x y z
#    x 1.865270 0.000000 0.002850 
#    y 0.000000 1.855630 0.000000 
#    z 0.002850 0.000000 1.847270 
# 
# From -- ./inp_files/79076.got.cif
#   From: 2010.03.12/outbox.cif.g09.slc.cpg/sg14_40_cif.got.tgz:79076.got - 2010.03.31 13:35:05.
