data_PCOD8126207
_publ_section_title
;
Structure prediction by ZEFSAII (Michael W. Deem and Ramdas Pophale) SiO2 
 PCOD8126207
Probable space group: P 21/C
;
_chemical_formula_sum "Si O2"
_cell_formula_units_Z 24
_cell_length_a 8.785216
_cell_length_b 15.106408
_cell_length_c 15.060868
_cell_angle_alpha 90.000000
_cell_angle_beta 41.228849
_cell_angle_gamma 90.000000
_cell_volume 1317.328325
_symmetry_space_group_name_H-M "P 21/C"
_symmetry_group_IT_number 14
_symmetry_cell_setting 'monoclinic'
loop_
_space_group_symop_operation_xyz
x,y,z
-x,1/2+y,1/2-z
-x,-y,-z
x,1/2-y,1/2+z
loop_
_atom_site_type_symbol
_atom_site_label
_atom_site_fract_x
_atom_site_fract_y
_atom_site_fract_z
Si Si1 0.303958 0.485835 0.158417
Si Si2 0.631789 0.980964 0.174551
Si Si3 0.018402 0.155681 0.169403
Si Si4 0.963977 0.176627 0.809967
Si Si5 0.479084 0.915258 0.069354
Si Si6 0.079711 0.861033 0.975770
O O1 0.445714 0.477610 0.188826
O O2 0.123072 0.567265 0.240917
O O3 0.163950 0.395072 0.201589
O O4 0.500000 0.500000 0.000000
O O5 0.440821 0.942904 0.190117
O O6 0.685188 0.081830 0.121383
O O7 0.866481 0.926973 0.061542
O O8 0.009595 0.228398 0.249076
O O9 0.920559 0.193543 0.117401
O O10 0.286929 0.138318 0.041759
O O11 0.728379 0.144786 0.870390
O O12 0.938699 0.196349 0.926652
O O13 0.500000 0.000000 0.000000
#
# Coordination Sequence:
#
# PCOD8126207 Si02
#       6
#     4   4   4   4   4   4
#     4  10  21  39  57  80 116 154 176 222 293 334
#     4   8  15  32  59  77 102 146 188 220 267 332
#     4  10  22  37  56  84 112 144 189 227 274 336
#     4  11  21  36  61  83 110 146 186 235 273 321
#     4  11  18  36  61  84 102 141 197 235 257 318
#     4   8  15  34  55  77 106 146 183 217 273 333
#
# _framework density 18.218692000000001
#
# number of rings (size 3 to 8) (size 9 to 14) (size 15 to 20)
#    0.000    2.333    3.333    2.000    2.333    0.000 
#    3.000    4.167    0.000    0.000    0.000    0.000 
#    0.000    0.000    0.000    0.000    0.000    0.000 
#
# Total GULP energy -297338.076330 kJ/mol
# GULP energy per Si atom -12389.086514 kJ/mol
# Density = 1.817723 g / cm^3
# Si number density = 18.218692 Si / 1000 Ang^3
#
#
#
# Elastic Constant Matrix: (Units=GPa)
#
#
# Indices 1 2 3 4 5 6 
#
# 1 109.0093 30.0735 34.2695 0.0000 23.4569 0.0000
# 2 30.0735 68.4126 12.6050 0.0000 19.3816 0.0000
# 3 34.2695 12.6050 76.0659 0.0000 17.9385 0.0000
# 4 0.0000 0.0000 0.0000 23.8908 0.0000 7.8077
# 5 23.4569 19.3816 17.9385 0.0000 32.8478 0.0000
# 6 0.0000 0.0000 0.0000 7.8077 0.0000 25.5737
#
#
#
# Elastic Compliance Matrix: (Units=1/GPa)
#
#
# Indices 1 2 3 4 5 6 
#
# 1 0.012339 -0.003377 -0.003893 0.000000 -0.004693 0.000000
# 2 -0.003377 0.018494 0.000530 0.000000 -0.008790 0.000000
# 3 -0.003893 0.000530 0.016334 0.000000 -0.006453 0.000000
# 4 0.000000 0.000000 0.000000 0.046496 0.000000 -0.014196
# 5 -0.004693 -0.008790 -0.006453 0.000000 0.042505 0.000000
# 6 0.000000 0.000000 0.000000 -0.014196 0.000000 0.043437
#
#
# Mechanical properties :
#
#
# Convention : Reuss Voigt Hill
#
# Bulk Modulus (GPa) = 29.68488 45.26489 37.47488
# Shear Modulus (GPa) = 24.47201 28.23177 26.35189
#
# Velocity S-wave (km/s) = 3.66899 3.94077 3.80731
# Velocity P-wave (km/s) = 5.85472 6.75318 6.31994
#
# Compressibility (1/GPa) = 0.03368719
#
# Stress axis : x y z
#
# Youngs Moduli (GPa) = 81.04529 54.07016 61.22113
#
# Poissons Ratio (x) = 0.18261 0.23831
# Poissons Ratio (y) = 0.27372 -0.03243
# Poissons Ratio (z) = 0.31548 -0.02864
#
# Static dielectric constant tensor:
#      x y z
#    x 3.814810 0.000000 0.400910 
#    y 0.000000 2.135800 0.000000 
#    z 0.400910 0.000000 3.354710 
# 
# 
# High freq. dielectric constant tensor:
#      x y z
#    x 1.721270 0.000000 0.021850 
#    y 0.000000 1.682560 0.000000 
#    z 0.021850 0.000000 1.689260 
# 
# From -- ./inp_files/25964.got.cif
#   From: 2010.03.12/outbox.cif.g09.slc.cpg/sg14_13_cif.got.tgz:25964.got - 2010.03.31 13:35:05.
