data_PCOD8126899
_publ_section_title
;
Structure prediction by ZEFSAII (Michael W. Deem and Ramdas Pophale) SiO2 
 PCOD8126899
Probable space group: P 21/C
;
_chemical_formula_sum "Si O2"
_cell_formula_units_Z 24
_cell_length_a 14.503798
_cell_length_b 6.368515
_cell_length_c 12.605825
_cell_angle_alpha 90.000000
_cell_angle_beta 110.663680
_cell_angle_gamma 90.000000
_cell_volume 1089.464111
_symmetry_space_group_name_H-M "P 21/C"
_symmetry_group_IT_number 14
_symmetry_cell_setting 'monoclinic'
loop_
_space_group_symop_operation_xyz
x,y,z
-x,1/2+y,1/2-z
-x,-y,-z
x,1/2-y,1/2+z
loop_
_atom_site_type_symbol
_atom_site_label
_atom_site_fract_x
_atom_site_fract_y
_atom_site_fract_z
Si Si1 0.274424 0.065843 0.988798
Si Si2 0.556972 0.196937 0.975451
Si Si3 0.134329 0.806658 0.796789
Si Si4 0.990162 0.602053 0.881507
Si Si5 0.815915 0.927889 0.828497
Si Si6 0.635014 0.592299 0.115734
O O1 0.194440 0.084886 0.048793
O O2 0.359303 0.904523 0.065530
O O3 0.325037 0.285923 0.973856
O O4 0.221039 0.966035 0.863992
O O5 0.471869 0.330931 0.883888
O O6 0.618715 0.346566 0.082335
O O7 0.500000 0.000000 0.000000
O O8 0.168799 0.657554 0.714836
O O9 0.097537 0.682847 0.887178
O O10 0.039384 0.926847 0.714844
O O11 0.909142 0.784467 0.842238
O O12 0.000000 0.500000 0.000000
O O13 0.712308 0.851592 0.738574
#
# Coordination Sequence:
#
# PCOD8126899 Si02
#       6
#     4   4   4   4   4   4
#     4  11  24  42  68  98 133 178 230 281 340 414
#     4   9  20  43  69  96 139 179 218 283 344 403
#     4  12  25  46  67  97 138 174 229 293 351 419
#     4  12  28  44  70  99 133 181 232 292 356 420
#     4  12  26  43  71 102 132 186 231 284 354 421
#     4  10  21  44  68  97 140 175 223 286 340 411
#
# _framework density 22.029178999999999
#
# number of rings (size 3 to 8) (size 9 to 14) (size 15 to 20)
#    0.000    1.000    5.000    1.000    4.667    2.667 
#    9.000    0.000    0.000    0.000    0.000    0.000 
#    0.000    0.000    0.000    0.000    0.000    0.000 
#
# Total GULP energy -297349.870639 kJ/mol
# GULP energy per Si atom -12389.577943 kJ/mol
# Density = 2.197904 g / cm^3
# Si number density = 22.029179 Si / 1000 Ang^3
#
#
#
# Elastic Constant Matrix: (Units=GPa)
#
#
# Indices 1 2 3 4 5 6 
#
# 1 78.4948 26.9327 23.8217 0.0000 -1.2314 0.0000
# 2 26.9327 101.9692 36.7269 0.0000 -3.3660 0.0000
# 3 23.8217 36.7269 61.8938 0.0000 1.9239 0.0000
# 4 0.0000 0.0000 0.0000 38.8966 0.0000 7.8601
# 5 -1.2314 -3.3660 1.9239 0.0000 35.2318 0.0000
# 6 0.0000 0.0000 0.0000 7.8601 0.0000 42.9747
#
#
#
# Elastic Compliance Matrix: (Units=1/GPa)
#
#
# Indices 1 2 3 4 5 6 
#
# 1 0.014872 -0.002344 -0.004350 0.000000 0.000533 0.000000
# 2 -0.002344 0.012932 -0.006819 0.000000 0.001526 0.000000
# 3 -0.004350 -0.006819 0.021940 0.000000 -0.002002 0.000000
# 4 0.000000 0.000000 0.000000 0.026696 0.000000 -0.004883
# 5 0.000533 0.001526 -0.002002 0.000000 0.028657 0.000000
# 6 0.000000 0.000000 0.000000 -0.004883 0.000000 0.024163
#
#
# Mechanical properties :
#
#
# Convention : Reuss Voigt Hill
#
# Bulk Modulus (GPa) = 44.01713 46.36895 45.19304
# Shear Modulus (GPa) = 30.51410 33.74573 32.12992
#
# Velocity S-wave (km/s) = 3.72582 3.91815 3.82320
# Velocity P-wave (km/s) = 6.20755 6.44700 6.32841
#
# Compressibility (1/GPa) = 0.02271843
#
# Stress axis : x y z
#
# Youngs Moduli (GPa) = 67.23879 77.32481 45.57983
#
# Poissons Ratio (x) = 0.18124 0.19827
# Poissons Ratio (y) = 0.15760 0.31082
# Poissons Ratio (z) = 0.29248 0.52730
#
# Static dielectric constant tensor:
#      x y z
#    x 4.166340 0.000000 0.389690 
#    y 0.000000 4.331640 0.000000 
#    z 0.389690 0.000000 3.751860 
# 
# 
# High freq. dielectric constant tensor:
#      x y z
#    x 1.879420 0.000000 0.028060 
#    y 0.000000 1.881850 0.000000 
#    z 0.028060 0.000000 1.840060 
# 
# From -- ./inp_files/45978.got.cif
#   From: 2010.03.12/outbox.cif.g09.slc.cpg/sg14_23_cif.got.tgz:45978.got - 2010.03.31 13:35:05.
