data_PCOD8126450
_publ_section_title
;
Structure prediction by ZEFSAII (Michael W. Deem and Ramdas Pophale) SiO2 
 PCOD8126450
Probable space group: P 21/C
;
_chemical_formula_sum "Si O2"
_cell_formula_units_Z 32
_cell_length_a 5.250216
_cell_length_b 22.857071
_cell_length_c 12.381505
_cell_angle_alpha 90.000000
_cell_angle_beta 76.487579
_cell_angle_gamma 90.000000
_cell_volume 1444.708033
_symmetry_space_group_name_H-M "P 21/C"
_symmetry_group_IT_number 14
_symmetry_cell_setting 'monoclinic'
loop_
_space_group_symop_operation_xyz
x,y,z
-x,1/2+y,1/2-z
-x,-y,-z
x,1/2-y,1/2+z
loop_
_atom_site_type_symbol
_atom_site_label
_atom_site_fract_x
_atom_site_fract_y
_atom_site_fract_z
Si Si1 0.707242 0.926817 0.949322
Si Si2 0.916697 0.835852 0.222030
Si Si3 0.696805 0.798956 0.461067
Si Si4 0.066330 0.559221 0.230370
Si Si5 0.841958 0.133548 0.480948
Si Si6 0.139278 0.559333 0.815147
Si Si7 0.401243 0.481600 0.338479
Si Si8 0.494084 0.820312 0.079158
O O1 0.945513 0.908275 0.847751
O O2 0.574352 0.979140 0.899614
O O3 0.806828 0.950354 0.058594
O O4 0.512464 0.872471 0.989273
O O5 0.840326 0.794587 0.330897
O O6 0.694793 0.831475 0.155673
O O7 0.932427 0.903472 0.263325
O O8 0.196961 0.813297 0.149910
O O9 0.443869 0.839961 0.474025
O O10 0.587882 0.737201 0.508509
O O11 0.913943 0.822337 0.525420
O O12 0.151175 0.609999 0.141565
O O13 0.304746 0.521070 0.250438
O O14 0.892369 0.511050 0.184578
O O15 0.869892 0.079778 0.560931
O O16 0.421950 0.570432 0.731098
#
# Coordination Sequence:
#
# PCOD8126450 Si02
#       8
#     4   4   4   4   4   4   4   4
#     4  10  23  38  63 102 133 178 221 284 338 408
#     4  11  24  45  71 102 130 181 226 286 330 412
#     4  11  27  48  68 102 136 178 235 288 332 391
#     4  11  24  39  66 100 142 180 218 286 347 411
#     4  11  26  46  68 100 141 183 228 283 337 402
#     4  10  22  40  69  98 135 181 231 271 336 422
#     4  10  21  40  63  99 137 172 221 284 342 403
#     4  12  25  44  75  96 132 182 233 274 347 401
#
# _framework density 22.149805000000001
#
# number of rings (size 3 to 8) (size 9 to 14) (size 15 to 20)
#    0.000    1.250    1.250    3.750    8.750    2.500 
#    0.000    0.000    0.000    0.000    0.000    0.000 
#    0.000    0.000    0.000    0.000    0.000    0.000 
#
# Total GULP energy -396547.235036 kJ/mol
# GULP energy per Si atom -12392.101095 kJ/mol
# Density = 2.209939 g / cm^3
# Si number density = 22.149805 Si / 1000 Ang^3
#
#
#
# Elastic Constant Matrix: (Units=GPa)
#
#
# Indices 1 2 3 4 5 6 
#
# 1 ****************************** 0.0000-9154.8797 0.0000
# 2 ****************************** 0.0000********** 0.0000
# 3 ****************************** 0.0000********** 0.0000
# 4 0.0000 0.0000 0.0000 31.5156 0.0000 -13.8281
# 5 -9154.8797******************** 0.0000-1867.9472 0.0000
# 6 0.0000 0.0000 0.0000 -13.8281 0.0000 3.0602
#
#
#
# Elastic Compliance Matrix: (Units=1/GPa)
#
#
# Indices 1 2 3 4 5 6 
#
# 1 0.009749 -0.003844 -0.002883 0.000000 -0.000908 0.000000
# 2 -0.003844 0.009472 -0.007339 0.000000 -0.002236 0.000000
# 3 -0.002883 -0.007339 0.010494 0.000000 -0.000964 0.000000
# 4 0.000000 0.000000 0.000000 -0.032290 0.000000 -0.145909
# 5 -0.000908 -0.002236 -0.000964 0.000000 0.026511 0.000000
# 6 0.000000 0.000000 0.000000 -0.145909 0.000000 -0.332541
#
#
# Mechanical properties :
#
#
# Convention : Reuss Voigt Hill
#
# Bulk Modulus (GPa) = 632.21175 -71351.93648 -35359.86236
# Shear Modulus (GPa) = -17.86068 -899.56526 -458.71297
#
# Velocity S-wave (km/s) = -2.84273 -20.17448 -14.40643
# Velocity P-wave (km/s) = 16.59127 181.17936 127.57486
#
# Compressibility (1/GPa) = 0.00158175
#
# Stress axis : x y z
#
# Youngs Moduli (GPa) = 102.57595 105.57756 95.29035
#
# Poissons Ratio (x) = 0.40588 0.27472
# Poissons Ratio (y) = 0.39434 0.69936
# Poissons Ratio (z) = 0.29572 0.77486
#
# Static dielectric constant tensor:
#      x y z
#    x 4.020660 0.000000 -0.198790 
#    y 0.000000 3.965470 0.000000 
#    z -0.198790 0.000000 4.430920 
# 
# 
# High freq. dielectric constant tensor:
#      x y z
#    x 1.870810 0.000000 -0.005580 
#    y 0.000000 1.859080 0.000000 
#    z -0.005580 0.000000 1.887940 
# 
# From -- ./inp_files/22175.got.cif
#   From: 2010.03.12/outbox.cif.g09.slc.cpg/sg14_12_cif.got.tgz:22175.got - 2010.03.31 13:35:05.
