data_PCOD8126491
_publ_section_title
;
Structure prediction by ZEFSAII (Michael W. Deem and Ramdas Pophale) SiO2 
 PCOD8126491
Probable space group: P 21/C
;
_chemical_formula_sum "Si O2"
_cell_formula_units_Z 16
_cell_length_a 7.900628
_cell_length_b 4.695685
_cell_length_c 17.765317
_cell_angle_alpha 90.000000
_cell_angle_beta 60.497496
_cell_angle_gamma 90.000000
_cell_volume 573.613769
_symmetry_space_group_name_H-M "P 21/C"
_symmetry_group_IT_number 14
_symmetry_cell_setting 'monoclinic'
loop_
_space_group_symop_operation_xyz
x,y,z
-x,1/2+y,1/2-z
-x,-y,-z
x,1/2-y,1/2+z
loop_
_atom_site_type_symbol
_atom_site_label
_atom_site_fract_x
_atom_site_fract_y
_atom_site_fract_z
Si Si1 0.208006 0.448239 0.858901
Si Si2 0.798564 0.119705 0.471364
Si Si3 0.383654 0.701584 0.196123
Si Si4 0.388833 0.312539 0.588833
O O1 0.396320 0.238154 0.819503
O O2 0.231538 0.703130 0.792839
O O3 0.004285 0.274469 0.889750
O O4 0.178673 0.600342 0.944654
O O5 0.608721 0.324902 0.503433
O O6 0.754138 0.811081 0.443511
O O7 0.375101 0.375340 0.169671
O O8 0.333791 0.875417 0.130720
#
# Coordination Sequence:
#
# PCOD8126491 Si02
#       4
#     4   4   4   4
#     4  10  21  40  65  93 125 166 212 261 315 378
#     4   9  21  40  64  92 125 165 211 260 317 378
#     4  11  23  41  64  90 127 166 209 261 316 375
#     4  10  23  43  63  90 127 166 208 261 318 378
#
# _framework density 27.893329000000001
#
# number of rings (size 3 to 8) (size 9 to 14) (size 15 to 20)
#    0.000    2.000    0.000    3.000    0.000   12.000 
#    0.000   15.000    0.000    0.000    0.000    0.000 
#    0.000    0.000    0.000    0.000    0.000    0.000 
#
# Total GULP energy -198265.702201 kJ/mol
# GULP energy per Si atom -12391.606388 kJ/mol
# Density = 2.782984 g / cm^3
# Si number density = 27.893329 Si / 1000 Ang^3
#
#
#
# Elastic Constant Matrix: (Units=GPa)
#
#
# Indices 1 2 3 4 5 6 
#
# 1 86.7759 9.0797 61.2423 0.0000 -13.7659 0.0000
# 2 9.0797 60.4737 14.8922 0.0000 -4.5737 0.0000
# 3 61.2423 14.8922 177.9742 0.0000 -10.3548 0.0000
# 4 0.0000 0.0000 0.0000 41.0201 0.0000 1.0916
# 5 -13.7659 -4.5737 -10.3548 0.0000 59.6000 0.0000
# 6 0.0000 0.0000 0.0000 1.0916 0.0000 36.8778
#
#
#
# Elastic Compliance Matrix: (Units=1/GPa)
#
#
# Indices 1 2 3 4 5 6 
#
# 1 0.015686 -0.000881 -0.005169 0.000000 0.002657 0.000000
# 2 -0.000881 0.017000 -0.001066 0.000000 0.000916 0.000000
# 3 -0.005169 -0.001066 0.007488 0.000000 0.000025 0.000000
# 4 0.000000 0.000000 0.000000 0.024398 0.000000 -0.000722
# 5 0.002657 0.000916 0.000025 0.000000 0.017467 0.000000
# 6 0.000000 0.000000 0.000000 -0.000722 0.000000 0.027138
#
#
# Mechanical properties :
#
#
# Convention : Reuss Voigt Hill
#
# Bulk Modulus (GPa) = 38.54839 55.07247 46.81043
# Shear Modulus (GPa) = 37.86245 43.50020 40.68133
#
# Velocity S-wave (km/s) = 3.68829 3.95336 3.82312
# Velocity P-wave (km/s) = 5.65579 6.37382 6.02551
#
# Compressibility (1/GPa) = 0.02594142
#
# Stress axis : x y z
#
# Youngs Moduli (GPa) = 63.75141 58.82281 133.54236
#
# Poissons Ratio (x) = 0.05183 0.69032
# Poissons Ratio (y) = 0.05618 0.14236
# Poissons Ratio (z) = 0.32955 0.06271
#
# Static dielectric constant tensor:
#      x y z
#    x 5.615830 0.000000 -0.226670 
#    y 0.000000 4.555390 0.000000 
#    z -0.226670 0.000000 5.446080 
# 
# 
# High freq. dielectric constant tensor:
#      x y z
#    x 2.132350 0.000000 0.026250 
#    y 0.000000 2.100950 0.000000 
#    z 0.026250 0.000000 2.159700 
# 
# From -- ./inp_files/54048.got.cif
#   From: 2010.03.12/outbox.cif.g09.slc.cpg/sg14_28_cif.got.tgz:54048.got - 2010.03.31 13:35:05.
