data_PCOD8126334
_publ_section_title
;
Structure prediction by ZEFSAII (Michael W. Deem and Ramdas Pophale) SiO2 
 PCOD8126334
Probable space group: P 21/C
;
_chemical_formula_sum "Si O2"
_cell_formula_units_Z 32
_cell_length_a 11.221423
_cell_length_b 8.829686
_cell_length_c 14.522081
_cell_angle_alpha 90.000000
_cell_angle_beta 112.637558
_cell_angle_gamma 90.000000
_cell_volume 1328.018234
_symmetry_space_group_name_H-M "P 21/C"
_symmetry_group_IT_number 14
_symmetry_cell_setting 'monoclinic'
loop_
_space_group_symop_operation_xyz
x,y,z
-x,1/2+y,1/2-z
-x,-y,-z
x,1/2-y,1/2+z
loop_
_atom_site_type_symbol
_atom_site_label
_atom_site_fract_x
_atom_site_fract_y
_atom_site_fract_z
Si Si1 0.868021 0.828274 0.305716
Si Si2 0.819757 0.604716 0.988868
Si Si3 0.965263 0.557506 0.224779
Si Si4 0.369894 0.190054 0.983882
Si Si5 0.241655 0.642988 0.747189
Si Si6 0.389122 0.345440 0.808585
Si Si7 0.348212 0.872439 0.917966
Si Si8 0.324354 0.702349 0.098773
O O1 0.907795 0.861831 0.424522
O O2 0.967241 0.706840 0.289448
O O3 0.719461 0.772978 0.260607
O O4 0.894059 0.985988 0.257054
O O5 0.731901 0.458065 0.947601
O O6 0.897627 0.591718 0.106879
O O7 0.727264 0.752066 0.967155
O O8 0.890842 0.434773 0.264177
O O9 0.392751 0.329314 0.920356
O O10 0.308803 0.049278 0.908474
O O11 0.502962 0.139877 0.071537
O O12 0.355828 0.519402 0.778319
O O13 0.260413 0.778852 0.823778
O O14 0.229182 0.719135 0.643611
O O15 0.532580 0.314207 0.812166
O O16 0.333446 0.813342 0.016402
#
# Coordination Sequence:
#
# PCOD8126334 Si02
#       8
#     4   4   4   4   4   4   4   4
#     4  11  27  46  74 100 137 191 242 298 346 423
#     4  12  24  47  73 104 144 190 238 292 367 424
#     4  11  26  52  71 101 141 187 245 299 356 413
#     4  10  21  39  65  96 146 180 227 284 360 423
#     4  11  23  42  67  97 139 184 239 287 354 420
#     4  10  23  44  66 102 143 185 225 301 363 417
#     4  10  22  38  61 103 141 185 225 285 348 438
#     4  11  25  38  70 107 141 186 234 281 369 440
#
# _framework density 24.096053999999999
#
# number of rings (size 3 to 8) (size 9 to 14) (size 15 to 20)
#    0.000    1.250    3.750    1.125   10.500    3.000 
#    0.000    0.625    0.000    0.000    0.000    0.000 
#    0.000    0.000    0.000    0.000    0.000    0.000 
#
# Total GULP energy -396653.245356 kJ/mol
# GULP energy per Si atom -12395.413917 kJ/mol
# Density = 2.404121 g / cm^3
# Si number density = 24.096054 Si / 1000 Ang^3
#
#
#
# Elastic Constant Matrix: (Units=GPa)
#
#
# Indices 1 2 3 4 5 6 
#
# 1 14.6829 -41.8355 -33.5815 0.0000 30.9189 0.0000
# 2 -41.8355 8.4812 -61.1898 0.0000 67.3137 0.0000
# 3 -33.5815 -61.1898 -0.7914 0.0000 35.8236 0.0000
# 4 0.0000 0.0000 0.0000 38.5812 0.0000 -8.2818
# 5 30.9189 67.3137 35.8236 0.0000 -20.3022 0.0000
# 6 0.0000 0.0000 0.0000 -8.2818 0.0000 40.5967
#
#
#
# Elastic Compliance Matrix: (Units=1/GPa)
#
#
# Indices 1 2 3 4 5 6 
#
# 1 0.022146 -0.005126 -0.002713 0.000000 0.011944 0.000000
# 2 -0.005126 0.006788 -0.004539 0.000000 0.006688 0.000000
# 3 -0.002713 -0.004539 0.021120 0.000000 0.018085 0.000000
# 4 0.000000 0.000000 0.000000 0.027106 0.000000 0.005530
# 5 0.011944 0.006688 0.018085 0.000000 0.023020 0.000000
# 6 0.000000 0.000000 0.000000 0.005530 0.000000 0.025761
#
#
# Mechanical properties :
#
#
# Convention : Reuss Voigt Hill
#
# Bulk Modulus (GPa) = 39.53055 -27.87120 5.82967
# Shear Modulus (GPa) = 31.42111 22.37377 26.89744
#
# Velocity S-wave (km/s) = 3.61500 3.05048 3.34467
# Velocity P-wave (km/s) = 5.81939 0.90298 4.16418
#
# Compressibility (1/GPa) = 0.02529689
#
# Stress axis : x y z
#
# Youngs Moduli (GPa) = 45.15540 147.32648 47.34872
#
# Poissons Ratio (x) = 0.75523 0.12843
# Poissons Ratio (y) = 0.23148 0.21494
# Poissons Ratio (z) = 0.12249 0.66878
#
# Static dielectric constant tensor:
#      x y z
#    x 4.452480 0.000000 -0.203400 
#    y 0.000000 4.609480 0.000000 
#    z -0.203400 0.000000 4.095170 
# 
# 
# High freq. dielectric constant tensor:
#      x y z
#    x 1.953140 0.000000 -0.014830 
#    y 0.000000 1.973670 0.000000 
#    z -0.014830 0.000000 1.941720 
# 
# From -- ./inp_files/43789.got.cif
#   From: 2010.03.12/outbox.cif.g09.slc.cpg/sg14_22_cif.got.tgz:43789.got - 2010.03.31 13:35:05.
