data_PCOD8126631
_publ_section_title
;
Structure prediction by ZEFSAII (Michael W. Deem and Ramdas Pophale) SiO2 
 PCOD8126631
Probable space group: P 21/C
;
_chemical_formula_sum "Si O2"
_cell_formula_units_Z 28
_cell_length_a 6.504861
_cell_length_b 16.477842
_cell_length_c 15.191480
_cell_angle_alpha 90.000000
_cell_angle_beta 60.421231
_cell_angle_gamma 90.000000
_cell_volume 1416.109628
_symmetry_space_group_name_H-M "P 21/C"
_symmetry_group_IT_number 14
_symmetry_cell_setting 'monoclinic'
loop_
_space_group_symop_operation_xyz
x,y,z
-x,1/2+y,1/2-z
-x,-y,-z
x,1/2-y,1/2+z
loop_
_atom_site_type_symbol
_atom_site_label
_atom_site_fract_x
_atom_site_fract_y
_atom_site_fract_z
Si Si1 0.879421 0.767453 0.254903
Si Si2 0.417012 0.121218 0.242977
Si Si3 0.561597 0.619097 0.923571
Si Si4 0.937366 0.332248 0.620030
Si Si5 0.259928 0.466794 0.945919
Si Si6 0.754685 0.226142 0.978227
Si Si7 0.388626 0.419601 0.561183
O O1 0.678082 0.711511 0.254813
O O2 0.747325 0.849730 0.311415
O O3 0.990557 0.729942 0.319323
O O4 0.083174 0.783827 0.141557
O O5 0.285999 0.086002 0.353708
O O6 0.351899 0.065301 0.172986
O O7 0.697138 0.123565 0.199638
O O8 0.440352 0.541287 0.906057
O O9 0.702963 0.592618 0.980082
O O10 0.367953 0.686030 0.992789
O O11 0.138918 0.401206 0.566844
O O12 0.910102 0.285431 0.533366
O O13 0.000000 0.500000 0.000000
O O14 0.556242 0.157766 0.012659
O O15 0.500000 0.500000 0.500000
#
# Coordination Sequence:
#
# PCOD8126631 Si02
#       7
#     4   4   4   4   4   4   4
#     4  11  23  38  68  95 125 167 224 264 321 399
#     4  10  22  42  62  93 125 176 213 265 339 384
#     4  11  24  44  60 102 129 166 233 262 322 412
#     4  10  21  41  65  88 131 169 208 278 318 390
#     4  11  26  41  66  92 139 173 211 282 329 387
#     4  11  23  42  66  95 129 171 221 270 327 393
#     4  10  23  41  62  96 131 166 218 270 327 395
#
# _framework density 19.772483000000001
#
# number of rings (size 3 to 8) (size 9 to 14) (size 15 to 20)
#    0.000    1.429    4.286    1.714    4.000   10.286 
#    0.000    0.000    0.000    0.000    0.000    0.000 
#    0.000    0.000    0.000    0.000    0.000    0.000 
#
# Total GULP energy -347276.740826 kJ/mol
# GULP energy per Si atom -12402.740744 kJ/mol
# Density = 1.972748 g / cm^3
# Si number density = 19.772483 Si / 1000 Ang^3
#
#
#
# Elastic Constant Matrix: (Units=GPa)
#
#
# Indices 1 2 3 4 5 6 
#
# 1 144.5108 50.9669 55.2940 0.0000 -0.7396 0.0000
# 2 50.9669 93.0863 47.7745 0.0000 9.7636 0.0000
# 3 55.2940 47.7745 137.5537 0.0000 0.6336 0.0000
# 4 0.0000 0.0000 0.0000 34.7721 0.0000 -4.0017
# 5 -0.7396 9.7636 0.6336 0.0000 27.8747 0.0000
# 6 0.0000 0.0000 0.0000 -4.0017 0.0000 24.3786
#
#
#
# Elastic Compliance Matrix: (Units=1/GPa)
#
#
# Indices 1 2 3 4 5 6 
#
# 1 0.009244 -0.004053 -0.002316 0.000000 0.001718 0.000000
# 2 -0.004053 0.015433 -0.003706 0.000000 -0.005429 0.000000
# 3 -0.002316 -0.003706 0.009483 0.000000 0.001021 0.000000
# 4 0.000000 0.000000 0.000000 0.029312 0.000000 0.004812
# 5 0.001718 -0.005429 0.001021 0.000000 0.037799 0.000000
# 6 0.000000 0.000000 0.000000 0.004812 0.000000 0.041809
#
#
# Mechanical properties :
#
#
# Convention : Reuss Voigt Hill
#
# Bulk Modulus (GPa) = 71.37441 75.91353 73.64397
# Shear Modulus (GPa) = 29.77920 32.14609 30.96265
#
# Velocity S-wave (km/s) = 3.88505 4.03649 3.96150
# Velocity P-wave (km/s) = 7.50340 7.75895 7.63224
#
# Compressibility (1/GPa) = 0.01401062
#
# Stress axis : x y z
#
# Youngs Moduli (GPa) = 108.17396 64.79539 105.44656
#
# Poissons Ratio (x) = 0.26260 0.24425
# Poissons Ratio (y) = 0.43841 0.39079
# Poissons Ratio (z) = 0.25057 0.24013
#
# Static dielectric constant tensor:
#      x y z
#    x 3.792880 0.000000 0.116850 
#    y 0.000000 3.601180 0.000000 
#    z 0.116850 0.000000 3.849840 
# 
# 
# High freq. dielectric constant tensor:
#      x y z
#    x 1.787680 0.000000 -0.002070 
#    y 0.000000 1.765820 0.000000 
#    z -0.002070 0.000000 1.780470 
# 
# From -- ./inp_files/37729.got.cif
#   From: 2010.03.12/outbox.cif.g09.slc.cpg/sg14_19_cif.got.tgz:37729.got - 2010.03.31 13:35:05.
