data_PCOD8126919
_publ_section_title
;
Structure prediction by ZEFSAII (Michael W. Deem and Ramdas Pophale) SiO2 
 PCOD8126919
Probable space group: P 21/C
;
_chemical_formula_sum "Si O2"
_cell_formula_units_Z 20
_cell_length_a 8.153324
_cell_length_b 12.542998
_cell_length_c 10.425413
_cell_angle_alpha 90.000000
_cell_angle_beta 60.134807
_cell_angle_gamma 90.000000
_cell_volume 924.588102
_symmetry_space_group_name_H-M "P 21/C"
_symmetry_group_IT_number 14
_symmetry_cell_setting 'monoclinic'
loop_
_space_group_symop_operation_xyz
x,y,z
-x,1/2+y,1/2-z
-x,-y,-z
x,1/2-y,1/2+z
loop_
_atom_site_type_symbol
_atom_site_label
_atom_site_fract_x
_atom_site_fract_y
_atom_site_fract_z
Si Si1 0.637668 0.458246 0.836435
Si Si2 0.812399 0.255328 0.880701
Si Si3 0.480263 0.588287 0.397198
Si Si4 0.858185 0.612496 0.144657
Si Si5 0.058955 0.086427 0.657520
O O1 0.685814 0.334423 0.844840
O O2 0.562230 0.471424 0.721091
O O3 0.825507 0.532171 0.771253
O O4 0.500000 0.500000 0.000000
O O5 0.947436 0.321097 0.923408
O O6 0.959237 0.194853 0.734275
O O7 0.681001 0.173890 0.009875
O O8 0.500000 0.500000 0.500000
O O9 0.679168 0.652349 0.299247
O O10 0.892908 0.491866 0.176270
O O11 0.800376 0.611744 0.016843
#
# Coordination Sequence:
#
# PCOD8126919 Si02
#       5
#     4   4   4   4   4
#     4  11  25  45  71  99 139 184 224 277 349 407
#     4  11  25  43  68 105 135 178 236 280 341 408
#     4  12  25  45  72 105 136 179 236 289 330 410
#     4  10  22  42  69  94 137 180 218 284 347 398
#     4  10  21  45  66  94 136 179 222 279 345 409
#
# _framework density 21.631253999999998
#
# number of rings (size 3 to 8) (size 9 to 14) (size 15 to 20)
#    0.000    1.200    4.000    1.200    2.800    2.400 
#    3.600    0.000    0.000    0.000    0.000    0.000 
#    0.000    0.000    0.000    0.000    0.000    0.000 
#
# Total GULP energy -247937.740379 kJ/mol
# GULP energy per Si atom -12396.887019 kJ/mol
# Density = 2.158202 g / cm^3
# Si number density = 21.631254 Si / 1000 Ang^3
#
#
#
# Elastic Constant Matrix: (Units=GPa)
#
#
# Indices 1 2 3 4 5 6 
#
# 1 99.0959 36.4809 59.9181 0.0000 13.9086 0.0000
# 2 36.4809 107.1154 44.5710 0.0000 2.0821 0.0000
# 3 59.9181 44.5710 130.4314 0.0000 1.3893 0.0000
# 4 0.0000 0.0000 0.0000 39.8632 0.0000 -15.0000
# 5 13.9086 2.0821 1.3893 0.0000 45.4044 0.0000
# 6 0.0000 0.0000 0.0000 -15.0000 0.0000 33.1014
#
#
#
# Elastic Compliance Matrix: (Units=1/GPa)
#
#
# Indices 1 2 3 4 5 6 
#
# 1 0.015370 -0.002600 -0.006125 0.000000 -0.004402 0.000000
# 2 -0.002600 0.011330 -0.002681 0.000000 0.000359 0.000000
# 3 -0.006125 -0.002681 0.011379 0.000000 0.001651 0.000000
# 4 0.000000 0.000000 0.000000 0.030243 0.000000 0.013705
# 5 -0.004402 0.000359 0.001651 0.000000 0.023306 0.000000
# 6 0.000000 0.000000 0.000000 0.013705 0.000000 0.036421
#
#
# Mechanical properties :
#
#
# Convention : Reuss Voigt Hill
#
# Bulk Modulus (GPa) = 65.50471 68.73139 67.11805
# Shear Modulus (GPa) = 32.06168 36.71864 34.39016
#
# Velocity S-wave (km/s) = 3.85410 4.12452 3.99160
# Velocity P-wave (km/s) = 7.08192 7.38413 7.23460
#
# Compressibility (1/GPa) = 0.01526608
#
# Stress axis : x y z
#
# Youngs Moduli (GPa) = 65.06235 88.26202 87.87951
#
# Poissons Ratio (x) = 0.22951 0.53828
# Poissons Ratio (y) = 0.16918 0.23560
# Poissons Ratio (z) = 0.39852 0.23662
#
# Static dielectric constant tensor:
#      x y z
#    x 4.089450 0.000000 -0.084160 
#    y 0.000000 4.011150 0.000000 
#    z -0.084160 0.000000 3.898240 
# 
# 
# High freq. dielectric constant tensor:
#      x y z
#    x 1.859760 0.000000 -0.008150 
#    y 0.000000 1.841450 0.000000 
#    z -0.008150 0.000000 1.853650 
# 
# From -- ./inp_files/23742.got.cif
#   From: 2010.03.12/outbox.cif.g09.slc.cpg/sg14_12_cif.got.tgz:23742.got - 2010.03.31 13:35:05.
