data_PCOD8126955
_publ_section_title
;
Structure prediction by ZEFSAII (Michael W. Deem and Ramdas Pophale) SiO2 
 PCOD8126955
Probable space group: P 21/C
;
_chemical_formula_sum "Si O2"
_cell_formula_units_Z 24
_cell_length_a 9.335336
_cell_length_b 23.623901
_cell_length_c 4.842814
_cell_angle_alpha 90.000000
_cell_angle_beta 73.194907
_cell_angle_gamma 90.000000
_cell_volume 1022.408859
_symmetry_space_group_name_H-M "P 21/C"
_symmetry_group_IT_number 14
_symmetry_cell_setting 'monoclinic'
loop_
_space_group_symop_operation_xyz
x,y,z
-x,1/2+y,1/2-z
-x,-y,-z
x,1/2-y,1/2+z
loop_
_atom_site_type_symbol
_atom_site_label
_atom_site_fract_x
_atom_site_fract_y
_atom_site_fract_z
Si Si1 0.942797 0.862925 0.534330
Si Si2 0.299229 0.055668 0.074405
Si Si3 0.324417 0.211905 0.426415
Si Si4 0.130607 0.883321 0.904874
Si Si5 0.295754 0.519065 0.077087
Si Si6 0.460940 0.613878 0.247064
O O1 0.842440 0.908821 0.747970
O O2 0.844723 0.811927 0.463619
O O3 0.030448 0.890650 0.230969
O O4 0.057204 0.841847 0.712757
O O5 0.302840 0.997297 0.251242
O O6 0.449345 0.093125 0.031642
O O7 0.287627 0.038948 0.760807
O O8 0.349144 0.266399 0.602690
O O9 0.442141 0.163382 0.448994
O O10 0.295655 0.861339 0.909605
O O11 0.148831 0.943982 0.737291
O O12 0.443363 0.557571 0.062636
#
# Coordination Sequence:
#
# PCOD8126955 Si02
#       6
#     4   4   4   4   4   4
#     4  11  23  41  60  90 126 160 198 254 297 355
#     4  11  21  37  61  89 128 170 207 230 287 362
#     4  11  25  46  70  88 111 156 211 254 309 368
#     4  10  23  38  61  89 133 153 196 246 306 345
#     4  10  22  35  63  91 125 166 203 237 295 354
#     4   9  24  41  62  91 126 159 201 258 294 353
#
# _framework density 23.473973000000001
#
# number of rings (size 3 to 8) (size 9 to 14) (size 15 to 20)
#    1.000    0.667    0.000    4.000    0.000   12.000 
#    0.000    5.000    0.000    0.000    0.000    0.000 
#    0.000    0.000    0.000    0.000    0.000    0.000 
#
# Total GULP energy -297468.636419 kJ/mol
# GULP energy per Si atom -12394.526517 kJ/mol
# Density = 2.342055 g / cm^3
# Si number density = 23.473973 Si / 1000 Ang^3
#
#
#
# Elastic Constant Matrix: (Units=GPa)
#
#
# Indices 1 2 3 4 5 6 
#
# 1 123.9197 27.5275 31.5503 0.0000 -13.4188 0.0000
# 2 27.5275 69.7155 11.1776 0.0000 -7.8147 0.0000
# 3 31.5503 11.1776 77.3710 0.0000 1.2456 0.0000
# 4 0.0000 0.0000 0.0000 24.8357 0.0000 3.5464
# 5 -13.4188 -7.8147 1.2456 0.0000 25.6403 0.0000
# 6 0.0000 0.0000 0.0000 3.5464 0.0000 24.8315
#
#
#
# Elastic Compliance Matrix: (Units=1/GPa)
#
#
# Indices 1 2 3 4 5 6 
#
# 1 0.010184 -0.002891 -0.003810 0.000000 0.004634 0.000000
# 2 -0.002891 0.016063 -0.001197 0.000000 0.003441 0.000000
# 3 -0.003810 -0.001197 0.014701 0.000000 -0.003073 0.000000
# 4 0.000000 0.000000 0.000000 0.041103 0.000000 -0.005870
# 5 0.004634 0.003441 -0.003073 0.000000 0.042624 0.000000
# 6 0.000000 0.000000 0.000000 -0.005870 0.000000 0.041110
#
#
# Mechanical properties :
#
#
# Convention : Reuss Voigt Hill
#
# Bulk Modulus (GPa) = 39.75809 45.72410 42.74109
# Shear Modulus (GPa) = 26.32083 28.44487 27.38285
#
# Velocity S-wave (km/s) = 3.35218 3.48481 3.41914
# Velocity P-wave (km/s) = 5.65302 5.97602 5.81676
#
# Compressibility (1/GPa) = 0.02515212
#
# Stress axis : x y z
#
# Youngs Moduli (GPa) = 98.19707 62.25432 68.02421
#
# Poissons Ratio (x) = 0.17997 0.25915
# Poissons Ratio (y) = 0.28387 0.08144
# Poissons Ratio (z) = 0.37409 0.07453
#
# Static dielectric constant tensor:
#      x y z
#    x 4.561090 0.000000 -0.002980 
#    y 0.000000 3.842540 0.000000 
#    z -0.002980 0.000000 3.833090 
# 
# 
# High freq. dielectric constant tensor:
#      x y z
#    x 1.945440 0.000000 -0.001550 
#    y 0.000000 1.891700 0.000000 
#    z -0.001550 0.000000 1.926400 
# 
# From -- ./inp_files/1800.got.cif
#   From: 2010.03.12/outbox.cif.g09.slc.cpg/sg14_1_cif.got.tgz:1800.got - 2010.03.31 13:35:05.
