data_PCOD8126260
_publ_section_title
;
Structure prediction by ZEFSAII (Michael W. Deem and Ramdas Pophale) SiO2 
 PCOD8126260
Probable space group: P 21/C
;
_chemical_formula_sum "Si O2"
_cell_formula_units_Z 28
_cell_length_a 10.062586
_cell_length_b 9.669596
_cell_length_c 13.839818
_cell_angle_alpha 90.000000
_cell_angle_beta 71.304923
_cell_angle_gamma 90.000000
_cell_volume 1275.578951
_symmetry_space_group_name_H-M "P 21/C"
_symmetry_group_IT_number 14
_symmetry_cell_setting 'monoclinic'
loop_
_space_group_symop_operation_xyz
x,y,z
-x,1/2+y,1/2-z
-x,-y,-z
x,1/2-y,1/2+z
loop_
_atom_site_type_symbol
_atom_site_label
_atom_site_fract_x
_atom_site_fract_y
_atom_site_fract_z
Si Si1 0.409647 0.862026 0.073767
Si Si2 0.986254 0.356089 0.622061
Si Si3 0.340575 0.260769 0.865023
Si Si4 0.413070 0.141581 0.144388
Si Si5 0.767214 0.650545 0.916911
Si Si6 0.827365 0.346279 0.835477
Si Si7 0.034850 0.334471 0.395659
O O1 0.549132 0.838770 0.107143
O O2 0.311834 0.729473 0.099539
O O3 0.330485 0.998627 0.135823
O O4 0.443055 0.883752 0.951261
O O5 0.846220 0.323224 0.716161
O O6 0.016387 0.518694 0.633789
O O7 0.113739 0.263877 0.629843
O O8 0.961311 0.321283 0.516921
O O9 0.419500 0.343173 0.759522
O O10 0.205160 0.175219 0.857202
O O11 0.278950 0.366801 0.960080
O O12 0.358918 0.287880 0.116772
O O13 0.816071 0.505906 0.864592
O O14 0.970438 0.290440 0.849950
#
# Coordination Sequence:
#
# PCOD8126260 Si02
#       7
#     4   4   4   4   4   4   4
#     4  10  25  40  61  92 119 160 208 239 296 373
#     4  10  21  39  62  87 123 161 198 244 301 357
#     4  10  22  40  63  89 122 157 198 254 300 344
#     4  10  21  42  63  82 124 165 197 245 301 356
#     4  10  23  39  61  95 123 153 203 250 298 356
#     4  12  23  38  63  94 124 156 198 253 302 348
#     4  10  23  40  63  90 119 160 206 241 294 371
#
# _framework density 21.950818000000002
#
# number of rings (size 3 to 8) (size 9 to 14) (size 15 to 20)
#    0.000    1.714    0.000    3.429    0.000   14.857 
#    0.000    0.000    0.000    1.714    0.000    0.000 
#    0.000    0.000    0.000    0.000    0.000    0.000 
#
# Total GULP energy -346903.309660 kJ/mol
# GULP energy per Si atom -12389.403916 kJ/mol
# Density = 2.190086 g / cm^3
# Si number density = 21.950818 Si / 1000 Ang^3
#
#
#
# Elastic Constant Matrix: (Units=GPa)
#
#
# Indices 1 2 3 4 5 6 
#
# 1 80.6148 32.0284 16.8958 0.0000 -5.0686 0.0000
# 2 32.0284 100.9662 42.5225 0.0000 1.2895 0.0000
# 3 16.8958 42.5225 188.9028 0.0000 -5.3493 0.0000
# 4 0.0000 0.0000 0.0000 29.1479 0.0000 1.5536
# 5 -5.0686 1.2895 -5.3493 0.0000 14.3534 0.0000
# 6 0.0000 0.0000 0.0000 1.5536 0.0000 30.4323
#
#
#
# Elastic Compliance Matrix: (Units=1/GPa)
#
#
# Indices 1 2 3 4 5 6 
#
# 1 0.014630 -0.004669 -0.000100 0.000000 0.005548 0.000000
# 2 -0.004669 0.012485 -0.002498 0.000000 -0.003701 0.000000
# 3 -0.000100 -0.002498 0.005933 0.000000 0.002400 0.000000
# 4 0.000000 0.000000 0.000000 0.034401 0.000000 -0.001756
# 5 0.005548 -0.003701 0.002400 0.000000 0.072856 0.000000
# 6 0.000000 0.000000 0.000000 -0.001756 0.000000 0.032949
#
#
# Mechanical properties :
#
#
# Convention : Reuss Voigt Hill
#
# Bulk Modulus (GPa) = 54.01680 61.48635 57.75158
# Shear Modulus (GPa) = 25.77857 33.38919 29.58388
#
# Velocity S-wave (km/s) = 3.43064 3.90435 3.67513
# Velocity P-wave (km/s) = 6.35247 6.95680 6.66149
#
# Compressibility (1/GPa) = 0.01851276
#
# Stress axis : x y z
#
# Youngs Moduli (GPa) = 68.35398 80.09834 168.55289
#
# Poissons Ratio (x) = 0.37402 0.01690
# Poissons Ratio (y) = 0.31918 0.42096
# Poissons Ratio (z) = 0.00685 0.20005
#
# Static dielectric constant tensor:
#      x y z
#    x 3.601590 0.000000 -0.034200 
#    y 0.000000 3.958790 0.000000 
#    z -0.034200 0.000000 4.388880 
# 
# 
# High freq. dielectric constant tensor:
#      x y z
#    x 1.829670 0.000000 -0.003970 
#    y 0.000000 1.863190 0.000000 
#    z -0.003970 0.000000 1.890030 
# 
# From -- ./inp_files/43592.got.cif
#   From: 2010.03.12/outbox.cif.g09.slc.cpg/sg14_22_cif.got.tgz:43592.got - 2010.03.31 13:35:05.
