data_PCOD8126092
_publ_section_title
;
Structure prediction by ZEFSAII (Michael W. Deem and Ramdas Pophale) SiO2 
 PCOD8126092
Probable space group: P 21/C
;
_chemical_formula_sum "Si O2"
_cell_formula_units_Z 32
_cell_length_a 5.066444
_cell_length_b 25.046408
_cell_length_c 13.455608
_cell_angle_alpha 90.000000
_cell_angle_beta 69.218523
_cell_angle_gamma 90.000000
_cell_volume 1596.378846
_symmetry_space_group_name_H-M "P 21/C"
_symmetry_group_IT_number 14
_symmetry_cell_setting 'monoclinic'
loop_
_space_group_symop_operation_xyz
x,y,z
-x,1/2+y,1/2-z
-x,-y,-z
x,1/2-y,1/2+z
loop_
_atom_site_type_symbol
_atom_site_label
_atom_site_fract_x
_atom_site_fract_y
_atom_site_fract_z
Si Si1 0.682941 0.012591 0.570025
Si Si2 0.970304 0.309588 0.181053
Si Si3 0.472522 0.377794 0.178200
Si Si4 0.983238 0.589477 0.379515
Si Si5 0.449659 0.422351 0.392545
Si Si6 0.302925 0.818493 0.081898
Si Si7 0.576643 0.534651 0.293368
Si Si8 0.922643 0.796182 0.950505
O O1 0.630111 0.074162 0.602233
O O2 0.500000 0.000000 0.500000
O O3 0.597913 0.975143 0.673413
O O4 0.000000 0.000000 0.500000
O O5 0.701033 0.331259 0.158402
O O6 0.882203 0.293891 0.304677
O O7 0.213710 0.354873 0.148398
O O8 0.076938 0.256906 0.113569
O O9 0.351025 0.396126 0.301380
O O10 0.816293 0.570840 0.500028
O O11 0.848373 0.566561 0.296421
O O12 0.969017 0.653512 0.371296
O O13 0.299639 0.569085 0.351506
O O14 0.686755 0.383562 0.410706
O O15 0.583157 0.479865 0.354833
O O16 0.625090 0.798550 0.047344
O O17 0.173417 0.798294 0.996683
#
# Coordination Sequence:
#
# PCOD8126092 Si02
#       8
#     4   4   4   4   4   4   4   4
#     4  11  23  43  63  84 120 157 191 242 292 335
#     4  11  21  40  62  85 114 148 202 251 276 333
#     4  10  22  38  64  91 107 149 205 242 281 336
#     4  11  21  36  55  87 122 150 180 228 299 361
#     4   9  20  36  60  86 117 145 185 239 287 344
#     4  10  21  38  60  86 113 154 197 239 297 345
#     4  11  23  36  58  87 114 151 193 227 282 355
#     4  11  23  39  58  84 122 158 189 240 301 345
#
# _framework density 20.045366999999999
#
# number of rings (size 3 to 8) (size 9 to 14) (size 15 to 20)
#    0.000    1.500    0.000    6.750    0.000    8.000 
#    0.000    7.500    0.000    0.000    0.000    0.000 
#    0.000    0.000    0.000    0.000    0.000    0.000 
#
# Total GULP energy -396862.870182 kJ/mol
# GULP energy per Si atom -12401.964693 kJ/mol
# Density = 1.999974 g / cm^3
# Si number density = 20.045367 Si / 1000 Ang^3
#
#
#
# Elastic Constant Matrix: (Units=GPa)
#
#
# Indices 1 2 3 4 5 6 
#
# 1 96.2933 21.0565 24.0165 0.0000 -1.0422 0.0000
# 2 21.0565 93.3536 50.2951 0.0000 -1.8054 0.0000
# 3 24.0165 50.2951 97.7968 0.0000 -3.8160 0.0000
# 4 0.0000 0.0000 0.0000 30.3020 0.0000 3.7725
# 5 -1.0422 -1.8054 -3.8160 0.0000 33.3873 0.0000
# 6 0.0000 0.0000 0.0000 3.7725 0.0000 27.5692
#
#
#
# Elastic Compliance Matrix: (Units=1/GPa)
#
#
# Indices 1 2 3 4 5 6 
#
# 1 0.011202 -0.001445 -0.002006 0.000000 0.000042 0.000000
# 2 -0.001445 0.015004 -0.007364 0.000000 -0.000075 0.000000
# 3 -0.002006 -0.007364 0.014552 0.000000 0.001202 0.000000
# 4 0.000000 0.000000 0.000000 0.033573 0.000000 -0.004594
# 5 0.000042 -0.000075 0.001202 0.000000 0.030086 0.000000
# 6 0.000000 0.000000 0.000000 -0.004594 0.000000 0.036901
#
#
# Mechanical properties :
#
#
# Convention : Reuss Voigt Hill
#
# Bulk Modulus (GPa) = 52.28206 53.13111 52.70658
# Shear Modulus (GPa) = 29.52902 31.05672 30.29287
#
# Velocity S-wave (km/s) = 3.84227 3.94041 3.89165
# Velocity P-wave (km/s) = 6.76924 6.87499 6.82232
#
# Compressibility (1/GPa) = 0.01912702
#
# Stress axis : x y z
#
# Youngs Moduli (GPa) = 89.27209 66.64856 68.71798
#
# Poissons Ratio (x) = 0.09631 0.13785
# Poissons Ratio (y) = 0.12900 0.50607
# Poissons Ratio (z) = 0.17909 0.49083
#
# Static dielectric constant tensor:
#      x y z
#    x 3.672470 0.000000 0.022420 
#    y 0.000000 3.735770 0.000000 
#    z 0.022420 0.000000 3.754600 
# 
# 
# High freq. dielectric constant tensor:
#      x y z
#    x 1.794970 0.000000 0.000300 
#    y 0.000000 1.777720 0.000000 
#    z 0.000300 0.000000 1.775880 
# 
# From -- ./inp_files/22170.got.cif
#   From: 2010.03.12/outbox.cif.g09.slc.cpg/sg14_12_cif.got.tgz:22170.got - 2010.03.31 13:35:05.
