data_PCOD8126292
_publ_section_title
;
Structure prediction by ZEFSAII (Michael W. Deem and Ramdas Pophale) SiO2 
 PCOD8126292
Probable space group: P 21/C
;
_chemical_formula_sum "Si O2"
_cell_formula_units_Z 28
_cell_length_a 15.110829
_cell_length_b 5.328966
_cell_length_c 22.327704
_cell_angle_alpha 90.000000
_cell_angle_beta 47.256801
_cell_angle_gamma 90.000000
_cell_volume 1320.413010
_symmetry_space_group_name_H-M "P 21/C"
_symmetry_group_IT_number 14
_symmetry_cell_setting 'monoclinic'
loop_
_space_group_symop_operation_xyz
x,y,z
-x,1/2+y,1/2-z
-x,-y,-z
x,1/2-y,1/2+z
loop_
_atom_site_type_symbol
_atom_site_label
_atom_site_fract_x
_atom_site_fract_y
_atom_site_fract_z
Si Si1 0.005742 0.268223 0.783733
Si Si2 0.758910 0.108229 0.449758
Si Si3 0.602193 0.628223 0.255282
Si Si4 0.641107 0.896692 0.953115
Si Si5 0.614877 0.057995 0.623109
Si Si6 0.567830 0.243908 0.371372
Si Si7 0.731711 0.676353 0.798421
O O1 0.901185 0.353140 0.876569
O O2 0.036045 0.511695 0.729474
O O3 0.125529 0.196627 0.765185
O O4 0.686382 0.339189 0.455697
O O5 0.737720 0.122444 0.531645
O O6 0.723595 0.838397 0.437153
O O7 0.460840 0.703665 0.317867
O O8 0.648230 0.604149 0.166218
O O9 0.614791 0.388129 0.291452
O O10 0.689216 0.827422 0.248396
O O11 0.662439 0.894034 0.869899
O O12 0.500770 0.873277 0.039874
O O13 0.536896 0.932615 0.606611
O O14 0.680961 0.088634 0.347263
#
# Coordination Sequence:
#
# PCOD8126292 Si02
#       7
#     4   4   4   4   4   4   4
#     4  12  24  44  67  90 130 176 219 260 317 389
#     4  11  22  41  67  93 124 175 216 266 306 389
#     4  11  21  38  62  90 130 169 209 266 318 392
#     4  11  22  40  63  96 133 162 208 266 337 381
#     4  10  21  39  63  92 124 170 220 254 327 382
#     4  10  22  37  61  94 129 165 206 270 325 390
#     4  11  25  37  61  97 128 168 214 268 323 385
#
# _framework density 21.205487999999999
#
# number of rings (size 3 to 8) (size 9 to 14) (size 15 to 20)
#    0.000    1.143    5.714    0.429    4.000    0.571 
#    0.000    0.714    0.000    0.857    0.000    0.000 
#    0.000    0.000    0.000    0.000    0.000    0.000 
#
# Total GULP energy -347019.616455 kJ/mol
# GULP energy per Si atom -12393.557731 kJ/mol
# Density = 2.115722 g / cm^3
# Si number density = 21.205488 Si / 1000 Ang^3
#
#
#
# Elastic Constant Matrix: (Units=GPa)
#
#
# Indices 1 2 3 4 5 6 
#
# 1 98.9968 25.4249 72.3364 0.0000 -7.8951 0.0000
# 2 25.4249 97.4609 35.2860 0.0000 4.5242 0.0000
# 3 72.3364 35.2860 157.2926 0.0000 4.3729 0.0000
# 4 0.0000 0.0000 0.0000 30.1772 0.0000 -2.0208
# 5 -7.8951 4.5242 4.3729 0.0000 46.6985 0.0000
# 6 0.0000 0.0000 0.0000 -2.0208 0.0000 25.7491
#
#
#
# Elastic Compliance Matrix: (Units=1/GPa)
#
#
# Indices 1 2 3 4 5 6 
#
# 1 0.015996 -0.001783 -0.007055 0.000000 0.003538 0.000000
# 2 -0.001783 0.011400 -0.001703 0.000000 -0.001246 0.000000
# 3 -0.007055 -0.001703 0.010039 0.000000 -0.001968 0.000000
# 4 0.000000 0.000000 0.000000 0.033313 0.000000 0.002614
# 5 0.003538 -0.001246 -0.001968 0.000000 0.022317 0.000000
# 6 0.000000 0.000000 0.000000 0.002614 0.000000 0.039041
#
#
# Mechanical properties :
#
#
# Convention : Reuss Voigt Hill
#
# Bulk Modulus (GPa) = 61.14786 68.87164 65.00975
# Shear Modulus (GPa) = 31.51815 35.23849 33.37832
#
# Velocity S-wave (km/s) = 3.85947 4.08089 3.97172
# Velocity P-wave (km/s) = 6.98277 7.39957 7.19419
#
# Compressibility (1/GPa) = 0.01635380
#
# Stress axis : x y z
#
# Youngs Moduli (GPa) = 62.51441 87.71913 99.61475
#
# Poissons Ratio (x) = 0.15640 0.70276
# Poissons Ratio (y) = 0.11146 0.16962
# Poissons Ratio (z) = 0.44103 0.14937
#
# Static dielectric constant tensor:
#      x y z
#    x 3.751770 0.000000 0.167380 
#    y 0.000000 4.223530 0.000000 
#    z 0.167380 0.000000 4.123910 
# 
# 
# High freq. dielectric constant tensor:
#      x y z
#    x 1.809650 0.000000 0.008250 
#    y 0.000000 1.856640 0.000000 
#    z 0.008250 0.000000 1.830760 
# 
# From -- ./inp_files/66395.got.cif
#   From: 2010.03.12/outbox.cif.g09.slc.cpg/sg14_34_cif.got.tgz:66395.got - 2010.03.31 13:35:05.
