data_PCOD8126452
_publ_section_title
;
Structure prediction by ZEFSAII (Michael W. Deem and Ramdas Pophale) SiO2 
 PCOD8126452
Probable space group: P 21/C
;
_chemical_formula_sum "Si O2"
_cell_formula_units_Z 20
_cell_length_a 6.345945
_cell_length_b 19.803897
_cell_length_c 7.645686
_cell_angle_alpha 90.000000
_cell_angle_beta 116.784388
_cell_angle_gamma 90.000000
_cell_volume 857.774555
_symmetry_space_group_name_H-M "P 21/C"
_symmetry_group_IT_number 14
_symmetry_cell_setting 'monoclinic'
loop_
_space_group_symop_operation_xyz
x,y,z
-x,1/2+y,1/2-z
-x,-y,-z
x,1/2-y,1/2+z
loop_
_atom_site_type_symbol
_atom_site_label
_atom_site_fract_x
_atom_site_fract_y
_atom_site_fract_z
Si Si1 0.374008 0.337983 0.071546
Si Si2 0.872048 0.122124 0.849577
Si Si3 0.313509 0.308959 0.660391
Si Si4 0.198893 0.046673 0.751915
Si Si5 0.635046 0.412081 0.621660
O O1 0.656903 0.342614 0.168738
O O2 0.326043 0.271761 0.169075
O O3 0.252119 0.403228 0.111775
O O4 0.262770 0.332634 0.838428
O O5 0.793724 0.098737 0.011091
O O6 0.096093 0.171770 0.952778
O O7 0.946514 0.060479 0.749125
O O8 0.565322 0.341995 0.692542
O O9 0.223550 0.967200 0.702908
O O10 0.384183 0.056052 0.978315
#
# Coordination Sequence:
#
# PCOD8126452 Si02
#       5
#     4   4   4   4   4
#     4  11  24  40  60  88 119 153 197 243 288 346
#     4  10  21  40  64  84 117 158 190 238 297 342
#     4  11  24  40  60  88 119 153 197 243 288 346
#     4   9  19  37  61  89 119 153 195 239 287 347
#     4   9  19  37  61  89 119 153 195 239 287 347
#
# _framework density 23.316147999999998
#
# number of rings (size 3 to 8) (size 9 to 14) (size 15 to 20)
#    0.000    2.000    0.000    4.200    0.000   10.400 
#    0.000    2.000    0.000    0.000    0.000    0.000 
#    0.000    0.000    0.000    0.000    0.000    0.000 
#
# Total GULP energy -247879.224083 kJ/mol
# GULP energy per Si atom -12393.961204 kJ/mol
# Density = 2.326308 g / cm^3
# Si number density = 23.316148 Si / 1000 Ang^3
#
#
#
# Elastic Constant Matrix: (Units=GPa)
#
#
# Indices 1 2 3 4 5 6 
#
# 1 105.3974 16.0416 9.6737 0.0000 -5.4546 0.0000
# 2 16.0416 76.6695 4.4402 0.0000 6.1090 0.0000
# 3 9.6737 4.4402 59.4662 0.0000 -10.4406 0.0000
# 4 0.0000 0.0000 0.0000 29.3673 0.0000 -7.9021
# 5 -5.4546 6.1090 -10.4406 0.0000 28.9284 0.0000
# 6 0.0000 0.0000 0.0000 -7.9021 0.0000 27.6120
#
#
#
# Elastic Compliance Matrix: (Units=1/GPa)
#
#
# Indices 1 2 3 4 5 6 
#
# 1 0.010025 -0.002187 -0.001126 0.000000 0.001946 0.000000
# 2 -0.002187 0.013884 -0.001354 0.000000 -0.003833 0.000000
# 3 -0.001126 -0.001354 0.018271 0.000000 0.006668 0.000000
# 4 0.000000 0.000000 0.000000 0.036892 0.000000 0.010558
# 5 0.001946 -0.003833 0.006668 0.000000 0.038151 0.000000
# 6 0.000000 0.000000 0.000000 0.010558 0.000000 0.039238
#
#
# Mechanical properties :
#
#
# Convention : Reuss Voigt Hill
#
# Bulk Modulus (GPa) = 30.44472 33.53822 31.99147
# Shear Modulus (GPa) = 28.28942 31.27339 29.78141
#
# Velocity S-wave (km/s) = 3.48702 3.66632 3.57779
# Velocity P-wave (km/s) = 5.41277 5.68664 5.55139
#
# Compressibility (1/GPa) = 0.03284641
#
# Stress axis : x y z
#
# Youngs Moduli (GPa) = 99.75218 72.02290 54.73093
#
# Poissons Ratio (x) = 0.15754 0.06162
# Poissons Ratio (y) = 0.21819 0.07410
# Poissons Ratio (z) = 0.11230 0.09751
#
# Static dielectric constant tensor:
#      x y z
#    x 4.233410 0.000000 0.167270 
#    y 0.000000 4.392690 0.000000 
#    z 0.167270 0.000000 3.930070 
# 
# 
# High freq. dielectric constant tensor:
#      x y z
#    x 1.927090 0.000000 -0.001940 
#    y 0.000000 1.922420 0.000000 
#    z -0.001940 0.000000 1.905790 
# 
# From -- ./inp_files/5729.got.cif
#   From: 2010.03.12/outbox.cif.g09.slc.cpg/sg14_3_cif.got.tgz:5729.got - 2010.03.31 13:35:05.
