data_PCOD8126838
_publ_section_title
;
Structure prediction by ZEFSAII (Michael W. Deem and Ramdas Pophale) SiO2 
 PCOD8126838
Probable space group: P 21/C
;
_chemical_formula_sum "Si O2"
_cell_formula_units_Z 32
_cell_length_a 6.372772
_cell_length_b 28.423608
_cell_length_c 8.765418
_cell_angle_alpha 90.000000
_cell_angle_beta 112.844444
_cell_angle_gamma 90.000000
_cell_volume 1463.204096
_symmetry_space_group_name_H-M "P 21/C"
_symmetry_group_IT_number 14
_symmetry_cell_setting 'monoclinic'
loop_
_space_group_symop_operation_xyz
x,y,z
-x,1/2+y,1/2-z
-x,-y,-z
x,1/2-y,1/2+z
loop_
_atom_site_type_symbol
_atom_site_label
_atom_site_fract_x
_atom_site_fract_y
_atom_site_fract_z
Si Si1 0.754546 0.950677 0.330906
Si Si2 0.006834 0.619499 0.315930
Si Si3 0.160409 0.683512 0.827225
Si Si4 0.181634 0.384404 0.412040
Si Si5 0.420417 0.685103 0.415544
Si Si6 0.293536 0.745938 0.118063
Si Si7 0.219118 0.944154 0.632733
Si Si8 0.546067 0.614735 0.020201
O O1 0.737718 0.931108 0.153278
O O2 0.589045 0.922114 0.396318
O O3 0.016515 0.947758 0.454379
O O4 0.671834 0.004679 0.306459
O O5 0.961469 0.603129 0.477272
O O6 0.780408 0.633352 0.158766
O O7 0.163985 0.665626 0.361542
O O8 0.131984 0.576116 0.268943
O O9 0.149186 0.718287 0.680136
O O10 0.963028 0.645276 0.752550
O O11 0.119365 0.714448 0.967736
O O12 0.406740 0.658250 0.909883
O O13 0.402506 0.356498 0.526305
O O14 0.448198 0.710587 0.260666
O O15 0.462357 0.724177 0.557631
O O16 0.409531 0.909941 0.618613
#
# Coordination Sequence:
#
# PCOD8126838 Si02
#       8
#     4   4   4   4   4   4   4   4
#     4  10  23  38  70 100 128 175 220 274 322 392
#     4  11  24  42  66  94 135 177 213 268 331 392
#     4  11  22  42  63  96 125 169 213 269 324 388
#     4  12  24  41  67  96 133 173 213 270 333 387
#     4  11  24  45  62  95 130 171 220 267 330 392
#     4  10  23  43  64  91 129 164 222 270 319 392
#     4  10  21  43  65  99 134 169 226 267 323 396
#     4  11  22  44  69  94 131 177 218 269 333 389
#
# _framework density 21.869813000000001
#
# number of rings (size 3 to 8) (size 9 to 14) (size 15 to 20)
#    0.000    1.250    2.500    3.375    1.750    1.500 
#    9.000    2.500    0.000    0.000    0.000    0.000 
#    0.000    0.000    0.000    0.000    0.000    0.000 
#
# Total GULP energy -396927.443413 kJ/mol
# GULP energy per Si atom -12403.982607 kJ/mol
# Density = 2.182004 g / cm^3
# Si number density = 21.869813 Si / 1000 Ang^3
#
#
#
# Elastic Constant Matrix: (Units=GPa)
#
#
# Indices 1 2 3 4 5 6 
#
# 1 94.4455 36.4224 44.0476 0.0000 -7.8567 0.0000
# 2 36.4224 102.0336 52.4406 0.0000 -3.7080 0.0000
# 3 44.0476 52.4406 117.6547 0.0000 -22.2471 0.0000
# 4 0.0000 0.0000 0.0000 35.3346 0.0000 -0.4277
# 5 -7.8567 -3.7080 -22.2471 0.0000 38.3361 0.0000
# 6 0.0000 0.0000 0.0000 -0.4277 0.0000 19.6556
#
#
#
# Elastic Compliance Matrix: (Units=1/GPa)
#
#
# Indices 1 2 3 4 5 6 
#
# 1 0.013450 -0.002898 -0.003679 0.000000 0.000341 0.000000
# 2 -0.002898 0.013522 -0.005400 0.000000 -0.002420 0.000000
# 3 -0.003679 -0.005400 0.013527 0.000000 0.006573 0.000000
# 4 0.000000 0.000000 0.000000 0.028308 0.000000 0.000616
# 5 0.000341 -0.002420 0.006573 0.000000 0.029736 0.000000
# 6 0.000000 0.000000 0.000000 0.000616 0.000000 0.050890
#
#
# Mechanical properties :
#
#
# Convention : Reuss Voigt Hill
#
# Bulk Modulus (GPa) = 60.44037 64.43945 62.43991
# Shear Modulus (GPa) = 27.94836 30.74680 29.34758
#
# Velocity S-wave (km/s) = 3.57871 3.75360 3.66720
# Velocity P-wave (km/s) = 6.69124 6.95090 6.82231
#
# Compressibility (1/GPa) = 0.01654523
#
# Stress axis : x y z
#
# Youngs Moduli (GPa) = 74.34959 73.95134 73.92817
#
# Poissons Ratio (x) = 0.21429 0.27201
# Poissons Ratio (y) = 0.21545 0.39920
# Poissons Ratio (z) = 0.27356 0.39932
#
# Static dielectric constant tensor:
#      x y z
#    x 3.759620 0.000000 -0.134920 
#    y 0.000000 4.055930 0.000000 
#    z -0.134920 0.000000 4.110510 
# 
# 
# High freq. dielectric constant tensor:
#      x y z
#    x 1.842640 0.000000 -0.013270 
#    y 0.000000 1.865740 0.000000 
#    z -0.013270 0.000000 1.870660 
# 
# From -- ./inp_files/6999.got.cif
#   From: 2010.03.12/outbox.cif.g09.slc.cpg/sg14_4_cif.got.tgz:6999.got - 2010.03.31 13:35:05.
