data_PCOD8126692
_publ_section_title
;
Structure prediction by ZEFSAII (Michael W. Deem and Ramdas Pophale) SiO2 
 PCOD8126692
Probable space group: P 21/C
;
_chemical_formula_sum "Si O2"
_cell_formula_units_Z 32
_cell_length_a 19.224511
_cell_length_b 15.307315
_cell_length_c 13.417080
_cell_angle_alpha 90.000000
_cell_angle_beta 157.583640
_cell_angle_gamma 90.000000
_cell_volume 1505.630002
_symmetry_space_group_name_H-M "P 21/C"
_symmetry_group_IT_number 14
_symmetry_cell_setting 'monoclinic'
loop_
_space_group_symop_operation_xyz
x,y,z
-x,1/2+y,1/2-z
-x,-y,-z
x,1/2-y,1/2+z
loop_
_atom_site_type_symbol
_atom_site_label
_atom_site_fract_x
_atom_site_fract_y
_atom_site_fract_z
Si Si1 0.835235 0.454247 0.229792
Si Si2 0.662447 0.989042 0.317821
Si Si3 0.374125 0.374623 0.401655
Si Si4 0.765132 0.786953 0.094971
Si Si5 0.426987 0.056526 0.492126
Si Si6 0.555324 0.354034 0.339763
Si Si7 0.912270 0.242926 0.843863
Si Si8 0.229378 0.208540 0.126534
O O1 0.650626 0.487228 0.033559
O O2 0.822576 0.351493 0.224611
O O3 0.000000 0.500000 0.500000
O O4 0.835132 0.488506 0.115579
O O5 0.738933 0.942252 0.319108
O O6 0.508725 0.925819 0.164437
O O7 0.574089 0.083406 0.176064
O O8 0.285834 0.364782 0.394939
O O9 0.384684 0.281430 0.356680
O O10 0.961699 0.750536 0.390503
O O11 0.608038 0.715000 0.889514
O O12 0.783336 0.819256 0.005542
O O13 0.580573 0.106744 0.760879
O O14 0.270755 0.121863 0.244622
O O15 0.500000 0.000000 0.500000
O O16 0.748944 0.313190 0.628405
O O17 0.039746 0.251165 0.914243
#
# Coordination Sequence:
#
# PCOD8126692 Si02
#       8
#     4   4   4   4   4   4   4   4
#     4  11  22  42  67  97 133 174 219 275 327 394
#     4  10  22  40  66 100 126 171 228 266 326 402
#     4  10  21  41  69  86 130 176 212 266 339 381
#     4  11  23  45  67  93 136 171 217 283 321 397
#     4  11  25  42  66 100 134 171 222 276 335 393
#     4  11  22  43  69  97 133 172 225 271 333 403
#     4  11  24  44  69 100 130 179 222 268 342 400
#     4  11  23  44  64  96 136 172 217 283 333 387
#
# _framework density 21.253561999999999
#
# number of rings (size 3 to 8) (size 9 to 14) (size 15 to 20)
#    0.000    1.250    5.000    1.500    5.250    1.000 
#    9.000    2.500    0.000    0.000    0.000    0.000 
#    0.000    0.000    0.000    0.000    0.000    0.000 
#
# Total GULP energy -396510.937369 kJ/mol
# GULP energy per Si atom -12390.966793 kJ/mol
# Density = 2.120519 g / cm^3
# Si number density = 21.253562 Si / 1000 Ang^3
#
#
#
# Elastic Constant Matrix: (Units=GPa)
#
#
# Indices 1 2 3 4 5 6 
#
# 1 108.2138 32.5140 30.9468 0.0000 -31.7776 0.0000
# 2 32.5140 100.5414 38.0288 0.0000 -4.1559 0.0000
# 3 30.9468 38.0288 109.2705 0.0000 -16.2966 0.0000
# 4 0.0000 0.0000 0.0000 25.4094 0.0000 1.0692
# 5 -31.7776 -4.1559 -16.2966 0.0000 32.4175 0.0000
# 6 0.0000 0.0000 0.0000 1.0692 0.0000 41.6477
#
#
#
# Elastic Compliance Matrix: (Units=1/GPa)
#
#
# Indices 1 2 3 4 5 6 
#
# 1 0.014552 -0.003856 -0.000784 0.000000 0.013376 0.000000
# 2 -0.003856 0.012486 -0.003868 0.000000 -0.004124 0.000000
# 3 -0.000784 -0.003868 0.011385 0.000000 0.004459 0.000000
# 4 0.000000 0.000000 0.000000 0.039398 0.000000 -0.001011
# 5 0.013376 -0.004124 0.004459 0.000000 0.045672 0.000000
# 6 0.000000 0.000000 0.000000 -0.001011 0.000000 0.024037
#
#
# Mechanical properties :
#
#
# Convention : Reuss Voigt Hill
#
# Bulk Modulus (GPa) = 46.71837 57.88944 52.30391
# Shear Modulus (GPa) = 29.12345 34.33065 31.72705
#
# Velocity S-wave (km/s) = 3.70575 4.02343 3.86785
# Velocity P-wave (km/s) = 6.35132 6.99147 6.67907
#
# Compressibility (1/GPa) = 0.02140485
#
# Stress axis : x y z
#
# Youngs Moduli (GPa) = 68.71954 80.09013 87.83532
#
# Poissons Ratio (x) = 0.30886 0.06889
# Poissons Ratio (y) = 0.26501 0.33977
# Poissons Ratio (z) = 0.05389 0.30981
#
# Static dielectric constant tensor:
#      x y z
#    x 3.889780 0.000000 -0.279890 
#    y 0.000000 3.635420 0.000000 
#    z -0.279890 0.000000 3.777030 
# 
# 
# High freq. dielectric constant tensor:
#      x y z
#    x 1.833700 0.000000 -0.033920 
#    y 0.000000 1.840260 0.000000 
#    z -0.033920 0.000000 1.819050 
# 
# From -- ./inp_files/50696.got.cif
#   From: 2010.03.12/outbox.cif.g09.slc.cpg/sg14_26_cif.got.tgz:50696.got - 2010.03.31 13:35:05.
