data_PCOD8126034
_publ_section_title
;
Structure prediction by ZEFSAII (Michael W. Deem and Ramdas Pophale) SiO2 
 PCOD8126034
Probable space group: P 21/C
;
_chemical_formula_sum "Si O2"
_cell_formula_units_Z 28
_cell_length_a 8.433393
_cell_length_b 6.682415
_cell_length_c 24.023358
_cell_angle_alpha 90.000000
_cell_angle_beta 112.251285
_cell_angle_gamma 90.000000
_cell_volume 1253.028474
_symmetry_space_group_name_H-M "P 21/C"
_symmetry_group_IT_number 14
_symmetry_cell_setting 'monoclinic'
loop_
_space_group_symop_operation_xyz
x,y,z
-x,1/2+y,1/2-z
-x,-y,-z
x,1/2-y,1/2+z
loop_
_atom_site_type_symbol
_atom_site_label
_atom_site_fract_x
_atom_site_fract_y
_atom_site_fract_z
Si Si1 0.785504 0.844936 0.860829
Si Si2 0.800755 0.864350 0.247532
Si Si3 0.597809 0.180295 0.161574
Si Si4 0.911872 0.434119 0.062708
Si Si5 0.166184 0.026368 0.325069
Si Si6 0.986910 0.634491 0.552709
Si Si7 0.676138 0.415587 0.546562
O O1 0.763012 0.790222 0.792945
O O2 0.606380 0.811984 0.867622
O O3 0.919826 0.695901 0.906459
O O4 0.857669 0.070669 0.883783
O O5 0.793963 0.749195 0.188517
O O6 0.985618 0.959958 0.276391
O O7 0.657240 0.036016 0.220367
O O8 0.681296 0.396202 0.182050
O O9 0.666583 0.119347 0.110519
O O10 0.842498 0.530544 0.110069
O O11 0.976760 0.627663 0.034417
O O12 0.754275 0.283426 0.023539
O O13 0.807679 0.595670 0.558361
O O14 0.000000 0.500000 0.500000
O O15 0.500000 0.500000 0.500000
#
# Coordination Sequence:
#
# PCOD8126034 Si02
#       7
#     4   4   4   4   4   4   4
#     4  10  25  39  59  94 129 168 214 267 327 392
#     4  11  22  37  62  87 125 168 206 266 312 386
#     4  11  23  41  60  92 128 164 219 260 326 390
#     4   9  22  42  65  93 126 170 214 266 327 390
#     4  10  21  37  63  88 119 167 211 258 318 385
#     4  11  23  43  69  93 130 171 216 275 328 394
#     4  10  22  42  67  95 127 165 219 273 329 394
#
# _framework density 22.345862
#
# number of rings (size 3 to 8) (size 9 to 14) (size 15 to 20)
#    0.000    1.714    1.429    2.571    4.000    4.000 
#    0.000    4.286    0.000    0.000    0.000    0.000 
#    0.000    0.000    0.000    0.000    0.000    0.000 
#
# Total GULP energy -346890.502919 kJ/mol
# GULP energy per Si atom -12388.946533 kJ/mol
# Density = 2.229500 g / cm^3
# Si number density = 22.345862 Si / 1000 Ang^3
#
#
#
# Elastic Constant Matrix: (Units=GPa)
#
#
# Indices 1 2 3 4 5 6 
#
# 1 108.8496 23.8020 5.1317 0.0000 30.8299 0.0000
# 2 23.8020 112.7005 20.2166 0.0000 6.5843 0.0000
# 3 5.1317 20.2166 52.6028 0.0000 16.9727 0.0000
# 4 0.0000 0.0000 0.0000 33.8095 0.0000 -13.2173
# 5 30.8299 6.5843 16.9727 0.0000 21.6986 0.0000
# 6 0.0000 0.0000 0.0000 -13.2173 0.0000 27.7326
#
#
#
# Elastic Compliance Matrix: (Units=1/GPa)
#
#
# Indices 1 2 3 4 5 6 
#
# 1 0.019460 -0.004028 0.010937 0.000000 -0.034983 0.000000
# 2 -0.004028 0.010364 -0.005915 0.000000 0.007205 0.000000
# 3 0.010937 -0.005915 0.032974 0.000000 -0.039537 0.000000
# 4 0.000000 0.000000 0.000000 0.036350 0.000000 0.017324
# 5 -0.034983 0.007205 -0.039537 0.000000 0.124529 0.000000
# 6 0.000000 0.000000 0.000000 0.017324 0.000000 0.044315
#
#
# Mechanical properties :
#
#
# Convention : Reuss Voigt Hill
#
# Bulk Modulus (GPa) = 15.43547 41.38371 28.40959
# Shear Modulus (GPa) = 17.38525 31.64831 24.51678
#
# Velocity S-wave (km/s) = 2.79230 3.76745 3.31592
# Velocity P-wave (km/s) = 4.16155 6.12248 5.23466
#
# Compressibility (1/GPa) = 0.06478586
#
# Stress axis : x y z
#
# Youngs Moduli (GPa) = 51.38632 96.48881 30.32738
#
# Poissons Ratio (x) = 0.38867 -0.33169
# Poissons Ratio (y) = 0.20699 0.17938
# Poissons Ratio (z) = -0.56201 0.57072
#
# Static dielectric constant tensor:
#      x y z
#    x 4.424020 0.000000 -0.059590 
#    y 0.000000 4.304770 0.000000 
#    z -0.059590 0.000000 4.054100 
# 
# 
# High freq. dielectric constant tensor:
#      x y z
#    x 1.886300 0.000000 -0.008340 
#    y 0.000000 1.888370 0.000000 
#    z -0.008340 0.000000 1.869520 
# 
# From -- ./inp_files/79178.got.cif
#   From: 2010.03.12/outbox.cif.g09.slc.cpg/sg14_40_cif.got.tgz:79178.got - 2010.03.31 13:35:05.
