data_PCOD8126448
_publ_section_title
;
Structure prediction by ZEFSAII (Michael W. Deem and Ramdas Pophale) SiO2 
 PCOD8126448
Probable space group: P 21/C
;
_chemical_formula_sum "Si O2"
_cell_formula_units_Z 28
_cell_length_a 16.662130
_cell_length_b 17.672785
_cell_length_c 7.873041
_cell_angle_alpha 90.000000
_cell_angle_beta 144.110800
_cell_angle_gamma 90.000000
_cell_volume 1359.059287
_symmetry_space_group_name_H-M "P 21/C"
_symmetry_group_IT_number 14
_symmetry_cell_setting 'monoclinic'
loop_
_space_group_symop_operation_xyz
x,y,z
-x,1/2+y,1/2-z
-x,-y,-z
x,1/2-y,1/2+z
loop_
_atom_site_type_symbol
_atom_site_label
_atom_site_fract_x
_atom_site_fract_y
_atom_site_fract_z
Si Si1 0.116878 0.937661 0.702947
Si Si2 0.934567 0.322336 0.183446
Si Si3 0.633631 0.537217 0.306306
Si Si4 0.419479 0.285628 0.285512
Si Si5 0.157884 0.661424 0.594260
Si Si6 0.748884 0.834138 0.790828
Si Si7 0.538593 0.346730 0.796357
O O1 0.110607 0.886825 0.524398
O O2 0.092470 0.891477 0.836521
O O3 0.000000 0.000000 0.500000
O O4 0.268023 0.973563 0.948480
O O5 0.912697 0.346229 0.342406
O O6 0.094980 0.308470 0.436205
O O7 0.850810 0.246833 0.991431
O O8 0.725517 0.583121 0.328891
O O9 0.580167 0.595116 0.355953
O O10 0.500000 0.500000 0.000000
O O11 0.332683 0.231286 0.255770
O O12 0.524152 0.339616 0.568377
O O13 0.514398 0.237233 0.325319
O O14 0.311054 0.338526 0.001856
O O15 0.311825 0.630073 0.883917
#
# Coordination Sequence:
#
# PCOD8126448 Si02
#       7
#     4   4   4   4   4   4   4
#     4  12  27  48  70 103 147 187 233 289 358 425
#     4  12  25  43  73 103 140 184 237 295 353 421
#     4  11  23  44  66  89 138 185 218 283 347 410
#     4   9  20  36  66  94 128 169 223 292 338 401
#     4  12  25  43  73 104 138 185 241 288 355 422
#     4  10  21  40  63  97 131 173 226 277 347 412
#     4  10  21  40  64  98 134 176 232 287 345 412
#
# _framework density 20.602484
#
# number of rings (size 3 to 8) (size 9 to 14) (size 15 to 20)
#    0.000    1.143    4.286    1.714    0.000    5.143 
#    2.571    1.429    0.000    0.000    0.000    0.000 
#    0.000    0.000    0.000    0.000    0.000    0.000 
#
# Total GULP energy -347125.804553 kJ/mol
# GULP energy per Si atom -12397.350163 kJ/mol
# Density = 2.055559 g / cm^3
# Si number density = 20.602484 Si / 1000 Ang^3
#
#
#
# Elastic Constant Matrix: (Units=GPa)
#
#
# Indices 1 2 3 4 5 6 
#
# 1 84.8183 32.5701 35.7654 0.0000 -18.9100 0.0000
# 2 32.5701 92.8756 33.0152 0.0000 -15.5536 0.0000
# 3 35.7654 33.0152 111.1451 0.0000 -8.2571 0.0000
# 4 0.0000 0.0000 0.0000 44.7403 0.0000 -3.6700
# 5 -18.9100 -15.5536 -8.2571 0.0000 44.1728 0.0000
# 6 0.0000 0.0000 0.0000 -3.6700 0.0000 23.6614
#
#
#
# Elastic Compliance Matrix: (Units=1/GPa)
#
#
# Indices 1 2 3 4 5 6 
#
# 1 0.015731 -0.003391 -0.003695 0.000000 0.004850 0.000000
# 2 -0.003391 0.013369 -0.002675 0.000000 0.002755 0.000000
# 3 -0.003695 -0.002675 0.010945 0.000000 -0.000478 0.000000
# 4 0.000000 0.000000 0.000000 0.022639 0.000000 0.003511
# 5 0.004850 0.002755 -0.000478 0.000000 0.025595 0.000000
# 6 0.000000 0.000000 0.000000 0.003511 0.000000 0.042808
#
#
# Mechanical properties :
#
#
# Convention : Reuss Voigt Hill
#
# Bulk Modulus (GPa) = 48.72475 54.61558 51.67017
# Shear Modulus (GPa) = 31.75601 35.01411 33.38506
#
# Velocity S-wave (km/s) = 3.93029 4.12698 4.02983
# Velocity P-wave (km/s) = 6.65563 7.01969 6.84009
#
# Compressibility (1/GPa) = 0.02052345
#
# Stress axis : x y z
#
# Youngs Moduli (GPa) = 63.56779 74.80129 91.36362
#
# Poissons Ratio (x) = 0.25367 0.33754
# Poissons Ratio (y) = 0.21557 0.24441
# Poissons Ratio (z) = 0.23485 0.20011
#
# Static dielectric constant tensor:
#      x y z
#    x 3.820470 0.000000 -0.111430 
#    y 0.000000 3.890240 0.000000 
#    z -0.111430 0.000000 3.683520 
# 
# 
# High freq. dielectric constant tensor:
#      x y z
#    x 1.802470 0.000000 -0.006110 
#    y 0.000000 1.799330 0.000000 
#    z -0.006110 0.000000 1.827350 
# 
# From -- ./inp_files/18184.got.cif
#   From: 2010.03.12/outbox.cif.g09.slc.cpg/sg14_10_cif.got.tgz:18184.got - 2010.03.31 13:35:05.
