data_PCOD8126282
_publ_section_title
;
Structure prediction by ZEFSAII (Michael W. Deem and Ramdas Pophale) SiO2 
 PCOD8126282
Probable space group: P 21/C
;
_chemical_formula_sum "Si O2"
_cell_formula_units_Z 32
_cell_length_a 8.530484
_cell_length_b 8.721594
_cell_length_c 27.645811
_cell_angle_alpha 90.000000
_cell_angle_beta 51.372531
_cell_angle_gamma 90.000000
_cell_volume 1606.841122
_symmetry_space_group_name_H-M "P 21/C"
_symmetry_group_IT_number 14
_symmetry_cell_setting 'monoclinic'
loop_
_space_group_symop_operation_xyz
x,y,z
-x,1/2+y,1/2-z
-x,-y,-z
x,1/2-y,1/2+z
loop_
_atom_site_type_symbol
_atom_site_label
_atom_site_fract_x
_atom_site_fract_y
_atom_site_fract_z
Si Si1 0.899420 0.437965 0.970092
Si Si2 0.146697 0.934269 0.930815
Si Si3 0.809580 0.778238 0.133490
Si Si4 0.120397 0.200306 0.181883
Si Si5 0.927125 0.186181 0.627884
Si Si6 0.452339 0.809368 0.413449
Si Si7 0.110264 0.395329 0.280381
Si Si8 0.541089 0.007432 0.680463
O O1 0.019203 0.285181 0.934527
O O2 0.924176 0.556650 0.921591
O O3 0.664490 0.391974 0.019804
O O4 0.000000 0.500000 0.000000
O O5 0.027774 0.837383 0.912782
O O6 0.310883 0.824084 0.921474
O O7 0.263016 0.067216 0.878976
O O8 0.000000 0.000000 0.000000
O O9 0.918071 0.803952 0.164293
O O10 0.620065 0.664463 0.173686
O O11 0.337934 0.226925 0.114967
O O12 0.110609 0.271898 0.237164
O O13 0.966050 0.285764 0.176651
O O14 0.065100 0.019906 0.195115
O O15 0.696676 0.131161 0.671774
O O16 0.487164 0.950689 0.370217
O O17 0.324221 0.480021 0.246753
#
# Coordination Sequence:
#
# PCOD8126282 Si02
#       8
#     4   4   4   4   4   4   4   4
#     4  11  18  38  67  93 124 154 208 260 303 376
#     4  11  19  35  63  95 120 156 203 267 303 357
#     4  11  21  36  67  96 114 158 221 258 311 353
#     4  11  26  44  59  89 133 169 204 254 326 379
#     4  10  21  39  63  88 124 161 206 257 312 368
#     4  10  21  40  62  93 128 164 196 254 322 378
#     4  11  26  42  61  88 129 168 212 262 312 375
#     4   9  22  39  64  90 114 163 218 258 301 365
#
# _framework density 19.914850000000001
#
# number of rings (size 3 to 8) (size 9 to 14) (size 15 to 20)
#    0.000    1.500    6.250    0.000    5.250    2.500 
#    0.000    2.500    0.000    0.000    0.000    0.000 
#    0.000    0.000    0.000    0.000    0.000    0.000 
#
# Total GULP energy -396627.483401 kJ/mol
# GULP energy per Si atom -12394.608856 kJ/mol
# Density = 1.986952 g / cm^3
# Si number density = 19.914850 Si / 1000 Ang^3
#
#
#
# Elastic Constant Matrix: (Units=GPa)
#
#
# Indices 1 2 3 4 5 6 
#
# 1 71.8974 29.5086 34.8895 0.0000 -4.5117 0.0000
# 2 29.5086 108.9641 26.8582 0.0000 1.7363 0.0000
# 3 34.8895 26.8582 75.2906 0.0000 -7.1014 0.0000
# 4 0.0000 0.0000 0.0000 32.3134 0.0000 1.7133
# 5 -4.5117 1.7363 -7.1014 0.0000 36.4439 0.0000
# 6 0.0000 0.0000 0.0000 1.7133 0.0000 30.3650
#
#
#
# Elastic Compliance Matrix: (Units=1/GPa)
#
#
# Indices 1 2 3 4 5 6 
#
# 1 0.018978 -0.003303 -0.007518 0.000000 0.001042 0.000000
# 2 -0.003303 0.010689 -0.002413 0.000000 -0.001388 0.000000
# 3 -0.007518 -0.002413 0.017878 0.000000 0.002668 0.000000
# 4 0.000000 0.000000 0.000000 0.031040 0.000000 -0.001751
# 5 0.001042 -0.001388 0.002668 0.000000 0.028154 0.000000
# 6 0.000000 0.000000 0.000000 -0.001751 0.000000 0.033032
#
#
# Mechanical properties :
#
#
# Convention : Reuss Voigt Hill
#
# Bulk Modulus (GPa) = 47.44594 48.74051 48.09323
# Shear Modulus (GPa) = 28.85767 30.81751 29.83759
#
# Velocity S-wave (km/s) = 3.81077 3.93805 3.87493
# Velocity P-wave (km/s) = 6.57562 6.72348 6.64996
#
# Compressibility (1/GPa) = 0.02107662
#
# Stress axis : x y z
#
# Youngs Moduli (GPa) = 52.69307 93.55595 55.93428
#
# Poissons Ratio (x) = 0.30901 0.42050
# Poissons Ratio (y) = 0.17404 0.13499
# Poissons Ratio (z) = 0.39613 0.22578
#
# Static dielectric constant tensor:
#      x y z
#    x 3.569780 0.000000 -0.117310 
#    y 0.000000 3.857840 0.000000 
#    z -0.117310 0.000000 3.812180 
# 
# 
# High freq. dielectric constant tensor:
#      x y z
#    x 1.750060 0.000000 0.004170 
#    y 0.000000 1.788150 0.000000 
#    z 0.004170 0.000000 1.784070 
# 
# From -- ./inp_files/76356.got.cif
#   From: 2010.03.12/outbox.cif.g09.slc.cpg/sg14_39_cif.got.tgz:76356.got - 2010.03.31 13:35:05.
