data_PCOD8126192
_publ_section_title
;
Structure prediction by ZEFSAII (Michael W. Deem and Ramdas Pophale) SiO2 
 PCOD8126192
Probable space group: P 21/C
;
_chemical_formula_sum "Si O2"
_cell_formula_units_Z 28
_cell_length_a 10.129660
_cell_length_b 5.107950
_cell_length_c 27.383441
_cell_angle_alpha 90.000000
_cell_angle_beta 125.058681
_cell_angle_gamma 90.000000
_cell_volume 1159.797740
_symmetry_space_group_name_H-M "P 21/C"
_symmetry_group_IT_number 14
_symmetry_cell_setting 'monoclinic'
loop_
_space_group_symop_operation_xyz
x,y,z
-x,1/2+y,1/2-z
-x,-y,-z
x,1/2-y,1/2+z
loop_
_atom_site_type_symbol
_atom_site_label
_atom_site_fract_x
_atom_site_fract_y
_atom_site_fract_z
Si Si1 0.870978 0.934359 0.101933
Si Si2 0.532589 0.749441 0.039025
Si Si3 0.681548 0.842519 0.320630
Si Si4 0.791663 0.253230 0.987640
Si Si5 0.678688 0.344725 0.257761
Si Si6 0.942365 0.369938 0.927236
Si Si7 0.967386 0.918319 0.770456
O O1 0.721407 0.769058 0.093707
O O2 0.937832 0.125831 0.158073
O O3 0.020791 0.749691 0.118534
O O4 0.829515 0.073348 0.042087
O O5 0.404655 0.727672 0.056899
O O6 0.500000 0.500000 0.000000
O O7 0.500000 0.000000 0.000000
O O8 0.706956 0.545880 0.308669
O O9 0.500586 0.878136 0.302622
O O10 0.706425 0.047752 0.281370
O O11 0.811371 0.899321 0.390912
O O12 0.862553 0.164192 0.949678
O O13 0.883878 0.530043 0.015649
O O14 0.798487 0.427972 0.240101
O O15 0.064692 0.130661 0.758246
#
# Coordination Sequence:
#
# PCOD8126192 Si02
#       7
#     4   4   4   4   4   4   4
#     4  11  23  42  69  89 136 175 214 275 333 385
#     4  10  21  40  63  93 128 174 212 258 322 391
#     4  10  21  38  67  93 123 176 204 274 329 388
#     4  10  23  39  64 100 131 168 223 262 329 398
#     4  10  21  42  63  91 130 162 223 263 334 382
#     4  11  21  38  67  97 129 171 218 271 327 397
#     4  12  27  42  68  97 128 173 226 272 324 398
#
# _framework density 24.142139
#
# number of rings (size 3 to 8) (size 9 to 14) (size 15 to 20)
#    0.000    1.429    2.857    2.143    2.000    1.143 
#    0.000    0.000    0.000    0.000    0.000    0.000 
#    0.000    0.000    0.000    0.000    0.000    0.000 
#
# Total GULP energy -346885.004654 kJ/mol
# GULP energy per Si atom -12388.750166 kJ/mol
# Density = 2.408719 g / cm^3
# Si number density = 24.142139 Si / 1000 Ang^3
#
#
#
# Elastic Constant Matrix: (Units=GPa)
#
#
# Indices 1 2 3 4 5 6 
#
# 1 152.8868 -0.9129 32.1248 0.0000 18.7856 0.0000
# 2 -0.9129 67.8874 -0.6386 0.0000 -2.1796 0.0000
# 3 32.1248 -0.6386 75.4822 0.0000 1.8707 0.0000
# 4 0.0000 0.0000 0.0000 28.5546 0.0000 4.4649
# 5 18.7856 -2.1796 1.8707 0.0000 30.2777 0.0000
# 6 0.0000 0.0000 0.0000 4.4649 0.0000 28.9816
#
#
#
# Elastic Compliance Matrix: (Units=1/GPa)
#
#
# Indices 1 2 3 4 5 6 
#
# 1 0.007782 -0.000074 -0.003198 0.000000 -0.004636 0.000000
# 2 -0.000074 0.014766 0.000129 0.000000 0.001101 0.000000
# 3 -0.003198 0.000129 0.014583 0.000000 0.001092 0.000000
# 4 0.000000 0.000000 0.000000 0.035885 0.000000 -0.005528
# 5 -0.004636 0.001101 0.001092 0.000000 0.035916 0.000000
# 6 0.000000 0.000000 0.000000 -0.005528 0.000000 0.035356
#
#
# Mechanical properties :
#
#
# Convention : Reuss Voigt Hill
#
# Bulk Modulus (GPa) = 32.41972 39.71144 36.06558
# Shear Modulus (GPa) = 31.08386 35.27499 33.17942
#
# Velocity S-wave (km/s) = 3.59212 3.82663 3.71123
# Velocity P-wave (km/s) = 5.53735 6.00074 5.77369
#
# Compressibility (1/GPa) = 0.03084543
#
# Stress axis : x y z
#
# Youngs Moduli (GPa) = 128.50367 67.72393 68.57259
#
# Poissons Ratio (x) = 0.00503 0.21927
# Poissons Ratio (y) = 0.00954 -0.00886
# Poissons Ratio (z) = 0.41091 -0.00875
#
# Static dielectric constant tensor:
#      x y z
#    x 5.363660 0.000000 0.420530 
#    y 0.000000 4.151680 0.000000 
#    z 0.420530 0.000000 4.072450 
# 
# 
# High freq. dielectric constant tensor:
#      x y z
#    x 1.979930 0.000000 0.022510 
#    y 0.000000 1.948710 0.000000 
#    z 0.022510 0.000000 1.930830 
# 
# From -- ./inp_files/79174.got.cif
#   From: 2010.03.12/outbox.cif.g09.slc.cpg/sg14_40_cif.got.tgz:79174.got - 2010.03.31 13:35:05.
