data_PCOD8126243
_publ_section_title
;
Structure prediction by ZEFSAII (Michael W. Deem and Ramdas Pophale) SiO2 
 PCOD8126243
Probable space group: P 21/C
;
_chemical_formula_sum "Si O2"
_cell_formula_units_Z 20
_cell_length_a 5.110793
_cell_length_b 12.522914
_cell_length_c 14.841681
_cell_angle_alpha 90.000000
_cell_angle_beta 90.602209
_cell_angle_gamma 90.000000
_cell_volume 949.845114
_symmetry_space_group_name_H-M "P 21/C"
_symmetry_group_IT_number 14
_symmetry_cell_setting 'monoclinic'
loop_
_space_group_symop_operation_xyz
x,y,z
-x,1/2+y,1/2-z
-x,-y,-z
x,1/2-y,1/2+z
loop_
_atom_site_type_symbol
_atom_site_label
_atom_site_fract_x
_atom_site_fract_y
_atom_site_fract_z
Si Si1 0.184179 0.197300 0.413693
Si Si2 0.691640 0.120879 0.319990
Si Si3 0.544559 0.194813 0.122401
Si Si4 0.633526 0.921512 0.428744
Si Si5 0.044448 0.120308 0.024914
O O1 0.480620 0.179271 0.382617
O O2 0.136923 0.133481 0.509372
O O3 0.142820 0.321723 0.434125
O O4 0.981899 0.164342 0.336905
O O5 0.626193 0.146158 0.217836
O O6 0.714957 0.994243 0.343537
O O7 0.529823 0.324258 0.117096
O O8 0.267145 0.138179 0.101138
O O9 0.764221 0.165359 0.051766
O O10 0.500000 0.000000 0.500000
O O11 0.000000 0.000000 0.000000
#
# Coordination Sequence:
#
# PCOD8126243 Si02
#       5
#     4   4   4   4   4
#     4  10  21  39  61  87 115 160 205 237 295 378
#     4  11  22  38  61  91 121 151 196 260 308 342
#     4  11  24  39  59  94 121 152 205 256 301 362
#     4   9  20  39  63  85 118 161 201 243 299 369
#     4  11  23  41  61  83 121 164 200 240 297 365
#
# _framework density 21.056066000000001
#
# number of rings (size 3 to 8) (size 9 to 14) (size 15 to 20)
#    0.000    1.600    0.000    6.000    0.000    8.000 
#    0.000    0.000    0.000    0.000    0.000    0.000 
#    0.000    0.000    0.000    0.000    0.000    0.000 
#
# Total GULP energy -247786.031266 kJ/mol
# GULP energy per Si atom -12389.301563 kJ/mol
# Density = 2.100814 g / cm^3
# Si number density = 21.056066 Si / 1000 Ang^3
#
#
#
# Elastic Constant Matrix: (Units=GPa)
#
#
# Indices 1 2 3 4 5 6 
#
# 1 69.1488 15.3114 -1.6608 0.0000 10.6411 0.0000
# 2 15.3114 121.2096 24.0310 0.0000 6.2799 0.0000
# 3 -1.6608 24.0310 69.5934 0.0000 18.6539 0.0000
# 4 0.0000 0.0000 0.0000 35.4431 0.0000 5.3114
# 5 10.6411 6.2799 18.6539 0.0000 36.4482 0.0000
# 6 0.0000 0.0000 0.0000 5.3114 0.0000 24.6048
#
#
#
# Elastic Compliance Matrix: (Units=1/GPa)
#
#
# Indices 1 2 3 4 5 6 
#
# 1 0.015886 -0.002243 0.002658 0.000000 -0.005612 0.000000
# 2 -0.002243 0.009173 -0.003446 0.000000 0.000838 0.000000
# 3 0.002658 -0.003446 0.018163 0.000000 -0.009478 0.000000
# 4 0.000000 0.000000 0.000000 0.029158 0.000000 -0.006294
# 5 -0.005612 0.000838 -0.009478 0.000000 0.033781 0.000000
# 6 0.000000 0.000000 0.000000 -0.006294 0.000000 0.042001
#
#
# Mechanical properties :
#
#
# Convention : Reuss Voigt Hill
#
# Bulk Modulus (GPa) = 26.91064 37.25722 32.08393
# Shear Modulus (GPa) = 30.01029 34.11721 32.06375
#
# Velocity S-wave (km/s) = 3.77935 4.02967 3.90651
# Velocity P-wave (km/s) = 5.64384 6.27564 5.96810
#
# Compressibility (1/GPa) = 0.03716002
#
# Stress axis : x y z
#
# Youngs Moduli (GPa) = 62.95023 109.01292 55.05742
#
# Poissons Ratio (x) = 0.24450 -0.14633
# Poissons Ratio (y) = 0.14119 0.18971
# Poissons Ratio (z) = -0.16730 0.37562
#
# Static dielectric constant tensor:
#      x y z
#    x 3.926240 0.000000 0.098020 
#    y 0.000000 4.286860 0.000000 
#    z 0.098020 0.000000 3.781910 
# 
# 
# High freq. dielectric constant tensor:
#      x y z
#    x 1.825090 0.000000 0.015340 
#    y 0.000000 1.836850 0.000000 
#    z 0.015340 0.000000 1.814580 
# 
# From -- ./inp_files/36871.got.cif
#   From: 2010.03.12/outbox.cif.g09.slc.cpg/sg14_19_cif.got.tgz:36871.got - 2010.03.31 13:35:05.
