data_PCOD8126833
_publ_section_title
;
Structure prediction by ZEFSAII (Michael W. Deem and Ramdas Pophale) SiO2 
 PCOD8126833
Probable space group: P 21/C
;
_chemical_formula_sum "Si O2"
_cell_formula_units_Z 20
_cell_length_a 19.046206
_cell_length_b 10.266884
_cell_length_c 13.076037
_cell_angle_alpha 90.000000
_cell_angle_beta 21.742741
_cell_angle_gamma 90.000000
_cell_volume 947.198208
_symmetry_space_group_name_H-M "P 21/C"
_symmetry_group_IT_number 14
_symmetry_cell_setting 'monoclinic'
loop_
_space_group_symop_operation_xyz
x,y,z
-x,1/2+y,1/2-z
-x,-y,-z
x,1/2-y,1/2+z
loop_
_atom_site_type_symbol
_atom_site_label
_atom_site_fract_x
_atom_site_fract_y
_atom_site_fract_z
Si Si1 0.142931 0.760131 0.361244
Si Si2 0.230885 0.291106 0.241084
Si Si3 0.333548 0.011921 0.144959
Si Si4 0.623749 0.114615 0.114490
Si Si5 0.719554 0.023613 0.192756
O O1 0.233520 0.652265 0.309070
O O2 0.925418 0.721925 0.636272
O O3 0.170709 0.900509 0.381027
O O4 0.255736 0.767561 0.100134
O O5 0.242460 0.153366 0.283142
O O6 0.170774 0.398988 0.407645
O O7 0.428548 0.328929 0.921593
O O8 0.500000 0.000000 0.000000
O O9 0.419049 0.994896 0.914284
O O10 0.756439 0.048457 0.022503
O O11 0.500000 0.000000 0.500000
#
# Coordination Sequence:
#
# PCOD8126833 Si02
#       5
#     4   4   4   4   4
#     4  10  23  43  63  98 133 168 218 267 319 389
#     4  11  22  41  69  95 129 172 220 267 319 387
#     4  10  22  42  65  91 134 172 213 266 323 381
#     4   9  24  40  66  91 136 169 214 258 338 366
#     4  10  21  43  65  94 130 173 215 265 318 393
#
# _framework density 21.114905
#
# number of rings (size 3 to 8) (size 9 to 14) (size 15 to 20)
#    1.200    0.800    0.000    3.600    5.600    0.000 
#    7.200    0.000    0.000    0.000    0.000    0.000 
#    0.000    0.000    0.000    0.000    0.000    0.000 
#
# Total GULP energy -247820.230089 kJ/mol
# GULP energy per Si atom -12391.011504 kJ/mol
# Density = 2.106685 g / cm^3
# Si number density = 21.114905 Si / 1000 Ang^3
#
#
#
# Elastic Constant Matrix: (Units=GPa)
#
#
# Indices 1 2 3 4 5 6 
#
# 1 153.3822 70.7087 20.3758 0.0000 -4.6411 0.0000
# 2 70.7087 159.3285 18.0987 0.0000 3.2942 0.0000
# 3 20.3758 18.0987 47.6869 0.0000 -9.5433 0.0000
# 4 0.0000 0.0000 0.0000 19.0827 0.0000 -15.6352
# 5 -4.6411 3.2942 -9.5433 0.0000 26.7187 0.0000
# 6 0.0000 0.0000 0.0000 -15.6352 0.0000 45.5713
#
#
#
# Elastic Compliance Matrix: (Units=1/GPa)
#
#
# Indices 1 2 3 4 5 6 
#
# 1 0.008461 -0.003549 -0.002032 0.000000 0.001181 0.000000
# 2 -0.003549 0.008131 -0.002040 0.000000 -0.002347 0.000000
# 3 -0.002032 -0.002040 0.024331 0.000000 0.008589 0.000000
# 4 0.000000 0.000000 0.000000 0.072895 0.000000 0.025010
# 5 0.001181 -0.002347 0.008589 0.000000 0.040990 0.000000
# 6 0.000000 0.000000 0.000000 0.025010 0.000000 0.030524
#
#
# Mechanical properties :
#
#
# Convention : Reuss Voigt Hill
#
# Bulk Modulus (GPa) = 38.93578 64.30711 51.62144
# Shear Modulus (GPa) = 23.90805 35.02216 29.46511
#
# Velocity S-wave (km/s) = 3.36859 4.07707 3.73964
# Velocity P-wave (km/s) = 5.79740 7.25846 6.56868
#
# Compressibility (1/GPa) = 0.02568332
#
# Stress axis : x y z
#
# Youngs Moduli (GPa) = 118.18562 122.97975 41.09919
#
# Poissons Ratio (x) = 0.43641 0.08352
# Poissons Ratio (y) = 0.41940 0.08383
# Poissons Ratio (z) = 0.24017 0.25083
#
# Static dielectric constant tensor:
#      x y z
#    x 4.170430 0.000000 0.078410 
#    y 0.000000 4.292360 0.000000 
#    z 0.078410 0.000000 3.244410 
# 
# 
# High freq. dielectric constant tensor:
#      x y z
#    x 1.839080 0.000000 -0.017520 
#    y 0.000000 1.837600 0.000000 
#    z -0.017520 0.000000 1.794990 
# 
# From -- ./inp_files/50001.got.cif
#   From: 2010.03.12/outbox.cif.g09.slc.cpg/sg14_26_cif.got.tgz:50001.got - 2010.03.31 13:35:05.
