data_PCOD8126828
_publ_section_title
;
Structure prediction by ZEFSAII (Michael W. Deem and Ramdas Pophale) SiO2 
 PCOD8126828
Probable space group: P 21/C
;
_chemical_formula_sum "Si O2"
_cell_formula_units_Z 24
_cell_length_a 6.258872
_cell_length_b 13.359302
_cell_length_c 13.887212
_cell_angle_alpha 90.000000
_cell_angle_beta 66.199707
_cell_angle_gamma 90.000000
_cell_volume 1062.419110
_symmetry_space_group_name_H-M "P 21/C"
_symmetry_group_IT_number 14
_symmetry_cell_setting 'monoclinic'
loop_
_space_group_symop_operation_xyz
x,y,z
-x,1/2+y,1/2-z
-x,-y,-z
x,1/2-y,1/2+z
loop_
_atom_site_type_symbol
_atom_site_label
_atom_site_fract_x
_atom_site_fract_y
_atom_site_fract_z
Si Si1 0.210868 0.236924 0.539356
Si Si2 0.243220 0.316743 0.727288
Si Si3 0.413106 0.066239 0.371827
Si Si4 0.906363 0.013306 0.246756
Si Si5 0.787192 0.119402 0.676318
Si Si6 0.274754 0.143854 0.848480
O O1 0.352682 0.261037 0.613209
O O2 0.323665 0.139604 0.470218
O O3 0.240226 0.335368 0.467552
O O4 0.935418 0.212424 0.606563
O O5 0.410955 0.384920 0.763582
O O6 0.134493 0.231008 0.815982
O O7 0.044302 0.383437 0.711814
O O8 0.676206 0.036960 0.351189
O O9 0.257995 0.965214 0.397209
O O10 0.824653 0.966211 0.158654
O O11 0.055592 0.927947 0.269324
O O12 0.545379 0.157591 0.766833
#
# Coordination Sequence:
#
# PCOD8126828 Si02
#       6
#     4   4   4   4   4   4
#     4  11  22  39  67  96 123 174 212 254 328 373
#     4  10  22  40  62  97 130 167 212 260 311 375
#     4   9  22  41  63  94 131 162 215 271 310 373
#     4  10  21  44  68  88 135 169 204 271 319 369
#     4  10  21  43  64  93 131 163 217 268 313 373
#     4  10  23  43  62  96 133 166 213 269 308 375
#
# _framework density 22.589953999999999
#
# number of rings (size 3 to 8) (size 9 to 14) (size 15 to 20)
#    0.000    2.000    1.667    0.500    4.667    1.333 
#   12.000    7.500    0.000    0.000    0.000    0.000 
#    0.000    0.000    0.000    0.000    0.000    0.000 
#
# Total GULP energy -297380.898645 kJ/mol
# GULP energy per Si atom -12390.870777 kJ/mol
# Density = 2.253854 g / cm^3
# Si number density = 22.589954 Si / 1000 Ang^3
#
#
#
# Elastic Constant Matrix: (Units=GPa)
#
#
# Indices 1 2 3 4 5 6 
#
# 1 66.8571 29.9323 31.7510 0.0000 -4.5345 0.0000
# 2 29.9323 70.4083 21.1709 0.0000 -6.9487 0.0000
# 3 31.7510 21.1709 93.6975 0.0000 10.2319 0.0000
# 4 0.0000 0.0000 0.0000 45.6576 0.0000 -1.3995
# 5 -4.5345 -6.9487 10.2319 0.0000 27.4422 0.0000
# 6 0.0000 0.0000 0.0000 -1.3995 0.0000 22.4135
#
#
#
# Elastic Compliance Matrix: (Units=1/GPa)
#
#
# Indices 1 2 3 4 5 6 
#
# 1 0.021147 -0.006762 -0.006080 0.000000 0.004049 0.000000
# 2 -0.006762 0.018196 -0.002295 0.000000 0.004346 0.000000
# 3 -0.006080 -0.002295 0.013994 0.000000 -0.006804 0.000000
# 4 0.000000 0.000000 0.000000 0.021944 0.000000 0.001370
# 5 0.004049 0.004346 -0.006804 0.000000 0.040746 0.000000
# 6 0.000000 0.000000 0.000000 0.001370 0.000000 0.044701
#
#
# Mechanical properties :
#
#
# Convention : Reuss Voigt Hill
#
# Bulk Modulus (GPa) = 43.35793 44.07459 43.71626
# Shear Modulus (GPa) = 25.16459 28.97658 27.07059
#
# Velocity S-wave (km/s) = 3.34124 3.58539 3.46547
# Velocity P-wave (km/s) = 5.84126 6.05748 5.95036
#
# Compressibility (1/GPa) = 0.02306383
#
# Stress axis : x y z
#
# Youngs Moduli (GPa) = 47.28815 54.95570 71.45683
#
# Poissons Ratio (x) = 0.37162 0.43448
# Poissons Ratio (y) = 0.31977 0.16396
# Poissons Ratio (z) = 0.28752 0.12610
#
# Static dielectric constant tensor:
#      x y z
#    x 4.054970 0.000000 0.068770 
#    y 0.000000 4.326260 0.000000 
#    z 0.068770 0.000000 3.838530 
# 
# 
# High freq. dielectric constant tensor:
#      x y z
#    x 1.883340 0.000000 0.012870 
#    y 0.000000 1.909290 0.000000 
#    z 0.012870 0.000000 1.860380 
# 
# From -- ./inp_files/37260.got.cif
#   From: 2010.03.12/outbox.cif.g09.slc.cpg/sg14_19_cif.got.tgz:37260.got - 2010.03.31 13:35:05.
