data_PCOD8126525
_publ_section_title
;
Structure prediction by ZEFSAII (Michael W. Deem and Ramdas Pophale) SiO2 
 PCOD8126525
Probable space group: P 21/C
;
_chemical_formula_sum "Si O2"
_cell_formula_units_Z 28
_cell_length_a 8.863438
_cell_length_b 7.928467
_cell_length_c 24.151516
_cell_angle_alpha 90.000000
_cell_angle_beta 50.291784
_cell_angle_gamma 90.000000
_cell_volume 1305.677894
_symmetry_space_group_name_H-M "P 21/C"
_symmetry_group_IT_number 14
_symmetry_cell_setting 'monoclinic'
loop_
_space_group_symop_operation_xyz
x,y,z
-x,1/2+y,1/2-z
-x,-y,-z
x,1/2-y,1/2+z
loop_
_atom_site_type_symbol
_atom_site_label
_atom_site_fract_x
_atom_site_fract_y
_atom_site_fract_z
Si Si1 0.145310 0.166518 0.761022
Si Si2 0.785317 0.560021 0.330499
Si Si3 0.586358 0.646969 0.591758
Si Si4 0.909309 0.878566 0.107373
Si Si5 0.840250 0.799156 0.933138
Si Si6 0.583809 0.482154 0.890137
Si Si7 0.785166 0.422886 0.955959
O O1 0.120405 0.358199 0.746570
O O2 0.219329 0.159826 0.807174
O O3 0.300052 0.089829 0.682131
O O4 0.926547 0.092265 0.813654
O O5 0.569029 0.501759 0.364776
O O6 0.778110 0.693689 0.383092
O O7 0.773669 0.618256 0.585974
O O8 0.649475 0.648595 0.512764
O O9 0.491077 0.825747 0.629058
O O10 0.075347 0.734194 0.061556
O O11 0.988502 0.069580 0.093207
O O12 0.896848 0.605165 0.935557
O O13 0.716534 0.407938 0.908556
O O14 0.400848 0.586414 0.958865
#
# Coordination Sequence:
#
# PCOD8126525 Si02
#       7
#     4   4   4   4   4   4   4
#     4  11  23  40  64  95 122 173 207 272 318 380
#     4  11  22  39  66  91 126 161 223 266 314 373
#     4  11  24  41  63  96 130 169 207 266 324 389
#     4  11  25  42  63  94 141 168 208 258 330 392
#     4  10  22  41  67  94 121 167 220 264 312 367
#     4  10  21  40  67  96 123 160 226 265 319 366
#     4  10  21  42  69  98 123 167 217 274 311 377
#
# _framework density 21.444800000000001
#
# number of rings (size 3 to 8) (size 9 to 14) (size 15 to 20)
#    0.000    1.429    1.429    4.286    2.000    3.429 
#    2.571    0.000    0.000    0.000    0.000    0.000 
#    0.000    0.000    0.000    0.000    0.000    0.000 
#
# Total GULP energy -347123.075491 kJ/mol
# GULP energy per Si atom -12397.252696 kJ/mol
# Density = 2.139599 g / cm^3
# Si number density = 21.444800 Si / 1000 Ang^3
#
#
#
# Elastic Constant Matrix: (Units=GPa)
#
#
# Indices 1 2 3 4 5 6 
#
# 1 74.7155 28.4617 24.4603 0.0000 -10.6287 0.0000
# 2 28.4617 65.4373 23.7823 0.0000 -4.9279 0.0000
# 3 24.4603 23.7823 95.9661 0.0000 7.7112 0.0000
# 4 0.0000 0.0000 0.0000 41.0059 0.0000 -0.7441
# 5 -10.6287 -4.9279 7.7112 0.0000 21.4499 0.0000
# 6 0.0000 0.0000 0.0000 -0.7441 0.0000 24.7050
#
#
#
# Elastic Compliance Matrix: (Units=1/GPa)
#
#
# Indices 1 2 3 4 5 6 
#
# 1 0.018167 -0.005791 -0.003925 0.000000 0.009083 0.000000
# 2 -0.005791 0.019299 -0.003534 0.000000 0.002835 0.000000
# 3 -0.003925 -0.003534 0.012891 0.000000 -0.007391 0.000000
# 4 0.000000 0.000000 0.000000 0.024400 0.000000 0.000735
# 5 0.009083 0.002835 -0.007391 0.000000 0.054429 0.000000
# 6 0.000000 0.000000 0.000000 0.000735 0.000000 0.040500
#
#
# Mechanical properties :
#
#
# Convention : Reuss Voigt Hill
#
# Bulk Modulus (GPa) = 41.91978 43.28085 42.60031
# Shear Modulus (GPa) = 24.49313 28.05979 26.27646
#
# Velocity S-wave (km/s) = 3.38323 3.62120 3.50424
# Velocity P-wave (km/s) = 5.90355 6.14087 6.02338
#
# Compressibility (1/GPa) = 0.02385509
#
# Stress axis : x y z
#
# Youngs Moduli (GPa) = 55.04394 51.81720 77.57593
#
# Poissons Ratio (x) = 0.30009 0.30450
# Poissons Ratio (y) = 0.31877 0.27417
# Poissons Ratio (z) = 0.21606 0.18313
#
# Static dielectric constant tensor:
#      x y z
#    x 3.631830 0.000000 0.212510 
#    y 0.000000 4.118960 0.000000 
#    z 0.212510 0.000000 3.974330 
# 
# 
# High freq. dielectric constant tensor:
#      x y z
#    x 1.814810 0.000000 0.011560 
#    y 0.000000 1.856100 0.000000 
#    z 0.011560 0.000000 1.850260 
# 
# From -- ./inp_files/76435.got.cif
#   From: 2010.03.12/outbox.cif.g09.slc.cpg/sg14_39_cif.got.tgz:76435.got - 2010.03.31 13:35:05.
