data_PCOD8126475
_publ_section_title
;
Structure prediction by ZEFSAII (Michael W. Deem and Ramdas Pophale) SiO2 
 PCOD8126475
Probable space group: P 21/C
;
_chemical_formula_sum "Si O2"
_cell_formula_units_Z 20
_cell_length_a 12.643065
_cell_length_b 17.437407
_cell_length_c 9.242644
_cell_angle_alpha 90.000000
_cell_angle_beta 150.960030
_cell_angle_gamma 90.000000
_cell_volume 989.117414
_symmetry_space_group_name_H-M "P 21/C"
_symmetry_group_IT_number 14
_symmetry_cell_setting 'monoclinic'
loop_
_space_group_symop_operation_xyz
x,y,z
-x,1/2+y,1/2-z
-x,-y,-z
x,1/2-y,1/2+z
loop_
_atom_site_type_symbol
_atom_site_label
_atom_site_fract_x
_atom_site_fract_y
_atom_site_fract_z
Si Si1 0.597111 0.880411 0.247680
Si Si2 0.649308 0.020420 0.813055
Si Si3 0.176804 0.792236 0.731931
Si Si4 0.055760 0.660742 0.392666
Si Si5 0.139674 0.426884 0.210043
O O1 0.482072 0.942519 0.211722
O O2 0.678425 0.917510 0.196003
O O3 0.795124 0.844987 0.576653
O O4 0.427041 0.814119 0.999738
O O5 0.500000 0.000000 0.500000
O O6 0.840366 0.076083 0.985090
O O7 0.753027 0.942644 0.004209
O O8 0.130203 0.706277 0.623353
O O9 0.140604 0.789982 0.859478
O O10 0.012343 0.852350 0.459293
O O11 0.000000 0.500000 0.000000
#
# Coordination Sequence:
#
# PCOD8126475 Si02
#       5
#     4   4   4   4   4
#     4  10  21  40  65  81 125 165 201 252 305 364
#     4  11  24  38  61  96 125 155 208 260 305 359
#     4  10  23  38  63  87 122 164 207 250 309 368
#     4  10  23  41  56  92 123 158 208 250 305 374
#     4  11  20  41  64  90 115 164 215 242 298 386
#
# _framework density 20.220047000000001
#
# number of rings (size 3 to 8) (size 9 to 14) (size 15 to 20)
#    0.000    1.600    6.000    0.600    0.000   12.000 
#    0.000    0.000    0.000    0.000    0.000    0.000 
#    0.000    0.000    0.000    0.000    0.000    0.000 
#
# Total GULP energy -248014.231595 kJ/mol
# GULP energy per Si atom -12400.711580 kJ/mol
# Density = 2.017403 g / cm^3
# Si number density = 20.220047 Si / 1000 Ang^3
#
#
#
# Elastic Constant Matrix: (Units=GPa)
#
#
# Indices 1 2 3 4 5 6 
#
# 1 33.3706 10.6843 28.8797 0.0000 9.8492 0.0000
# 2 10.6843 47.1978 21.4396 0.0000 3.9013 0.0000
# 3 28.8797 21.4396 128.3702 0.0000 1.0649 0.0000
# 4 0.0000 0.0000 0.0000 44.4428 0.0000 -17.8233
# 5 9.8492 3.9013 1.0649 0.0000 44.0569 0.0000
# 6 0.0000 0.0000 0.0000 -17.8233 0.0000 23.7247
#
#
#
# Elastic Compliance Matrix: (Units=1/GPa)
#
#
# Indices 1 2 3 4 5 6 
#
# 1 0.041342 -0.004820 -0.008424 0.000000 -0.008612 0.000000
# 2 -0.004820 0.023655 -0.002859 0.000000 -0.000948 0.000000
# 3 -0.008424 -0.002859 0.010147 0.000000 0.001891 0.000000
# 4 0.000000 0.000000 0.000000 0.032203 0.000000 0.024193
# 5 -0.008612 -0.000948 0.001891 0.000000 0.024661 0.000000
# 6 0.000000 0.000000 0.000000 0.024193 0.000000 0.060325
#
#
# Mechanical properties :
#
#
# Convention : Reuss Voigt Hill
#
# Bulk Modulus (GPa) = 23.28911 36.77178 30.03045
# Shear Modulus (GPa) = 20.93336 32.30721 26.62029
#
# Velocity S-wave (km/s) = 3.22106 4.00156 3.63234
# Velocity P-wave (km/s) = 5.03751 6.29089 5.69876
#
# Compressibility (1/GPa) = 0.04293852
#
# Stress axis : x y z
#
# Youngs Moduli (GPa) = 24.18836 42.27359 98.55182
#
# Poissons Ratio (x) = 0.20376 0.83024
# Poissons Ratio (y) = 0.11659 0.28171
# Poissons Ratio (z) = 0.20377 0.12084
#
# Static dielectric constant tensor:
#      x y z
#    x 3.691890 0.000000 0.250730 
#    y 0.000000 3.682810 0.000000 
#    z 0.250730 0.000000 4.295580 
# 
# 
# High freq. dielectric constant tensor:
#      x y z
#    x 1.785830 0.000000 0.008220 
#    y 0.000000 1.775500 0.000000 
#    z 0.008220 0.000000 1.805110 
# 
# From -- ./inp_files/5445.got.cif
#   From: 2010.03.12/outbox.cif.g09.slc.cpg/sg14_3_cif.got.tgz:5445.got - 2010.03.31 13:35:05.
