data_PCOD8126365
_publ_section_title
;
Structure prediction by ZEFSAII (Michael W. Deem and Ramdas Pophale) SiO2 
 PCOD8126365
Probable space group: P 21/C
;
_chemical_formula_sum "Si O2"
_cell_formula_units_Z 20
_cell_length_a 9.667390
_cell_length_b 15.100480
_cell_length_c 8.921253
_cell_angle_alpha 90.000000
_cell_angle_beta 140.850228
_cell_angle_gamma 90.000000
_cell_volume 822.234760
_symmetry_space_group_name_H-M "P 21/C"
_symmetry_group_IT_number 14
_symmetry_cell_setting 'monoclinic'
loop_
_space_group_symop_operation_xyz
x,y,z
-x,1/2+y,1/2-z
-x,-y,-z
x,1/2-y,1/2+z
loop_
_atom_site_type_symbol
_atom_site_label
_atom_site_fract_x
_atom_site_fract_y
_atom_site_fract_z
Si Si1 0.659592 0.817977 0.986127
Si Si2 0.012227 0.312571 0.638379
Si Si3 0.346284 0.462946 0.000796
Si Si4 0.442633 0.665460 0.608502
Si Si5 0.006260 0.424171 0.378249
O O1 0.480929 0.837819 0.962480
O O2 0.885724 0.784412 0.255064
O O3 0.748183 0.908958 0.982694
O O4 0.562687 0.750840 0.781641
O O5 0.816987 0.327557 0.590444
O O6 0.931155 0.332094 0.398622
O O7 0.216163 0.377681 0.834266
O O8 0.174209 0.543282 0.896390
O O9 0.500000 0.500000 0.000000
O O10 0.479985 0.428616 0.257137
O O11 0.000000 0.500000 0.500000
#
# Coordination Sequence:
#
# PCOD8126365 Si02
#       5
#     4   4   4   4   4
#     4  11  24  42  65 100 135 175 228 281 339 402
#     4  10  22  40  67  98 131 175 226 272 338 409
#     4  10  21  39  68  94 132 178 219 271 340 401
#     4  11  24  39  67 100 132 176 226 283 341 403
#     4  10  21  43  67  92 135 177 217 276 336 404
#
# _framework density 24.323955000000002
#
# number of rings (size 3 to 8) (size 9 to 14) (size 15 to 20)
#    0.000    1.600    4.000    0.000    2.800    0.800 
#    0.000    4.000    0.000    0.000    0.000    0.000 
#    0.000    0.000    0.000    0.000    0.000    0.000 
#
# Total GULP energy -247777.525129 kJ/mol
# GULP energy per Si atom -12388.876256 kJ/mol
# Density = 2.426859 g / cm^3
# Si number density = 24.323955 Si / 1000 Ang^3
#
#
#
# Elastic Constant Matrix: (Units=GPa)
#
#
# Indices 1 2 3 4 5 6 
#
# 1 175.7858 30.7604 14.9522 0.0000 8.7992 0.0000
# 2 30.7604 65.2635 18.9247 0.0000 2.5245 0.0000
# 3 14.9522 18.9247 34.4093 0.0000 9.0067 0.0000
# 4 0.0000 0.0000 0.0000 32.3062 0.0000 7.5330
# 5 8.7992 2.5245 9.0067 0.0000 41.0250 0.0000
# 6 0.0000 0.0000 0.0000 7.5330 0.0000 49.0268
#
#
#
# Elastic Compliance Matrix: (Units=1/GPa)
#
#
# Indices 1 2 3 4 5 6 
#
# 1 0.006284 -0.002624 -0.001036 0.000000 -0.000959 0.000000
# 2 -0.002624 0.019377 -0.009922 0.000000 0.001549 0.000000
# 3 -0.001036 -0.009922 0.036870 0.000000 -0.007262 0.000000
# 4 0.000000 0.000000 0.000000 0.032104 0.000000 -0.004933
# 5 -0.000959 0.001549 -0.007262 0.000000 0.026080 0.000000
# 6 0.000000 0.000000 0.000000 -0.004933 0.000000 0.021155
#
#
# Mechanical properties :
#
#
# Convention : Reuss Voigt Hill
#
# Bulk Modulus (GPa) = 28.27619 44.97037 36.62328
# Shear Modulus (GPa) = 27.65131 38.52636 33.08883
#
# Velocity S-wave (km/s) = 3.37529 3.98412 3.69228
# Velocity P-wave (km/s) = 5.18075 6.30020 5.76770
#
# Compressibility (1/GPa) = 0.03536544
#
# Stress axis : x y z
#
# Youngs Moduli (GPa) = 159.13170 51.60874 27.12233
#
# Poissons Ratio (x) = 0.13543 0.02811
# Poissons Ratio (y) = 0.41760 0.26911
# Poissons Ratio (z) = 0.16493 0.51206
#
# Static dielectric constant tensor:
#      x y z
#    x 4.441570 0.000000 0.126040 
#    y 0.000000 5.121260 0.000000 
#    z 0.126040 0.000000 5.078610 
# 
# 
# High freq. dielectric constant tensor:
#      x y z
#    x 1.964110 0.000000 0.018700 
#    y 0.000000 1.963130 0.000000 
#    z 0.018700 0.000000 1.951940 
# 
# From -- ./inp_files/9270.got.cif
#   From: 2010.03.12/outbox.cif.g09.slc.cpg/sg14_5_cif.got.tgz:9270.got - 2010.03.31 13:35:05.
