data_PCOD8126312
_publ_section_title
;
Structure prediction by ZEFSAII (Michael W. Deem and Ramdas Pophale) SiO2 
 PCOD8126312
Probable space group: P 21/C
;
_chemical_formula_sum "Si O2"
_cell_formula_units_Z 24
_cell_length_a 10.492383
_cell_length_b 13.262571
_cell_length_c 8.641567
_cell_angle_alpha 90.000000
_cell_angle_beta 104.393012
_cell_angle_gamma 90.000000
_cell_volume 1164.782587
_symmetry_space_group_name_H-M "P 21/C"
_symmetry_group_IT_number 14
_symmetry_cell_setting 'monoclinic'
loop_
_space_group_symop_operation_xyz
x,y,z
-x,1/2+y,1/2-z
-x,-y,-z
x,1/2-y,1/2+z
loop_
_atom_site_type_symbol
_atom_site_label
_atom_site_fract_x
_atom_site_fract_y
_atom_site_fract_z
Si Si1 0.961652 0.883783 0.508547
Si Si2 0.899865 0.262867 0.679734
Si Si3 0.657530 0.870383 0.385122
Si Si4 0.718041 0.170625 0.868084
Si Si5 0.471510 0.492186 0.670991
Si Si6 0.538772 0.793479 0.660086
O O1 0.805899 0.880590 0.482394
O O2 0.023093 0.837049 0.682193
O O3 0.003209 0.817449 0.372855
O O4 0.000000 0.000000 0.500000
O O5 0.787157 0.199036 0.729321
O O6 0.829480 0.334704 0.533718
O O7 0.600044 0.977353 0.310294
O O8 0.566863 0.832036 0.497428
O O9 0.640730 0.794726 0.235260
O O10 0.653025 0.061758 0.825131
O O11 0.610385 0.254385 0.880427
O O12 0.500000 0.500000 0.500000
O O13 0.437261 0.378758 0.704031
#
# Coordination Sequence:
#
# PCOD8126312 Si02
#       6
#     4   4   4   4   4   4
#     4  11  26  44  69  93 134 183 223 267 329 381
#     4  10  23  44  64  93 129 172 221 271 313 406
#     4  11  24  41  62  94 128 166 217 269 323 400
#     4  10  21  39  64  93 124 163 214 267 334 387
#     4  11  23  36  64  96 125 166 207 268 338 393
#     4  11  22  40  66  93 132 162 209 281 339 383
#
# _framework density 20.604704999999999
#
# number of rings (size 3 to 8) (size 9 to 14) (size 15 to 20)
#    0.000    1.333    0.000    6.500    9.333    0.000 
#    0.000    1.667    0.000    0.000    0.000    0.000 
#    0.000    0.000    0.000    0.000    0.000    0.000 
#
# Total GULP energy -297693.063706 kJ/mol
# GULP energy per Si atom -12403.877654 kJ/mol
# Density = 2.055781 g / cm^3
# Si number density = 20.604705 Si / 1000 Ang^3
#
#
#
# Elastic Constant Matrix: (Units=GPa)
#
#
# Indices 1 2 3 4 5 6 
#
# 1 97.9226 21.8324 16.3384 0.0000 8.1052 0.0000
# 2 21.8324 97.2697 20.4955 0.0000 9.7018 0.0000
# 3 16.3384 20.4955 78.9451 0.0000 1.7391 0.0000
# 4 0.0000 0.0000 0.0000 37.6129 0.0000 0.7913
# 5 8.1052 9.7018 1.7391 0.0000 33.9755 0.0000
# 6 0.0000 0.0000 0.0000 0.7913 0.0000 19.5341
#
#
#
# Elastic Compliance Matrix: (Units=1/GPa)
#
#
# Indices 1 2 3 4 5 6 
#
# 1 0.011100 -0.001921 -0.001754 0.000000 -0.002009 0.000000
# 2 -0.001921 0.011515 -0.002532 0.000000 -0.002700 0.000000
# 3 -0.001754 -0.002532 0.013678 0.000000 0.000441 0.000000
# 4 0.000000 0.000000 0.000000 0.026609 0.000000 -0.001078
# 5 -0.002009 -0.002700 0.000441 0.000000 0.030661 0.000000
# 6 0.000000 0.000000 0.000000 -0.001078 0.000000 0.051236
#
#
# Mechanical properties :
#
#
# Convention : Reuss Voigt Hill
#
# Bulk Modulus (GPa) = 41.88181 43.49666 42.68924
# Shear Modulus (GPa) = 30.27137 32.58925 31.43031
#
# Velocity S-wave (km/s) = 3.83711 3.98130 3.90987
# Velocity P-wave (km/s) = 6.32468 6.50309 6.41451
#
# Compressibility (1/GPa) = 0.02387671
#
# Stress axis : x y z
#
# Youngs Moduli (GPa) = 90.09407 86.84461 73.11132
#
# Poissons Ratio (x) = 0.16685 0.12824
# Poissons Ratio (y) = 0.17310 0.18514
# Poissons Ratio (z) = 0.15803 0.21992
#
# Static dielectric constant tensor:
#      x y z
#    x 3.769260 0.000000 0.049580 
#    y 0.000000 3.922810 0.000000 
#    z 0.049580 0.000000 3.860730 
# 
# 
# High freq. dielectric constant tensor:
#      x y z
#    x 1.804050 0.000000 0.001140 
#    y 0.000000 1.808410 0.000000 
#    z 0.001140 0.000000 1.824320 
# 
# From -- ./inp_files/8619.got.cif
#   From: 2010.03.12/outbox.cif.g09.slc.cpg/sg14_5_cif.got.tgz:8619.got - 2010.03.31 13:35:05.
