data_PCOD8126870
_publ_section_title
;
Structure prediction by ZEFSAII (Michael W. Deem and Ramdas Pophale) SiO2 
 PCOD8126870
Probable space group: P 21/C
;
_chemical_formula_sum "Si O2"
_cell_formula_units_Z 32
_cell_length_a 14.478648
_cell_length_b 7.484227
_cell_length_c 12.331290
_cell_angle_alpha 90.000000
_cell_angle_beta 65.647012
_cell_angle_gamma 90.000000
_cell_volume 1217.341664
_symmetry_space_group_name_H-M "P 21/C"
_symmetry_group_IT_number 14
_symmetry_cell_setting 'monoclinic'
loop_
_space_group_symop_operation_xyz
x,y,z
-x,1/2+y,1/2-z
-x,-y,-z
x,1/2-y,1/2+z
loop_
_atom_site_type_symbol
_atom_site_label
_atom_site_fract_x
_atom_site_fract_y
_atom_site_fract_z
Si Si1 0.448240 0.661543 0.829343
Si Si2 0.013684 0.266869 0.427113
Si Si3 0.694480 0.526216 0.244977
Si Si4 0.848706 0.941649 0.990143
Si Si5 0.345129 0.498852 0.275615
Si Si6 0.835380 0.449114 0.987221
Si Si7 0.689484 0.212744 0.410469
Si Si8 0.817172 0.770534 0.316966
O O1 0.402068 0.484654 0.789181
O O2 0.570223 0.657171 0.772821
O O3 0.407104 0.826408 0.780559
O O4 0.412202 0.670746 0.971783
O O5 0.090939 0.261138 0.492540
O O6 0.081445 0.333939 0.293143
O O7 0.919596 0.398340 0.496208
O O8 0.957579 0.077140 0.432151
O O9 0.676838 0.401317 0.357584
O O10 0.723369 0.727745 0.277272
O O11 0.793833 0.462614 0.129678
O O12 0.738014 0.948414 0.095874
O O13 0.840443 0.920975 0.864354
O O14 0.292244 0.549701 0.185514
O O15 0.783294 0.275441 0.951350
O O16 0.791235 0.604325 0.931117
#
# Coordination Sequence:
#
# PCOD8126870 Si02
#       8
#     4   4   4   4   4   4   4   4
#     4  10  23  42  69 101 137 182 233 289 351 420
#     4  11  24  43  65  94 131 179 232 286 347 414
#     4  10  23  44  66  97 139 180 228 288 351 417
#     4  11  25  44  66  95 136 180 226 285 351 413
#     4  11  23  43  68 100 141 182 232 290 350 418
#     4  11  24  40  66 100 134 177 234 289 342 413
#     4  10  21  43  70  95 132 182 227 283 351 414
#     4  12  24  39  64  96 133 176 226 283 343 407
#
# _framework density 26.286787
#
# number of rings (size 3 to 8) (size 9 to 14) (size 15 to 20)
#    0.000    1.250    0.000    6.375    0.000   10.000 
#    0.000    8.125    0.000    0.000    0.000    0.000 
#    0.000    0.000    0.000    0.000    0.000    0.000 
#
# Total GULP energy -396702.012907 kJ/mol
# GULP energy per Si atom -12396.937903 kJ/mol
# Density = 2.622696 g / cm^3
# Si number density = 26.286787 Si / 1000 Ang^3
#
#
#
# Elastic Constant Matrix: (Units=GPa)
#
#
# Indices 1 2 3 4 5 6 
#
# 1 168.2552 16.6595 59.0102 0.0000 -17.5679 0.0000
# 2 16.6595 45.1670 14.4230 0.0000 -1.9171 0.0000
# 3 59.0102 14.4230 148.3260 0.0000 -4.4056 0.0000
# 4 0.0000 0.0000 0.0000 38.9426 0.0000 4.0834
# 5 -17.5679 -1.9171 -4.4056 0.0000 40.1517 0.0000
# 6 0.0000 0.0000 0.0000 4.0834 0.0000 40.6262
#
#
#
# Elastic Compliance Matrix: (Units=1/GPa)
#
#
# Indices 1 2 3 4 5 6 
#
# 1 0.007348 -0.001737 -0.002670 0.000000 0.002839 0.000000
# 2 -0.001737 0.023289 -0.001568 0.000000 0.000180 0.000000
# 3 -0.002670 -0.001568 0.007946 0.000000 -0.000371 0.000000
# 4 0.000000 0.000000 0.000000 0.025952 0.000000 -0.002608
# 5 0.002839 0.000180 -0.000371 0.000000 0.026116 0.000000
# 6 0.000000 0.000000 0.000000 -0.002608 0.000000 0.024877
#
#
# Mechanical properties :
#
#
# Convention : Reuss Voigt Hill
#
# Bulk Modulus (GPa) = 37.54865 60.21485 48.88175
# Shear Modulus (GPa) = 36.66860 42.05446 39.36153
#
# Velocity S-wave (km/s) = 3.73895 4.00413 3.87381
# Velocity P-wave (km/s) = 5.74063 6.65838 6.21647
#
# Compressibility (1/GPa) = 0.02663211
#
# Stress axis : x y z
#
# Youngs Moduli (GPa) = 136.08596 42.93835 125.85466
#
# Poissons Ratio (x) = 0.07459 0.33606
# Poissons Ratio (y) = 0.23641 0.19736
# Poissons Ratio (z) = 0.36338 0.06733
#
# Static dielectric constant tensor:
#      x y z
#    x 5.104190 0.000000 0.376860 
#    y 0.000000 5.161820 0.000000 
#    z 0.376860 0.000000 4.542060 
# 
# 
# High freq. dielectric constant tensor:
#      x y z
#    x 2.070510 0.000000 0.019210 
#    y 0.000000 2.074100 0.000000 
#    z 0.019210 0.000000 2.049080 
# 
# From -- ./inp_files/31794.got.cif
#   From: 2010.03.12/outbox.cif.g09.slc.cpg/sg14_16_cif.got.tgz:31794.got - 2010.03.31 13:35:05.
