data_PCOD8126648
_publ_section_title
;
Structure prediction by ZEFSAII (Michael W. Deem and Ramdas Pophale) SiO2 
 PCOD8126648
Probable space group: P 21/C
;
_chemical_formula_sum "Si O2"
_cell_formula_units_Z 32
_cell_length_a 30.117985
_cell_length_b 9.478364
_cell_length_c 17.844653
_cell_angle_alpha 90.000000
_cell_angle_beta 17.702160
_cell_angle_gamma 90.000000
_cell_volume 1548.957541
_symmetry_space_group_name_H-M "P 21/C"
_symmetry_group_IT_number 14
_symmetry_cell_setting 'monoclinic'
loop_
_space_group_symop_operation_xyz
x,y,z
-x,1/2+y,1/2-z
-x,-y,-z
x,1/2-y,1/2+z
loop_
_atom_site_type_symbol
_atom_site_label
_atom_site_fract_x
_atom_site_fract_y
_atom_site_fract_z
Si Si1 0.789419 0.412472 0.955413
Si Si2 0.644351 0.782391 0.023820
Si Si3 0.664486 0.615838 0.660680
Si Si4 0.894029 0.809152 0.357783
Si Si5 0.201019 0.901835 0.843069
Si Si6 0.624078 0.322998 0.795382
Si Si7 0.382981 0.539340 0.913245
Si Si8 0.903259 0.789552 0.005828
O O1 0.802678 0.551662 0.984430
O O2 0.938276 0.320974 0.713177
O O3 0.657084 0.322677 0.201505
O O4 0.742046 0.456921 0.948629
O O5 0.803107 0.786730 0.729159
O O6 0.656798 0.848863 0.085891
O O7 0.581710 0.623829 0.127226
O O8 0.532671 0.877614 0.153925
O O9 0.817375 0.669418 0.448869
O O10 0.643469 0.448454 0.703863
O O11 0.538745 0.691374 0.911238
O O12 0.915486 0.808324 0.412961
O O13 0.052073 0.818458 0.063993
O O14 0.262932 0.841890 0.819730
O O15 0.317256 0.879102 0.590549
O O16 0.172332 0.067186 0.899507
#
# Coordination Sequence:
#
# PCOD8126648 Si02
#       8
#     4   4   4   4   4   4   4   4
#     4  11  25  41  66  96 127 167 214 265 315 380
#     4  11  25  43  64  94 131 167 212 264 321 374
#     4  11  24  41  65  91 125 170 208 256 319 382
#     4  11  22  41  65  94 123 163 213 264 311 374
#     4  10  21  41  66  89 127 170 210 255 321 381
#     4  11  23  41  65  92 127 168 215 255 318 382
#     4  11  25  43  65  93 130 172 211 261 321 381
#     4  10  23  41  66  93 129 164 209 267 319 371
#
# _framework density 20.659056
#
# number of rings (size 3 to 8) (size 9 to 14) (size 15 to 20)
#    0.000    1.250    5.000    0.000    5.250    3.000 
#    0.000    0.625    0.000    0.000    0.000    0.000 
#    0.000    0.000    0.000    0.000    0.000    0.000 
#
# Total GULP energy -396905.088971 kJ/mol
# GULP energy per Si atom -12403.284030 kJ/mol
# Density = 2.061203 g / cm^3
# Si number density = 20.659056 Si / 1000 Ang^3
#
#
#
# Elastic Constant Matrix: (Units=GPa)
#
#
# Indices 1 2 3 4 5 6 
#
# 1 88.3791 29.2205 25.6147 0.0000 -2.0915 0.0000
# 2 29.2205 36.7714 12.7149 0.0000 -0.1589 0.0000
# 3 25.6147 12.7149 56.5811 0.0000 -2.7486 0.0000
# 4 0.0000 0.0000 0.0000 35.8628 0.0000 -2.4674
# 5 -2.0915 -0.1589 -2.7486 0.0000 31.3364 0.0000
# 6 0.0000 0.0000 0.0000 -2.4674 0.0000 30.8811
#
#
#
# Elastic Compliance Matrix: (Units=1/GPa)
#
#
# Indices 1 2 3 4 5 6 
#
# 1 0.016528 -0.011443 -0.004881 0.000000 0.000617 0.000000
# 2 -0.011443 0.037415 -0.003269 0.000000 -0.000861 0.000000
# 3 -0.004881 -0.003269 0.020689 0.000000 0.001472 0.000000
# 4 0.000000 0.000000 0.000000 0.028038 0.000000 0.002240
# 5 0.000617 -0.000861 0.001472 0.000000 0.032078 0.000000
# 6 0.000000 0.000000 0.000000 0.002240 0.000000 0.032561
#
#
# Mechanical properties :
#
#
# Convention : Reuss Voigt Hill
#
# Bulk Modulus (GPa) = 28.21214 35.20355 31.70784
# Shear Modulus (GPa) = 22.90309 27.22815 25.06562
#
# Velocity S-wave (km/s) = 3.33321 3.63433 3.48702
# Velocity P-wave (km/s) = 5.33849 5.88969 5.62085
#
# Compressibility (1/GPa) = 0.03544573
#
# Stress axis : x y z
#
# Youngs Moduli (GPa) = 60.50521 26.72705 48.33380
#
# Poissons Ratio (x) = 0.30585 0.23590
# Poissons Ratio (y) = 0.69238 0.15802
# Poissons Ratio (z) = 0.29530 0.08738
#
# Static dielectric constant tensor:
#      x y z
#    x 3.691060 0.000000 -0.045880 
#    y 0.000000 3.669140 0.000000 
#    z -0.045880 0.000000 3.862050 
# 
# 
# High freq. dielectric constant tensor:
#      x y z
#    x 1.813050 0.000000 -0.007400 
#    y 0.000000 1.799680 0.000000 
#    z -0.007400 0.000000 1.814290 
# 
# From -- ./inp_files/62646.got.cif
#   From: 2010.03.12/outbox.cif.g09.slc.cpg/sg14_32_cif.got.tgz:62646.got - 2010.03.31 13:35:05.
