data_PCOD8126951
_publ_section_title
;
Structure prediction by ZEFSAII (Michael W. Deem and Ramdas Pophale) SiO2 
 PCOD8126951
Probable space group: P 21/C
;
_chemical_formula_sum "Si O2"
_cell_formula_units_Z 28
_cell_length_a 4.981762
_cell_length_b 16.733907
_cell_length_c 15.880494
_cell_angle_alpha 90.000000
_cell_angle_beta 88.698079
_cell_angle_gamma 90.000000
_cell_volume 1323.525174
_symmetry_space_group_name_H-M "P 21/C"
_symmetry_group_IT_number 14
_symmetry_cell_setting 'monoclinic'
loop_
_space_group_symop_operation_xyz
x,y,z
-x,1/2+y,1/2-z
-x,-y,-z
x,1/2-y,1/2+z
loop_
_atom_site_type_symbol
_atom_site_label
_atom_site_fract_x
_atom_site_fract_y
_atom_site_fract_z
Si Si1 0.227681 0.121027 0.371503
Si Si2 0.065132 0.819601 0.252056
Si Si3 0.438191 0.710104 0.462914
Si Si4 0.017554 0.457104 0.120781
Si Si5 0.427326 0.285644 0.716640
Si Si6 0.069298 0.290650 0.429337
Si Si7 0.465905 0.895373 0.467035
O O1 0.384260 0.145638 0.285969
O O2 0.451999 0.093191 0.436749
O O3 0.057547 0.195637 0.409826
O O4 0.022542 0.049313 0.352819
O O5 0.081618 0.903130 0.300486
O O6 0.351732 0.776017 0.250165
O O7 0.978739 0.838596 0.156461
O O8 0.849422 0.761699 0.297829
O O9 0.488822 0.670105 0.371278
O O10 0.148398 0.686538 0.499179
O O11 0.456760 0.803579 0.440640
O O12 0.646910 0.683883 0.533304
O O13 0.828001 0.435171 0.041637
O O14 0.325180 0.440431 0.095798
#
# Coordination Sequence:
#
# PCOD8126951 Si02
#       7
#     4   4   4   4   4   4   4
#     4  10  24  37  56  86 116 150 182 232 276 339
#     4  11  20  38  56  82 110 150 187 232 269 339
#     4  11  19  37  58  81 108 149 186 233 271 325
#     4  12  22  36  57  82 119 149 181 223 284 335
#     4  11  22  38  57  80 113 146 194 228 276 325
#     4  10  22  35  57  81 112 142 192 228 279 322
#     4  11  21  35  55  82 118 148 181 218 281 345
#
# _framework density 21.155622000000001
#
# number of rings (size 3 to 8) (size 9 to 14) (size 15 to 20)
#    0.000    1.143    2.857    6.000    0.000    5.714 
#    0.000    0.000    0.000    1.714    0.000    0.000 
#    0.000    0.000    0.000    0.000    0.000    0.000 
#
# Total GULP energy -347317.048344 kJ/mol
# GULP energy per Si atom -12404.180298 kJ/mol
# Density = 2.110747 g / cm^3
# Si number density = 21.155622 Si / 1000 Ang^3
#
#
#
# Elastic Constant Matrix: (Units=GPa)
#
#
# Indices 1 2 3 4 5 6 
#
# 1 75.6236 3.0031 -8.7330 0.0000 2.4211 0.0000
# 2 3.0031 39.1011 12.1736 0.0000 1.1909 0.0000
# 3 -8.7330 12.1736 87.2741 0.0000 2.8814 0.0000
# 4 0.0000 0.0000 0.0000 14.2365 0.0000 -8.4478
# 5 2.4211 1.1909 2.8814 0.0000 23.7266 0.0000
# 6 0.0000 0.0000 0.0000 -8.4478 0.0000 17.3529
#
#
#
# Elastic Compliance Matrix: (Units=1/GPa)
#
#
# Indices 1 2 3 4 5 6 
#
# 1 0.013517 -0.001494 0.001610 0.000000 -0.001500 0.000000
# 2 -0.001494 0.026920 -0.003880 0.000000 -0.000727 0.000000
# 3 0.001610 -0.003880 0.012209 0.000000 -0.001452 0.000000
# 4 0.000000 0.000000 0.000000 0.098776 0.000000 0.048087
# 5 -0.001500 -0.000727 -0.001452 0.000000 0.042513 0.000000
# 6 0.000000 0.000000 0.000000 0.048087 0.000000 0.081037
#
#
# Mechanical properties :
#
#
# Convention : Reuss Voigt Hill
#
# Bulk Modulus (GPa) = 22.16445 23.87625 23.02035
# Shear Modulus (GPa) = 16.80458 24.10019 20.45238
#
# Velocity S-wave (km/s) = 2.82145 3.37884 3.11265
# Velocity P-wave (km/s) = 4.59496 5.15098 4.88090
#
# Compressibility (1/GPa) = 0.04511729
#
# Stress axis : x y z
#
# Youngs Moduli (GPa) = 73.98254 37.14742 81.91002
#
# Poissons Ratio (x) = 0.05549 -0.13191
# Poissons Ratio (y) = 0.11052 0.31785
# Poissons Ratio (z) = -0.11914 0.14415
#
# Static dielectric constant tensor:
#      x y z
#    x 3.920400 0.000000 0.044680 
#    y 0.000000 3.504820 0.000000 
#    z 0.044680 0.000000 3.959250 
# 
# 
# High freq. dielectric constant tensor:
#      x y z
#    x 1.847130 0.000000 -0.002620 
#    y 0.000000 1.775520 0.000000 
#    z -0.002620 0.000000 1.838070 
# 
# From -- ./inp_files/37555.got.cif
#   From: 2010.03.12/outbox.cif.g09.slc.cpg/sg14_19_cif.got.tgz:37555.got - 2010.03.31 13:35:05.
