data_PCOD8126678
_publ_section_title
;
Structure prediction by ZEFSAII (Michael W. Deem and Ramdas Pophale) SiO2 
 PCOD8126678
Probable space group: P 21/C
;
_chemical_formula_sum "Si O2"
_cell_formula_units_Z 24
_cell_length_a 11.072498
_cell_length_b 5.436257
_cell_length_c 17.187582
_cell_angle_alpha 90.000000
_cell_angle_beta 92.689047
_cell_angle_gamma 90.000000
_cell_volume 1033.431968
_symmetry_space_group_name_H-M "P 21/C"
_symmetry_group_IT_number 14
_symmetry_cell_setting 'monoclinic'
loop_
_space_group_symop_operation_xyz
x,y,z
-x,1/2+y,1/2-z
-x,-y,-z
x,1/2-y,1/2+z
loop_
_atom_site_type_symbol
_atom_site_label
_atom_site_fract_x
_atom_site_fract_y
_atom_site_fract_z
Si Si1 0.938087 0.956677 0.397744
Si Si2 0.372400 0.103588 0.327782
Si Si3 0.384121 0.821284 0.173634
Si Si4 0.795697 0.985941 0.249030
Si Si5 0.804606 0.285484 0.100414
Si Si6 0.813786 0.036869 0.945701
O O1 0.910889 0.914757 0.305182
O O2 0.883142 0.721393 0.441729
O O3 0.081411 0.956529 0.419515
O O4 0.891434 0.224556 0.422276
O O5 0.419581 0.963042 0.253004
O O6 0.322293 0.932017 0.395747
O O7 0.488293 0.251768 0.363431
O O8 0.255424 0.257243 0.299530
O O9 0.306711 0.582414 0.194491
O O10 0.307407 0.983977 0.110309
O O11 0.837574 0.182343 0.186559
O O12 0.780585 0.075064 0.035403
#
# Coordination Sequence:
#
# PCOD8126678 Si02
#       6
#     4   4   4   4   4   4
#     4  11  25  45  70  95 139 181 225 268 346 413
#     4  11  21  40  64  97 128 176 229 282 326 404
#     4  10  21  41  68  91 130 178 230 269 341 401
#     4  10  23  39  66  94 126 172 224 275 321 400
#     4  11  27  39  67 102 136 171 226 286 343 395
#     4  11  25  46  68 100 135 184 217 279 346 414
#
# _framework density 23.223590999999999
#
# number of rings (size 3 to 8) (size 9 to 14) (size 15 to 20)
#    0.000    1.333    3.333    1.000    7.000    0.667 
#    0.000    0.833    0.000    0.000    0.000    0.000 
#    0.000    0.000    0.000    0.000    0.000    0.000 
#
# Total GULP energy -297531.822801 kJ/mol
# GULP energy per Si atom -12397.159283 kJ/mol
# Density = 2.317073 g / cm^3
# Si number density = 23.223591 Si / 1000 Ang^3
#
#
#
# Elastic Constant Matrix: (Units=GPa)
#
#
# Indices 1 2 3 4 5 6 
#
# 1 98.1717 5.7201 18.9666 0.0000 2.8291 0.0000
# 2 5.7201 68.2034 -10.8000 0.0000 -4.7252 0.0000
# 3 18.9666 -10.8000 61.1421 0.0000 6.1915 0.0000
# 4 0.0000 0.0000 0.0000 22.1594 0.0000 11.2441
# 5 2.8291 -4.7252 6.1915 0.0000 17.7832 0.0000
# 6 0.0000 0.0000 0.0000 11.2441 0.0000 23.1034
#
#
#
# Elastic Compliance Matrix: (Units=1/GPa)
#
#
# Indices 1 2 3 4 5 6 
#
# 1 0.010997 -0.001555 -0.003594 0.000000 -0.000911 0.000000
# 2 -0.001555 0.015481 0.002877 0.000000 0.003359 0.000000
# 3 -0.003594 0.002877 0.018495 0.000000 -0.005103 0.000000
# 4 0.000000 0.000000 0.000000 0.059927 0.000000 -0.029165
# 5 -0.000911 0.003359 -0.005103 0.000000 0.059047 0.000000
# 6 0.000000 0.000000 0.000000 -0.029165 0.000000 0.057478
#
#
# Mechanical properties :
#
#
# Convention : Reuss Voigt Hill
#
# Bulk Modulus (GPa) = 24.73440 28.36562 26.55001
# Shear Modulus (GPa) = 20.88163 26.85124 23.86644
#
# Velocity S-wave (km/s) = 3.00185 3.40399 3.20922
# Velocity P-wave (km/s) = 4.76324 5.26215 5.01890
#
# Compressibility (1/GPa) = 0.04042953
#
# Stress axis : x y z
#
# Youngs Moduli (GPa) = 90.93070 64.59689 54.06855
#
# Poissons Ratio (x) = 0.10042 0.19431
# Poissons Ratio (y) = 0.14136 -0.15553
# Poissons Ratio (z) = 0.32678 -0.18582
#
# Static dielectric constant tensor:
#      x y z
#    x 4.076480 0.000000 0.170150 
#    y 0.000000 4.113710 0.000000 
#    z 0.170150 0.000000 4.436100 
# 
# 
# High freq. dielectric constant tensor:
#      x y z
#    x 1.912500 0.000000 0.007250 
#    y 0.000000 1.914860 0.000000 
#    z 0.007250 0.000000 1.914330 
# 
# From -- ./inp_files/56584.got.cif
#   From: 2010.03.12/outbox.cif.g09.slc.cpg/sg14_29_cif.got.tgz:56584.got - 2010.03.31 13:35:05.
