data_PCOD8126572
_publ_section_title
;
Structure prediction by ZEFSAII (Michael W. Deem and Ramdas Pophale) SiO2 
 PCOD8126572
Probable space group: P 21/C
;
_chemical_formula_sum "Si O2"
_cell_formula_units_Z 24
_cell_length_a 11.532134
_cell_length_b 15.306574
_cell_length_c 11.718468
_cell_angle_alpha 90.000000
_cell_angle_beta 34.875938
_cell_angle_gamma 90.000000
_cell_volume 1182.779317
_symmetry_space_group_name_H-M "P 21/C"
_symmetry_group_IT_number 14
_symmetry_cell_setting 'monoclinic'
loop_
_space_group_symop_operation_xyz
x,y,z
-x,1/2+y,1/2-z
-x,-y,-z
x,1/2-y,1/2+z
loop_
_atom_site_type_symbol
_atom_site_label
_atom_site_fract_x
_atom_site_fract_y
_atom_site_fract_z
Si Si1 0.218556 0.931706 0.422789
Si Si2 0.759395 0.929664 0.791491
Si Si3 0.778850 0.078533 0.944113
Si Si4 0.777977 0.984634 0.351306
Si Si5 0.383712 0.614696 0.182150
Si Si6 0.388880 0.811647 0.111541
O O1 0.303235 0.957616 0.477476
O O2 0.340715 0.850157 0.275121
O O3 0.987849 0.898814 0.626499
O O4 0.243005 0.016032 0.323111
O O5 0.687343 0.991441 0.956401
O O6 0.615103 0.845088 0.896037
O O7 0.771586 0.154710 0.854129
O O8 0.645533 0.110243 0.158149
O O9 0.009168 0.061914 0.796444
O O10 0.783625 0.049484 0.237960
O O11 0.611646 0.910526 0.463502
O O12 0.360349 0.709245 0.145509
#
# Coordination Sequence:
#
# PCOD8126572 Si02
#       6
#     4   4   4   4   4   4
#     4   9  18  36  64  84 115 153 192 235 291 348
#     4   9  18  36  63  89 112 152 193 240 292 342
#     4  10  21  41  62  82 118 157 194 235 290 351
#     4  10  22  42  60  80 119 165 188 225 297 365
#     4  11  24  38  58  86 122 155 191 238 291 348
#     4  11  22  35  61  94 116 145 198 256 283 332
#
# _framework density 20.291188999999999
#
# number of rings (size 3 to 8) (size 9 to 14) (size 15 to 20)
#    0.000    2.000    0.000    5.500    2.333    1.333 
#    3.000    0.000    0.000    0.000    0.000    0.000 
#    0.000    0.000    0.000    0.000    0.000    0.000 
#
# Total GULP energy -297544.214834 kJ/mol
# GULP energy per Si atom -12397.675618 kJ/mol
# Density = 2.024501 g / cm^3
# Si number density = 20.291189 Si / 1000 Ang^3
#
#
#
# Elastic Constant Matrix: (Units=GPa)
#
#
# Indices 1 2 3 4 5 6 
#
# 1 84.1973 31.5344 15.7531 0.0000 1.3049 0.0000
# 2 31.5344 97.1110 39.0898 0.0000 -4.5926 0.0000
# 3 15.7531 39.0898 68.3091 0.0000 5.0261 0.0000
# 4 0.0000 0.0000 0.0000 15.1497 0.0000 0.5265
# 5 1.3049 -4.5926 5.0261 0.0000 33.6251 0.0000
# 6 0.0000 0.0000 0.0000 0.5265 0.0000 20.0387
#
#
#
# Elastic Compliance Matrix: (Units=1/GPa)
#
#
# Indices 1 2 3 4 5 6 
#
# 1 0.013586 -0.004194 -0.000660 0.000000 -0.001001 0.000000
# 2 -0.004194 0.014981 -0.007855 0.000000 0.003383 0.000000
# 3 -0.000660 -0.007855 0.019579 0.000000 -0.003974 0.000000
# 4 0.000000 0.000000 0.000000 0.066068 0.000000 -0.001736
# 5 -0.001001 0.003383 -0.003974 0.000000 0.030835 0.000000
# 6 0.000000 0.000000 0.000000 -0.001736 0.000000 0.049949
#
#
# Mechanical properties :
#
#
# Convention : Reuss Voigt Hill
#
# Bulk Modulus (GPa) = 43.99465 46.93021 45.46243
# Shear Modulus (GPa) = 21.93070 24.64537 23.28803
#
# Velocity S-wave (km/s) = 3.29112 3.48887 3.39144
# Velocity P-wave (km/s) = 6.01420 6.27760 6.14731
#
# Compressibility (1/GPa) = 0.02273004
#
# Stress axis : x y z
#
# Youngs Moduli (GPa) = 73.60260 66.75140 51.07605
#
# Poissons Ratio (x) = 0.27993 0.03370
# Poissons Ratio (y) = 0.30867 0.40118
# Poissons Ratio (z) = 0.04856 0.52431
#
# Static dielectric constant tensor:
#      x y z
#    x 3.799220 0.000000 0.087070 
#    y 0.000000 3.355970 0.000000 
#    z 0.087070 0.000000 3.716360 
# 
# 
# High freq. dielectric constant tensor:
#      x y z
#    x 1.802330 0.000000 0.003430 
#    y 0.000000 1.762630 0.000000 
#    z 0.003430 0.000000 1.795470 
# 
# From -- ./inp_files/29714.got.cif
#   From: 2010.03.12/outbox.cif.g09.slc.cpg/sg14_15_cif.got.tgz:29714.got - 2010.03.31 13:35:05.
