data_PCOD8126915
_publ_section_title
;
Structure prediction by ZEFSAII (Michael W. Deem and Ramdas Pophale) SiO2 
 PCOD8126915
Probable space group: P 21/C
;
_chemical_formula_sum "Si O2"
_cell_formula_units_Z 32
_cell_length_a 22.500826
_cell_length_b 9.199539
_cell_length_c 14.876009
_cell_angle_alpha 90.000000
_cell_angle_beta 29.292067
_cell_angle_gamma 90.000000
_cell_volume 1506.579942
_symmetry_space_group_name_H-M "P 21/C"
_symmetry_group_IT_number 14
_symmetry_cell_setting 'monoclinic'
loop_
_space_group_symop_operation_xyz
x,y,z
-x,1/2+y,1/2-z
-x,-y,-z
x,1/2-y,1/2+z
loop_
_atom_site_type_symbol
_atom_site_label
_atom_site_fract_x
_atom_site_fract_y
_atom_site_fract_z
Si Si1 0.096746 0.716539 0.027285
Si Si2 0.909656 0.378671 0.155180
Si Si3 0.026468 0.092320 0.677245
Si Si4 0.363473 0.624241 0.689855
Si Si5 0.561314 0.646337 0.950669
Si Si6 0.699381 0.837718 0.641355
Si Si7 0.367371 0.946761 0.978913
Si Si8 0.583327 0.718813 0.111903
O O1 0.015130 0.579461 0.169957
O O2 0.047300 0.865451 0.135716
O O3 0.096146 0.736865 0.919419
O O4 0.231947 0.690225 0.883420
O O5 0.775692 0.439107 0.356030
O O6 0.968720 0.316870 0.169200
O O7 0.000000 0.500000 0.000000
O O8 0.163652 0.139628 0.510069
O O9 0.458580 0.734905 0.605158
O O10 0.381829 0.471466 0.716219
O O11 0.386285 0.600552 0.555552
O O12 0.626505 0.638276 0.962513
O O13 0.500000 0.500000 0.000000
O O14 0.654386 0.691362 0.749810
O O15 0.681575 0.826140 0.558035
O O16 0.416617 0.107953 0.897175
O O17 0.446781 0.833748 0.815879
#
# Coordination Sequence:
#
# PCOD8126915 Si02
#       8
#     4   4   4   4   4   4   4   4
#     4   9  21  39  65  91 119 165 211 262 321 383
#     4   9  21  41  68  90 126 170 218 254 323 391
#     4  10  22  39  65  94 123 164 219 265 315 383
#     4  10  21  45  63  83 133 175 206 256 338 389
#     4  12  25  40  61  96 133 166 214 272 325 380
#     4  11  23  42  63  91 129 174 213 261 330 395
#     4  11  23  43  68  98 126 174 218 272 321 398
#     4  12  25  38  68  97 131 168 220 267 328 383
#
# _framework density 21.240162000000002
#
# number of rings (size 3 to 8) (size 9 to 14) (size 15 to 20)
#    0.000    1.500    2.500    2.625    5.250    1.000 
#    0.000    0.625    0.000    0.000    0.000    0.000 
#    0.000    0.000    0.000    0.000    0.000    0.000 
#
# Total GULP energy -396732.738437 kJ/mol
# GULP energy per Si atom -12397.898076 kJ/mol
# Density = 2.119182 g / cm^3
# Si number density = 21.240162 Si / 1000 Ang^3
#
#
#
# Elastic Constant Matrix: (Units=GPa)
#
#
# Indices 1 2 3 4 5 6 
#
# 1 143.9482 26.8059 32.7618 0.0000 12.3190 0.0000
# 2 26.8059 70.9733 33.4851 0.0000 3.2846 0.0000
# 3 32.7618 33.4851 74.2343 0.0000 -3.4076 0.0000
# 4 0.0000 0.0000 0.0000 28.5133 0.0000 7.4023
# 5 12.3190 3.2846 -3.4076 0.0000 36.1812 0.0000
# 6 0.0000 0.0000 0.0000 7.4023 0.0000 21.7014
#
#
#
# Elastic Compliance Matrix: (Units=1/GPa)
#
#
# Indices 1 2 3 4 5 6 
#
# 1 0.008176 -0.001507 -0.003063 0.000000 -0.002935 0.000000
# 2 -0.001507 0.018386 -0.007715 0.000000 -0.001883 0.000000
# 3 -0.003063 -0.007715 0.018463 0.000000 0.003482 0.000000
# 4 0.000000 0.000000 0.000000 0.038479 0.000000 -0.013125
# 5 -0.002935 -0.001883 0.003482 0.000000 0.029137 0.000000
# 6 0.000000 0.000000 0.000000 -0.013125 0.000000 0.050557
#
#
# Mechanical properties :
#
#
# Convention : Reuss Voigt Hill
#
# Bulk Modulus (GPa) = 48.88902 52.80681 50.84792
# Shear Modulus (GPa) = 25.69571 30.35272 28.02422
#
# Velocity S-wave (km/s) = 3.48195 3.78435 3.63629
# Velocity P-wave (km/s) = 6.26359 6.63406 6.45148
#
# Compressibility (1/GPa) = 0.02045449
#
# Stress axis : x y z
#
# Youngs Moduli (GPa) = 122.30976 54.38963 54.16364
#
# Poissons Ratio (x) = 0.08196 0.16592
# Poissons Ratio (y) = 0.18430 0.41786
# Poissons Ratio (z) = 0.37468 0.41960
#
# Static dielectric constant tensor:
#      x y z
#    x 4.413400 0.000000 0.019280 
#    y 0.000000 3.811100 0.000000 
#    z 0.019280 0.000000 4.028400 
# 
# 
# High freq. dielectric constant tensor:
#      x y z
#    x 1.853650 0.000000 0.000980 
#    y 0.000000 1.806100 0.000000 
#    z 0.000980 0.000000 1.835180 
# 
# From -- ./inp_files/51361.got.cif
#   From: 2010.03.12/outbox.cif.g09.slc.cpg/sg14_26_cif.got.tgz:51361.got - 2010.03.31 13:35:05.
