data_PCOD8126789
_publ_section_title
;
Structure prediction by ZEFSAII (Michael W. Deem and Ramdas Pophale) SiO2 
 PCOD8126789
Probable space group: P 21/C
;
_chemical_formula_sum "Si O2"
_cell_formula_units_Z 32
_cell_length_a 15.295994
_cell_length_b 13.683433
_cell_length_c 11.908548
_cell_angle_alpha 90.000000
_cell_angle_beta 142.371152
_cell_angle_gamma 90.000000
_cell_volume 1521.768369
_symmetry_space_group_name_H-M "P 21/C"
_symmetry_group_IT_number 14
_symmetry_cell_setting 'monoclinic'
loop_
_space_group_symop_operation_xyz
x,y,z
-x,1/2+y,1/2-z
-x,-y,-z
x,1/2-y,1/2+z
loop_
_atom_site_type_symbol
_atom_site_label
_atom_site_fract_x
_atom_site_fract_y
_atom_site_fract_z
Si Si1 0.172058 0.086981 0.428633
Si Si2 0.636299 0.428557 0.787220
Si Si3 0.162378 0.884604 0.892708
Si Si4 0.362174 0.310848 0.289601
Si Si5 0.662228 0.885828 0.618559
Si Si6 0.648037 0.002459 0.067344
Si Si7 0.652880 0.088513 0.709964
Si Si8 0.647576 0.220279 0.491052
O O1 0.255468 0.171205 0.578744
O O2 0.210663 0.093823 0.337952
O O3 0.005533 0.103381 0.276304
O O4 0.220096 0.980438 0.521612
O O5 0.500433 0.504589 0.656223
O O6 0.652919 0.411564 0.668892
O O7 0.608432 0.330682 0.830662
O O8 0.223648 0.979469 0.888704
O O9 0.224306 0.876860 0.081062
O O10 0.209843 0.785350 0.878095
O O11 0.300924 0.214368 0.283991
O O12 0.348451 0.397097 0.368035
O O13 0.520635 0.292543 0.400473
O O14 0.503492 0.881146 0.400829
O O15 0.660209 0.971590 0.708680
O O16 0.677821 0.136640 0.613143
#
# Coordination Sequence:
#
# PCOD8126789 Si02
#       8
#     4   4   4   4   4   4   4   4
#     4  11  24  45  58  98 138 179 210 269 330 403
#     4  10  21  42  70  92 130 166 225 279 319 375
#     4  12  27  40  66  97 143 176 216 257 338 410
#     4  10  24  40  71  98 128 168 228 278 325 381
#     4  10  21  42  67  97 126 168 225 278 319 379
#     4  10  23  43  68 101 126 174 222 281 321 383
#     4  10  23  42  70  98 126 174 224 276 325 381
#     4  11  23  42  70 101 128 174 225 283 321 384
#
# _framework density 21.028168000000001
#
# number of rings (size 3 to 8) (size 9 to 14) (size 15 to 20)
#    0.000    1.500    1.250    3.750   10.500    3.500 
#    4.500    0.000    0.000    0.000    0.000    0.000 
#    0.000    0.000    0.000    0.000    0.000    0.000 
#
# Total GULP energy -396664.578089 kJ/mol
# GULP energy per Si atom -12395.768065 kJ/mol
# Density = 2.098031 g / cm^3
# Si number density = 21.028168 Si / 1000 Ang^3
#
#
#
# Elastic Constant Matrix: (Units=GPa)
#
#
# Indices 1 2 3 4 5 6 
#
# 1 118.6703 41.8606 53.5440 0.0000 18.7522 0.0000
# 2 41.8606 97.1228 34.5560 0.0000 -4.4287 0.0000
# 3 53.5440 34.5560 82.8299 0.0000 14.6833 0.0000
# 4 0.0000 0.0000 0.0000 24.5423 0.0000 -8.5735
# 5 18.7522 -4.4287 14.6833 0.0000 37.0867 0.0000
# 6 0.0000 0.0000 0.0000 -8.5735 0.0000 33.3927
#
#
#
# Elastic Compliance Matrix: (Units=1/GPa)
#
#
# Indices 1 2 3 4 5 6 
#
# 1 0.013283 -0.003737 -0.006193 0.000000 -0.004711 0.000000
# 2 -0.003737 0.013634 -0.004190 0.000000 0.005176 0.000000
# 3 -0.006193 -0.004190 0.018668 0.000000 -0.004760 0.000000
# 4 0.000000 0.000000 0.000000 0.044761 0.000000 0.011492
# 5 -0.004711 0.005176 -0.004760 0.000000 0.031849 0.000000
# 6 0.000000 0.000000 0.000000 0.011492 0.000000 0.032897
#
#
# Mechanical properties :
#
#
# Convention : Reuss Voigt Hill
#
# Bulk Modulus (GPa) = 57.64968 62.06047 59.85508
# Shear Modulus (GPa) = 26.43934 30.24852 28.34393
#
# Velocity S-wave (km/s) = 3.54973 3.79684 3.67536
# Velocity P-wave (km/s) = 6.65400 6.98559 6.82181
#
# Compressibility (1/GPa) = 0.01734615
#
# Stress axis : x y z
#
# Youngs Moduli (GPa) = 75.28179 73.34838 53.56764
#
# Poissons Ratio (x) = 0.27408 0.33174
# Poissons Ratio (y) = 0.28130 0.22444
# Poissons Ratio (z) = 0.46621 0.30732
#
# Static dielectric constant tensor:
#      x y z
#    x 3.775930 0.000000 -0.185720 
#    y 0.000000 3.851080 0.000000 
#    z -0.185720 0.000000 3.639940 
# 
# 
# High freq. dielectric constant tensor:
#      x y z
#    x 1.822030 0.000000 -0.019320 
#    y 0.000000 1.831400 0.000000 
#    z -0.019320 0.000000 1.805250 
# 
# From -- ./inp_files/32788.got.cif
#   From: 2010.03.12/outbox.cif.g09.slc.cpg/sg14_17_cif.got.tgz:32788.got - 2010.03.31 13:35:05.
