data_PCOD8126654
_publ_section_title
;
Structure prediction by ZEFSAII (Michael W. Deem and Ramdas Pophale) SiO2 
 PCOD8126654
Probable space group: P 21/C
;
_chemical_formula_sum "Si O2"
_cell_formula_units_Z 32
_cell_length_a 8.913143
_cell_length_b 14.856081
_cell_length_c 14.691054
_cell_angle_alpha 90.000000
_cell_angle_beta 41.555743
_cell_angle_gamma 90.000000
_cell_volume 1290.416089
_symmetry_space_group_name_H-M "P 21/C"
_symmetry_group_IT_number 14
_symmetry_cell_setting 'monoclinic'
loop_
_space_group_symop_operation_xyz
x,y,z
-x,1/2+y,1/2-z
-x,-y,-z
x,1/2-y,1/2+z
loop_
_atom_site_type_symbol
_atom_site_label
_atom_site_fract_x
_atom_site_fract_y
_atom_site_fract_z
Si Si1 0.067282 0.516216 0.590626
Si Si2 0.533774 0.237521 0.051128
Si Si3 0.663111 0.106047 0.290996
Si Si4 0.409689 0.691018 0.672703
Si Si5 0.646989 0.068915 0.499605
Si Si6 0.306664 0.358582 0.282004
Si Si7 0.490555 0.574148 0.324675
Si Si8 0.889916 0.473493 0.220130
O O1 0.915498 0.427686 0.656507
O O2 0.942236 0.599587 0.596071
O O3 0.302442 0.495128 0.429585
O O4 0.124159 0.543659 0.666984
O O5 0.474301 0.190645 0.980885
O O6 0.710821 0.322679 0.966984
O O7 0.309618 0.277756 0.205009
O O8 0.629608 0.160251 0.073557
O O9 0.704007 0.211979 0.273128
O O10 0.558631 0.059264 0.432063
O O11 0.478778 0.087050 0.296333
O O12 0.596162 0.676230 0.666199
O O13 0.206061 0.618642 0.780434
O O14 0.460418 0.059549 0.665880
O O15 0.859723 0.004164 0.424374
O O16 0.728175 0.554743 0.263362
#
# Coordination Sequence:
#
# PCOD8126654 Si02
#       8
#     4   4   4   4   4   4   4   4
#     4  11  24  42  68  99 133 183 217 277 332 395
#     4   9  21  41  68  93 137 166 222 270 322 396
#     4  10  21  41  66  94 134 172 229 267 329 397
#     4  11  21  43  65 101 131 175 220 275 331 396
#     4   8  21  44  64  97 131 177 214 273 329 389
#     4  10  22  45  69  92 137 168 224 269 332 399
#     4  12  22  43  68  96 137 175 223 279 327 392
#     4  11  24  40  70  97 140 170 224 273 333 395
#
# _framework density 24.798203999999998
#
# number of rings (size 3 to 8) (size 9 to 14) (size 15 to 20)
#    0.750    1.000    2.500    1.500    0.000    3.500 
#    4.500    1.250    2.750    0.000    0.000    0.000 
#    0.000    0.000    0.000    0.000    0.000    0.000 
#
# Total GULP energy -396422.442956 kJ/mol
# GULP energy per Si atom -12388.201342 kJ/mol
# Density = 2.474176 g / cm^3
# Si number density = 24.798204 Si / 1000 Ang^3
#
#
#
# Elastic Constant Matrix: (Units=GPa)
#
#
# Indices 1 2 3 4 5 6 
#
# 1 134.5089 32.2553 41.5313 0.0000 10.6149 0.0000
# 2 32.2553 83.1251 18.6597 0.0000 13.9782 0.0000
# 3 41.5313 18.6597 80.1540 0.0000 4.7389 0.0000
# 4 0.0000 0.0000 0.0000 23.1071 0.0000 10.0922
# 5 10.6149 13.9782 4.7389 0.0000 41.9149 0.0000
# 6 0.0000 0.0000 0.0000 10.0922 0.0000 26.5503
#
#
#
# Elastic Compliance Matrix: (Units=1/GPa)
#
#
# Indices 1 2 3 4 5 6 
#
# 1 0.009433 -0.002530 -0.004236 0.000000 -0.001066 0.000000
# 2 -0.002530 0.014048 -0.001732 0.000000 -0.003848 0.000000
# 3 -0.004236 -0.001732 0.015077 0.000000 -0.000054 0.000000
# 4 0.000000 0.000000 0.000000 0.051892 0.000000 -0.019725
# 5 -0.001066 -0.003848 -0.000054 0.000000 0.025417 0.000000
# 6 0.000000 0.000000 0.000000 -0.019725 0.000000 0.045162
#
#
# Mechanical properties :
#
#
# Convention : Reuss Voigt Hill
#
# Bulk Modulus (GPa) = 46.37655 53.63116 50.00385
# Shear Modulus (GPa) = 26.99610 32.00390 29.50000
#
# Velocity S-wave (km/s) = 3.30302 3.59635 3.45280
# Velocity P-wave (km/s) = 5.76964 6.23851 6.00865
#
# Compressibility (1/GPa) = 0.02156262
#
# Stress axis : x y z
#
# Youngs Moduli (GPa) = 106.00897 71.18590 66.32613
#
# Poissons Ratio (x) = 0.18012 0.28093
# Poissons Ratio (y) = 0.26823 0.11486
# Poissons Ratio (z) = 0.44902 0.12327
#
# Static dielectric constant tensor:
#      x y z
#    x 4.339860 0.000000 0.483870 
#    y 0.000000 4.871420 0.000000 
#    z 0.483870 0.000000 4.270220 
# 
# 
# High freq. dielectric constant tensor:
#      x y z
#    x 1.977830 0.000000 0.036500 
#    y 0.000000 2.016230 0.000000 
#    z 0.036500 0.000000 1.973010 
# 
# From -- ./inp_files/41681.got.cif
#   From: 2010.03.12/outbox.cif.g09.slc.cpg/sg14_21_cif.got.tgz:41681.got - 2010.03.31 13:35:05.
