data_PCOD8126410
_publ_section_title
;
Structure prediction by ZEFSAII (Michael W. Deem and Ramdas Pophale) SiO2 
 PCOD8126410
Probable space group: P 21/C
;
_chemical_formula_sum "Si O2"
_cell_formula_units_Z 28
_cell_length_a 5.115042
_cell_length_b 23.146919
_cell_length_c 11.746682
_cell_angle_alpha 90.000000
_cell_angle_beta 84.001107
_cell_angle_gamma 90.000000
_cell_volume 1383.161330
_symmetry_space_group_name_H-M "P 21/C"
_symmetry_group_IT_number 14
_symmetry_cell_setting 'monoclinic'
loop_
_space_group_symop_operation_xyz
x,y,z
-x,1/2+y,1/2-z
-x,-y,-z
x,1/2-y,1/2+z
loop_
_atom_site_type_symbol
_atom_site_label
_atom_site_fract_x
_atom_site_fract_y
_atom_site_fract_z
Si Si1 0.824601 0.096126 0.324886
Si Si2 0.716825 0.968963 0.308361
Si Si3 0.793043 0.325358 0.276857
Si Si4 0.850446 0.649808 0.370417
Si Si5 0.816307 0.415160 0.087233
Si Si6 0.731940 0.877813 0.121637
Si Si7 0.357818 0.799910 0.788769
O O1 0.892907 0.096251 0.454114
O O2 0.629319 0.149863 0.308385
O O3 0.090528 0.105563 0.236923
O O4 0.681479 0.037213 0.291941
O O5 0.472038 0.942533 0.387875
O O6 0.762565 0.939033 0.183903
O O7 0.975636 0.960400 0.372569
O O8 0.831986 0.353833 0.150978
O O9 0.568902 0.358865 0.355457
O O10 0.688820 0.260616 0.270357
O O11 0.067962 0.330462 0.333054
O O12 0.784989 0.613067 0.485682
O O13 0.623784 0.696223 0.349673
O O14 0.110436 0.688145 0.383689
#
# Coordination Sequence:
#
# PCOD8126410 Si02
#       7
#     4   4   4   4   4   4   4
#     4  10  24  37  60  87 124 150 198 239 301 343
#     4  10  22  38  61  87 115 154 198 245 292 350
#     4  10  21  41  60  86 114 153 201 238 291 348
#     4  10  23  38  57  87 117 153 193 234 297 347
#     4  10  22  37  62  86 114 156 196 246 295 342
#     4  10  21  40  62  84 116 155 196 241 292 347
#     4  10  23  39  56  91 116 156 195 238 296 346
#
# _framework density 20.243480000000002
#
# number of rings (size 3 to 8) (size 9 to 14) (size 15 to 20)
#    0.857    1.143    0.000    2.571    4.000    2.857 
#    0.000    0.714    0.000    0.000    0.000    0.000 
#    0.000    0.000    0.000    0.000    0.000    0.000 
#
# Total GULP energy -347085.534733 kJ/mol
# GULP energy per Si atom -12395.911955 kJ/mol
# Density = 2.019740 g / cm^3
# Si number density = 20.243480 Si / 1000 Ang^3
#
#
#
# Elastic Constant Matrix: (Units=GPa)
#
#
# Indices 1 2 3 4 5 6 
#
# 1 92.0526 6.2343 21.9679 0.0000 -1.7206 0.0000
# 2 6.2343 113.4007 32.7872 0.0000 3.1326 0.0000
# 3 21.9679 32.7872 125.7675 0.0000 -22.3288 0.0000
# 4 0.0000 0.0000 0.0000 12.6013 0.0000 3.9832
# 5 -1.7206 3.1326 -22.3288 0.0000 21.9178 0.0000
# 6 0.0000 0.0000 0.0000 3.9832 0.0000 19.9251
#
#
#
# Elastic Compliance Matrix: (Units=1/GPa)
#
#
# Indices 1 2 3 4 5 6 
#
# 1 0.011370 0.000066 -0.002254 0.000000 -0.001413 0.000000
# 2 0.000066 0.009962 -0.003492 0.000000 -0.004976 0.000000
# 3 -0.002254 -0.003492 0.011369 0.000000 0.011904 0.000000
# 4 0.000000 0.000000 0.000000 0.084710 0.000000 -0.016934
# 5 -0.001413 -0.004976 0.011904 0.000000 0.058353 0.000000
# 6 0.000000 0.000000 0.000000 -0.016934 0.000000 0.053573
#
#
# Mechanical properties :
#
#
# Convention : Reuss Voigt Hill
#
# Bulk Modulus (GPa) = 46.86000 50.35549 48.60774
# Shear Modulus (GPa) = 20.17672 28.90427 24.54050
#
# Velocity S-wave (km/s) = 3.16048 3.78276 3.48554
# Velocity P-wave (km/s) = 6.04290 6.63385 6.34526
#
# Compressibility (1/GPa) = 0.02134016
#
# Stress axis : x y z
#
# Youngs Moduli (GPa) = 87.94756 100.38405 87.96107
#
# Poissons Ratio (x) = -0.00659 0.19827
# Poissons Ratio (y) = -0.00577 0.30715
# Poissons Ratio (z) = 0.19824 0.35053
#
# Static dielectric constant tensor:
#      x y z
#    x 3.748950 0.000000 -0.056900 
#    y 0.000000 3.502180 0.000000 
#    z -0.056900 0.000000 3.498510 
# 
# 
# High freq. dielectric constant tensor:
#      x y z
#    x 1.801700 0.000000 -0.003230 
#    y 0.000000 1.777190 0.000000 
#    z -0.003230 0.000000 1.781720 
# 
# From -- ./inp_files/21992.got.cif
#   From: 2010.03.12/outbox.cif.g09.slc.cpg/sg14_11_cif.got.tgz:21992.got - 2010.03.31 13:35:05.
