data_PCOD8126460
_publ_section_title
;
Structure prediction by ZEFSAII (Michael W. Deem and Ramdas Pophale) SiO2 
 PCOD8126460
Probable space group: P 21/C
;
_chemical_formula_sum "Si O2"
_cell_formula_units_Z 20
_cell_length_a 5.094693
_cell_length_b 9.022922
_cell_length_c 19.473209
_cell_angle_alpha 90.000000
_cell_angle_beta 105.135877
_cell_angle_gamma 90.000000
_cell_volume 864.110429
_symmetry_space_group_name_H-M "P 21/C"
_symmetry_group_IT_number 14
_symmetry_cell_setting 'monoclinic'
loop_
_space_group_symop_operation_xyz
x,y,z
-x,1/2+y,1/2-z
-x,-y,-z
x,1/2-y,1/2+z
loop_
_atom_site_type_symbol
_atom_site_label
_atom_site_fract_x
_atom_site_fract_y
_atom_site_fract_z
Si Si1 0.712104 0.172390 0.642914
Si Si2 0.960361 0.603288 0.710081
Si Si3 0.750403 0.104540 0.499908
Si Si4 0.539463 0.601005 0.290112
Si Si5 0.573406 0.829260 0.643208
O O1 0.808641 0.206981 0.571223
O O2 0.458481 0.278684 0.647129
O O3 0.946740 0.197391 0.716033
O O4 0.640586 0.000994 0.642199
O O5 0.718218 0.501045 0.717698
O O6 0.836907 0.724030 0.647534
O O7 0.191167 0.501263 0.690610
O O8 0.665889 0.206431 0.428407
O O9 0.500000 0.000000 0.500000
O O10 0.000000 0.000000 0.500000
O O11 0.485290 0.695793 0.216409
#
# Coordination Sequence:
#
# PCOD8126460 Si02
#       5
#     4   4   4   4   4
#     4  10  21  40  64  91 123 168 217 267 323 389
#     4  11  23  38  61  93 127 164 214 272 327 387
#     4  10  22  38  62  94 126 164 215 270 320 380
#     4  11  23  38  61  93 127 164 214 272 327 387
#     4  10  21  40  64  91 123 168 217 267 323 389
#
# _framework density 23.145188999999998
#
# number of rings (size 3 to 8) (size 9 to 14) (size 15 to 20)
#    0.000    1.600    0.000    6.000    0.000    9.600 
#    0.000    2.000    0.000    0.000    0.000    1.400 
#    0.000    0.000    0.000    0.000    0.000    0.000 
#
# Total GULP energy -247774.685057 kJ/mol
# GULP energy per Si atom -12388.734253 kJ/mol
# Density = 2.309251 g / cm^3
# Si number density = 23.145189 Si / 1000 Ang^3
#
#
#
# Elastic Constant Matrix: (Units=GPa)
#
#
# Indices 1 2 3 4 5 6 
#
# 1 158.7557 57.6540 63.6755 0.0000 2.7863 0.0000
# 2 57.6540 115.9417 61.7690 0.0000 1.0792 0.0000
# 3 63.6755 61.7690 181.3502 0.0000 -0.8021 0.0000
# 4 0.0000 0.0000 0.0000 -0.4182 0.0000 0.9182
# 5 2.7863 1.0792 -0.8021 0.0000 14.5437 0.0000
# 6 0.0000 0.0000 0.0000 0.9182 0.0000 46.5980
#
#
#
# Elastic Compliance Matrix: (Units=1/GPa)
#
#
# Indices 1 2 3 4 5 6 
#
# 1 0.008175 -0.003078 -0.001829 0.000000 -0.001439 0.000000
# 2 -0.003078 0.011710 -0.002910 0.000000 -0.000440 0.000000
# 3 -0.001829 -0.002910 0.007152 0.000000 0.000961 0.000000
# 4 0.000000 0.000000 0.000000 -2.292168 0.000000 0.045169
# 5 -0.001439 -0.000440 0.000961 0.000000 0.069120 0.000000
# 6 0.000000 0.000000 0.000000 0.045169 0.000000 0.020570
#
#
# Mechanical properties :
#
#
# Convention : Reuss Voigt Hill
#
# Bulk Modulus (GPa) = 87.68393 91.36049 89.52221
# Shear Modulus (GPa) = -2.31910 30.34132 14.01111
#
# Velocity S-wave (km/s) = -1.00208 3.62458 2.46307
# Velocity P-wave (km/s) = 6.05208 7.55482 6.84481
#
# Compressibility (1/GPa) = 0.01140460
#
# Stress axis : x y z
#
# Youngs Moduli (GPa) = 122.31825 85.39892 139.82971
#
# Poissons Ratio (x) = 0.26284 0.25569
# Poissons Ratio (y) = 0.37647 0.40686
# Poissons Ratio (z) = 0.22367 0.24848
#
# Static dielectric constant tensor:
#      x y z
#    x 8.164930 0.000000 0.032220 
#    y 0.000000 4.553590 0.000000 
#    z 0.032220 0.000000 7.322410 
# 
# 
# High freq. dielectric constant tensor:
#      x y z
#    x 1.918030 0.000000 0.000340 
#    y 0.000000 1.906570 0.000000 
#    z 0.000340 0.000000 1.906250 
# 
# From -- ./inp_files/63126.got.cif
#   From: 2010.03.12/outbox.cif.g09.slc.cpg/sg14_32_cif.got.tgz:63126.got - 2010.03.31 13:35:05.
