data_PCOD8126217
_publ_section_title
;
Structure prediction by ZEFSAII (Michael W. Deem and Ramdas Pophale) SiO2 
 PCOD8126217
Probable space group: P 21/C
;
_chemical_formula_sum "Si O2"
_cell_formula_units_Z 20
_cell_length_a 10.673805
_cell_length_b 9.186083
_cell_length_c 9.441726
_cell_angle_alpha 90.000000
_cell_angle_beta 108.357019
_cell_angle_gamma 90.000000
_cell_volume 878.655699
_symmetry_space_group_name_H-M "P 21/C"
_symmetry_group_IT_number 14
_symmetry_cell_setting 'monoclinic'
loop_
_space_group_symop_operation_xyz
x,y,z
-x,1/2+y,1/2-z
-x,-y,-z
x,1/2-y,1/2+z
loop_
_atom_site_type_symbol
_atom_site_label
_atom_site_fract_x
_atom_site_fract_y
_atom_site_fract_z
Si Si1 0.191785 0.321287 0.844308
Si Si2 0.476067 0.290905 0.058517
Si Si3 0.870473 0.081818 0.505955
Si Si4 0.960199 0.834427 0.977285
Si Si5 0.409361 0.585206 0.172702
O O1 0.167052 0.306148 0.668358
O O2 0.334707 0.260784 0.935519
O O3 0.179123 0.494751 0.872539
O O4 0.079467 0.227050 0.883840
O O5 0.473896 0.428098 0.164805
O O6 0.519706 0.150786 0.164123
O O7 0.576516 0.316700 0.964502
O O8 0.747867 0.073860 0.351577
O O9 0.912849 0.249391 0.543303
O O10 0.000000 0.000000 0.500000
O O11 0.000000 0.000000 0.000000
#
# Coordination Sequence:
#
# PCOD8126217 Si02
#       5
#     4   4   4   4   4
#     4  10  21  39  59  86 124 157 196 254 306 359
#     4  10  22  40  61  89 122 160 204 254 310 364
#     4   9  21  39  58  85 123 158 196 247 305 361
#     4  11  22  37  63  89 117 161 207 248 301 364
#     4  10  22  39  62  88 121 160 202 253 308 372
#
# _framework density 22.762043999999999
#
# number of rings (size 3 to 8) (size 9 to 14) (size 15 to 20)
#    0.000    2.000    0.000    2.400    0.000   10.400 
#    0.000    2.000    0.000    0.000    0.000    0.000 
#    0.000    0.000    0.000    0.000    0.000    0.000 
#
# Total GULP energy -247927.562883 kJ/mol
# GULP energy per Si atom -12396.378144 kJ/mol
# Density = 2.271024 g / cm^3
# Si number density = 22.762044 Si / 1000 Ang^3
#
#
#
# Elastic Constant Matrix: (Units=GPa)
#
#
# Indices 1 2 3 4 5 6 
#
# 1 116.0322 24.9530 28.2180 0.0000 22.0428 0.0000
# 2 24.9530 100.1990 18.0715 0.0000 10.3677 0.0000
# 3 28.2180 18.0715 92.7476 0.0000 22.7824 0.0000
# 4 0.0000 0.0000 0.0000 34.9465 0.0000 10.8524
# 5 22.0428 10.3677 22.7824 0.0000 30.8046 0.0000
# 6 0.0000 0.0000 0.0000 10.8524 0.0000 28.7215
#
#
#
# Elastic Compliance Matrix: (Units=1/GPa)
#
#
# Indices 1 2 3 4 5 6 
#
# 1 0.010446 -0.001743 -0.001401 0.000000 -0.005852 0.000000
# 2 -0.001743 0.010786 -0.001205 0.000000 -0.001492 0.000000
# 3 -0.001401 -0.001205 0.013561 0.000000 -0.008621 0.000000
# 4 0.000000 0.000000 0.000000 0.032419 0.000000 -0.012250
# 5 -0.005852 -0.001492 -0.008621 0.000000 0.043528 0.000000
# 6 0.000000 0.000000 0.000000 -0.012250 0.000000 0.039446
#
#
# Mechanical properties :
#
#
# Convention : Reuss Voigt Hill
#
# Bulk Modulus (GPa) = 38.32268 50.16265 44.24266
# Shear Modulus (GPa) = 29.83636 34.74360 32.28998
#
# Velocity S-wave (km/s) = 3.62442 3.91113 3.77050
# Velocity P-wave (km/s) = 5.86413 6.51779 6.19958
#
# Compressibility (1/GPa) = 0.02609421
#
# Stress axis : x y z
#
# Youngs Moduli (GPa) = 95.73483 92.71373 73.74291
#
# Poissons Ratio (x) = 0.16161 0.10331
# Poissons Ratio (y) = 0.16688 0.08885
# Poissons Ratio (z) = 0.13412 0.11170
#
# Static dielectric constant tensor:
#      x y z
#    x 4.482900 0.000000 0.087300 
#    y 0.000000 4.307050 0.000000 
#    z 0.087300 0.000000 3.830910 
# 
# 
# High freq. dielectric constant tensor:
#      x y z
#    x 1.901130 0.000000 0.013270 
#    y 0.000000 1.896080 0.000000 
#    z 0.013270 0.000000 1.881300 
# 
# From -- ./inp_files/11897.got.cif
#   From: 2010.03.12/outbox.cif.g09.slc.cpg/sg14_6_cif.got.tgz:11897.got - 2010.03.31 13:35:05.
