data_PCOD8126892
_publ_section_title
;
Structure prediction by ZEFSAII (Michael W. Deem and Ramdas Pophale) SiO2 
 PCOD8126892
Probable space group: P 21/C
;
_chemical_formula_sum "Si O2"
_cell_formula_units_Z 28
_cell_length_a 5.538477
_cell_length_b 25.750552
_cell_length_c 9.375572
_cell_angle_alpha 90.000000
_cell_angle_beta 73.240421
_cell_angle_gamma 90.000000
_cell_volume 1280.336017
_symmetry_space_group_name_H-M "P 21/C"
_symmetry_group_IT_number 14
_symmetry_cell_setting 'monoclinic'
loop_
_space_group_symop_operation_xyz
x,y,z
-x,1/2+y,1/2-z
-x,-y,-z
x,1/2-y,1/2+z
loop_
_atom_site_type_symbol
_atom_site_label
_atom_site_fract_x
_atom_site_fract_y
_atom_site_fract_z
Si Si1 0.997360 0.391168 0.248683
Si Si2 0.915907 0.442669 0.554816
Si Si3 0.278869 0.858167 0.463589
Si Si4 0.792848 0.809666 0.675381
Si Si5 0.289225 0.289249 0.129415
Si Si6 0.373144 0.054693 0.505017
Si Si7 0.343651 0.084252 0.213821
O O1 0.102675 0.333053 0.219937
O O2 0.910326 0.403370 0.421877
O O3 0.193308 0.436235 0.170654
O O4 0.779404 0.392631 0.166845
O O5 0.620743 0.442452 0.649841
O O6 0.000000 0.500000 0.500000
O O7 0.130566 0.424127 0.629441
O O8 0.428195 0.807292 0.379498
O O9 0.438609 0.896099 0.537277
O O10 0.056285 0.838401 0.601990
O O11 0.703304 0.784599 0.543110
O O12 0.802191 0.764747 0.791036
O O13 0.611434 0.853991 0.771889
O O14 0.227025 0.058147 0.378113
O O15 0.500000 0.000000 0.500000
#
# Coordination Sequence:
#
# PCOD8126892 Si02
#       7
#     4   4   4   4   4   4   4
#     4  10  24  44  66  98 137 187 238 294 347 440
#     4  12  29  46  71 105 149 190 239 296 369 426
#     4  10  21  44  66  96 143 170 251 287 348 432
#     4  11  24  43  67 103 133 187 232 299 354 428
#     4  10  24  42  68  97 137 181 241 286 364 424
#     4  11  23  42  74  99 135 190 235 299 361 427
#     4  12  26  47  71 106 146 183 243 303 352 435
#
# _framework density 21.869260000000001
#
# number of rings (size 3 to 8) (size 9 to 14) (size 15 to 20)
#    0.000    1.143    4.286    2.143    8.000    4.000 
#    0.000    0.000    0.000    0.000    0.000    0.000 
#    0.000    0.000    0.000    0.000    0.000    0.000 
#
# Total GULP energy -346934.591204 kJ/mol
# GULP energy per Si atom -12390.521114 kJ/mol
# Density = 2.181948 g / cm^3
# Si number density = 21.869260 Si / 1000 Ang^3
#
#
#
# Elastic Constant Matrix: (Units=GPa)
#
#
# Indices 1 2 3 4 5 6 
#
# 1 93.4412 5.8710 29.4226 0.0000 10.5657 0.0000
# 2 5.8710 80.9290 57.1123 0.0000 15.6940 0.0000
# 3 29.4226 57.1123 96.5759 0.0000 19.9362 0.0000
# 4 0.0000 0.0000 0.0000 43.7794 0.0000 1.5787
# 5 10.5657 15.6940 19.9362 0.0000 28.7668 0.0000
# 6 0.0000 0.0000 0.0000 1.5787 0.0000 12.5653
#
#
#
# Elastic Compliance Matrix: (Units=1/GPa)
#
#
# Indices 1 2 3 4 5 6 
#
# 1 0.012432 0.003270 -0.005147 0.000000 -0.002783 0.000000
# 2 0.003270 0.022349 -0.013359 0.000000 -0.004135 0.000000
# 3 -0.005147 -0.013359 0.020921 0.000000 -0.005320 0.000000
# 4 0.000000 0.000000 0.000000 0.022946 0.000000 -0.002883
# 5 -0.002783 -0.004135 -0.005320 0.000000 0.041728 0.000000
# 6 0.000000 0.000000 0.000000 -0.002883 0.000000 0.079946
#
#
# Mechanical properties :
#
#
# Convention : Reuss Voigt Hill
#
# Bulk Modulus (GPa) = 39.63530 50.63976 45.13753
# Shear Modulus (GPa) = 20.90276 28.92499 24.91388
#
# Velocity S-wave (km/s) = 3.09496 3.64075 3.37889
# Velocity P-wave (km/s) = 5.56191 6.39369 5.99225
#
# Compressibility (1/GPa) = 0.02523003
#
# Stress axis : x y z
#
# Youngs Moduli (GPa) = 80.43936 44.74516 47.79908
#
# Poissons Ratio (x) = -0.14631 0.24600
# Poissons Ratio (y) = -0.26303 0.63855
# Poissons Ratio (z) = 0.41399 0.59775
#
# Static dielectric constant tensor:
#      x y z
#    x 4.144020 0.000000 0.144710 
#    y 0.000000 3.911010 0.000000 
#    z 0.144710 0.000000 4.063530 
# 
# 
# High freq. dielectric constant tensor:
#      x y z
#    x 1.861070 0.000000 0.007470 
#    y 0.000000 1.862930 0.000000 
#    z 0.007470 0.000000 1.865120 
# 
# From -- ./inp_files/6511.got.cif
#   From: 2010.03.12/outbox.cif.g09.slc.cpg/sg14_4_cif.got.tgz:6511.got - 2010.03.31 13:35:05.
