data_PCOD8126143
_publ_section_title
;
Structure prediction by ZEFSAII (Michael W. Deem and Ramdas Pophale) SiO2 
 PCOD8126143
Probable space group: P 21/C
;
_chemical_formula_sum "Si O2"
_cell_formula_units_Z 28
_cell_length_a 12.769009
_cell_length_b 14.770836
_cell_length_c 15.427334
_cell_angle_alpha 90.000000
_cell_angle_beta 152.566914
_cell_angle_gamma 90.000000
_cell_volume 1340.550068
_symmetry_space_group_name_H-M "P 21/C"
_symmetry_group_IT_number 14
_symmetry_cell_setting 'monoclinic'
loop_
_space_group_symop_operation_xyz
x,y,z
-x,1/2+y,1/2-z
-x,-y,-z
x,1/2-y,1/2+z
loop_
_atom_site_type_symbol
_atom_site_label
_atom_site_fract_x
_atom_site_fract_y
_atom_site_fract_z
Si Si1 0.698168 0.757961 0.017675
Si Si2 0.418685 0.288648 0.251872
Si Si3 0.752674 0.163688 0.788139
Si Si4 0.358405 0.958368 0.151460
Si Si5 0.988678 0.915158 0.177876
Si Si6 0.704202 0.391546 0.942751
Si Si7 0.066577 0.231575 0.637125
O O1 0.731379 0.708898 0.948168
O O2 0.435953 0.743916 0.854921
O O3 0.769451 0.862489 0.056031
O O4 0.856874 0.725368 0.213955
O O5 0.593886 0.372122 0.375104
O O6 0.548536 0.193356 0.356981
O O7 0.273778 0.304510 0.231379
O O8 0.644856 0.071630 0.749218
O O9 0.869287 0.149342 0.782153
O O10 0.946929 0.187098 0.999817
O O11 0.553127 0.033995 0.283436
O O12 0.111134 0.996784 0.942551
O O13 0.171404 0.940488 0.385271
O O14 0.898228 0.353813 0.021814
#
# Coordination Sequence:
#
# PCOD8126143 Si02
#       7
#     4   4   4   4   4   4   4
#     4  10  21  38  62  93 125 161 208 257 299 374
#     4  11  22  43  66  91 128 166 210 260 306 375
#     4  11  21  38  65  93 124 164 209 257 315 368
#     4  11  23  40  60  94 129 159 212 264 300 376
#     4  11  22  39  65  89 128 170 197 267 315 360
#     4  11  23  43  61  92 131 160 210 263 309 368
#     4  11  21  39  66  92 121 173 206 247 323 370
#
# _framework density 20.886949000000001
#
# number of rings (size 3 to 8) (size 9 to 14) (size 15 to 20)
#    0.000    1.143    5.714    1.286    0.000    3.429 
#    0.000    2.857    0.000    0.000    0.000    0.000 
#    0.000    0.000    0.000    0.000    0.000    0.000 
#
# Total GULP energy -346974.307462 kJ/mol
# GULP energy per Si atom -12391.939552 kJ/mol
# Density = 2.083941 g / cm^3
# Si number density = 20.886949 Si / 1000 Ang^3
#
#
#
# Elastic Constant Matrix: (Units=GPa)
#
#
# Indices 1 2 3 4 5 6 
#
# 1 71.9380 4.4232 12.7088 0.0000 7.3968 0.0000
# 2 4.4232 65.3643 19.0133 0.0000 7.8765 0.0000
# 3 12.7088 19.0133 68.6570 0.0000 -2.9810 0.0000
# 4 0.0000 0.0000 0.0000 22.1422 0.0000 5.1541
# 5 7.3968 7.8765 -2.9810 0.0000 36.7905 0.0000
# 6 0.0000 0.0000 0.0000 5.1541 0.0000 18.9619
#
#
#
# Elastic Compliance Matrix: (Units=1/GPa)
#
#
# Indices 1 2 3 4 5 6 
#
# 1 0.014739 0.000250 -0.002939 0.000000 -0.003255 0.000000
# 2 0.000250 0.017236 -0.004999 0.000000 -0.004145 0.000000
# 3 -0.002939 -0.004999 0.016624 0.000000 0.003008 0.000000
# 4 0.000000 0.000000 0.000000 0.048213 0.000000 -0.013105
# 5 -0.003255 -0.004145 0.003008 0.000000 0.028967 0.000000
# 6 0.000000 0.000000 0.000000 -0.013105 0.000000 0.056300
#
#
# Mechanical properties :
#
#
# Convention : Reuss Voigt Hill
#
# Bulk Modulus (GPa) = 30.10016 30.91663 30.50840
# Shear Modulus (GPa) = 23.97741 26.89986 25.43864
#
# Velocity S-wave (km/s) = 3.39183 3.59260 3.49366
# Velocity P-wave (km/s) = 5.45726 5.66066 5.55989
#
# Compressibility (1/GPa) = 0.03322241
#
# Stress axis : x y z
#
# Youngs Moduli (GPa) = 67.84552 58.01911 60.15314
#
# Poissons Ratio (x) = -0.01449 0.17678
# Poissons Ratio (y) = -0.01694 0.30072
# Poissons Ratio (z) = 0.19938 0.29006
#
# Static dielectric constant tensor:
#      x y z
#    x 3.924300 0.000000 0.009080 
#    y 0.000000 3.576190 0.000000 
#    z 0.009080 0.000000 4.040760 
# 
# 
# High freq. dielectric constant tensor:
#      x y z
#    x 1.813160 0.000000 0.002070 
#    y 0.000000 1.794580 0.000000 
#    z 0.002070 0.000000 1.828780 
# 
# From -- ./inp_files/45312.got.cif
#   From: 2010.03.12/outbox.cif.g09.slc.cpg/sg14_23_cif.got.tgz:45312.got - 2010.03.31 13:35:05.
