data_PCOD8126543
_publ_section_title
;
Structure prediction by ZEFSAII (Michael W. Deem and Ramdas Pophale) SiO2 
 PCOD8126543
Probable space group: P 21/C
;
_chemical_formula_sum "Si O2"
_cell_formula_units_Z 28
_cell_length_a 11.889460
_cell_length_b 6.471541
_cell_length_c 30.277052
_cell_angle_alpha 90.000000
_cell_angle_beta 27.462121
_cell_angle_gamma 90.000000
_cell_volume 1074.328334
_symmetry_space_group_name_H-M "P 21/C"
_symmetry_group_IT_number 14
_symmetry_cell_setting 'monoclinic'
loop_
_space_group_symop_operation_xyz
x,y,z
-x,1/2+y,1/2-z
-x,-y,-z
x,1/2-y,1/2+z
loop_
_atom_site_type_symbol
_atom_site_label
_atom_site_fract_x
_atom_site_fract_y
_atom_site_fract_z
Si Si1 0.158831 0.891647 0.544671
Si Si2 0.939882 0.999588 0.323305
Si Si3 0.750762 0.715383 0.547227
Si Si4 0.695779 0.897418 0.658755
Si Si5 0.438463 0.273180 0.648511
Si Si6 0.267684 0.859740 0.870583
Si Si7 0.723299 0.156527 0.312735
O O1 0.374647 0.727487 0.458712
O O2 0.182520 0.959497 0.587068
O O3 0.880277 0.816324 0.633023
O O4 0.189055 0.072854 0.498705
O O5 0.174706 0.136231 0.230228
O O6 0.740671 0.058405 0.355701
O O7 0.021647 0.757646 0.291928
O O8 0.704531 0.726196 0.617093
O O9 0.486575 0.659844 0.616450
O O10 0.985691 0.561278 0.461556
O O11 0.425876 0.923042 0.773205
O O12 0.768145 0.113763 0.612447
O O13 0.589684 0.408004 0.632812
O O14 0.370348 0.032323 0.686235
#
# Coordination Sequence:
#
# PCOD8126543 Si02
#       7
#     4   4   4   4   4   4   4
#     4  10  21  40  69  94 134 182 218 272 343 401
#     4  12  25  46  71 101 128 184 234 269 348 399
#     4  10  22  40  64  99 134 172 220 277 337 397
#     4  11  20  36  64  95 131 174 217 260 341 399
#     4  11  22  45  69  99 141 176 223 284 332 399
#     4  11  21  39  64  95 137 174 214 272 338 400
#     4  11  25  45  69  97 139 173 227 290 323 409
#
# _framework density 26.062795000000001
#
# number of rings (size 3 to 8) (size 9 to 14) (size 15 to 20)
#    0.000    1.143    7.143    0.857    4.000    2.286 
#    2.571    5.000    0.000    0.000    0.000    0.000 
#    0.000    0.000    0.000    0.000    0.000    0.000 
#
# Total GULP energy -346898.163459 kJ/mol
# GULP energy per Si atom -12389.220124 kJ/mol
# Density = 2.600347 g / cm^3
# Si number density = 26.062795 Si / 1000 Ang^3
#
#
#
# Elastic Constant Matrix: (Units=GPa)
#
#
# Indices 1 2 3 4 5 6 
#
# 1 128.5834 21.7812 40.7052 0.0000 1.5323 0.0000
# 2 21.7812 55.4115 7.5999 0.0000 -1.0185 0.0000
# 3 40.7052 7.5999 127.5179 0.0000 10.6353 0.0000
# 4 0.0000 0.0000 0.0000 42.3395 0.0000 -8.3664
# 5 1.5323 -1.0185 10.6353 0.0000 46.3952 0.0000
# 6 0.0000 0.0000 0.0000 -8.3664 0.0000 45.6861
#
#
#
# Elastic Compliance Matrix: (Units=1/GPa)
#
#
# Indices 1 2 3 4 5 6 
#
# 1 0.009196 -0.003231 -0.002765 0.000000 0.000259 0.000000
# 2 -0.003231 0.019351 -0.000169 0.000000 0.000570 0.000000
# 3 -0.002765 -0.000169 0.008897 0.000000 -0.001952 0.000000
# 4 0.000000 0.000000 0.000000 0.024505 0.000000 0.004488
# 5 0.000259 0.000570 -0.001952 0.000000 0.022005 0.000000
# 6 0.000000 0.000000 0.000000 0.004488 0.000000 0.022710
#
#
# Mechanical properties :
#
#
# Convention : Reuss Voigt Hill
#
# Bulk Modulus (GPa) = 39.81808 50.18727 45.00267
# Shear Modulus (GPa) = 39.25655 42.97926 41.11790
#
# Velocity S-wave (km/s) = 3.88523 4.06527 3.97627
# Velocity P-wave (km/s) = 5.95295 6.42910 6.19560
#
# Compressibility (1/GPa) = 0.02511422
#
# Stress axis : x y z
#
# Youngs Moduli (GPa) = 108.73728 51.67803 112.39171
#
# Poissons Ratio (x) = 0.16697 0.31073
# Poissons Ratio (y) = 0.35133 0.01905
# Poissons Ratio (z) = 0.30062 0.00876
#
# Static dielectric constant tensor:
#      x y z
#    x 4.757960 0.000000 -0.637780 
#    y 0.000000 5.010620 0.000000 
#    z -0.637780 0.000000 4.975640 
# 
# 
# High freq. dielectric constant tensor:
#      x y z
#    x 2.036790 0.000000 -0.030740 
#    y 0.000000 2.065950 0.000000 
#    z -0.030740 0.000000 2.052580 
# 
# From -- ./inp_files/79887.got.cif
#   From: 2010.03.12/outbox.cif.g09.slc.cpg/sg14_40_cif.got.tgz:79887.got - 2010.03.31 13:35:05.
