data_PCOD8126072
_publ_section_title
;
Structure prediction by ZEFSAII (Michael W. Deem and Ramdas Pophale) SiO2 
 PCOD8126072
Probable space group: P 21/C
;
_chemical_formula_sum "Si O2"
_cell_formula_units_Z 28
_cell_length_a 16.123303
_cell_length_b 12.780715
_cell_length_c 18.472198
_cell_angle_alpha 90.000000
_cell_angle_beta 158.128003
_cell_angle_gamma 90.000000
_cell_volume 1418.057900
_symmetry_space_group_name_H-M "P 21/C"
_symmetry_group_IT_number 14
_symmetry_cell_setting 'monoclinic'
loop_
_space_group_symop_operation_xyz
x,y,z
-x,1/2+y,1/2-z
-x,-y,-z
x,1/2-y,1/2+z
loop_
_atom_site_type_symbol
_atom_site_label
_atom_site_fract_x
_atom_site_fract_y
_atom_site_fract_z
Si Si1 0.739761 0.892044 0.723225
Si Si2 0.112534 0.886658 0.905468
Si Si3 0.718841 0.373717 0.217392
Si Si4 0.512748 0.552331 0.270224
Si Si5 0.829658 0.697245 0.441697
Si Si6 0.210067 0.130249 0.481942
Si Si7 0.374559 0.749613 0.721579
O O1 0.907888 0.910308 0.793254
O O2 0.504216 0.847514 0.506246
O O3 0.825097 0.807609 0.850505
O O4 0.711547 0.005769 0.739108
O O5 0.019116 0.870063 0.748908
O O6 0.245958 0.786302 0.044056
O O7 0.287221 0.981219 0.038791
O O8 0.753221 0.294287 0.312258
O O9 0.936211 0.355033 0.343099
O O10 0.615081 0.633455 0.295380
O O11 0.312406 0.485408 0.073386
O O12 0.400987 0.624152 0.242806
O O13 0.826202 0.816265 0.468537
O O14 0.379830 0.200694 0.573981
#
# Coordination Sequence:
#
# PCOD8126072 Si02
#       7
#     4   4   4   4   4   4   4
#     4  11  21  34  63  90 118 148 194 255 307 335
#     4  11  20  38  63  87 117 157 197 246 297 351
#     4  11  21  35  60  94 117 147 199 249 299 351
#     4  10  23  38  59  85 124 158 194 239 296 357
#     4  11  22  37  60  89 120 152 191 252 296 347
#     4  10  23  39  57  88 121 157 202 235 295 362
#     4  10  21  38  58  87 123 154 195 244 298 353
#
# _framework density 19.745315000000002
#
# number of rings (size 3 to 8) (size 9 to 14) (size 15 to 20)
#    0.000    1.429    4.286    2.143    2.000    5.714 
#    0.000    0.714    0.000    1.714    0.000    0.000 
#    0.000    0.000    0.000    0.000    0.000    0.000 
#
# Total GULP energy -347045.634241 kJ/mol
# GULP energy per Si atom -12394.486937 kJ/mol
# Density = 1.970037 g / cm^3
# Si number density = 19.745315 Si / 1000 Ang^3
#
#
#
# Elastic Constant Matrix: (Units=GPa)
#
#
# Indices 1 2 3 4 5 6 
#
# 1 70.6317 44.6359 29.8466 0.0000 -8.4067 0.0000
# 2 44.6359 103.0471 48.4777 0.0000 -9.8874 0.0000
# 3 29.8466 48.4777 132.4419 0.0000 -10.4148 0.0000
# 4 0.0000 0.0000 0.0000 17.1207 0.0000 6.6163
# 5 -8.4067 -9.8874 -10.4148 0.0000 23.3400 0.0000
# 6 0.0000 0.0000 0.0000 6.6163 0.0000 29.9881
#
#
#
# Elastic Compliance Matrix: (Units=1/GPa)
#
#
# Indices 1 2 3 4 5 6 
#
# 1 0.020009 -0.007671 -0.001441 0.000000 0.003314 0.000000
# 2 -0.007671 0.014894 -0.003569 0.000000 0.001954 0.000000
# 3 -0.001441 -0.003569 0.009350 0.000000 0.002141 0.000000
# 4 0.000000 0.000000 0.000000 0.063853 0.000000 -0.014088
# 5 0.003314 0.001954 0.002141 0.000000 0.045822 0.000000
# 6 0.000000 0.000000 0.000000 -0.014088 0.000000 0.036455
#
#
# Mechanical properties :
#
#
# Convention : Reuss Voigt Hill
#
# Bulk Modulus (GPa) = 52.93656 61.33789 57.13723
# Shear Modulus (GPa) = 22.51827 26.30044 24.40935
#
# Velocity S-wave (km/s) = 3.38070 3.65359 3.51979
# Velocity P-wave (km/s) = 6.48897 6.99502 6.74674
#
# Compressibility (1/GPa) = 0.01889054
#
# Stress axis : x y z
#
# Youngs Moduli (GPa) = 49.97708 67.14209 106.95280
#
# Poissons Ratio (x) = 0.51508 0.15407
# Poissons Ratio (y) = 0.38340 0.38173
# Poissons Ratio (z) = 0.07200 0.23964
#
# Static dielectric constant tensor:
#      x y z
#    x 3.389390 0.000000 0.173720 
#    y 0.000000 3.552470 0.000000 
#    z 0.173720 0.000000 3.745400 
# 
# 
# High freq. dielectric constant tensor:
#      x y z
#    x 1.740180 0.000000 0.010830 
#    y 0.000000 1.747370 0.000000 
#    z 0.010830 0.000000 1.788940 
# 
# From -- ./inp_files/69322.got.cif
#   From: 2010.03.12/outbox.cif.g09.slc.cpg/sg14_35_cif.got.tgz:69322.got - 2010.03.31 13:35:05.
