data_PCOD8126607
_publ_section_title
;
Structure prediction by ZEFSAII (Michael W. Deem and Ramdas Pophale) SiO2 
 PCOD8126607
Probable space group: P 21/C
;
_chemical_formula_sum "Si O2"
_cell_formula_units_Z 28
_cell_length_a 7.552722
_cell_length_b 16.353793
_cell_length_c 10.823293
_cell_angle_alpha 90.000000
_cell_angle_beta 72.428634
_cell_angle_gamma 90.000000
_cell_volume 1274.471075
_symmetry_space_group_name_H-M "P 21/C"
_symmetry_group_IT_number 14
_symmetry_cell_setting 'monoclinic'
loop_
_space_group_symop_operation_xyz
x,y,z
-x,1/2+y,1/2-z
-x,-y,-z
x,1/2-y,1/2+z
loop_
_atom_site_type_symbol
_atom_site_label
_atom_site_fract_x
_atom_site_fract_y
_atom_site_fract_z
Si Si1 0.272309 0.597860 0.579248
Si Si2 0.474338 0.517948 0.337079
Si Si3 0.929139 0.766561 0.490536
Si Si4 0.157351 0.108707 0.881210
Si Si5 0.718456 0.598003 0.910416
Si Si6 0.639568 0.424094 0.888739
Si Si7 0.155132 0.737440 0.194835
O O1 0.421833 0.595129 0.435224
O O2 0.336796 0.528191 0.663607
O O3 0.293381 0.686993 0.637995
O O4 0.059679 0.582160 0.580688
O O5 0.288567 0.463475 0.398527
O O6 0.497210 0.542869 0.190649
O O7 0.060461 0.757399 0.344680
O O8 0.028151 0.773986 0.601559
O O9 0.809988 0.683227 0.529029
O O10 0.809689 0.849176 0.500785
O O11 0.219884 0.138400 0.731299
O O12 0.772479 0.500454 0.901693
O O13 0.493936 0.603198 0.971006
O O14 0.747645 0.349081 0.808004
#
# Coordination Sequence:
#
# PCOD8126607 Si02
#       7
#     4   4   4   4   4   4   4
#     4  10  21  41  64 100 130 174 230 278 332 404
#     4  10  22  42  67  97 131 177 227 276 343 398
#     4  11  22  44  63 101 126 175 230 270 346 396
#     4  10  21  42  68  92 137 173 221 284 334 396
#     4  10  22  44  62  94 134 173 218 275 337 412
#     4  10  23  43  64  96 135 178 220 276 349 404
#     4  11  24  42  69  96 135 175 227 284 339 403
#
# _framework density 21.969898000000001
#
# number of rings (size 3 to 8) (size 9 to 14) (size 15 to 20)
#    0.000    1.714    2.857    2.143    2.000    5.143 
#   12.857    0.000    0.000    0.000    0.000    0.000 
#    0.000    0.000    0.000    0.000    0.000    0.000 
#
# Total GULP energy -346890.805362 kJ/mol
# GULP energy per Si atom -12388.957334 kJ/mol
# Density = 2.191989 g / cm^3
# Si number density = 21.969898 Si / 1000 Ang^3
#
#
#
# Elastic Constant Matrix: (Units=GPa)
#
#
# Indices 1 2 3 4 5 6 
#
# 1 62.4283 33.9564 21.2984 0.0000 -0.3731 0.0000
# 2 33.9564 121.0329 34.9060 0.0000 -15.5286 0.0000
# 3 21.2984 34.9060 82.8826 0.0000 3.4280 0.0000
# 4 0.0000 0.0000 0.0000 35.7377 0.0000 -3.4050
# 5 -0.3731 -15.5286 3.4280 0.0000 26.0992 0.0000
# 6 0.0000 0.0000 0.0000 -3.4050 0.0000 36.6625
#
#
#
# Elastic Compliance Matrix: (Units=1/GPa)
#
#
# Indices 1 2 3 4 5 6 
#
# 1 0.019700 -0.004999 -0.002861 0.000000 -0.002317 0.000000
# 2 -0.004999 0.011769 -0.003980 0.000000 0.007454 0.000000
# 3 -0.002861 -0.003980 0.014656 0.000000 -0.004334 0.000000
# 4 0.000000 0.000000 0.000000 0.028231 0.000000 0.002622
# 5 -0.002317 0.007454 -0.004334 0.000000 0.043286 0.000000
# 6 0.000000 0.000000 0.000000 0.002622 0.000000 0.027519
#
#
# Mechanical properties :
#
#
# Convention : Reuss Voigt Hill
#
# Bulk Modulus (GPa) = 44.55512 49.62950 47.09231
# Shear Modulus (GPa) = 28.35696 31.44540 29.90118
#
# Velocity S-wave (km/s) = 3.59655 3.78735 3.69318
# Velocity P-wave (km/s) = 6.12952 6.46252 6.29822
#
# Compressibility (1/GPa) = 0.02244411
#
# Stress axis : x y z
#
# Youngs Moduli (GPa) = 50.76217 84.96972 68.23151
#
# Poissons Ratio (x) = 0.42476 0.19522
# Poissons Ratio (y) = 0.25376 0.27157
# Poissons Ratio (z) = 0.14524 0.33819
#
# Static dielectric constant tensor:
#      x y z
#    x 3.769180 0.000000 0.121020 
#    y 0.000000 4.455530 0.000000 
#    z 0.121020 0.000000 4.007870 
# 
# 
# High freq. dielectric constant tensor:
#      x y z
#    x 1.833380 0.000000 0.005550 
#    y 0.000000 1.873020 0.000000 
#    z 0.005550 0.000000 1.878560 
# 
# From -- ./inp_files/25110.got.cif
#   From: 2010.03.12/outbox.cif.g09.slc.cpg/sg14_13_cif.got.tgz:25110.got - 2010.03.31 13:35:05.
