data_PCOD8126007
_publ_section_title
;
Structure prediction by ZEFSAII (Michael W. Deem and Ramdas Pophale) SiO2 
 PCOD8126007
Probable space group: P 21/C
;
_chemical_formula_sum "Si O2"
_cell_formula_units_Z 24
_cell_length_a 8.755773
_cell_length_b 16.076139
_cell_length_c 17.219349
_cell_angle_alpha 90.000000
_cell_angle_beta 146.984770
_cell_angle_gamma 90.000000
_cell_volume 1320.624809
_symmetry_space_group_name_H-M "P 21/C"
_symmetry_group_IT_number 14
_symmetry_cell_setting 'monoclinic'
loop_
_space_group_symop_operation_xyz
x,y,z
-x,1/2+y,1/2-z
-x,-y,-z
x,1/2-y,1/2+z
loop_
_atom_site_type_symbol
_atom_site_label
_atom_site_fract_x
_atom_site_fract_y
_atom_site_fract_z
Si Si1 0.738617 0.838375 0.225403
Si Si2 0.141957 0.431235 0.370523
Si Si3 0.888643 0.184441 0.098426
Si Si4 0.765313 0.002820 0.335948
Si Si5 0.172105 0.024557 0.147786
Si Si6 0.276341 0.592429 0.333229
O O1 0.910394 0.868095 0.222379
O O2 0.930378 0.766252 0.343067
O O3 0.712174 0.912735 0.275908
O O4 0.425440 0.807612 0.070579
O O5 0.239941 0.518927 0.378859
O O6 0.387524 0.395381 0.531580
O O7 0.867056 0.449944 0.305195
O O8 0.868140 0.170817 0.184172
O O9 0.057888 0.111235 0.130161
O O10 0.495347 0.034456 0.266416
O O11 0.850124 0.070285 0.305221
O O12 0.000000 0.000000 0.500000
O O13 0.000000 0.000000 0.000000
#
# Coordination Sequence:
#
# PCOD8126007 Si02
#       6
#     4   4   4   4   4   4
#     4  10  21  39  56  83 114 149 188 237 285 334
#     4   8  15  32  59  76  98 140 191 219 257 336
#     4  10  21  37  60  81 112 149 192 234 286 339
#     4  11  22  36  58  86 117 147 191 239 281 334
#     4  11  18  36  62  84 105 153 196 226 282 344
#     4   8  15  34  55  76 102 144 182 218 268 328
#
# _framework density 18.173216
#
# number of rings (size 3 to 8) (size 9 to 14) (size 15 to 20)
#    0.000    2.333    3.333    2.000    2.333    0.000 
#    3.000    5.833    0.000    0.000    0.000    0.000 
#    0.000    0.000    0.000    0.000    0.000    0.000 
#
# Total GULP energy -297347.246776 kJ/mol
# GULP energy per Si atom -12389.468616 kJ/mol
# Density = 1.813185 g / cm^3
# Si number density = 18.173216 Si / 1000 Ang^3
#
#
#
# Elastic Constant Matrix: (Units=GPa)
#
#
# Indices 1 2 3 4 5 6 
#
# 1 94.9647 25.3838 35.3264 0.0000 4.6302 0.0000
# 2 25.3838 66.5366 20.7603 0.0000 5.3650 0.0000
# 3 35.3264 20.7603 96.3130 0.0000 -3.3146 0.0000
# 4 0.0000 0.0000 0.0000 26.4017 0.0000 4.3988
# 5 4.6302 5.3650 -3.3146 0.0000 27.8072 0.0000
# 6 0.0000 0.0000 0.0000 4.3988 0.0000 21.7476
#
#
#
# Elastic Compliance Matrix: (Units=1/GPa)
#
#
# Indices 1 2 3 4 5 6 
#
# 1 0.013107 -0.003558 -0.004109 0.000000 -0.001986 0.000000
# 2 -0.003558 0.017433 -0.002559 0.000000 -0.003076 0.000000
# 3 -0.004109 -0.002559 0.012533 0.000000 0.002672 0.000000
# 4 0.000000 0.000000 0.000000 0.039197 0.000000 -0.007928
# 5 -0.001986 -0.003076 0.002672 0.000000 0.037204 0.000000
# 6 0.000000 0.000000 0.000000 -0.007928 0.000000 0.047586
#
#
# Mechanical properties :
#
#
# Convention : Reuss Voigt Hill
#
# Bulk Modulus (GPa) = 44.20424 46.75060 45.47742
# Shear Modulus (GPa) = 25.63425 26.94756 26.29090
#
# Velocity S-wave (km/s) = 3.75980 3.85491 3.80766
# Velocity P-wave (km/s) = 6.57456 6.75238 6.66406
#
# Compressibility (1/GPa) = 0.02262226
#
# Stress axis : x y z
#
# Youngs Moduli (GPa) = 76.29784 57.36234 79.78768
#
# Poissons Ratio (x) = 0.20410 0.32782
# Poissons Ratio (y) = 0.27147 0.20414
# Poissons Ratio (z) = 0.31348 0.14676
#
# Static dielectric constant tensor:
#      x y z
#    x 3.423640 0.000000 -0.053190 
#    y 0.000000 -2.030740 0.000000 
#    z -0.053190 0.000000 3.176210 
# 
# 
# High freq. dielectric constant tensor:
#      x y z
#    x 1.713830 0.000000 -0.000340 
#    y 0.000000 1.681000 0.000000 
#    z -0.000340 0.000000 1.686640 
# 
# From -- ./inp_files/9073.got.cif
#   From: 2010.03.12/outbox.cif.g09.slc.cpg/sg14_5_cif.got.tgz:9073.got - 2010.03.31 13:35:05.
