data_PCOD8126972
_publ_section_title
;
Structure prediction by ZEFSAII (Michael W. Deem and Ramdas Pophale) SiO2 
 PCOD8126972
Probable space group: P 21/C
;
_chemical_formula_sum "Si O2"
_cell_formula_units_Z 28
_cell_length_a 6.245400
_cell_length_b 7.525081
_cell_length_c 33.956356
_cell_angle_alpha 90.000000
_cell_angle_beta 123.488802
_cell_angle_gamma 90.000000
_cell_volume 1330.930184
_symmetry_space_group_name_H-M "P 21/C"
_symmetry_group_IT_number 14
_symmetry_cell_setting 'monoclinic'
loop_
_space_group_symop_operation_xyz
x,y,z
-x,1/2+y,1/2-z
-x,-y,-z
x,1/2-y,1/2+z
loop_
_atom_site_type_symbol
_atom_site_label
_atom_site_fract_x
_atom_site_fract_y
_atom_site_fract_z
Si Si1 0.320970 0.249997 0.273657
Si Si2 0.397913 0.390086 0.195782
Si Si3 0.802958 0.016727 0.038516
Si Si4 0.944941 0.250000 0.481647
Si Si5 0.571861 0.516728 0.961484
Si Si6 0.856107 0.249998 0.118703
Si Si7 0.776773 0.109907 0.195781
O O1 0.401208 0.355775 0.242683
O O2 0.305093 0.404313 0.305221
O O3 0.054888 0.144220 0.242682
O O4 0.526231 0.095679 0.305221
O O5 0.584880 0.249995 0.194961
O O6 0.117962 0.358153 0.149540
O O7 0.869814 0.100888 0.086818
O O8 0.940428 0.119272 0.017791
O O9 0.954789 0.828856 0.050131
O O10 0.500000 0.000000 0.000000
O O11 0.166317 0.119271 0.517791
O O12 0.654002 0.171144 0.449869
O O13 0.348904 0.600890 0.913182
O O14 0.500000 0.500000 0.000000
O O15 0.779270 0.141843 0.149539
#
# Coordination Sequence:
#
# PCOD8126972 Si02
#       7
#     4   4   4   4   4   4   4
#     4  11  22  46  77 100 136 184 226 276 377 417
#     4  11  24  43  76 104 138 181 230 295 345 438
#     4  11  21  43  67  97 138 183 236 287 352 413
#     4  10  22  36  75  89 120 204 221 282 347 414
#     4  11  21  43  67  97 138 183 236 287 352 413
#     4  11  26  42  68 105 146 176 241 298 336 415
#     4  11  24  43  76 104 138 181 230 295 345 438
#
# _framework density 21.037917
#
# number of rings (size 3 to 8) (size 9 to 14) (size 15 to 20)
#    0.000    1.143    5.714    0.000    2.000    0.000 
#    0.000    8.571    0.000    0.000    0.000    0.000 
#    0.000    0.000    0.000    0.000    0.000    0.000 
#
# Total GULP energy -346961.490168 kJ/mol
# GULP energy per Si atom -12391.481792 kJ/mol
# Density = 2.099003 g / cm^3
# Si number density = 21.037917 Si / 1000 Ang^3
#
#
#
# Elastic Constant Matrix: (Units=GPa)
#
#
# Indices 1 2 3 4 5 6 
#
# 1 143.2981 67.1840 64.6059 0.0000 -1.7848 0.0000
# 2 67.1840 138.2150 63.4107 0.0000 -0.2138 0.0000
# 3 64.6059 63.4107 126.3056 0.0000 0.8209 0.0000
# 4 0.0000 0.0000 0.0000 22.6755 0.0000 -2.3296
# 5 -1.7848 -0.2138 0.8209 0.0000 23.7295 0.0000
# 6 0.0000 0.0000 0.0000 -2.3296 0.0000 63.8424
#
#
#
# Elastic Compliance Matrix: (Units=1/GPa)
#
#
# Indices 1 2 3 4 5 6 
#
# 1 0.010128 -0.003303 -0.003528 0.000000 0.000854 0.000000
# 2 -0.003303 0.010479 -0.003571 0.000000 -0.000031 0.000000
# 3 -0.003528 -0.003571 0.011519 0.000000 -0.000696 0.000000
# 4 0.000000 0.000000 0.000000 0.044266 0.000000 0.001615
# 5 0.000854 -0.000031 -0.000696 0.000000 0.042230 0.000000
# 6 0.000000 0.000000 0.000000 0.001615 0.000000 0.015723
#
#
# Mechanical properties :
#
#
# Convention : Reuss Voigt Hill
#
# Bulk Modulus (GPa) = 88.32290 88.69110 88.50700
# Shear Modulus (GPa) = 31.46164 36.22403 33.84283
#
# Velocity S-wave (km/s) = 3.87133 4.15401 4.01516
# Velocity P-wave (km/s) = 7.87761 8.07818 7.97853
#
# Compressibility (1/GPa) = 0.01132209
#
# Stress axis : x y z
#
# Youngs Moduli (GPa) = 98.73235 95.42774 86.81204
#
# Poissons Ratio (x) = 0.31524 0.30626
# Poissons Ratio (y) = 0.32615 0.31001
# Poissons Ratio (z) = 0.34831 0.34078
#
# Static dielectric constant tensor:
#      x y z
#    x 4.487860 0.000000 -0.049080 
#    y 0.000000 5.232460 0.000000 
#    z -0.049080 0.000000 3.620320 
# 
# 
# High freq. dielectric constant tensor:
#      x y z
#    x 1.855340 0.000000 -0.003460 
#    y 0.000000 1.840830 0.000000 
#    z -0.003460 0.000000 1.794120 
# 
# From -- ./inp_files/78859.got.cif
#   From: 2010.03.12/outbox.cif.g09.slc.cpg/sg14_40_cif.got.tgz:78859.got - 2010.03.31 13:35:05.
