data_PCOD8126739
_publ_section_title
;
Structure prediction by ZEFSAII (Michael W. Deem and Ramdas Pophale) SiO2 
 PCOD8126739
Probable space group: P 21/C
;
_chemical_formula_sum "Si O2"
_cell_formula_units_Z 24
_cell_length_a 8.937468
_cell_length_b 16.735857
_cell_length_c 16.337007
_cell_angle_alpha 90.000000
_cell_angle_beta 149.302499
_cell_angle_gamma 90.000000
_cell_volume 1247.484918
_symmetry_space_group_name_H-M "P 21/C"
_symmetry_group_IT_number 14
_symmetry_cell_setting 'monoclinic'
loop_
_space_group_symop_operation_xyz
x,y,z
-x,1/2+y,1/2-z
-x,-y,-z
x,1/2-y,1/2+z
loop_
_atom_site_type_symbol
_atom_site_label
_atom_site_fract_x
_atom_site_fract_y
_atom_site_fract_z
Si Si1 0.849955 0.982028 0.345369
Si Si2 0.742951 0.939316 0.896282
Si Si3 0.318017 0.339041 0.794895
Si Si4 0.106047 0.563184 0.294913
Si Si5 0.983856 0.180386 0.652367
Si Si6 0.741619 0.606820 0.567364
O O1 0.876168 0.889322 0.336100
O O2 0.511355 0.002783 0.191712
O O3 0.998463 0.036269 0.344734
O O4 0.000000 0.000000 0.500000
O O5 0.651501 0.889383 0.773835
O O6 0.808830 0.877527 0.002436
O O7 0.000000 0.000000 0.000000
O O8 0.161593 0.389601 0.791801
O O9 0.125737 0.261302 0.685556
O O10 0.635606 0.315279 0.977974
O O11 0.397328 0.618697 0.427574
O O12 0.171474 0.485077 0.378522
O O13 0.065399 0.166783 0.786553
#
# Coordination Sequence:
#
# PCOD8126739 Si02
#       6
#     4   4   4   4   4   4
#     4  10  21  42  63  93 124 166 210 256 304 374
#     4  11  22  38  68  95 123 161 213 257 308 371
#     4  12  24  41  62  94 125 166 208 261 317 365
#     4   9  19  36  66  84 122 161 201 244 308 372
#     4  11  25  40  63  88 131 164 207 260 317 367
#     4   9  19  40  61  89 119 160 200 250 302 372
#
# _framework density 19.238710999999999
#
# number of rings (size 3 to 8) (size 9 to 14) (size 15 to 20)
#    0.000    1.667    3.333    2.000    2.333    4.000 
#    3.000    1.667    0.000    0.000    0.000    0.000 
#    0.000    0.000    0.000    0.000    0.000    0.000 
#
# Total GULP energy -297597.928313 kJ/mol
# GULP energy per Si atom -12399.913680 kJ/mol
# Density = 1.919492 g / cm^3
# Si number density = 19.238711 Si / 1000 Ang^3
#
#
#
# Elastic Constant Matrix: (Units=GPa)
#
#
# Indices 1 2 3 4 5 6 
#
# 1 125.8707 37.3045 47.9969 0.0000 -4.9495 0.0000
# 2 37.3045 76.0712 23.3823 0.0000 11.9035 0.0000
# 3 47.9969 23.3823 101.4930 0.0000 -1.6957 0.0000
# 4 0.0000 0.0000 0.0000 28.8991 0.0000 6.9440
# 5 -4.9495 11.9035 -1.6957 0.0000 39.0343 0.0000
# 6 0.0000 0.0000 0.0000 6.9440 0.0000 22.5495
#
#
#
# Elastic Compliance Matrix: (Units=1/GPa)
#
#
# Indices 1 2 3 4 5 6 
#
# 1 0.010945 -0.004514 -0.004093 0.000000 0.002587 0.000000
# 2 -0.004514 0.016830 -0.001839 0.000000 -0.005784 0.000000
# 3 -0.004093 -0.001839 0.012222 0.000000 0.000573 0.000000
# 4 0.000000 0.000000 0.000000 0.037368 0.000000 -0.011507
# 5 0.002587 -0.005784 0.000573 0.000000 0.027735 0.000000
# 6 0.000000 0.000000 0.000000 -0.011507 0.000000 0.047890
#
#
# Mechanical properties :
#
#
# Convention : Reuss Voigt Hill
#
# Bulk Modulus (GPa) = 52.34422 57.86692 55.10557
# Shear Modulus (GPa) = 27.73925 31.08000 29.40963
#
# Velocity S-wave (km/s) = 3.80128 4.02368 3.91406
# Velocity P-wave (km/s) = 6.82152 7.19238 7.00940
#
# Compressibility (1/GPa) = 0.01910431
#
# Stress axis : x y z
#
# Youngs Moduli (GPa) = 91.36742 59.41893 81.82173
#
# Poissons Ratio (x) = 0.26821 0.33488
# Poissons Ratio (y) = 0.41243 0.15049
# Poissons Ratio (z) = 0.37394 0.10928
#
# Static dielectric constant tensor:
#      x y z
#    x 3.849530 0.000000 -0.202360 
#    y 0.000000 3.316310 0.000000 
#    z -0.202360 0.000000 3.515550 
# 
# 
# High freq. dielectric constant tensor:
#      x y z
#    x 1.758870 0.000000 -0.006500 
#    y 0.000000 1.728850 0.000000 
#    z -0.006500 0.000000 1.757590 
# 
# From -- ./inp_files/16605.got.cif
#   From: 2010.03.12/outbox.cif.g09.slc.cpg/sg14_9_cif.got.tgz:16605.got - 2010.03.31 13:35:05.
