data_PCOD8126224
_publ_section_title
;
Structure prediction by ZEFSAII (Michael W. Deem and Ramdas Pophale) SiO2 
 PCOD8126224
Probable space group: P 21/C
;
_chemical_formula_sum "Si O2"
_cell_formula_units_Z 20
_cell_length_a 10.632139
_cell_length_b 7.945105
_cell_length_c 11.427672
_cell_angle_alpha 90.000000
_cell_angle_beta 114.341399
_cell_angle_gamma 90.000000
_cell_volume 879.522222
_symmetry_space_group_name_H-M "P 21/C"
_symmetry_group_IT_number 14
_symmetry_cell_setting 'monoclinic'
loop_
_space_group_symop_operation_xyz
x,y,z
-x,1/2+y,1/2-z
-x,-y,-z
x,1/2-y,1/2+z
loop_
_atom_site_type_symbol
_atom_site_label
_atom_site_fract_x
_atom_site_fract_y
_atom_site_fract_z
Si Si1 0.910988 0.869906 0.205824
Si Si2 0.864018 0.188359 0.072268
Si Si3 0.679891 0.618896 0.042316
Si Si4 0.230187 0.915308 0.647014
Si Si5 0.390137 0.775420 0.390650
O O1 0.813884 0.714253 0.138860
O O2 0.060161 0.799313 0.298053
O O3 0.922347 0.997047 0.098306
O O4 0.852654 0.976115 0.291780
O O5 0.701592 0.186926 0.043531
O O6 0.877581 0.278757 0.951481
O O7 0.642357 0.475916 0.123297
O O8 0.707611 0.536985 0.926842
O O9 0.552343 0.749519 0.981117
O O10 0.355351 0.810973 0.753468
#
# Coordination Sequence:
#
# PCOD8126224 Si02
#       5
#     4   4   4   4   4
#     4  11  23  40  62  87 120 155 197 246 293 349
#     4  10  21  39  60  86 119 155 197 245 293 348
#     4  10  22  40  62  89 120 155 197 243 294 348
#     4  10  22  38  61  88 119 157 199 241 293 350
#     4   9  21  40  60  85 119 154 195 243 289 349
#
# _framework density 22.739619999999999
#
# number of rings (size 3 to 8) (size 9 to 14) (size 15 to 20)
#    0.000    2.000    0.000    3.000    0.000   12.800 
#    0.000    6.000    0.000    0.000    0.000    0.000 
#    0.000    0.000    0.000    0.000    0.000    0.000 
#
# Total GULP energy -247943.781080 kJ/mol
# GULP energy per Si atom -12397.189054 kJ/mol
# Density = 2.268786 g / cm^3
# Si number density = 22.739620 Si / 1000 Ang^3
#
#
#
# Elastic Constant Matrix: (Units=GPa)
#
#
# Indices 1 2 3 4 5 6 
#
# 1 43.1238 0.1410 9.4497 0.0000 1.9072 0.0000
# 2 0.1410 60.1523 11.3196 0.0000 -10.4790 0.0000
# 3 9.4497 11.3196 80.0181 0.0000 -5.7233 0.0000
# 4 0.0000 0.0000 0.0000 62.6761 0.0000 0.1192
# 5 1.9072 -10.4790 -5.7233 0.0000 29.3745 0.0000
# 6 0.0000 0.0000 0.0000 0.1192 0.0000 28.3313
#
#
#
# Elastic Compliance Matrix: (Units=1/GPa)
#
#
# Indices 1 2 3 4 5 6 
#
# 1 0.023938 0.000144 -0.002997 0.000000 -0.002087 0.000000
# 2 0.000144 0.018077 -0.002144 0.000000 0.006022 0.000000
# 3 -0.002997 -0.002144 0.013299 0.000000 0.002021 0.000000
# 4 0.000000 0.000000 0.000000 0.015955 0.000000 -0.000067
# 5 -0.002087 0.006022 0.002021 0.000000 0.036720 0.000000
# 6 0.000000 0.000000 0.000000 -0.000067 0.000000 0.035297
#
#
# Mechanical properties :
#
#
# Convention : Reuss Voigt Hill
#
# Bulk Modulus (GPa) = 22.06466 25.01274 23.53870
# Shear Modulus (GPa) = 29.69401 34.90196 32.29798
#
# Velocity S-wave (km/s) = 3.61754 3.92197 3.77283
# Velocity P-wave (km/s) = 5.21278 5.61539 5.41783
#
# Compressibility (1/GPa) = 0.04532133
#
# Stress axis : x y z
#
# Youngs Moduli (GPa) = 41.77545 55.32042 75.19457
#
# Poissons Ratio (x) = -0.00798 0.22532
# Poissons Ratio (y) = -0.00603 0.16118
# Poissons Ratio (z) = 0.12518 0.11858
#
# Static dielectric constant tensor:
#      x y z
#    x 3.858360 0.000000 0.099550 
#    y 0.000000 4.374750 0.000000 
#    z 0.099550 0.000000 4.283140 
# 
# 
# High freq. dielectric constant tensor:
#      x y z
#    x 1.882420 0.000000 0.011740 
#    y 0.000000 1.903930 0.000000 
#    z 0.011740 0.000000 1.896710 
# 
# From -- ./inp_files/27557.got.cif
#   From: 2010.03.12/outbox.cif.g09.slc.cpg/sg14_14_cif.got.tgz:27557.got - 2010.03.31 13:35:05.
