data_PCOD8126727
_publ_section_title
;
Structure prediction by ZEFSAII (Michael W. Deem and Ramdas Pophale) SiO2 
 PCOD8126727
Probable space group: P 21/C
;
_chemical_formula_sum "Si O2"
_cell_formula_units_Z 32
_cell_length_a 11.003694
_cell_length_b 13.513363
_cell_length_c 9.402085
_cell_angle_alpha 90.000000
_cell_angle_beta 83.023545
_cell_angle_gamma 90.000000
_cell_volume 1387.709964
_symmetry_space_group_name_H-M "P 21/C"
_symmetry_group_IT_number 14
_symmetry_cell_setting 'monoclinic'
loop_
_space_group_symop_operation_xyz
x,y,z
-x,1/2+y,1/2-z
-x,-y,-z
x,1/2-y,1/2+z
loop_
_atom_site_type_symbol
_atom_site_label
_atom_site_fract_x
_atom_site_fract_y
_atom_site_fract_z
Si Si1 0.908712 0.827126 0.187851
Si Si2 0.640218 0.435138 0.210854
Si Si3 0.413482 0.719280 0.978115
Si Si4 0.850567 0.062417 0.482255
Si Si5 0.797021 0.028968 0.178313
Si Si6 0.083458 0.348571 0.999474
Si Si7 0.464696 0.887029 0.761053
Si Si8 0.188532 0.662825 0.582921
O O1 0.844178 0.920945 0.120891
O O2 0.859801 0.823927 0.355490
O O3 0.056686 0.822432 0.172335
O O4 0.858567 0.730039 0.116494
O O5 0.581092 0.540545 0.251112
O O6 0.726867 0.406007 0.328550
O O7 0.551487 0.346767 0.168659
O O8 0.710577 0.431212 0.048444
O O9 0.475513 0.680058 0.115390
O O10 0.266907 0.736554 0.039090
O O11 0.462265 0.825757 0.911004
O O12 0.933850 0.154875 0.524391
O O13 0.869042 0.054029 0.311564
O O14 0.889653 0.959776 0.555831
O O15 0.651824 0.039410 0.225479
O O16 0.841602 0.107949 0.058503
#
# Coordination Sequence:
#
# PCOD8126727 Si02
#       8
#     4   4   4   4   4   4   4   4
#     4  11  23  40  64  99 127 175 214 269 328 393
#     4  12  23  44  68  96 132 173 223 271 334 385
#     4  11  23  43  66 101 126 173 225 266 333 388
#     4  10  21  42  62  93 129 178 212 264 328 398
#     4  10  24  41  64  93 135 164 216 267 331 380
#     4  10  23  38  62  93 136 167 217 266 329 390
#     4  11  25  45  71  97 132 173 217 282 324 404
#     4  11  24  40  68  97 129 170 222 277 316 393
#
# _framework density 23.059574000000001
#
# number of rings (size 3 to 8) (size 9 to 14) (size 15 to 20)
#    0.000    1.250    3.750    1.500    1.750    3.000 
#    2.250    0.000    0.000    0.000    0.000    0.000 
#    0.000    0.000    0.000    0.000    0.000    0.000 
#
# Total GULP energy -396460.562518 kJ/mol
# GULP energy per Si atom -12389.392579 kJ/mol
# Density = 2.300709 g / cm^3
# Si number density = 23.059574 Si / 1000 Ang^3
#
#
#
# Elastic Constant Matrix: (Units=GPa)
#
#
# Indices 1 2 3 4 5 6 
#
# 1 41.5167 25.3129 12.8615 0.0000 4.8343 0.0000
# 2 25.3129 105.4327 32.7367 0.0000 -0.0359 0.0000
# 3 12.8615 32.7367 81.8533 0.0000 3.4768 0.0000
# 4 0.0000 0.0000 0.0000 49.2947 0.0000 -0.8853
# 5 4.8343 -0.0359 3.4768 0.0000 22.1575 0.0000
# 6 0.0000 0.0000 0.0000 -0.8853 0.0000 31.5889
#
#
#
# Elastic Compliance Matrix: (Units=1/GPa)
#
#
# Indices 1 2 3 4 5 6 
#
# 1 0.029301 -0.006495 -0.001746 0.000000 -0.006129 0.000000
# 2 -0.006495 0.012280 -0.003978 0.000000 0.002061 0.000000
# 3 -0.001746 -0.003978 0.014161 0.000000 -0.001848 0.000000
# 4 0.000000 0.000000 0.000000 0.020296 0.000000 0.000569
# 5 -0.006129 0.002061 -0.001848 0.000000 0.046762 0.000000
# 6 0.000000 0.000000 0.000000 0.000569 0.000000 0.031673
#
#
# Mechanical properties :
#
#
# Convention : Reuss Voigt Hill
#
# Bulk Modulus (GPa) = 31.94511 41.18052 36.56282
# Shear Modulus (GPa) = 26.40666 31.13433 28.77049
#
# Velocity S-wave (km/s) = 3.38768 3.67845 3.53605
# Velocity P-wave (km/s) = 5.40233 5.99487 5.70629
#
# Compressibility (1/GPa) = 0.03130369
#
# Stress axis : x y z
#
# Youngs Moduli (GPa) = 34.12826 81.43333 70.61675
#
# Poissons Ratio (x) = 0.52889 0.12331
# Poissons Ratio (y) = 0.22165 0.28094
# Poissons Ratio (z) = 0.05959 0.32397
#
# Static dielectric constant tensor:
#      x y z
#    x 3.841720 0.000000 -0.058340 
#    y 0.000000 4.333780 0.000000 
#    z -0.058340 0.000000 4.119930 
# 
# 
# High freq. dielectric constant tensor:
#      x y z
#    x 1.876870 0.000000 0.002510 
#    y 0.000000 1.924040 0.000000 
#    z 0.002510 0.000000 1.916940 
# 
# From -- ./inp_files/13343.got.cif
#   From: 2010.03.12/outbox.cif.g09.slc.cpg/sg14_7_cif.got.tgz:13343.got - 2010.03.31 13:35:05.
