data_PCOD8126653
_publ_section_title
;
Structure prediction by ZEFSAII (Michael W. Deem and Ramdas Pophale) SiO2 
 PCOD8126653
Probable space group: P 21/C
;
_chemical_formula_sum "Si O2"
_cell_formula_units_Z 32
_cell_length_a 12.728497
_cell_length_b 12.053260
_cell_length_c 22.651008
_cell_angle_alpha 90.000000
_cell_angle_beta 153.317910
_cell_angle_gamma 90.000000
_cell_volume 1560.464670
_symmetry_space_group_name_H-M "P 21/C"
_symmetry_group_IT_number 14
_symmetry_cell_setting 'monoclinic'
loop_
_space_group_symop_operation_xyz
x,y,z
-x,1/2+y,1/2-z
-x,-y,-z
x,1/2-y,1/2+z
loop_
_atom_site_type_symbol
_atom_site_label
_atom_site_fract_x
_atom_site_fract_y
_atom_site_fract_z
Si Si1 0.754965 0.691624 0.746118
Si Si2 0.340455 0.477360 0.124291
Si Si3 0.529123 0.585521 0.107352
Si Si4 0.373101 0.935936 0.987949
Si Si5 0.151624 0.709459 0.847797
Si Si6 0.846775 0.095894 0.895203
Si Si7 0.981404 0.163894 0.501769
Si Si8 0.939752 0.429289 0.306672
O O1 0.637404 0.811507 0.698760
O O2 0.554134 0.604210 0.628503
O O3 0.936878 0.698130 0.784193
O O4 0.882592 0.648906 0.868358
O O5 0.378450 0.507424 0.074972
O O6 0.579904 0.436419 0.274139
O O7 0.152208 0.377219 0.034949
O O8 0.247117 0.585641 0.112333
O O9 0.742481 0.516623 0.186666
O O10 0.364834 0.629002 0.972863
O O11 0.238020 0.834962 0.889202
O O12 0.193187 0.015056 0.931314
O O13 0.500000 0.000000 0.000000
O O14 0.067596 0.676423 0.740264
O O15 0.894135 0.111384 0.849865
O O16 0.902695 0.210353 0.955538
O O17 0.000000 0.000000 0.000000
#
# Coordination Sequence:
#
# PCOD8126653 Si02
#       8
#     4   4   4   4   4   4   4   4
#     4  11  22  39  73  97 127 176 221 268 323 405
#     4  10  24  43  68  97 133 174 225 274 337 391
#     4  10  21  41  66  94 130 174 222 264 331 398
#     4  11  24  43  67 100 132 170 220 272 330 395
#     4  11  22  41  68  96 129 174 214 275 326 397
#     4  11  27  44  70  98 138 179 223 282 332 397
#     4  11  24  45  67 101 133 176 230 275 333 400
#     4  11  23  45  62 100 130 171 218 270 340 387
#
# _framework density 20.506713000000001
#
# number of rings (size 3 to 8) (size 9 to 14) (size 15 to 20)
#    0.000    1.250    3.750    1.875    5.250    0.000 
#   11.250    0.000    0.000    0.000    0.000    0.000 
#    0.000    0.000    0.000    0.000    0.000    0.000 
#
# Total GULP energy -396926.771419 kJ/mol
# GULP energy per Si atom -12403.961607 kJ/mol
# Density = 2.046004 g / cm^3
# Si number density = 20.506713 Si / 1000 Ang^3
#
#
#
# Elastic Constant Matrix: (Units=GPa)
#
#
# Indices 1 2 3 4 5 6 
#
# 1 97.2976 22.3581 42.7359 0.0000 12.6380 0.0000
# 2 22.3581 97.9528 49.9070 0.0000 5.4243 0.0000
# 3 42.7359 49.9070 103.1722 0.0000 10.7162 0.0000
# 4 0.0000 0.0000 0.0000 36.7048 0.0000 4.6217
# 5 12.6380 5.4243 10.7162 0.0000 38.3542 0.0000
# 6 0.0000 0.0000 0.0000 4.6217 0.0000 28.2865
#
#
#
# Elastic Compliance Matrix: (Units=1/GPa)
#
#
# Indices 1 2 3 4 5 6 
#
# 1 0.012861 -0.000284 -0.004896 0.000000 -0.002830 0.000000
# 2 -0.000284 0.013555 -0.006436 0.000000 -0.000025 0.000000
# 3 -0.004896 -0.006436 0.015007 0.000000 -0.001670 0.000000
# 4 0.000000 0.000000 0.000000 0.027817 0.000000 -0.004545
# 5 -0.002830 -0.000025 -0.001670 0.000000 0.027475 0.000000
# 6 0.000000 0.000000 0.000000 -0.004545 0.000000 0.036095
#
#
# Mechanical properties :
#
#
# Convention : Reuss Voigt Hill
#
# Bulk Modulus (GPa) = 54.97571 58.71383 56.84477
# Shear Modulus (GPa) = 30.84397 32.89721 31.87059
#
# Velocity S-wave (km/s) = 3.88247 4.00961 3.94655
# Velocity P-wave (km/s) = 6.85310 7.08023 6.96759
#
# Compressibility (1/GPa) = 0.01818985
#
# Stress axis : x y z
#
# Youngs Moduli (GPa) = 77.75431 73.77565 66.63448
#
# Poissons Ratio (x) = 0.02099 0.32623
# Poissons Ratio (y) = 0.02212 0.42888
# Poissons Ratio (z) = 0.38067 0.47484
#
# Static dielectric constant tensor:
#      x y z
#    x 3.671020 0.000000 0.283020 
#    y 0.000000 3.834920 0.000000 
#    z 0.283020 0.000000 3.821070 
# 
# 
# High freq. dielectric constant tensor:
#      x y z
#    x 1.805080 0.000000 0.020020 
#    y 0.000000 1.804040 0.000000 
#    z 0.020020 0.000000 1.806410 
# 
# From -- ./inp_files/35273.got.cif
#   From: 2010.03.12/outbox.cif.g09.slc.cpg/sg14_18_cif.got.tgz:35273.got - 2010.03.31 13:35:05.
