data_PCOD8126751
_publ_section_title
;
Structure prediction by ZEFSAII (Michael W. Deem and Ramdas Pophale) SiO2 
 PCOD8126751
Probable space group: P 21/C
;
_chemical_formula_sum "Si O2"
_cell_formula_units_Z 28
_cell_length_a 8.713009
_cell_length_b 25.518690
_cell_length_c 11.052883
_cell_angle_alpha 90.000000
_cell_angle_beta 29.672380
_cell_angle_gamma 90.000000
_cell_volume 1216.584550
_symmetry_space_group_name_H-M "P 21/C"
_symmetry_group_IT_number 14
_symmetry_cell_setting 'monoclinic'
loop_
_space_group_symop_operation_xyz
x,y,z
-x,1/2+y,1/2-z
-x,-y,-z
x,1/2-y,1/2+z
loop_
_atom_site_type_symbol
_atom_site_label
_atom_site_fract_x
_atom_site_fract_y
_atom_site_fract_z
Si Si1 0.015290 0.146428 0.415634
Si Si2 0.832250 0.055341 0.852911
Si Si3 0.015563 0.229567 0.218891
Si Si4 0.423077 0.110456 0.336501
Si Si5 0.746985 0.563736 0.412358
Si Si6 0.674611 0.849423 0.142857
Si Si7 0.419812 0.184236 0.540330
O O1 0.133580 0.190176 0.241692
O O2 0.223294 0.150349 0.391990
O O3 0.047831 0.088152 0.336107
O O4 0.661423 0.157087 0.687962
O O5 0.176208 0.074414 0.579887
O O6 0.863997 0.994161 0.861208
O O7 0.683051 0.081499 0.076941
O O8 0.611763 0.064039 0.887017
O O9 0.646828 0.227539 0.445344
O O10 0.161700 0.206193 0.996457
O O11 0.123751 0.287801 0.180517
O O12 0.589621 0.147727 0.322814
O O13 0.813377 0.598106 0.487345
O O14 0.682785 0.855362 0.282488
#
# Coordination Sequence:
#
# PCOD8126751 Si02
#       7
#     4   4   4   4   4   4   4
#     4   9  20  39  65  96 130 175 226 283 335 401
#     4  10  22  38  68 104 138 187 231 285 334 416
#     4  10  25  43  64  96 123 186 220 291 343 429
#     4  11  24  41  65 104 141 178 230 289 340 405
#     4   9  19  37  68  98 137 177 237 276 342 401
#     4  10  21  42  64  92 134 172 226 287 342 407
#     4  11  27  42  68  93 139 173 237 280 362 410
#
# _framework density 23.015250999999999
#
# number of rings (size 3 to 8) (size 9 to 14) (size 15 to 20)
#    0.000    2.000    1.429    0.000    8.000    2.857 
#    0.000    1.429    0.000    0.000    0.000    0.000 
#    0.000    0.000    0.000    0.000    0.000    0.000 
#
# Total GULP energy -346980.186131 kJ/mol
# GULP energy per Si atom -12392.149505 kJ/mol
# Density = 2.296287 g / cm^3
# Si number density = 23.015251 Si / 1000 Ang^3
#
#
#
# Elastic Constant Matrix: (Units=GPa)
#
#
# Indices 1 2 3 4 5 6 
#
# 1 104.4691 46.2423 19.7021 0.0000 24.0336 0.0000
# 2 46.2423 78.2460 14.5867 0.0000 8.5052 0.0000
# 3 19.7021 14.5867 85.0981 0.0000 13.9340 0.0000
# 4 0.0000 0.0000 0.0000 25.0928 0.0000 -4.4770
# 5 24.0336 8.5052 13.9340 0.0000 33.1050 0.0000
# 6 0.0000 0.0000 0.0000 -4.4770 0.0000 27.8988
#
#
#
# Elastic Compliance Matrix: (Units=1/GPa)
#
#
# Indices 1 2 3 4 5 6 
#
# 1 0.015214 -0.007907 -0.000742 0.000000 -0.008701 0.000000
# 2 -0.007907 0.017527 -0.001478 0.000000 0.001860 0.000000
# 3 -0.000742 -0.001478 0.012916 0.000000 -0.004518 0.000000
# 4 0.000000 0.000000 0.000000 0.041027 0.000000 0.006584
# 5 -0.008701 0.001860 -0.004518 0.000000 0.037948 0.000000
# 6 0.000000 0.000000 0.000000 0.006584 0.000000 0.036900
#
#
# Mechanical properties :
#
#
# Convention : Reuss Voigt Hill
#
# Bulk Modulus (GPa) = 39.36732 47.65283 43.51008
# Shear Modulus (GPa) = 26.28075 29.70479 27.99277
#
# Velocity S-wave (km/s) = 3.38284 3.59647 3.49129
# Velocity P-wave (km/s) = 5.69212 6.16409 5.93280
#
# Compressibility (1/GPa) = 0.02540178
#
# Stress axis : x y z
#
# Youngs Moduli (GPa) = 65.72932 57.05625 77.42270
#
# Poissons Ratio (x) = 0.45115 0.05747
# Poissons Ratio (y) = 0.51972 0.11444
# Poissons Ratio (z) = 0.04879 0.08433
#
# Static dielectric constant tensor:
#      x y z
#    x 4.143020 0.000000 0.200060 
#    y 0.000000 3.930140 0.000000 
#    z 0.200060 0.000000 4.109240 
# 
# 
# High freq. dielectric constant tensor:
#      x y z
#    x 1.906910 0.000000 0.012610 
#    y 0.000000 1.892400 0.000000 
#    z 0.012610 0.000000 1.907330 
# 
# From -- ./inp_files/27116.got.cif
#   From: 2010.03.12/outbox.cif.g09.slc.cpg/sg14_14_cif.got.tgz:27116.got - 2010.03.31 13:35:05.
