data_PCOD8126695
_publ_section_title
;
Structure prediction by ZEFSAII (Michael W. Deem and Ramdas Pophale) SiO2 
 PCOD8126695
Probable space group: P 21/C
;
_chemical_formula_sum "Si O2"
_cell_formula_units_Z 24
_cell_length_a 31.999840
_cell_length_b 7.655255
_cell_length_c 10.015934
_cell_angle_alpha 90.000000
_cell_angle_beta 29.178816
_cell_angle_gamma 90.000000
_cell_volume 1196.207157
_symmetry_space_group_name_H-M "P 21/C"
_symmetry_group_IT_number 14
_symmetry_cell_setting 'monoclinic'
loop_
_space_group_symop_operation_xyz
x,y,z
-x,1/2+y,1/2-z
-x,-y,-z
x,1/2-y,1/2+z
loop_
_atom_site_type_symbol
_atom_site_label
_atom_site_fract_x
_atom_site_fract_y
_atom_site_fract_z
Si Si1 0.440696 0.469149 0.540008
Si Si2 0.196509 0.690405 0.445231
Si Si3 0.554541 0.562019 0.971898
Si Si4 0.069475 0.449723 0.697176
Si Si5 0.030559 0.627456 0.526897
Si Si6 0.305729 0.724039 0.398611
O O1 0.500000 0.500000 0.500000
O O2 0.415723 0.264454 0.609801
O O3 0.356600 0.592566 0.775696
O O4 0.496574 0.522883 0.259391
O O5 0.164514 0.494623 0.490689
O O6 0.113124 0.781571 0.735022
O O7 0.271406 0.698525 0.344522
O O8 0.229812 0.784608 0.218271
O O9 0.638656 0.446572 0.733841
O O10 0.500000 0.500000 0.000000
O O11 0.056690 0.549257 0.594444
O O12 0.000000 0.500000 0.000000
O O13 0.053263 0.247277 0.711887
O O14 0.000000 0.500000 0.500000
#
# Coordination Sequence:
#
# PCOD8126695 Si02
#       6
#     4   4   4   4   4   4
#     4  12  23  43  70  99 127 182 235 274 338 414
#     4  11  24  44  62 102 139 175 215 285 348 379
#     4  12  23  43  71  97 131 181 233 279 336 412
#     4  10  21  41  69  95 129 175 223 261 329 406
#     4  11  23  44  72  96 130 177 227 267 329 415
#     4  12  24  43  67  95 149 172 223 299 339 392
#
# _framework density 20.063414999999999
#
# number of rings (size 3 to 8) (size 9 to 14) (size 15 to 20)
#    0.000    0.667    5.000    4.000    2.333    0.000 
#    6.000    0.000    0.000    0.000    0.000    0.000 
#    0.000    0.000    0.000    0.000    0.000    0.000 
#
# Total GULP energy -297416.234909 kJ/mol
# GULP energy per Si atom -12392.343121 kJ/mol
# Density = 2.001775 g / cm^3
# Si number density = 20.063415 Si / 1000 Ang^3
#
#
#
# Elastic Constant Matrix: (Units=GPa)
#
#
# Indices 1 2 3 4 5 6 
#
# 1 156.6767 58.5695 39.5749 0.0000 0.5670 0.0000
# 2 58.5695 165.7344 42.4211 0.0000 -13.4970 0.0000
# 3 39.5749 42.4211 94.7073 0.0000 13.0736 0.0000
# 4 0.0000 0.0000 0.0000 25.1817 0.0000 5.8249
# 5 0.5670 -13.4970 13.0736 0.0000 41.6301 0.0000
# 6 0.0000 0.0000 0.0000 5.8249 0.0000 25.1519
#
#
#
# Elastic Compliance Matrix: (Units=1/GPa)
#
#
# Indices 1 2 3 4 5 6 
#
# 1 0.007766 -0.002175 -0.002257 0.000000 -0.000102 0.000000
# 2 -0.002175 0.007891 -0.003118 0.000000 0.003567 0.000000
# 3 -0.002257 -0.003118 0.013624 0.000000 -0.005259 0.000000
# 4 0.000000 0.000000 0.000000 0.041959 0.000000 -0.009717
# 5 -0.000102 0.003567 -0.005259 0.000000 0.026830 0.000000
# 6 0.000000 0.000000 0.000000 -0.009717 0.000000 0.042009
#
#
# Mechanical properties :
#
#
# Convention : Reuss Voigt Hill
#
# Bulk Modulus (GPa) = 70.51379 77.58328 74.04853
# Shear Modulus (GPa) = 31.26811 36.82959 34.04885
#
# Velocity S-wave (km/s) = 3.95202 4.28911 4.12401
# Velocity P-wave (km/s) = 7.48641 7.95497 7.72425
#
# Compressibility (1/GPa) = 0.01418162
#
# Stress axis : x y z
#
# Youngs Moduli (GPa) = 128.76459 126.72614 73.39755
#
# Poissons Ratio (x) = 0.27565 0.16564
# Poissons Ratio (y) = 0.28009 0.22886
# Poissons Ratio (z) = 0.29059 0.39514
#
# Static dielectric constant tensor:
#      x y z
#    x 3.854080 0.000000 0.098550 
#    y 0.000000 4.429140 0.000000 
#    z 0.098550 0.000000 3.766120 
# 
# 
# High freq. dielectric constant tensor:
#      x y z
#    x 1.807280 0.000000 0.015220 
#    y 0.000000 1.783830 0.000000 
#    z 0.015220 0.000000 1.789960 
# 
# From -- ./inp_files/19928.got.cif
#   From: 2010.03.12/outbox.cif.g09.slc.cpg/sg14_10_cif.got.tgz:19928.got - 2010.03.31 13:35:05.
