data_PCOD8126499
_publ_section_title
;
Structure prediction by ZEFSAII (Michael W. Deem and Ramdas Pophale) SiO2 
 PCOD8126499
Probable space group: P 21/C
;
_chemical_formula_sum "Si O2"
_cell_formula_units_Z 32
_cell_length_a 13.864945
_cell_length_b 14.397665
_cell_length_c 19.682269
_cell_angle_alpha 90.000000
_cell_angle_beta 20.592189
_cell_angle_gamma 90.000000
_cell_volume 1381.895099
_symmetry_space_group_name_H-M "P 21/C"
_symmetry_group_IT_number 14
_symmetry_cell_setting 'monoclinic'
loop_
_space_group_symop_operation_xyz
x,y,z
-x,1/2+y,1/2-z
-x,-y,-z
x,1/2-y,1/2+z
loop_
_atom_site_type_symbol
_atom_site_label
_atom_site_fract_x
_atom_site_fract_y
_atom_site_fract_z
Si Si1 0.317168 0.403360 0.925436
Si Si2 0.258223 0.737535 0.556097
Si Si3 0.271602 0.736751 0.392842
Si Si4 0.222894 0.951615 0.154898
Si Si5 0.507994 0.418815 0.267443
Si Si6 0.649476 0.039373 0.336504
Si Si7 0.934956 0.608546 0.338395
Si Si8 0.760722 0.860247 0.189557
O O1 0.423931 0.304346 0.826189
O O2 0.410256 0.477825 0.807026
O O3 0.445991 0.414888 0.915935
O O4 0.986677 0.413192 0.148735
O O5 0.185828 0.715648 0.526414
O O6 0.316477 0.638650 0.551677
O O7 0.530063 0.801377 0.382344
O O8 0.997968 0.792883 0.760374
O O9 0.238770 0.846564 0.398805
O O10 0.051982 0.687933 0.490354
O O11 0.035228 0.024807 0.235890
O O12 0.500000 0.000000 0.000000
O O13 0.372636 0.408367 0.431016
O O14 0.316185 0.374287 0.336925
O O15 0.872025 0.108021 0.222200
O O16 0.500000 0.000000 0.500000
O O17 0.813685 0.956817 0.192126
#
# Coordination Sequence:
#
# PCOD8126499 Si02
#       8
#     4   4   4   4   4   4   4   4
#     4  11  23  44  68  99 133 176 227 282 346 410
#     4  11  25  41  68  97 135 183 228 277 344 412
#     4  11  23  42  66  93 133 175 222 277 329 416
#     4  12  27  45  65 102 143 183 228 275 347 419
#     4  10  23  42  65  96 132 170 220 280 340 404
#     4  11  19  38  72 100 126 163 224 302 338 383
#     4  12  23  46  69 103 133 175 237 287 340 403
#     4  10  21  40  65  99 129 171 221 281 349 396
#
# _framework density 23.156607000000001
#
# number of rings (size 3 to 8) (size 9 to 14) (size 15 to 20)
#    0.000    1.000    2.500    5.250    3.500    2.000 
#    9.000    1.250    0.000    0.000    0.000    0.000 
#    0.000    0.000    0.000    0.000    0.000    0.000 
#
# Total GULP energy -396568.375306 kJ/mol
# GULP energy per Si atom -12392.761728 kJ/mol
# Density = 2.310390 g / cm^3
# Si number density = 23.156607 Si / 1000 Ang^3
#
#
#
# Elastic Constant Matrix: (Units=GPa)
#
#
# Indices 1 2 3 4 5 6 
#
# 1 36.9022 14.5462 12.4002 0.0000 6.6331 0.0000
# 2 14.5462 74.8250 -15.1772 0.0000 3.0649 0.0000
# 3 12.4002 -15.1772 78.8983 0.0000 8.2874 0.0000
# 4 0.0000 0.0000 0.0000 11.3669 0.0000 11.3846
# 5 6.6331 3.0649 8.2874 0.0000 37.5054 0.0000
# 6 0.0000 0.0000 0.0000 11.3846 0.0000 29.3514
#
#
#
# Elastic Compliance Matrix: (Units=1/GPa)
#
#
# Indices 1 2 3 4 5 6 
#
# 1 0.032816 -0.007479 -0.006195 0.000000 -0.003824 0.000000
# 2 -0.007479 0.015727 0.004297 0.000000 -0.000912 0.000000
# 3 -0.006195 0.004297 0.014739 0.000000 -0.002512 0.000000
# 4 0.000000 0.000000 0.000000 0.143863 0.000000 -0.055801
# 5 -0.003824 -0.000912 -0.002512 0.000000 0.027969 0.000000
# 6 0.000000 0.000000 0.000000 -0.055801 0.000000 0.055713
#
#
# Mechanical properties :
#
#
# Convention : Reuss Voigt Hill
#
# Bulk Modulus (GPa) = 22.45827 23.79598 23.12713
# Shear Modulus (GPa) = 15.41194 27.56850 21.49022
#
# Velocity S-wave (km/s) = 2.58263 3.45414 3.04968
# Velocity P-wave (km/s) = 4.31425 5.11923 4.73388
#
# Compressibility (1/GPa) = 0.04452702
#
# Stress axis : x y z
#
# Youngs Moduli (GPa) = 30.47318 63.58332 67.84931
#
# Poissons Ratio (x) = 0.47556 0.42030
# Poissons Ratio (y) = 0.22792 -0.29153
# Poissons Ratio (z) = 0.18877 -0.27320
#
# Static dielectric constant tensor:
#      x y z
#    x 3.410890 0.000000 0.574180 
#    y 0.000000 4.494850 0.000000 
#    z 0.574180 0.000000 3.989500 
# 
# 
# High freq. dielectric constant tensor:
#      x y z
#    x 1.903070 0.000000 0.019790 
#    y 0.000000 1.919500 0.000000 
#    z 0.019790 0.000000 1.918760 
# 
# From -- ./inp_files/68641.got.cif
#   From: 2010.03.12/outbox.cif.g09.slc.cpg/sg14_35_cif.got.tgz:68641.got - 2010.03.31 13:35:05.
