data_PCOD8126508
_publ_section_title
;
Structure prediction by ZEFSAII (Michael W. Deem and Ramdas Pophale) SiO2 
 PCOD8126508
Probable space group: P 21/C
;
_chemical_formula_sum "Si O2"
_cell_formula_units_Z 32
_cell_length_a 13.579868
_cell_length_b 17.823154
_cell_length_c 11.391677
_cell_angle_alpha 90.000000
_cell_angle_beta 34.233524
_cell_angle_gamma 90.000000
_cell_volume 1551.108528
_symmetry_space_group_name_H-M "P 21/C"
_symmetry_group_IT_number 14
_symmetry_cell_setting 'monoclinic'
loop_
_space_group_symop_operation_xyz
x,y,z
-x,1/2+y,1/2-z
-x,-y,-z
x,1/2-y,1/2+z
loop_
_atom_site_type_symbol
_atom_site_label
_atom_site_fract_x
_atom_site_fract_y
_atom_site_fract_z
Si Si1 0.647637 0.936158 0.162381
Si Si2 0.668447 0.687029 0.442478
Si Si3 0.048150 0.125800 0.994687
Si Si4 0.198987 0.345719 0.102461
Si Si5 0.653329 0.373078 0.891991
Si Si6 0.352410 0.703966 0.582299
Si Si7 0.438824 0.600070 0.281627
Si Si8 0.957986 0.702722 0.976198
O O1 0.654116 0.874484 0.056284
O O2 0.821333 0.931198 0.070290
O O3 0.479200 0.928862 0.413029
O O4 0.640044 0.018276 0.112750
O O5 0.698054 0.768901 0.467898
O O6 0.489380 0.680519 0.546309
O O7 0.831448 0.666585 0.197954
O O8 0.078710 0.123327 0.825075
O O9 0.087807 0.209998 0.999266
O O10 0.851844 0.100219 0.219341
O O11 0.350143 0.405151 0.922254
O O12 0.069146 0.337451 0.121208
O O13 0.619670 0.290791 0.979032
O O14 0.621424 0.369839 0.784972
O O15 0.371636 0.657053 0.445487
O O16 0.156339 0.692233 0.825854
#
# Coordination Sequence:
#
# PCOD8126508 Si02
#       8
#     4   4   4   4   4   4   4   4
#     4  12  25  42  59  93 135 168 204 249 320 383
#     4  11  22  40  65  87 126 165 203 258 313 369
#     4  10  22  38  65  93 122 160 205 263 316 363
#     4  11  19  40  66  90 120 162 210 261 309 361
#     4  11  23  42  67  93 123 163 212 264 311 367
#     4  11  23  41  68  96 120 161 219 265 303 363
#     4  12  24  41  66  93 126 170 206 256 316 377
#     4  10  21  40  66  94 118 158 215 263 308 361
#
# _framework density 20.630407999999999
#
# number of rings (size 3 to 8) (size 9 to 14) (size 15 to 20)
#    0.000    1.000    5.000    2.625    0.000    2.000 
#    2.250    0.625    0.000    0.000    0.000    0.000 
#    0.000    0.000    0.000    0.000    0.000    0.000 
#
# Total GULP energy -396928.470124 kJ/mol
# GULP energy per Si atom -12404.014691 kJ/mol
# Density = 2.058345 g / cm^3
# Si number density = 20.630408 Si / 1000 Ang^3
#
#
#
# Elastic Constant Matrix: (Units=GPa)
#
#
# Indices 1 2 3 4 5 6 
#
# 1 81.2619 12.6616 44.0401 0.0000 -7.8126 0.0000
# 2 12.6616 54.7282 16.3571 0.0000 1.5726 0.0000
# 3 44.0401 16.3571 96.2784 0.0000 -18.8539 0.0000
# 4 0.0000 0.0000 0.0000 11.3757 0.0000 2.5895
# 5 -7.8126 1.5726 -18.8539 0.0000 36.1755 0.0000
# 6 0.0000 0.0000 0.0000 2.5895 0.0000 15.5627
#
#
#
# Elastic Compliance Matrix: (Units=1/GPa)
#
#
# Indices 1 2 3 4 5 6 
#
# 1 0.016502 -0.001629 -0.007306 0.000000 -0.000173 0.000000
# 2 -0.001629 0.019674 -0.003156 0.000000 -0.002852 0.000000
# 3 -0.007306 -0.003156 0.015572 0.000000 0.006675 0.000000
# 4 0.000000 0.000000 0.000000 0.091368 0.000000 -0.015203
# 5 -0.000173 -0.002852 0.006675 0.000000 0.031208 0.000000
# 6 0.000000 0.000000 0.000000 -0.015203 0.000000 0.066786
#
#
# Mechanical properties :
#
#
# Convention : Reuss Voigt Hill
#
# Bulk Modulus (GPa) = 36.27549 42.04289 39.15919
# Shear Modulus (GPa) = 18.21622 23.23677 20.72649
#
# Velocity S-wave (km/s) = 2.97472 3.35973 3.17307
# Velocity P-wave (km/s) = 5.42405 5.95598 5.69623
#
# Compressibility (1/GPa) = 0.02756682
#
# Stress axis : x y z
#
# Youngs Moduli (GPa) = 60.59695 50.82804 64.21954
#
# Poissons Ratio (x) = 0.08282 0.46916
# Poissons Ratio (y) = 0.09874 0.20265
# Poissons Ratio (z) = 0.44270 0.16039
#
# Static dielectric constant tensor:
#      x y z
#    x 3.715100 0.000000 -0.130920 
#    y 0.000000 3.525140 0.000000 
#    z -0.130920 0.000000 3.874550 
# 
# 
# High freq. dielectric constant tensor:
#      x y z
#    x 1.811480 0.000000 -0.009390 
#    y 0.000000 1.784660 0.000000 
#    z -0.009390 0.000000 1.819620 
# 
# From -- ./inp_files/32990.got.cif
#   From: 2010.03.12/outbox.cif.g09.slc.cpg/sg14_17_cif.got.tgz:32990.got - 2010.03.31 13:35:05.
