data_PCOD8126078
_publ_section_title
;
Structure prediction by ZEFSAII (Michael W. Deem and Ramdas Pophale) SiO2 
 PCOD8126078
Probable space group: P 21/C
;
_chemical_formula_sum "Si O2"
_cell_formula_units_Z 28
_cell_length_a 8.669545
_cell_length_b 13.314614
_cell_length_c 12.305612
_cell_angle_alpha 90.000000
_cell_angle_beta 90.001703
_cell_angle_gamma 90.000000
_cell_volume 1420.457038
_symmetry_space_group_name_H-M "P 21/C"
_symmetry_group_IT_number 14
_symmetry_cell_setting 'monoclinic'
loop_
_space_group_symop_operation_xyz
x,y,z
-x,1/2+y,1/2-z
-x,-y,-z
x,1/2-y,1/2+z
loop_
_atom_site_type_symbol
_atom_site_label
_atom_site_fract_x
_atom_site_fract_y
_atom_site_fract_z
Si Si1 0.835307 0.897412 0.417821
Si Si2 0.029081 0.309367 0.646159
Si Si3 0.528977 0.809426 0.353877
Si Si4 0.963785 0.394628 0.879212
Si Si5 0.750041 0.250015 0.512947
Si Si6 0.463688 0.894665 0.120789
Si Si7 0.664643 0.602656 0.417872
O O1 0.916685 0.805969 0.355111
O O2 0.650953 0.881279 0.415940
O O3 0.886572 0.905296 0.543619
O O4 0.886287 0.997819 0.354537
O O5 0.151010 0.381178 0.583996
O O6 0.018674 0.343877 0.769469
O O7 0.863938 0.316705 0.587534
O O8 0.363905 0.816765 0.412599
O O9 0.518388 0.843860 0.230550
O O10 0.583243 0.694098 0.355173
O O11 0.838412 0.326407 0.936973
O O12 0.661743 0.326548 0.437061
O O13 0.386322 0.002260 0.145442
O O14 0.613396 0.905252 0.043673
#
# Coordination Sequence:
#
# PCOD8126078 Si02
#       7
#     4   4   4   4   4   4   4
#     4   9  22  39  58  85 112 153 199 233 294 355
#     4  10  21  38  59  83 116 152 192 240 293 347
#     4  10  21  38  59  83 116 152 192 240 293 347
#     4  10  21  39  59  83 119 149 192 249 287 346
#     4  10  22  36  56  88 114 150 196 236 292 350
#     4  10  21  39  59  83 119 149 192 249 287 346
#     4   9  22  39  58  85 112 153 199 233 294 355
#
# _framework density 19.711966
#
# number of rings (size 3 to 8) (size 9 to 14) (size 15 to 20)
#    0.000    2.286    0.000    0.857    0.000   19.429 
#    0.000    0.000    0.000    0.000    0.000    0.000 
#    0.000    0.000    0.000    0.000    0.000    0.000 
#
# Total GULP energy -347270.250924 kJ/mol
# GULP energy per Si atom -12402.508962 kJ/mol
# Density = 1.966710 g / cm^3
# Si number density = 19.711966 Si / 1000 Ang^3
#
#
#
# Elastic Constant Matrix: (Units=GPa)
#
#
# Indices 1 2 3 4 5 6 
#
# 1 142.1701 35.7063 63.4535 0.0000 -0.1568 0.0000
# 2 35.7063 109.7213 53.9935 0.0000 -0.1236 0.0000
# 3 63.4535 53.9935 98.5369 0.0000 -0.1578 0.0000
# 4 0.0000 0.0000 0.0000 44.6319 0.0000 -0.0527
# 5 -0.1568 -0.1236 -0.1578 0.0000 21.4647 0.0000
# 6 0.0000 0.0000 0.0000 -0.0527 0.0000 21.7721
#
#
#
# Elastic Compliance Matrix: (Units=1/GPa)
#
#
# Indices 1 2 3 4 5 6 
#
# 1 0.009872 -0.000115 -0.006294 0.000000 0.000025 0.000000
# 2 -0.000115 0.012480 -0.006764 0.000000 0.000021 0.000000
# 3 -0.006294 -0.006764 0.017908 0.000000 0.000047 0.000000
# 4 0.000000 0.000000 0.000000 0.022406 0.000000 0.000054
# 5 0.000025 0.000021 0.000047 0.000000 0.046589 0.000000
# 6 0.000000 0.000000 0.000000 0.000054 0.000000 0.045930
#
#
# Mechanical properties :
#
#
# Convention : Reuss Voigt Hill
#
# Bulk Modulus (GPa) = 71.87396 72.97055 72.42225
# Shear Modulus (GPa) = 26.85726 30.72542 28.79134
#
# Velocity S-wave (km/s) = 3.69519 3.95234 3.82593
# Velocity P-wave (km/s) = 7.39913 7.61097 7.50580
#
# Compressibility (1/GPa) = 0.01391325
#
# Stress axis : x y z
#
# Youngs Moduli (GPa) = 101.29765 80.12676 55.84109
#
# Poissons Ratio (x) = 0.00925 0.35145
# Poissons Ratio (y) = 0.01169 0.37772
# Poissons Ratio (z) = 0.63755 0.54200
#
# Static dielectric constant tensor:
#      x y z
#    x 3.660200 0.000000 -0.000800 
#    y 0.000000 3.727280 0.000000 
#    z -0.000800 0.000000 3.454540 
# 
# 
# High freq. dielectric constant tensor:
#      x y z
#    x 1.778080 0.000000 -0.000010 
#    y 0.000000 1.775940 0.000000 
#    z -0.000010 0.000000 1.758890 
# 
# From -- ./inp_files/24919.got.cif
#   From: 2010.03.12/outbox.cif.g09.slc.cpg/sg14_13_cif.got.tgz:24919.got - 2010.03.31 13:35:05.
