data_PCOD8126861
_publ_section_title
;
Structure prediction by ZEFSAII (Michael W. Deem and Ramdas Pophale) SiO2 
 PCOD8126861
Probable space group: P 21/C
;
_chemical_formula_sum "Si O2"
_cell_formula_units_Z 24
_cell_length_a 8.793191
_cell_length_b 13.077297
_cell_length_c 9.586116
_cell_angle_alpha 90.000000
_cell_angle_beta 112.441913
_cell_angle_gamma 90.000000
_cell_volume 1018.836824
_symmetry_space_group_name_H-M "P 21/C"
_symmetry_group_IT_number 14
_symmetry_cell_setting 'monoclinic'
loop_
_space_group_symop_operation_xyz
x,y,z
-x,1/2+y,1/2-z
-x,-y,-z
x,1/2-y,1/2+z
loop_
_atom_site_type_symbol
_atom_site_label
_atom_site_fract_x
_atom_site_fract_y
_atom_site_fract_z
Si Si1 0.373115 0.851263 0.178674
Si Si2 0.687745 0.944703 0.946015
Si Si3 0.107478 0.033553 0.734123
Si Si4 0.136471 0.373409 0.953151
Si Si5 0.998859 0.341171 0.434283
Si Si6 0.461596 0.260474 0.011356
O O1 0.421367 0.970957 0.174022
O O2 0.181967 0.857032 0.069281
O O3 0.402071 0.819840 0.348971
O O4 0.469442 0.770392 0.115572
O O5 0.730565 0.991410 0.115598
O O6 0.865123 0.912559 0.936833
O O7 0.583512 0.841582 0.921041
O O8 0.014109 0.130191 0.774251
O O9 0.176245 0.060493 0.605144
O O10 0.978504 0.939593 0.689005
O O11 0.033707 0.277147 0.968331
O O12 0.304762 0.336099 0.936548
#
# Coordination Sequence:
#
# PCOD8126861 Si02
#       6
#     4   4   4   4   4   4
#     4  12  25  43  66 103 136 182 224 286 348 416
#     4   9  22  47  68  94 129 191 224 281 333 420
#     4   9  21  41  76  94 128 177 244 282 326 404
#     4  10  21  43  69 100 130 182 232 287 338 410
#     4   9  23  40  68  95 131 176 234 276 327 408
#     4  11  26  43  68  99 147 176 221 290 360 410
#
# _framework density 23.556274999999999
#
# number of rings (size 3 to 8) (size 9 to 14) (size 15 to 20)
#    1.000    1.000    0.000    2.000    4.667    1.333 
#    3.000    1.667    0.000    0.000    0.000    0.000 
#    0.000    0.000    0.000    0.000    0.000    0.000 
#
# Total GULP energy -297347.591226 kJ/mol
# GULP energy per Si atom -12389.482968 kJ/mol
# Density = 2.350266 g / cm^3
# Si number density = 23.556275 Si / 1000 Ang^3
#
#
#
# Elastic Constant Matrix: (Units=GPa)
#
#
# Indices 1 2 3 4 5 6 
#
# 1 80.6756 8.6801 -11.9340 0.0000 -2.9112 0.0000
# 2 8.6801 98.5260 37.7188 0.0000 16.2008 0.0000
# 3 -11.9340 37.7188 49.0971 0.0000 12.6172 0.0000
# 4 0.0000 0.0000 0.0000 32.8788 0.0000 2.7300
# 5 -2.9112 16.2008 12.6172 0.0000 22.8724 0.0000
# 6 0.0000 0.0000 0.0000 2.7300 0.0000 22.7860
#
#
#
# Elastic Compliance Matrix: (Units=1/GPa)
#
#
# Indices 1 2 3 4 5 6 
#
# 1 0.013685 -0.003614 0.005823 0.000000 0.001090 0.000000
# 2 -0.003614 0.015793 -0.011673 0.000000 -0.005207 0.000000
# 3 0.005823 -0.011673 0.033133 0.000000 -0.009268 0.000000
# 4 0.000000 0.000000 0.000000 0.030720 0.000000 -0.003681
# 5 0.001090 -0.005207 -0.009268 0.000000 0.052660 0.000000
# 6 0.000000 0.000000 0.000000 -0.003681 0.000000 0.044328
#
#
# Mechanical properties :
#
#
# Convention : Reuss Voigt Hill
#
# Bulk Modulus (GPa) = 22.89283 33.02538 27.95911
# Shear Modulus (GPa) = 22.34052 28.62968 25.48510
#
# Velocity S-wave (km/s) = 3.08293 3.49000 3.29277
# Velocity P-wave (km/s) = 4.73414 5.50367 5.13335
#
# Compressibility (1/GPa) = 0.04368179
#
# Stress axis : x y z
#
# Youngs Moduli (GPa) = 73.07365 63.31869 30.18147
#
# Poissons Ratio (x) = 0.22883 -0.17574
# Poissons Ratio (y) = 0.26408 0.35232
# Poissons Ratio (z) = -0.42549 0.73914
#
# Static dielectric constant tensor:
#      x y z
#    x 4.044480 0.000000 0.132870 
#    y 0.000000 4.262250 0.000000 
#    z 0.132870 0.000000 3.854290 
# 
# 
# High freq. dielectric constant tensor:
#      x y z
#    x 1.924080 0.000000 0.008020 
#    y 0.000000 1.938300 0.000000 
#    z 0.008020 0.000000 1.908440 
# 
# From -- ./inp_files/24620.got.cif
#   From: 2010.03.12/outbox.cif.g09.slc.cpg/sg14_13_cif.got.tgz:24620.got - 2010.03.31 13:35:05.
