data_PCOD8126920
_publ_section_title
;
Structure prediction by ZEFSAII (Michael W. Deem and Ramdas Pophale) SiO2 
 PCOD8126920
Probable space group: P 21/C
;
_chemical_formula_sum "Si O2"
_cell_formula_units_Z 28
_cell_length_a 20.045644
_cell_length_b 6.451629
_cell_length_c 12.239615
_cell_angle_alpha 90.000000
_cell_angle_beta 128.583341
_cell_angle_gamma 90.000000
_cell_volume 1237.366310
_symmetry_space_group_name_H-M "P 21/C"
_symmetry_group_IT_number 14
_symmetry_cell_setting 'monoclinic'
loop_
_space_group_symop_operation_xyz
x,y,z
-x,1/2+y,1/2-z
-x,-y,-z
x,1/2-y,1/2+z
loop_
_atom_site_type_symbol
_atom_site_label
_atom_site_fract_x
_atom_site_fract_y
_atom_site_fract_z
Si Si1 0.822799 0.816686 0.754539
Si Si2 0.940460 0.592622 0.032654
Si Si3 0.919566 0.363512 0.228045
Si Si4 0.698859 0.069144 0.766403
Si Si5 0.771032 0.443193 0.563828
Si Si6 0.612114 0.088298 0.041327
Si Si7 0.449616 0.304968 0.902349
O O1 0.746992 0.972156 0.710848
O O2 0.788163 0.676344 0.620229
O O3 0.903751 0.937685 0.788036
O O4 0.853847 0.680678 0.889953
O O5 0.916137 0.416573 0.095711
O O6 0.987689 0.776075 0.146901
O O7 0.000000 0.500000 0.000000
O O8 0.847438 0.197293 0.186706
O O9 0.629381 0.904035 0.744079
O O10 0.651922 0.284041 0.685431
O O11 0.769250 0.093540 0.932194
O O12 0.677921 0.378963 0.511161
O O13 0.594761 0.849381 0.054606
O O14 0.520396 0.178020 0.906268
O O15 0.500000 0.500000 0.000000
#
# Coordination Sequence:
#
# PCOD8126920 Si02
#       7
#     4   4   4   4   4   4   4
#     4  12  25  47  70 100 142 184 230 293 354 419
#     4  12  27  47  73  99 139 183 226 296 361 421
#     4  12  28  47  70 104 136 178 240 282 358 432
#     4  11  24  41  70  99 140 184 232 290 342 411
#     4  12  26  43  71 108 133 189 237 283 356 420
#     4  10  21  45  67  99 144 180 231 292 345 407
#     4   9  20  43  70  98 142 186 226 287 347 406
#
# _framework density 22.628706000000001
#
# number of rings (size 3 to 8) (size 9 to 14) (size 15 to 20)
#    0.000    0.857    4.286    2.143    6.000    1.143 
#    7.714    0.000    0.000    0.000    0.000    0.000 
#    0.000    0.000    0.000    0.000    0.000    0.000 
#
# Total GULP energy -347065.824825 kJ/mol
# GULP energy per Si atom -12395.208029 kJ/mol
# Density = 2.257720 g / cm^3
# Si number density = 22.628706 Si / 1000 Ang^3
#
#
#
# Elastic Constant Matrix: (Units=GPa)
#
#
# Indices 1 2 3 4 5 6 
#
# 1 87.8073 32.0003 10.2003 0.0000 3.1590 0.0000
# 2 32.0003 104.5410 32.0510 0.0000 -4.8579 0.0000
# 3 10.2003 32.0510 76.9984 0.0000 -1.9959 0.0000
# 4 0.0000 0.0000 0.0000 38.0819 0.0000 2.7968
# 5 3.1590 -4.8579 -1.9959 0.0000 30.7792 0.0000
# 6 0.0000 0.0000 0.0000 2.7968 0.0000 49.2385
#
#
#
# Elastic Compliance Matrix: (Units=1/GPa)
#
#
# Indices 1 2 3 4 5 6 
#
# 1 0.012936 -0.004024 -0.000090 0.000000 -0.001969 0.000000
# 2 -0.004024 0.012280 -0.004525 0.000000 0.002058 0.000000
# 3 -0.000090 -0.004525 0.014890 0.000000 0.000260 0.000000
# 4 0.000000 0.000000 0.000000 0.026369 0.000000 -0.001498
# 5 -0.001969 0.002058 0.000260 0.000000 0.033033 0.000000
# 6 0.000000 0.000000 0.000000 -0.001498 0.000000 0.020394
#
#
# Mechanical properties :
#
#
# Convention : Reuss Voigt Hill
#
# Bulk Modulus (GPa) = 43.80528 46.42777 45.11653
# Shear Modulus (GPa) = 34.53268 36.62626 35.57947
#
# Velocity S-wave (km/s) = 3.91072 4.02752 3.96955
# Velocity P-wave (km/s) = 6.30808 6.49535 6.40240
#
# Compressibility (1/GPa) = 0.02282830
#
# Stress axis : x y z
#
# Youngs Moduli (GPa) = 77.30215 81.43086 67.16075
#
# Poissons Ratio (x) = 0.32766 0.00603
# Poissons Ratio (y) = 0.31105 0.30393
# Poissons Ratio (z) = 0.00694 0.36851
#
# Static dielectric constant tensor:
#      x y z
#    x 4.237950 0.000000 0.313420 
#    y 0.000000 4.351830 0.000000 
#    z 0.313420 0.000000 3.825850 
# 
# 
# High freq. dielectric constant tensor:
#      x y z
#    x 1.904700 0.000000 0.020620 
#    y 0.000000 1.905060 0.000000 
#    z 0.020620 0.000000 1.867450 
# 
# From -- ./inp_files/34781.got.cif
#   From: 2010.03.12/outbox.cif.g09.slc.cpg/sg14_18_cif.got.tgz:34781.got - 2010.03.31 13:35:05.
