data_PCOD8126255
_publ_section_title
;
Structure prediction by ZEFSAII (Michael W. Deem and Ramdas Pophale) SiO2 
 PCOD8126255
Probable space group: P 21/C
;
_chemical_formula_sum "Si O2"
_cell_formula_units_Z 28
_cell_length_a 8.331093
_cell_length_b 19.307121
_cell_length_c 8.678977
_cell_angle_alpha 90.000000
_cell_angle_beta 91.351627
_cell_angle_gamma 90.000000
_cell_volume 1395.619998
_symmetry_space_group_name_H-M "P 21/C"
_symmetry_group_IT_number 14
_symmetry_cell_setting 'monoclinic'
loop_
_space_group_symop_operation_xyz
x,y,z
-x,1/2+y,1/2-z
-x,-y,-z
x,1/2-y,1/2+z
loop_
_atom_site_type_symbol
_atom_site_label
_atom_site_fract_x
_atom_site_fract_y
_atom_site_fract_z
Si Si1 0.689009 0.620421 0.214027
Si Si2 0.824810 0.804783 0.969672
Si Si3 0.472324 0.265106 0.358995
Si Si4 0.863509 0.951446 0.432682
Si Si5 0.668543 0.315160 0.086854
Si Si6 0.978425 0.683581 0.786825
Si Si7 0.401660 0.950661 0.604548
O O1 0.817688 0.626925 0.357228
O O2 0.632376 0.698806 0.188895
O O3 0.523421 0.576929 0.240706
O O4 0.777016 0.589303 0.068710
O O5 0.856541 0.735022 0.871648
O O6 0.648105 0.809794 0.040681
O O7 0.962534 0.808966 0.101959
O O8 0.531040 0.310828 0.215445
O O9 0.629760 0.243686 0.459846
O O10 0.936740 0.895877 0.319152
O O11 0.744183 0.002611 0.333944
O O12 0.000000 0.000000 0.500000
O O13 0.840963 0.298468 0.162058
O O14 0.667440 0.389187 0.003934
O O15 0.500000 0.000000 0.500000
#
# Coordination Sequence:
#
# PCOD8126255 Si02
#       7
#     4   4   4   4   4   4   4
#     4  10  21  39  61  92 115 160 206 252 300 364
#     4  12  22  40  63  93 127 156 208 255 323 378
#     4  11  20  36  61  87 121 155 197 257 306 364
#     4  11  21  42  65  87 122 169 213 246 303 376
#     4  11  22  37  57  92 122 150 205 253 315 361
#     4  12  23  38  62  96 124 167 195 262 323 368
#     4   9  21  37  63  82 116 159 209 242 290 364
#
# _framework density 20.062766
#
# number of rings (size 3 to 8) (size 9 to 14) (size 15 to 20)
#    0.000    1.143    5.714    0.857    4.000    0.000 
#    0.000    1.429    0.000    0.000    0.000    0.000 
#    0.000    0.000    0.000    0.000    0.000    0.000 
#
# Total GULP energy -346935.436245 kJ/mol
# GULP energy per Si atom -12390.551294 kJ/mol
# Density = 2.001710 g / cm^3
# Si number density = 20.062766 Si / 1000 Ang^3
#
#
#
# Elastic Constant Matrix: (Units=GPa)
#
#
# Indices 1 2 3 4 5 6 
#
# 1 80.2762 13.8281 11.6262 0.0000 15.4906 0.0000
# 2 13.8281 63.7284 14.3503 0.0000 4.7109 0.0000
# 3 11.6262 14.3503 74.9480 0.0000 17.9326 0.0000
# 4 0.0000 0.0000 0.0000 23.6462 0.0000 1.9986
# 5 15.4906 4.7109 17.9326 0.0000 40.6903 0.0000
# 6 0.0000 0.0000 0.0000 1.9986 0.0000 34.2258
#
#
#
# Elastic Compliance Matrix: (Units=1/GPa)
#
#
# Indices 1 2 3 4 5 6 
#
# 1 0.013890 -0.002543 -0.000529 0.000000 -0.004761 0.000000
# 2 -0.002543 0.016876 -0.002908 0.000000 0.000296 0.000000
# 3 -0.000529 -0.002908 0.015486 0.000000 -0.006287 0.000000
# 4 0.000000 0.000000 0.000000 0.042500 0.000000 -0.002482
# 5 -0.004761 0.000296 -0.006287 0.000000 0.029125 0.000000
# 6 0.000000 0.000000 0.000000 -0.002482 0.000000 0.029363
#
#
# Mechanical properties :
#
#
# Convention : Reuss Voigt Hill
#
# Bulk Modulus (GPa) = 29.16017 33.17355 31.16686
# Shear Modulus (GPa) = 29.30336 31.65565 30.47951
#
# Velocity S-wave (km/s) = 3.82591 3.97650 3.90193
# Velocity P-wave (km/s) = 5.83804 6.13630 5.98903
#
# Compressibility (1/GPa) = 0.03429335
#
# Stress axis : x y z
#
# Youngs Moduli (GPa) = 71.99305 59.25484 64.57645
#
# Poissons Ratio (x) = 0.15068 0.03415
# Poissons Ratio (y) = 0.18308 0.18776
# Poissons Ratio (z) = 0.03807 0.17229
#
# Static dielectric constant tensor:
#      x y z
#    x 4.211360 0.000000 0.215660 
#    y 0.000000 3.897770 0.000000 
#    z 0.215660 0.000000 3.789820 
# 
# 
# High freq. dielectric constant tensor:
#      x y z
#    x 1.796630 0.000000 0.017140 
#    y 0.000000 1.775630 0.000000 
#    z 0.017140 0.000000 1.762580 
# 
# From -- ./inp_files/9934.got.cif
#   From: 2010.03.12/outbox.cif.g09.slc.cpg/sg14_5_cif.got.tgz:9934.got - 2010.03.31 13:35:05.
