data_PCOD8126142
_publ_section_title
;
Structure prediction by ZEFSAII (Michael W. Deem and Ramdas Pophale) SiO2 
 PCOD8126142
Probable space group: P 21/C
;
_chemical_formula_sum "Si O2"
_cell_formula_units_Z 16
_cell_length_a 8.811424
_cell_length_b 8.988925
_cell_length_c 7.793295
_cell_angle_alpha 90.000000
_cell_angle_beta 47.121773
_cell_angle_gamma 90.000000
_cell_volume 452.336193
_symmetry_space_group_name_H-M "P 21/C"
_symmetry_group_IT_number 14
_symmetry_cell_setting 'monoclinic'
loop_
_space_group_symop_operation_xyz
x,y,z
-x,1/2+y,1/2-z
-x,-y,-z
x,1/2-y,1/2+z
loop_
_atom_site_type_symbol
_atom_site_label
_atom_site_fract_x
_atom_site_fract_y
_atom_site_fract_z
Si Si1 0.010174 0.190565 0.548311
Si Si2 0.271144 0.089331 0.048218
Si Si3 0.581238 0.333504 0.761962
Si Si4 0.213035 0.949426 0.575729
O O1 0.069717 0.351603 0.588790
O O2 0.005138 0.056378 0.699005
O O3 0.222653 0.137724 0.282745
O O4 0.812095 0.174535 0.563655
O O5 0.477848 0.170146 0.811793
O O6 0.328773 0.914077 0.979766
O O7 0.760093 0.341286 0.777772
O O8 0.387434 0.430535 0.974243
#
# Coordination Sequence:
#
# PCOD8126142 Si02
#       4
#     4   4   4   4
#     4  10  21  38  62  92 128 170 215 267 322 384
#     4  11  23  41  66  96 134 174 218 267 326 389
#     4  10  22  43  66  96 132 171 218 271 324 391
#     4   9  20  40  62  88 126 166 215 265 320 380
#
# _framework density 35.371920000000003
#
# number of rings (size 3 to 8) (size 9 to 14) (size 15 to 20)
#    0.000    2.000    0.000    4.500    0.000    7.000 
#    0.000   15.000    0.000    0.000    0.000    0.000 
#    0.000    0.000    0.000    0.000    0.000    0.000 
#
# Total GULP energy -198325.836821 kJ/mol
# GULP energy per Si atom -12395.364801 kJ/mol
# Density = 3.529141 g / cm^3
# Si number density = 35.371920 Si / 1000 Ang^3
#
#
#
# Elastic Constant Matrix: (Units=GPa)
#
#
# Indices 1 2 3 4 5 6 
#
# 1 179.7154 55.4908 61.6344 0.0000 -23.6592 0.0000
# 2 55.4908 240.1284 65.9739 0.0000 -1.9121 0.0000
# 3 61.6344 65.9739 128.4225 0.0000 -24.3551 0.0000
# 4 0.0000 0.0000 0.0000 75.0820 0.0000 16.2430
# 5 -23.6592 -1.9121 -24.3551 0.0000 72.8962 0.0000
# 6 0.0000 0.0000 0.0000 16.2430 0.0000 64.1928
#
#
#
# Elastic Compliance Matrix: (Units=1/GPa)
#
#
# Indices 1 2 3 4 5 6 
#
# 1 0.006906 -0.000867 -0.002614 0.000000 0.001345 0.000000
# 2 -0.000867 0.004997 -0.002327 0.000000 -0.000928 0.000000
# 3 -0.002614 -0.002327 0.010745 0.000000 0.002681 0.000000
# 4 0.000000 0.000000 0.000000 0.014090 0.000000 -0.003565
# 5 0.001345 -0.000928 0.002681 0.000000 0.015026 0.000000
# 6 0.000000 0.000000 0.000000 -0.003565 0.000000 0.016480
#
#
# Mechanical properties :
#
#
# Convention : Reuss Voigt Hill
#
# Bulk Modulus (GPa) = 90.64348 101.60715 96.12532
# Shear Modulus (GPa) = 59.85471 66.77871 63.31671
#
# Velocity S-wave (km/s) = 4.11804 4.34971 4.23546
# Velocity P-wave (km/s) = 6.94928 7.34945 7.15216
#
# Compressibility (1/GPa) = 0.01103223
#
# Stress axis : x y z
#
# Youngs Moduli (GPa) = 144.81148 200.13363 93.06760
#
# Poissons Ratio (x) = 0.17351 0.24325
# Poissons Ratio (y) = 0.12555 0.21655
# Poissons Ratio (z) = 0.37849 0.46566
#
# Static dielectric constant tensor:
#      x y z
#    x 8.086070 0.000000 -0.918160 
#    y 0.000000 7.760100 0.000000 
#    z -0.918160 0.000000 7.412250 
# 
# 
# High freq. dielectric constant tensor:
#      x y z
#    x 2.560820 0.000000 -0.075870 
#    y 0.000000 2.557140 0.000000 
#    z -0.075870 0.000000 2.548030 
# 
# From -- ./inp_files/7739.got.cif
#   From: 2010.03.12/outbox.cif.g09.slc.cpg/sg14_4_cif.got.tgz:7739.got - 2010.03.31 13:35:05.
