data_PCOD8126123
_publ_section_title
;
Structure prediction by ZEFSAII (Michael W. Deem and Ramdas Pophale) SiO2 
 PCOD8126123
Probable space group: P 21/C
;
_chemical_formula_sum "Si O2"
_cell_formula_units_Z 24
_cell_length_a 10.437474
_cell_length_b 16.476055
_cell_length_c 11.854934
_cell_angle_alpha 90.000000
_cell_angle_beta 144.647241
_cell_angle_gamma 90.000000
_cell_volume 1179.594897
_symmetry_space_group_name_H-M "P 21/C"
_symmetry_group_IT_number 14
_symmetry_cell_setting 'monoclinic'
loop_
_space_group_symop_operation_xyz
x,y,z
-x,1/2+y,1/2-z
-x,-y,-z
x,1/2-y,1/2+z
loop_
_atom_site_type_symbol
_atom_site_label
_atom_site_fract_x
_atom_site_fract_y
_atom_site_fract_z
Si Si1 0.828082 0.100907 0.311705
Si Si2 0.506014 0.629636 0.838797
Si Si3 0.187178 0.984005 0.474302
Si Si4 0.844480 0.343492 0.220610
Si Si5 0.177721 0.234197 0.555570
Si Si6 0.394068 0.694911 0.532690
O O1 0.726969 0.063491 0.353015
O O2 0.985181 0.174955 0.461012
O O3 0.628063 0.135147 0.090936
O O4 0.965258 0.033448 0.342073
O O5 0.610253 0.539994 0.919927
O O6 0.360463 0.644609 0.843132
O O7 0.356132 0.640495 0.617919
O O8 0.705369 0.695970 0.972936
O O9 0.120245 0.923379 0.326623
O O10 0.072783 0.322338 0.451498
O O11 0.790394 0.265445 0.103749
O O12 0.362007 0.237618 0.787694
#
# Coordination Sequence:
#
# PCOD8126123 Si02
#       6
#     4   4   4   4   4   4
#     4   9  19  40  61  86 126 162 208 252 298 371
#     4   9  21  42  56  91 126 155 208 256 309 365
#     4  10  21  38  61  94 125 163 203 254 313 365
#     4  11  21  38  66  85 127 166 203 258 307 367
#     4   8  20  40  58  90 114 162 211 251 299 362
#     4   9  21  40  61  87 120 166 206 257 296 360
#
# _framework density 20.345967999999999
#
# number of rings (size 3 to 8) (size 9 to 14) (size 15 to 20)
#    1.000    1.667    0.000    0.500    4.667    2.000 
#    9.000    0.833    0.000    0.000    0.000    0.000 
#    0.000    0.000    0.000    0.000    0.000    0.000 
#
# Total GULP energy -297408.783019 kJ/mol
# GULP energy per Si atom -12392.032626 kJ/mol
# Density = 2.029966 g / cm^3
# Si number density = 20.345968 Si / 1000 Ang^3
#
#
#
# Elastic Constant Matrix: (Units=GPa)
#
#
# Indices 1 2 3 4 5 6 
#
# 1 73.1103 27.2115 24.3456 0.0000 2.2129 0.0000
# 2 27.2115 71.1502 42.8160 0.0000 -9.3582 0.0000
# 3 24.3456 42.8160 116.0743 0.0000 -12.3297 0.0000
# 4 0.0000 0.0000 0.0000 34.8437 0.0000 -10.8621
# 5 2.2129 -9.3582 -12.3297 0.0000 17.1246 0.0000
# 6 0.0000 0.0000 0.0000 -10.8621 0.0000 24.8957
#
#
#
# Elastic Compliance Matrix: (Units=1/GPa)
#
#
# Indices 1 2 3 4 5 6 
#
# 1 0.016848 -0.006156 -0.002005 0.000000 -0.006985 0.000000
# 2 -0.006156 0.020804 -0.005512 0.000000 0.008196 0.000000
# 3 -0.002005 -0.005512 0.011669 0.000000 0.005648 0.000000
# 4 0.000000 0.000000 0.000000 0.033218 0.000000 0.014493
# 5 -0.006985 0.008196 0.005648 0.000000 0.067844 0.000000
# 6 0.000000 0.000000 0.000000 0.014493 0.000000 0.046491
#
#
# Mechanical properties :
#
#
# Convention : Reuss Voigt Hill
#
# Bulk Modulus (GPa) = 45.50593 49.89790 47.70191
# Shear Modulus (GPa) = 21.59409 26.43692 24.01550
#
# Velocity S-wave (km/s) = 3.26136 3.60859 3.43936
# Velocity P-wave (km/s) = 6.04951 6.47615 6.26646
#
# Compressibility (1/GPa) = 0.02197516
#
# Stress axis : x y z
#
# Youngs Moduli (GPa) = 59.35347 48.06745 85.69710
#
# Poissons Ratio (x) = 0.29589 0.17183
# Poissons Ratio (y) = 0.36536 0.47239
# Poissons Ratio (z) = 0.11901 0.26496
#
# Static dielectric constant tensor:
#      x y z
#    x 3.361870 0.000000 -0.056900 
#    y 0.000000 3.743230 0.000000 
#    z -0.056900 0.000000 3.628130 
# 
# 
# High freq. dielectric constant tensor:
#      x y z
#    x 1.774010 0.000000 -0.005050 
#    y 0.000000 1.791470 0.000000 
#    z -0.005050 0.000000 1.785760 
# 
# From -- ./inp_files/44972.got.cif
#   From: 2010.03.12/outbox.cif.g09.slc.cpg/sg14_23_cif.got.tgz:44972.got - 2010.03.31 13:35:05.
