data_PCOD8126303
_publ_section_title
;
Structure prediction by ZEFSAII (Michael W. Deem and Ramdas Pophale) SiO2 
 PCOD8126303
Probable space group: P 21/C
;
_chemical_formula_sum "Si O2"
_cell_formula_units_Z 28
_cell_length_a 5.918712
_cell_length_b 9.043832
_cell_length_c 27.505426
_cell_angle_alpha 90.000000
_cell_angle_beta 58.969193
_cell_angle_gamma 90.000000
_cell_volume 1261.604620
_symmetry_space_group_name_H-M "P 21/C"
_symmetry_group_IT_number 14
_symmetry_cell_setting 'monoclinic'
loop_
_space_group_symop_operation_xyz
x,y,z
-x,1/2+y,1/2-z
-x,-y,-z
x,1/2-y,1/2+z
loop_
_atom_site_type_symbol
_atom_site_label
_atom_site_fract_x
_atom_site_fract_y
_atom_site_fract_z
Si Si1 0.768455 0.658216 0.061623
Si Si2 0.525240 0.688728 0.674194
Si Si3 0.671745 0.647475 0.477637
Si Si4 0.154105 0.600113 0.358874
Si Si5 0.966868 0.993280 0.779178
Si Si6 0.646736 0.745862 0.768571
Si Si7 0.342768 0.610072 0.983763
O O1 0.594058 0.684956 0.128247
O O2 0.727018 0.483081 0.056309
O O3 0.678913 0.770291 0.028760
O O4 0.078787 0.675488 0.038231
O O5 0.743295 0.563928 0.644669
O O6 0.240505 0.625594 0.692475
O O7 0.532797 0.760071 0.726757
O O8 0.500000 0.500000 0.500000
O O9 0.528349 0.749448 0.452998
O O10 0.969002 0.628524 0.425729
O O11 0.396174 0.718272 0.331218
O O12 0.993980 0.599486 0.325994
O O13 0.871037 0.873783 0.749882
O O14 0.238476 0.080119 0.734428
O O15 0.500000 0.500000 0.000000
#
# Coordination Sequence:
#
# PCOD8126303 Si02
#       7
#     4   4   4   4   4   4   4
#     4  10  21  41  62  86 123 161 200 252 307 365
#     4  10  21  39  64  89 119 161 205 250 308 374
#     4  11  22  38  65  94 122 162 207 257 314 369
#     4  10  22  39  60  93 125 154 209 261 304 375
#     4  10  21  42  63  85 122 161 202 257 314 368
#     4  10  22  41  63  90 123 161 209 259 311 376
#     4   9  21  40  57  84 121 156 199 243 297 368
#
# _framework density 22.193960000000001
#
# number of rings (size 3 to 8) (size 9 to 14) (size 15 to 20)
#    0.000    2.000    0.000    2.571    0.000    8.000 
#    0.000   34.286    0.000    0.000    0.000    0.000 
#    0.000    0.000    0.000    0.000    0.000    0.000 
#
# Total GULP energy -347061.862036 kJ/mol
# GULP energy per Si atom -12395.066501 kJ/mol
# Density = 2.214345 g / cm^3
# Si number density = 22.193960 Si / 1000 Ang^3
#
#
#
# Elastic Constant Matrix: (Units=GPa)
#
#
# Indices 1 2 3 4 5 6 
#
# 1 88.0280 23.5284 14.9271 0.0000 -6.4688 0.0000
# 2 23.5284 87.4291 30.9146 0.0000 -10.1877 0.0000
# 3 14.9271 30.9146 82.5692 0.0000 -11.9174 0.0000
# 4 0.0000 0.0000 0.0000 32.3342 0.0000 -7.9694
# 5 -6.4688 -10.1877 -11.9174 0.0000 24.6482 0.0000
# 6 0.0000 0.0000 0.0000 -7.9694 0.0000 47.3684
#
#
#
# Elastic Compliance Matrix: (Units=1/GPa)
#
#
# Indices 1 2 3 4 5 6 
#
# 1 0.012392 -0.002808 -0.000954 0.000000 0.001631 0.000000
# 2 -0.002808 0.014073 -0.004330 0.000000 0.002986 0.000000
# 3 -0.000954 -0.004330 0.014631 0.000000 0.005034 0.000000
# 4 0.000000 0.000000 0.000000 0.032265 0.000000 0.005428
# 5 0.001631 0.002986 0.005034 0.000000 0.044667 0.000000
# 6 0.000000 0.000000 0.000000 0.005428 0.000000 0.022024
#
#
# Mechanical properties :
#
#
# Convention : Reuss Voigt Hill
#
# Bulk Modulus (GPa) = 40.14034 44.08514 42.11274
# Shear Modulus (GPa) = 30.38776 33.44723 31.91750
#
# Velocity S-wave (km/s) = 3.70427 3.88628 3.79636
# Velocity P-wave (km/s) = 6.03498 6.32805 6.18325
#
# Compressibility (1/GPa) = 0.02491260
#
# Stress axis : x y z
#
# Youngs Moduli (GPa) = 80.69721 71.06039 68.34632
#
# Poissons Ratio (x) = 0.19951 0.06518
# Poissons Ratio (y) = 0.22657 0.29596
# Poissons Ratio (z) = 0.07696 0.30771
#
# Static dielectric constant tensor:
#      x y z
#    x 4.449330 0.000000 -0.067650 
#    y 0.000000 4.293630 0.000000 
#    z -0.067650 0.000000 3.642560 
# 
# 
# High freq. dielectric constant tensor:
#      x y z
#    x 1.893580 0.000000 -0.011970 
#    y 0.000000 1.883140 0.000000 
#    z -0.011970 0.000000 1.842410 
# 
# From -- ./inp_files/78763.got.cif
#   From: 2010.03.12/outbox.cif.g09.slc.cpg/sg14_40_cif.got.tgz:78763.got - 2010.03.31 13:35:05.
