data_PCOD8126412
_publ_section_title
;
Structure prediction by ZEFSAII (Michael W. Deem and Ramdas Pophale) SiO2 
 PCOD8126412
Probable space group: P 21/C
;
_chemical_formula_sum "Si O2"
_cell_formula_units_Z 28
_cell_length_a 19.764171
_cell_length_b 5.493445
_cell_length_c 12.037966
_cell_angle_alpha 90.000000
_cell_angle_beta 117.684423
_cell_angle_gamma 90.000000
_cell_volume 1157.377021
_symmetry_space_group_name_H-M "P 21/C"
_symmetry_group_IT_number 14
_symmetry_cell_setting 'monoclinic'
loop_
_space_group_symop_operation_xyz
x,y,z
-x,1/2+y,1/2-z
-x,-y,-z
x,1/2-y,1/2+z
loop_
_atom_site_type_symbol
_atom_site_label
_atom_site_fract_x
_atom_site_fract_y
_atom_site_fract_z
Si Si1 0.817788 0.426008 0.599074
Si Si2 0.920501 0.444480 0.071329
Si Si3 0.592516 0.184002 0.268690
Si Si4 0.311914 0.022397 0.844609
Si Si5 0.416197 0.183751 0.108958
Si Si6 0.818720 0.796515 0.874828
Si Si7 0.929742 0.784603 0.793429
O O1 0.847990 0.175958 0.575221
O O2 0.739614 0.376219 0.605975
O O3 0.798599 0.587775 0.476330
O O4 0.878939 0.547631 0.726703
O O5 0.957264 0.605590 0.197543
O O6 0.989979 0.274009 0.081461
O O7 0.882826 0.583492 0.940114
O O8 0.649691 0.174936 0.207488
O O9 0.506524 0.180931 0.157762
O O10 0.608829 0.438185 0.343890
O O11 0.608075 0.937744 0.351668
O O12 0.260845 0.212358 0.737017
O O13 0.376584 0.177189 0.958171
O O14 0.871405 0.951959 0.826082
#
# Coordination Sequence:
#
# PCOD8126412 Si02
#       7
#     4   4   4   4   4   4   4
#     4  10  23  41  60  92 123 165 219 268 326 400
#     4  11  21  40  62  86 123 163 220 275 328 399
#     4  10  23  45  72 105 137 180 225 281 327 398
#     4  11  23  43  66  94 137 175 213 273 341 400
#     4  10  23  45  73 104 139 176 232 272 330 405
#     4  10  24  40  60  92 124 167 219 272 332 395
#     4  10  21  40  62  85 118 164 216 273 334 385
#
# _framework density 24.192637000000001
#
# number of rings (size 3 to 8) (size 9 to 14) (size 15 to 20)
#    0.000    1.714    1.429    1.714    2.000    4.000 
#   10.286    4.286    0.000    0.000    0.000    0.000 
#    0.000    0.000    0.000    0.000    0.000    0.000 
#
# Total GULP energy -346964.863761 kJ/mol
# GULP energy per Si atom -12391.602277 kJ/mol
# Density = 2.413757 g / cm^3
# Si number density = 24.192637 Si / 1000 Ang^3
#
#
#
# Elastic Constant Matrix: (Units=GPa)
#
#
# Indices 1 2 3 4 5 6 
#
# 1 139.1138 14.2210 33.5853 0.0000 -15.4488 0.0000
# 2 14.2210 76.5156 19.4787 0.0000 4.5140 0.0000
# 3 33.5853 19.4787 136.8023 0.0000 16.4289 0.0000
# 4 0.0000 0.0000 0.0000 9.9460 0.0000 4.0391
# 5 -15.4488 4.5140 16.4289 0.0000 39.8527 0.0000
# 6 0.0000 0.0000 0.0000 4.0391 0.0000 18.7160
#
#
#
# Elastic Compliance Matrix: (Units=1/GPa)
#
#
# Indices 1 2 3 4 5 6 
#
# 1 0.008380 -0.001202 -0.002412 0.000000 0.004379 0.000000
# 2 -0.001202 0.013756 -0.001495 0.000000 -0.001408 0.000000
# 3 -0.002412 -0.001495 0.008634 0.000000 -0.004325 0.000000
# 4 0.000000 0.000000 0.000000 0.110201 0.000000 -0.023783
# 5 0.004379 -0.001408 -0.004325 0.000000 0.028732 0.000000
# 6 0.000000 0.000000 0.000000 -0.023783 0.000000 0.058563
#
#
# Mechanical properties :
#
#
# Convention : Reuss Voigt Hill
#
# Bulk Modulus (GPa) = 48.65366 54.11130 51.38248
# Shear Modulus (GPa) = 20.38038 32.71272 26.54655
#
# Velocity S-wave (km/s) = 2.90560 3.68118 3.31614
# Velocity P-wave (km/s) = 5.60457 6.36267 5.99562
#
# Compressibility (1/GPa) = 0.02055344
#
# Stress axis : x y z
#
# Youngs Moduli (GPa) = 119.33457 72.69491 115.81860
#
# Poissons Ratio (x) = 0.08736 0.27936
# Poissons Ratio (y) = 0.14341 0.17310
# Poissons Ratio (z) = 0.28784 0.10865
#
# Static dielectric constant tensor:
#      x y z
#    x 4.633630 0.000000 -0.185030 
#    y 0.000000 4.165430 0.000000 
#    z -0.185030 0.000000 4.602000 
# 
# 
# High freq. dielectric constant tensor:
#      x y z
#    x 1.981680 0.000000 -0.000410 
#    y 0.000000 1.927870 0.000000 
#    z -0.000410 0.000000 1.975330 
# 
# From -- ./inp_files/34791.got.cif
#   From: 2010.03.12/outbox.cif.g09.slc.cpg/sg14_18_cif.got.tgz:34791.got - 2010.03.31 13:35:05.
