data_PCOD8126964
_publ_section_title
;
Structure prediction by ZEFSAII (Michael W. Deem and Ramdas Pophale) SiO2 
 PCOD8126964
Probable space group: P 21/C
;
_chemical_formula_sum "Si O2"
_cell_formula_units_Z 24
_cell_length_a 14.349425
_cell_length_b 9.006794
_cell_length_c 14.437662
_cell_angle_alpha 90.000000
_cell_angle_beta 148.017414
_cell_angle_gamma 90.000000
_cell_volume 988.325493
_symmetry_space_group_name_H-M "P 21/C"
_symmetry_group_IT_number 14
_symmetry_cell_setting 'monoclinic'
loop_
_space_group_symop_operation_xyz
x,y,z
-x,1/2+y,1/2-z
-x,-y,-z
x,1/2-y,1/2+z
loop_
_atom_site_type_symbol
_atom_site_label
_atom_site_fract_x
_atom_site_fract_y
_atom_site_fract_z
Si Si1 0.810035 0.431936 0.829366
Si Si2 0.447171 0.455350 0.768867
Si Si3 0.829156 0.405075 0.333773
Si Si4 0.215463 0.958615 0.902685
Si Si5 0.028195 0.685469 0.729169
Si Si6 0.314953 0.351744 0.130403
O O1 0.821762 0.260079 0.870986
O O2 0.729179 0.443563 0.657457
O O3 0.681254 0.527346 0.784790
O O4 0.000000 0.500000 0.000000
O O5 0.338965 0.506900 0.768015
O O6 0.361940 0.487899 0.596192
O O7 0.626991 0.553189 0.913126
O O8 0.460412 0.275355 0.781682
O O9 0.000000 0.500000 0.500000
O O10 0.835232 0.392668 0.227330
O O11 0.141328 0.804206 0.881267
O O12 0.050947 0.072755 0.764309
O O13 0.873808 0.772032 0.541256
#
# Coordination Sequence:
#
# PCOD8126964 Si02
#       6
#     4   4   4   4   4   4
#     4  11  21  37  64  90 120 163 206 252 313 369
#     4  11  24  39  65  90 126 165 206 260 307 374
#     4  11  19  39  62  91 121 162 206 248 310 372
#     4  10  22  36  61  95 118 160 207 265 296 368
#     4  10  22  38  63  92 124 158 216 248 311 369
#     4  11  22  42  59  93 122 168 205 250 319 369
#
# _framework density 24.283497000000001
#
# number of rings (size 3 to 8) (size 9 to 14) (size 15 to 20)
#    0.000    1.333    6.667    1.000    2.333    3.333 
#    0.000    1.667    0.000    9.000    0.000    0.000 
#    0.000    0.000    0.000    0.000    0.000    0.000 
#
# Total GULP energy -297347.698298 kJ/mol
# GULP energy per Si atom -12389.487429 kJ/mol
# Density = 2.422823 g / cm^3
# Si number density = 24.283497 Si / 1000 Ang^3
#
#
#
# Elastic Constant Matrix: (Units=GPa)
#
#
# Indices 1 2 3 4 5 6 
#
# 1 126.9928 52.6987 6.5094 0.0000 11.5203 0.0000
# 2 52.6987 166.4330 -10.0781 0.0000 -8.2903 0.0000
# 3 6.5094 -10.0781 27.5381 0.0000 -10.8259 0.0000
# 4 0.0000 0.0000 0.0000 22.1018 0.0000 -2.0087
# 5 11.5203 -8.2903 -10.8259 0.0000 17.9090 0.0000
# 6 0.0000 0.0000 0.0000 -2.0087 0.0000 55.1211
#
#
#
# Elastic Compliance Matrix: (Units=1/GPa)
#
#
# Indices 1 2 3 4 5 6 
#
# 1 0.012389 -0.005528 -0.011924 0.000000 -0.017737 0.000000
# 2 -0.005528 0.009057 0.010057 0.000000 0.013828 0.000000
# 3 -0.011924 0.010057 0.062515 0.000000 0.050116 0.000000
# 4 0.000000 0.000000 0.000000 0.045395 0.000000 0.001654
# 5 -0.017737 0.013828 0.050116 0.000000 0.103944 0.000000
# 6 0.000000 0.000000 0.000000 0.001654 0.000000 0.018202
#
#
# Mechanical properties :
#
#
# Convention : Reuss Voigt Hill
#
# Bulk Modulus (GPa) = 14.45715 46.58042 30.51879
# Shear Modulus (GPa) = 17.28022 37.14865 27.21444
#
# Velocity S-wave (km/s) = 2.67048 3.91550 3.35131
# Velocity P-wave (km/s) = 3.93384 6.29802 5.25072
#
# Compressibility (1/GPa) = 0.06916990
#
# Stress axis : x y z
#
# Youngs Moduli (GPa) = 80.71834 110.41552 15.99626
#
# Poissons Ratio (x) = 0.61041 0.19074
# Poissons Ratio (y) = 0.44623 -0.16088
# Poissons Ratio (z) = 0.96251 -1.11050
#
# Static dielectric constant tensor:
#      x y z
#    x 4.950180 0.000000 0.127090 
#    y 0.000000 5.362050 0.000000 
#    z 0.127090 0.000000 3.827610 
# 
# 
# High freq. dielectric constant tensor:
#      x y z
#    x 1.971670 0.000000 0.009200 
#    y 0.000000 1.993380 0.000000 
#    z 0.009200 0.000000 1.924460 
# 
# From -- ./inp_files/46602.got.cif
#   From: 2010.03.12/outbox.cif.g09.slc.cpg/sg14_24_cif.got.tgz:46602.got - 2010.03.31 13:35:05.
