data_PCOD8126669
_publ_section_title
;
Structure prediction by ZEFSAII (Michael W. Deem and Ramdas Pophale) SiO2 
 PCOD8126669
Probable space group: P 21/C
;
_chemical_formula_sum "Si O2"
_cell_formula_units_Z 24
_cell_length_a 13.536623
_cell_length_b 7.717044
_cell_length_c 14.086099
_cell_angle_alpha 90.000000
_cell_angle_beta 137.047913
_cell_angle_gamma 90.000000
_cell_volume 1002.641309
_symmetry_space_group_name_H-M "P 21/C"
_symmetry_group_IT_number 14
_symmetry_cell_setting 'monoclinic'
loop_
_space_group_symop_operation_xyz
x,y,z
-x,1/2+y,1/2-z
-x,-y,-z
x,1/2-y,1/2+z
loop_
_atom_site_type_symbol
_atom_site_label
_atom_site_fract_x
_atom_site_fract_y
_atom_site_fract_z
Si Si1 0.917606 0.168101 0.320619
Si Si2 0.601706 0.341631 0.555560
Si Si3 0.625379 0.058042 0.873793
Si Si4 0.889209 0.963530 0.697525
Si Si5 0.584276 0.678202 0.927632
Si Si6 0.937330 0.346812 0.516860
O O1 0.757498 0.091407 0.200287
O O2 0.913244 0.352317 0.262905
O O3 0.952783 0.181076 0.457950
O O4 0.035284 0.044254 0.353088
O O5 0.500000 0.500000 0.500000
O O6 0.606071 0.301548 0.445773
O O7 0.536119 0.186428 0.572875
O O8 0.486922 0.069360 0.707787
O O9 0.770766 0.110191 0.921870
O O10 0.636694 0.864868 0.925140
O O11 0.719995 0.925151 0.566084
O O12 0.968058 0.820842 0.821034
O O13 0.000000 0.500000 0.500000
#
# Coordination Sequence:
#
# PCOD8126669 Si02
#       6
#     4   4   4   4   4   4
#     4  11  23  44  71 102 134 181 225 280 341 408
#     4  10  23  42  69  96 139 175 223 282 342 394
#     4  11  23  43  67  94 141 172 228 280 344 399
#     4  11  25  42  71  99 138 176 227 281 344 402
#     4  11  25  42  67 102 131 182 226 283 340 411
#     4  10  21  41  67  95 131 177 221 278 327 410
#
# _framework density 23.936775000000001
#
# number of rings (size 3 to 8) (size 9 to 14) (size 15 to 20)
#    0.000    1.333    3.333    2.000    4.667    4.667 
#    0.000    0.833    0.000    0.000    0.000    0.000 
#    0.000    0.000    0.000    0.000    0.000    0.000 
#
# Total GULP energy -297505.395730 kJ/mol
# GULP energy per Si atom -12396.058155 kJ/mol
# Density = 2.388229 g / cm^3
# Si number density = 23.936775 Si / 1000 Ang^3
#
#
#
# Elastic Constant Matrix: (Units=GPa)
#
#
# Indices 1 2 3 4 5 6 
#
# 1 134.2838 -7.8942 12.3981 0.0000 5.4170 0.0000
# 2 -7.8942 17.1538 -24.4590 0.0000 -4.2782 0.0000
# 3 12.3981 -24.4590 120.3689 0.0000 4.9167 0.0000
# 4 0.0000 0.0000 0.0000 25.7089 0.0000 6.0727
# 5 5.4170 -4.2782 4.9167 0.0000 45.4520 0.0000
# 6 0.0000 0.0000 0.0000 6.0727 0.0000 23.4638
#
#
#
# Elastic Compliance Matrix: (Units=1/GPa)
#
#
# Indices 1 2 3 4 5 6 
#
# 1 0.007671 0.003223 -0.000111 0.000000 -0.000599 0.000000
# 2 0.003223 0.085063 0.016715 0.000000 0.005814 0.000000
# 3 -0.000111 0.016715 0.011703 0.000000 0.000321 0.000000
# 4 0.000000 0.000000 0.000000 0.041430 0.000000 -0.010722
# 5 -0.000599 0.005814 0.000321 0.000000 0.022585 0.000000
# 6 0.000000 0.000000 0.000000 -0.010722 0.000000 0.045394
#
#
# Mechanical properties :
#
#
# Convention : Reuss Voigt Hill
#
# Bulk Modulus (GPa) = 6.94003 25.76625 16.35314
# Shear Modulus (GPa) = 22.50011 38.37571 30.43791
#
# Velocity S-wave (km/s) = 3.06924 4.00836 3.56981
# Velocity P-wave (km/s) = 3.93267 5.67540 4.88242
#
# Compressibility (1/GPa) = 0.14409163
#
# Stress axis : x y z
#
# Youngs Moduli (GPa) = 130.36517 11.75596 85.45042
#
# Poissons Ratio (x) = -0.03789 0.00946
# Poissons Ratio (y) = -0.42014 -1.42834
# Poissons Ratio (z) = 0.01444 -0.19651
#
# Static dielectric constant tensor:
#      x y z
#    x 5.228130 0.000000 -0.370740 
#    y 0.000000 4.020890 0.000000 
#    z -0.370740 0.000000 4.883280 
# 
# 
# High freq. dielectric constant tensor:
#      x y z
#    x 1.972690 0.000000 -0.008160 
#    y 0.000000 1.928230 0.000000 
#    z -0.008160 0.000000 1.958700 
# 
# From -- ./inp_files/46610.got.cif
#   From: 2010.03.12/outbox.cif.g09.slc.cpg/sg14_24_cif.got.tgz:46610.got - 2010.03.31 13:35:05.
