data_PCOD8126963
_publ_section_title
;
Structure prediction by ZEFSAII (Michael W. Deem and Ramdas Pophale) SiO2 
 PCOD8126963
Probable space group: P 21/C
;
_chemical_formula_sum "Si O2"
_cell_formula_units_Z 28
_cell_length_a 9.686425
_cell_length_b 11.225244
_cell_length_c 14.354737
_cell_angle_alpha 90.000000
_cell_angle_beta 70.870822
_cell_angle_gamma 90.000000
_cell_volume 1474.640750
_symmetry_space_group_name_H-M "P 21/C"
_symmetry_group_IT_number 14
_symmetry_cell_setting 'monoclinic'
loop_
_space_group_symop_operation_xyz
x,y,z
-x,1/2+y,1/2-z
-x,-y,-z
x,1/2-y,1/2+z
loop_
_atom_site_type_symbol
_atom_site_label
_atom_site_fract_x
_atom_site_fract_y
_atom_site_fract_z
Si Si1 0.467090 0.224326 0.618961
Si Si2 0.323730 0.919311 0.863686
Si Si3 0.401274 0.183306 0.843489
Si Si4 0.702265 0.284300 0.805388
Si Si5 0.261956 0.595594 0.010639
Si Si6 0.232987 0.317757 0.023653
Si Si7 0.902144 0.262760 0.101651
O O1 0.558430 0.346197 0.601976
O O2 0.400291 0.191643 0.733095
O O3 0.573122 0.116753 0.562108
O O4 0.335514 0.244285 0.577233
O O5 0.354559 0.895424 0.746268
O O6 0.161915 0.864421 0.922262
O O7 0.334981 0.056221 0.888173
O O8 0.563625 0.197106 0.851113
O O9 0.293706 0.284224 0.908206
O O10 0.828359 0.213237 0.719932
O O11 0.765426 0.330415 0.888615
O O12 0.144376 0.633633 0.959333
O O13 0.233702 0.458353 0.038262
O O14 0.074660 0.260693 0.073483
#
# Coordination Sequence:
#
# PCOD8126963 Si02
#       7
#     4   4   4   4   4   4   4
#     4  10  22  36  61  92 117 156 210 249 294 358
#     4   8  20  40  58  81 129 151 196 245 309 352
#     4  11  21  36  66  90 117 161 204 256 299 357
#     4   9  20  39  62  85 120 162 200 254 302 359
#     4  11  20  40  65  86 118 164 203 249 296 358
#     4  12  24  36  64  95 119 156 213 244 303 366
#     4   9  23  41  57  89 127 153 197 254 312 355
#
# _framework density 18.987674999999999
#
# number of rings (size 3 to 8) (size 9 to 14) (size 15 to 20)
#    0.857    1.143    2.857    1.714    4.000    2.286 
#    0.000    1.429    0.000    0.000    0.000    0.000 
#    0.000    0.000    0.000    0.000    0.000    0.000 
#
# Total GULP energy -347064.502687 kJ/mol
# GULP energy per Si atom -12395.160810 kJ/mol
# Density = 1.894446 g / cm^3
# Si number density = 18.987675 Si / 1000 Ang^3
#
#
#
# Elastic Constant Matrix: (Units=GPa)
#
#
# Indices 1 2 3 4 5 6 
#
# 1 141.5809 28.4889 51.3719 0.0000 -7.4162 0.0000
# 2 28.4889 60.9872 32.1087 0.0000 7.6225 0.0000
# 3 51.3719 32.1087 113.4189 0.0000 0.5370 0.0000
# 4 0.0000 0.0000 0.0000 19.8264 0.0000 -1.4765
# 5 -7.4162 7.6225 0.5370 0.0000 30.6378 0.0000
# 6 0.0000 0.0000 0.0000 -1.4765 0.0000 16.0850
#
#
#
# Elastic Compliance Matrix: (Units=1/GPa)
#
#
# Indices 1 2 3 4 5 6 
#
# 1 0.008976 -0.002835 -0.003277 0.000000 0.002936 0.000000
# 2 -0.002835 0.020865 -0.004595 0.000000 -0.005797 0.000000
# 3 -0.003277 -0.004595 0.011602 0.000000 0.000147 0.000000
# 4 0.000000 0.000000 0.000000 0.050785 0.000000 0.004662
# 5 0.002936 -0.005797 0.000147 0.000000 0.034790 0.000000
# 6 0.000000 0.000000 0.000000 0.004662 0.000000 0.062597
#
#
# Mechanical properties :
#
#
# Convention : Reuss Voigt Hill
#
# Bulk Modulus (GPa) = 49.92941 59.99179 54.96060
# Shear Modulus (GPa) = 22.96679 26.91099 24.93889
#
# Velocity S-wave (km/s) = 3.48165 3.76877 3.62805
# Velocity P-wave (km/s) = 6.52038 7.11350 6.82339
#
# Compressibility (1/GPa) = 0.02002827
#
# Stress axis : x y z
#
# Youngs Moduli (GPa) = 111.40373 47.92720 86.19566
#
# Poissons Ratio (x) = 0.13586 0.28248
# Poissons Ratio (y) = 0.31579 0.39611
# Poissons Ratio (z) = 0.36509 0.22025
#
# Static dielectric constant tensor:
#      x y z
#    x 3.351550 0.000000 0.034720 
#    y 0.000000 3.228320 0.000000 
#    z 0.034720 0.000000 3.484050 
# 
# 
# High freq. dielectric constant tensor:
#      x y z
#    x 1.727980 0.000000 0.004420 
#    y 0.000000 1.719030 0.000000 
#    z 0.004420 0.000000 1.740490 
# 
# From -- ./inp_files/39656.got.cif
#   From: 2010.03.12/outbox.cif.g09.slc.cpg/sg14_20_cif.got.tgz:39656.got - 2010.03.31 13:35:05.
