data_PCOD8126998
_publ_section_title
;
Structure prediction by ZEFSAII (Michael W. Deem and Ramdas Pophale) SiO2 
 PCOD8126998
Probable space group: P 21/C
;
_chemical_formula_sum "Si O2"
_cell_formula_units_Z 24
_cell_length_a 5.501716
_cell_length_b 21.678661
_cell_length_c 12.954488
_cell_angle_alpha 90.000000
_cell_angle_beta 45.180105
_cell_angle_gamma 90.000000
_cell_volume 1095.965208
_symmetry_space_group_name_H-M "P 21/C"
_symmetry_group_IT_number 14
_symmetry_cell_setting 'monoclinic'
loop_
_space_group_symop_operation_xyz
x,y,z
-x,1/2+y,1/2-z
-x,-y,-z
x,1/2-y,1/2+z
loop_
_atom_site_type_symbol
_atom_site_label
_atom_site_fract_x
_atom_site_fract_y
_atom_site_fract_z
Si Si1 0.113056 0.125205 0.743438
Si Si2 0.701767 0.165722 0.443245
Si Si3 0.313705 0.693679 0.276706
Si Si4 0.723172 0.440179 0.190113
Si Si5 0.065986 0.275128 0.417284
Si Si6 0.792148 0.923465 0.637427
O O1 0.301752 0.157754 0.589312
O O2 0.391881 0.089580 0.732722
O O3 0.807625 0.085600 0.780814
O O4 0.939080 0.176004 0.869316
O O5 0.806907 0.196857 0.304435
O O6 0.845994 0.212544 0.485277
O O7 0.880754 0.098594 0.393895
O O8 0.993548 0.695886 0.450919
O O9 0.503554 0.628456 0.233438
O O10 0.545157 0.755038 0.222136
O O11 0.643690 0.512853 0.226640
O O12 0.074772 0.432069 0.019775
#
# Coordination Sequence:
#
# PCOD8126998 Si02
#       6
#     4   4   4   4   4   4
#     4  11  23  42  64  97 128 172 211 269 321 382
#     4  10  22  37  64  89 128 167 219 262 321 385
#     4  11  23  40  63  92 129 167 219 268 328 385
#     4  10  22  40  68  93 132 166 222 264 316 383
#     4  11  25  39  60  95 130 172 211 272 327 390
#     4   9  21  38  63  96 120 171 218 268 315 383
#
# _framework density 21.898506999999999
#
# number of rings (size 3 to 8) (size 9 to 14) (size 15 to 20)
#    0.000    1.667    3.333    0.000    7.000    2.000 
#    0.000    1.667    0.000    0.000    0.000    0.000 
#    0.000    0.000    0.000    0.000    0.000    0.000 
#
# Total GULP energy -297377.721694 kJ/mol
# GULP energy per Si atom -12390.738404 kJ/mol
# Density = 2.184866 g / cm^3
# Si number density = 21.898507 Si / 1000 Ang^3
#
#
#
# Elastic Constant Matrix: (Units=GPa)
#
#
# Indices 1 2 3 4 5 6 
#
# 1 84.5015 26.0809 16.9556 0.0000 19.2737 0.0000
# 2 26.0809 115.5654 36.9274 0.0000 10.4276 0.0000
# 3 16.9556 36.9274 82.9651 0.0000 17.1999 0.0000
# 4 0.0000 0.0000 0.0000 21.7344 0.0000 13.9359
# 5 19.2737 10.4276 17.1999 0.0000 29.4200 0.0000
# 6 0.0000 0.0000 0.0000 13.9359 0.0000 22.5081
#
#
#
# Elastic Compliance Matrix: (Units=1/GPa)
#
#
# Indices 1 2 3 4 5 6 
#
# 1 0.014586 -0.002486 -0.000087 0.000000 -0.008624 0.000000
# 2 -0.002486 0.010542 -0.004264 0.000000 0.000385 0.000000
# 3 -0.000087 -0.004264 0.015525 0.000000 -0.007509 0.000000
# 4 0.000000 0.000000 0.000000 0.076301 0.000000 -0.047242
# 5 -0.008624 0.000385 -0.007509 0.000000 0.043893 0.000000
# 6 0.000000 0.000000 0.000000 -0.047242 0.000000 0.073678
#
#
# Mechanical properties :
#
#
# Convention : Reuss Voigt Hill
#
# Bulk Modulus (GPa) = 37.06420 49.21777 43.14098
# Shear Modulus (GPa) = 19.44074 28.27035 23.85555
#
# Velocity S-wave (km/s) = 2.98277 3.59691 3.30414
# Velocity P-wave (km/s) = 5.36887 6.30670 5.85659
#
# Compressibility (1/GPa) = 0.02698021
#
# Stress axis : x y z
#
# Youngs Moduli (GPa) = 68.56033 94.85983 64.41027
#
# Poissons Ratio (x) = 0.23581 0.00558
# Poissons Ratio (y) = 0.17044 0.27464
# Poissons Ratio (z) = 0.00594 0.40447
#
# Static dielectric constant tensor:
#      x y z
#    x 3.782660 0.000000 0.186540 
#    y 0.000000 4.055320 0.000000 
#    z 0.186540 0.000000 3.625430 
# 
# 
# High freq. dielectric constant tensor:
#      x y z
#    x 1.848180 0.000000 0.016130 
#    y 0.000000 1.869160 0.000000 
#    z 0.016130 0.000000 1.833980 
# 
# From -- ./inp_files/6316.got.cif
#   From: 2010.03.12/outbox.cif.g09.slc.cpg/sg14_4_cif.got.tgz:6316.got - 2010.03.31 13:35:05.
