data_PCOD8126251
_publ_section_title
;
Structure prediction by ZEFSAII (Michael W. Deem and Ramdas Pophale) SiO2 
 PCOD8126251
Probable space group: P 21/C
;
_chemical_formula_sum "Si O2"
_cell_formula_units_Z 28
_cell_length_a 6.849298
_cell_length_b 7.601266
_cell_length_c 34.034735
_cell_angle_alpha 90.000000
_cell_angle_beta 125.819788
_cell_angle_gamma 90.000000
_cell_volume 1436.816075
_symmetry_space_group_name_H-M "P 21/C"
_symmetry_group_IT_number 14
_symmetry_cell_setting 'monoclinic'
loop_
_space_group_symop_operation_xyz
x,y,z
-x,1/2+y,1/2-z
-x,-y,-z
x,1/2-y,1/2+z
loop_
_atom_site_type_symbol
_atom_site_label
_atom_site_fract_x
_atom_site_fract_y
_atom_site_fract_z
Si Si1 0.025686 0.183204 0.413772
Si Si2 0.212439 0.750759 0.690833
Si Si3 0.279174 0.079998 0.253502
Si Si4 0.776884 0.119077 0.461760
Si Si5 0.294651 0.600218 0.907139
Si Si6 0.043202 0.579474 0.800574
Si Si7 0.457333 0.801259 0.998189
O O1 0.290910 0.212850 0.462061
O O2 0.936342 0.300763 0.366470
O O3 0.832725 0.204265 0.425969
O O4 0.058093 0.988667 0.399293
O O5 0.452220 0.854641 0.707164
O O6 0.261511 0.560372 0.715842
O O7 0.071050 0.890595 0.701309
O O8 0.135952 0.260584 0.229421
O O9 0.197906 0.965188 0.280802
O O10 0.744739 0.262425 0.492565
O O11 0.525045 0.022483 0.428462
O O12 0.000000 0.000000 0.500000
O O13 0.216391 0.660078 0.854623
O O14 0.368404 0.756897 0.944135
O O15 0.500000 0.000000 0.000000
#
# Coordination Sequence:
#
# PCOD8126251 Si02
#       7
#     4   4   4   4   4   4   4
#     4  10  21  40  63  86 121 165 204 244 308 375
#     4  11  24  41  66  96 126 165 212 266 316 375
#     4  12  23  44  65  93 125 165 214 263 319 372
#     4  11  18  39  64  83 116 166 205 239 296 375
#     4  10  21  39  61  90 119 166 201 247 315 368
#     4  11  24  41  67  92 131 165 209 264 320 381
#     4  11  23  37  58  92 131 154 198 259 305 363
#
# _framework density 19.487532000000002
#
# number of rings (size 3 to 8) (size 9 to 14) (size 15 to 20)
#    0.000    1.143    5.714    1.714    2.000    0.571 
#    0.000    1.429    0.000    0.000    0.000    0.000 
#    0.000    0.000    0.000    0.000    0.000    0.000 
#
# Total GULP energy -346892.371580 kJ/mol
# GULP energy per Si atom -12389.013271 kJ/mol
# Density = 1.944318 g / cm^3
# Si number density = 19.487532 Si / 1000 Ang^3
#
#
#
# Elastic Constant Matrix: (Units=GPa)
#
#
# Indices 1 2 3 4 5 6 
#
# 1 102.5548 15.7739 16.2872 0.0000 -10.2811 0.0000
# 2 15.7739 57.5026 1.4762 0.0000 -12.2334 0.0000
# 3 16.2872 1.4762 92.4163 0.0000 -7.9860 0.0000
# 4 0.0000 0.0000 0.0000 16.7716 0.0000 -3.8829
# 5 -10.2811 -12.2334 -7.9860 0.0000 28.3662 0.0000
# 6 0.0000 0.0000 0.0000 -3.8829 0.0000 29.1101
#
#
#
# Elastic Compliance Matrix: (Units=1/GPa)
#
#
# Indices 1 2 3 4 5 6 
#
# 1 0.010611 -0.002365 -0.001628 0.000000 0.002367 0.000000
# 2 -0.002365 0.019690 0.000781 0.000000 0.007854 0.000000
# 3 -0.001628 0.000781 0.011349 0.000000 0.002942 0.000000
# 4 0.000000 0.000000 0.000000 0.061525 0.000000 0.008207
# 5 0.002367 0.007854 0.002942 0.000000 0.040327 0.000000
# 6 0.000000 0.000000 0.000000 0.008207 0.000000 0.035447
#
#
# Mechanical properties :
#
#
# Convention : Reuss Voigt Hill
#
# Bulk Modulus (GPa) = 28.38777 35.50537 31.94657
# Shear Modulus (GPa) = 25.36602 29.44533 27.40568
#
# Velocity S-wave (km/s) = 3.61176 3.89135 3.75416
# Velocity P-wave (km/s) = 5.65613 6.20075 5.93469
#
# Compressibility (1/GPa) = 0.03522643
#
# Stress axis : x y z
#
# Youngs Moduli (GPa) = 94.24625 50.78658 88.11192
#
# Poissons Ratio (x) = 0.12012 0.14341
# Poissons Ratio (y) = 0.22291 -0.06882
# Poissons Ratio (z) = 0.15340 -0.03967
#
# Static dielectric constant tensor:
#      x y z
#    x 3.827760 0.000000 -0.075830 
#    y 0.000000 3.326940 0.000000 
#    z -0.075830 0.000000 3.532730 
# 
# 
# High freq. dielectric constant tensor:
#      x y z
#    x 1.768500 0.000000 -0.004570 
#    y 0.000000 1.739020 0.000000 
#    z -0.004570 0.000000 1.777880 
# 
# From -- ./inp_files/78739.got.cif
#   From: 2010.03.12/outbox.cif.g09.slc.cpg/sg14_40_cif.got.tgz:78739.got - 2010.03.31 13:35:05.
