data_PCOD8126024
_publ_section_title
;
Structure prediction by ZEFSAII (Michael W. Deem and Ramdas Pophale) SiO2 
 PCOD8126024
Probable space group: P 21/C
;
_chemical_formula_sum "Si O2"
_cell_formula_units_Z 28
_cell_length_a 8.132325
_cell_length_b 10.606973
_cell_length_c 14.934576
_cell_angle_alpha 90.000000
_cell_angle_beta 91.428094
_cell_angle_gamma 90.000000
_cell_volume 1287.846701
_symmetry_space_group_name_H-M "P 21/C"
_symmetry_group_IT_number 14
_symmetry_cell_setting 'monoclinic'
loop_
_space_group_symop_operation_xyz
x,y,z
-x,1/2+y,1/2-z
-x,-y,-z
x,1/2-y,1/2+z
loop_
_atom_site_type_symbol
_atom_site_label
_atom_site_fract_x
_atom_site_fract_y
_atom_site_fract_z
Si Si1 0.663729 0.340614 0.522032
Si Si2 0.628642 0.329393 0.727438
Si Si3 0.001674 0.221985 0.485989
Si Si4 0.403433 0.398054 0.262057
Si Si5 0.080156 0.354343 0.177704
Si Si6 0.976483 0.375498 0.795510
Si Si7 0.315908 0.374230 0.457949
O O1 0.684346 0.307933 0.626553
O O2 0.818296 0.278729 0.473392
O O3 0.482377 0.294543 0.485699
O O4 0.670370 0.487809 0.499577
O O5 0.520740 0.459026 0.736066
O O6 0.545223 0.203947 0.761982
O O7 0.783463 0.348462 0.792932
O O8 0.042342 0.143892 0.397094
O O9 0.011245 0.139316 0.576073
O O10 0.149020 0.322004 0.498737
O O11 0.277504 0.376321 0.178331
O O12 0.296273 0.379849 0.350684
O O13 0.995171 0.475157 0.227659
O O14 0.056168 0.219133 0.224872
#
# Coordination Sequence:
#
# PCOD8126024 Si02
#       7
#     4   4   4   4   4   4   4
#     4  10  21  37  61  95 131 169 219 267 320 394
#     4  10  21  40  61  90 127 167 214 268 319 386
#     4  12  22  40  68  94 131 172 215 270 339 372
#     4  10  21  40  61  90 127 167 214 268 319 386
#     4  11  24  42  64  93 131 169 216 268 322 389
#     4  11  24  42  64  93 131 169 216 268 322 389
#     4  10  21  37  61  95 131 169 219 267 320 394
#
# _framework density 21.741717999999999
#
# number of rings (size 3 to 8) (size 9 to 14) (size 15 to 20)
#    0.000    1.429    2.857    2.571    0.000    2.286 
#    0.000    0.000    0.000    6.000    0.000    0.000 
#    0.000    0.000    0.000    0.000    0.000    0.000 
#
# Total GULP energy -346975.324986 kJ/mol
# GULP energy per Si atom -12391.975892 kJ/mol
# Density = 2.169223 g / cm^3
# Si number density = 21.741718 Si / 1000 Ang^3
#
#
#
# Elastic Constant Matrix: (Units=GPa)
#
#
# Indices 1 2 3 4 5 6 
#
# 1 70.4738 -0.8976 -3.0710 0.0000 4.5488 0.0000
# 2 -0.8976 58.7544 0.9282 0.0000 -10.4703 0.0000
# 3 -3.0710 0.9282 77.7135 0.0000 16.1578 0.0000
# 4 0.0000 0.0000 0.0000 27.5395 0.0000 -2.2804
# 5 4.5488 -10.4703 16.1578 0.0000 32.9474 0.0000
# 6 0.0000 0.0000 0.0000 -2.2804 0.0000 32.8570
#
#
#
# Elastic Compliance Matrix: (Units=1/GPa)
#
#
# Indices 1 2 3 4 5 6 
#
# 1 0.014404 -0.000265 0.001117 0.000000 -0.002621 0.000000
# 2 -0.000265 0.018220 -0.001603 0.000000 0.006613 0.000000
# 3 0.001117 -0.001603 0.014553 0.000000 -0.007801 0.000000
# 4 0.000000 0.000000 0.000000 0.036521 0.000000 0.002535
# 5 -0.002621 0.006613 -0.007801 0.000000 0.036640 0.000000
# 6 0.000000 0.000000 0.000000 0.002535 0.000000 0.030611
#
#
# Mechanical properties :
#
#
# Convention : Reuss Voigt Hill
#
# Bulk Modulus (GPa) = 21.89326 22.31787 22.10557
# Shear Modulus (GPa) = 29.81959 32.66759 31.24359
#
# Velocity S-wave (km/s) = 3.70745 3.88045 3.79494
# Velocity P-wave (km/s) = 5.33089 5.51040 5.42139
#
# Compressibility (1/GPa) = 0.04567615
#
# Stress axis : x y z
#
# Youngs Moduli (GPa) = 69.42451 54.88570 68.71475
#
# Poissons Ratio (x) = 0.01452 -0.07677
# Poissons Ratio (y) = 0.01837 0.11014
# Poissons Ratio (z) = -0.07756 0.08798
#
# Static dielectric constant tensor:
#      x y z
#    x 3.795930 0.000000 0.297540 
#    y 0.000000 4.056610 0.000000 
#    z 0.297540 0.000000 3.796680 
# 
# 
# High freq. dielectric constant tensor:
#      x y z
#    x 1.843560 0.000000 0.026290 
#    y 0.000000 1.850320 0.000000 
#    z 0.026290 0.000000 1.850400 
# 
# From -- ./inp_files/39713.got.cif
#   From: 2010.03.12/outbox.cif.g09.slc.cpg/sg14_20_cif.got.tgz:39713.got - 2010.03.31 13:35:05.
