data_PCOD8126612
_publ_section_title
;
Structure prediction by ZEFSAII (Michael W. Deem and Ramdas Pophale) SiO2 
 PCOD8126612
Probable space group: P 21/C
;
_chemical_formula_sum "Si O2"
_cell_formula_units_Z 28
_cell_length_a 8.838823
_cell_length_b 15.604028
_cell_length_c 10.502884
_cell_angle_alpha 90.000000
_cell_angle_beta 65.651648
_cell_angle_gamma 90.000000
_cell_volume 1319.728649
_symmetry_space_group_name_H-M "P 21/C"
_symmetry_group_IT_number 14
_symmetry_cell_setting 'monoclinic'
loop_
_space_group_symop_operation_xyz
x,y,z
-x,1/2+y,1/2-z
-x,-y,-z
x,1/2-y,1/2+z
loop_
_atom_site_type_symbol
_atom_site_label
_atom_site_fract_x
_atom_site_fract_y
_atom_site_fract_z
Si Si1 0.545986 0.004493 0.288766
Si Si2 0.674713 0.938723 0.852239
Si Si3 0.007357 0.409662 0.922392
Si Si4 0.190620 0.248094 0.453252
Si Si5 0.357288 0.617554 0.036126
Si Si6 0.161787 0.442968 0.455363
Si Si7 0.397425 0.245370 0.123359
O O1 0.440068 0.002823 0.195460
O O2 0.588248 0.098493 0.335072
O O3 0.428820 0.958635 0.428252
O O4 0.719951 0.953964 0.209368
O O5 0.725850 0.981710 0.967967
O O6 0.567076 0.853786 0.917287
O O7 0.848459 0.914692 0.729428
O O8 0.049593 0.325208 0.991424
O O9 0.840287 0.386754 0.905809
O O10 0.000000 0.500000 0.000000
O O11 0.111221 0.343493 0.493659
O O12 0.320662 0.254263 0.291173
O O13 0.276432 0.219545 0.555015
O O14 0.427168 0.706219 0.955027
O O15 0.000000 0.500000 0.500000
#
# Coordination Sequence:
#
# PCOD8126612 Si02
#       7
#     4   4   4   4   4   4   4
#     4  11  22  39  63  92 124 169 221 258 325 393
#     4  10  22  41  65  94 131 171 211 272 331 392
#     4  11  22  39  63  96 126 160 216 275 323 381
#     4  10  23  41  62  90 127 171 212 265 334 384
#     4  11  22  37  65  94 122 166 221 267 317 391
#     4  11  23  41  65  91 133 173 215 267 331 386
#     4  10  21  41  64  87 128 169 213 266 328 385
#
# _framework density 21.216483
#
# number of rings (size 3 to 8) (size 9 to 14) (size 15 to 20)
#    0.000    1.429    2.857    3.000    2.000    2.286 
#    0.000    4.286    0.000    0.000    0.000    0.000 
#    0.000    0.000    0.000    0.000    0.000    0.000 
#
# Total GULP energy -346945.682628 kJ/mol
# GULP energy per Si atom -12390.917237 kJ/mol
# Density = 2.116819 g / cm^3
# Si number density = 21.216483 Si / 1000 Ang^3
#
#
#
# Elastic Constant Matrix: (Units=GPa)
#
#
# Indices 1 2 3 4 5 6 
#
# 1 111.6665 42.7598 31.7723 0.0000 -6.9810 0.0000
# 2 42.7598 96.2799 22.2907 0.0000 -8.9635 0.0000
# 3 31.7723 22.2907 51.3199 0.0000 9.2322 0.0000
# 4 0.0000 0.0000 0.0000 31.9277 0.0000 -4.3281
# 5 -6.9810 -8.9635 9.2322 0.0000 39.8058 0.0000
# 6 0.0000 0.0000 0.0000 -4.3281 0.0000 38.0437
#
#
#
# Elastic Compliance Matrix: (Units=1/GPa)
#
#
# Indices 1 2 3 4 5 6 
#
# 1 0.012441 -0.003730 -0.006599 0.000000 0.002872 0.000000
# 2 -0.003730 0.013286 -0.004051 0.000000 0.003277 0.000000
# 3 -0.006599 -0.004051 0.026822 0.000000 -0.008290 0.000000
# 4 0.000000 0.000000 0.000000 0.031811 0.000000 0.003619
# 5 0.002872 0.003277 -0.008290 0.000000 0.028286 0.000000
# 6 0.000000 0.000000 0.000000 0.003619 0.000000 0.026697
#
#
# Mechanical properties :
#
#
# Convention : Reuss Voigt Hill
#
# Bulk Modulus (GPa) = 42.03614 50.32356 46.17985
# Shear Modulus (GPa) = 28.40389 32.78501 30.59445
#
# Velocity S-wave (km/s) = 3.66288 3.93525 3.80150
# Velocity P-wave (km/s) = 6.14369 6.66474 6.40951
#
# Compressibility (1/GPa) = 0.02378906
#
# Stress axis : x y z
#
# Youngs Moduli (GPa) = 80.38200 75.26759 37.28319
#
# Poissons Ratio (x) = 0.28075 0.24602
# Poissons Ratio (y) = 0.29983 0.15103
# Poissons Ratio (z) = 0.53041 0.30491
#
# Static dielectric constant tensor:
#      x y z
#    x 3.871180 0.000000 0.244390 
#    y 0.000000 4.005310 0.000000 
#    z 0.244390 0.000000 4.017170 
# 
# 
# High freq. dielectric constant tensor:
#      x y z
#    x 1.828330 0.000000 0.008890 
#    y 0.000000 1.827160 0.000000 
#    z 0.008890 0.000000 1.838530 
# 
# From -- ./inp_files/25757.got.cif
#   From: 2010.03.12/outbox.cif.g09.slc.cpg/sg14_13_cif.got.tgz:25757.got - 2010.03.31 13:35:05.
