data_PCOD8126712
_publ_section_title
;
Structure prediction by ZEFSAII (Michael W. Deem and Ramdas Pophale) SiO2 
 PCOD8126712
Probable space group: P 21/C
;
_chemical_formula_sum "Si O2"
_cell_formula_units_Z 32
_cell_length_a 27.209453
_cell_length_b 8.948392
_cell_length_c 10.389421
_cell_angle_alpha 90.000000
_cell_angle_beta 35.332070
_cell_angle_gamma 90.000000
_cell_volume 1462.918475
_symmetry_space_group_name_H-M "P 21/C"
_symmetry_group_IT_number 14
_symmetry_cell_setting 'monoclinic'
loop_
_space_group_symop_operation_xyz
x,y,z
-x,1/2+y,1/2-z
-x,-y,-z
x,1/2-y,1/2+z
loop_
_atom_site_type_symbol
_atom_site_label
_atom_site_fract_x
_atom_site_fract_y
_atom_site_fract_z
Si Si1 0.919227 0.592941 0.015005
Si Si2 0.337797 0.942284 0.740083
Si Si3 0.401013 0.467361 0.537509
Si Si4 0.729689 0.614547 0.390264
Si Si5 0.311684 0.844412 0.425441
Si Si6 0.223874 0.059678 0.767093
Si Si7 0.449840 0.729041 0.833358
Si Si8 0.944556 0.656148 0.251592
O O1 0.947385 0.692511 0.830856
O O2 0.971580 0.439928 0.902963
O O3 0.821851 0.536115 0.207336
O O4 0.932703 0.683546 0.122298
O O5 0.284633 0.789868 0.888098
O O6 0.430529 0.878258 0.499472
O O7 0.298081 0.033440 0.709542
O O8 0.337841 0.057467 0.858951
O O9 0.314103 0.422514 0.651032
O O10 0.370244 0.524716 0.740926
O O11 0.462233 0.323192 0.420163
O O12 0.458796 0.598069 0.351669
O O13 0.752355 0.788682 0.357930
O O14 0.367569 0.772269 0.418651
O O15 0.225821 0.922318 0.661658
O O16 0.134598 0.059206 0.029257
#
# Coordination Sequence:
#
# PCOD8126712 Si02
#       8
#     4   4   4   4   4   4   4   4
#     4  10  23  43  69  96 138 171 219 272 323 394
#     4  10  21  42  59  90 124 160 210 267 315 383
#     4  11  24  40  61  91 126 169 217 270 325 383
#     4  11  23  40  65  91 126 168 214 263 324 382
#     4  10  22  42  62  88 130 161 216 271 323 388
#     4  10  23  39  67  93 124 165 211 256 324 389
#     4  10  23  40  59  88 125 168 214 270 325 385
#     4  10  22  44  66 102 133 173 218 268 324 394
#
# _framework density 21.874082000000001
#
# number of rings (size 3 to 8) (size 9 to 14) (size 15 to 20)
#    0.000    1.750    2.500    0.375    5.250    3.000 
#    0.000    0.000    0.000    0.000    0.000    0.000 
#    0.000    0.000    0.000    0.000    0.000    0.000 
#
# Total GULP energy -396547.034690 kJ/mol
# GULP energy per Si atom -12392.094834 kJ/mol
# Density = 2.182430 g / cm^3
# Si number density = 21.874082 Si / 1000 Ang^3
#
#
#
# Elastic Constant Matrix: (Units=GPa)
#
#
# Indices 1 2 3 4 5 6 
#
# 1 41.6590 15.1172 12.3087 0.0000 -4.1710 0.0000
# 2 15.1172 42.5630 24.3330 0.0000 -3.4169 0.0000
# 3 12.3087 24.3330 55.9431 0.0000 0.1865 0.0000
# 4 0.0000 0.0000 0.0000 43.8531 0.0000 5.5279
# 5 -4.1710 -3.4169 0.1865 0.0000 37.2387 0.0000
# 6 0.0000 0.0000 0.0000 5.5279 0.0000 33.3009
#
#
#
# Elastic Compliance Matrix: (Units=1/GPa)
#
#
# Indices 1 2 3 4 5 6 
#
# 1 0.028010 -0.008290 -0.002565 0.000000 0.002389 0.000000
# 2 -0.008290 0.034049 -0.012993 0.000000 0.002261 0.000000
# 3 -0.002565 -0.012993 0.024097 0.000000 -0.001600 0.000000
# 4 0.000000 0.000000 0.000000 0.023291 0.000000 -0.003866
# 5 0.002389 0.002261 -0.001600 0.000000 0.027337 0.000000
# 6 0.000000 0.000000 0.000000 -0.003866 0.000000 0.030671
#
#
# Mechanical properties :
#
#
# Convention : Reuss Voigt Hill
#
# Bulk Modulus (GPa) = 26.00214 27.07586 26.53900
# Shear Modulus (GPa) = 21.93273 28.77229 25.35251
#
# Velocity S-wave (km/s) = 3.16995 3.63072 3.40813
# Velocity P-wave (km/s) = 5.03101 5.47550 5.25796
#
# Compressibility (1/GPa) = 0.03845837
#
# Stress axis : x y z
#
# Youngs Moduli (GPa) = 35.70180 29.36968 41.49973
#
# Poissons Ratio (x) = 0.24348 0.10644
# Poissons Ratio (y) = 0.29597 0.53922
# Poissons Ratio (z) = 0.09157 0.38161
#
# Static dielectric constant tensor:
#      x y z
#    x 3.897010 0.000000 0.286190 
#    y 0.000000 3.985710 0.000000 
#    z 0.286190 0.000000 4.052620 
# 
# 
# High freq. dielectric constant tensor:
#      x y z
#    x 1.847490 0.000000 0.018080 
#    y 0.000000 1.861350 0.000000 
#    z 0.018080 0.000000 1.857140 
# 
# From -- ./inp_files/33682.got.cif
#   From: 2010.03.12/outbox.cif.g09.slc.cpg/sg14_17_cif.got.tgz:33682.got - 2010.03.31 13:35:05.
