data_PCOD8126869
_publ_section_title
;
Structure prediction by ZEFSAII (Michael W. Deem and Ramdas Pophale) SiO2 
 PCOD8126869
Probable space group: P 21/C
;
_chemical_formula_sum "Si O2"
_cell_formula_units_Z 28
_cell_length_a 11.060007
_cell_length_b 5.478691
_cell_length_c 21.925253
_cell_angle_alpha 90.000000
_cell_angle_beta 66.961094
_cell_angle_gamma 90.000000
_cell_volume 1222.580904
_symmetry_space_group_name_H-M "P 21/C"
_symmetry_group_IT_number 14
_symmetry_cell_setting 'monoclinic'
loop_
_space_group_symop_operation_xyz
x,y,z
-x,1/2+y,1/2-z
-x,-y,-z
x,1/2-y,1/2+z
loop_
_atom_site_type_symbol
_atom_site_label
_atom_site_fract_x
_atom_site_fract_y
_atom_site_fract_z
Si Si1 0.311800 0.063688 0.088034
Si Si2 0.795071 0.526220 0.170427
Si Si3 0.032785 0.243933 0.146619
Si Si4 0.380148 0.287473 0.896692
Si Si5 0.405606 0.719907 0.464296
Si Si6 0.335364 0.719717 0.703281
Si Si7 0.123772 0.395749 0.253843
O O1 0.180520 0.209628 0.092415
O O2 0.438702 0.236026 0.051900
O O3 0.304651 0.996449 0.160534
O O4 0.328769 0.818930 0.043394
O O5 0.740085 0.691839 0.127096
O O6 0.688612 0.332204 0.218997
O O7 0.809290 0.659029 0.232251
O O8 0.936552 0.407446 0.122640
O O9 0.027439 0.354199 0.216044
O O10 0.960941 0.986026 0.170865
O O11 0.361809 0.523903 0.944024
O O12 0.515274 0.309460 0.833057
O O13 0.371224 0.024156 0.931111
O O14 0.238583 0.936193 0.704237
#
# Coordination Sequence:
#
# PCOD8126869 Si02
#       7
#     4   4   4   4   4   4   4
#     4  10  21  43  70  95 123 167 226 279 324 369
#     4  11  25  38  61  96 134 172 208 265 341 408
#     4  11  20  37  60  95 127 167 210 274 327 396
#     4  11  26  44  64  94 138 174 212 264 329 398
#     4  10  25  46  68  96 126 173 227 275 315 382
#     4  10  23  36  67  96 125 166 214 273 333 394
#     4  11  20  36  58  95 130 157 211 260 336 388
#
# _framework density 22.902370000000001
#
# number of rings (size 3 to 8) (size 9 to 14) (size 15 to 20)
#    0.000    1.429    2.857    1.714    8.000    6.286 
#    0.000    1.429    0.000    0.000    0.000    0.000 
#    0.000    0.000    0.000    0.000    0.000    0.000 
#
# Total GULP energy -346876.790356 kJ/mol
# GULP energy per Si atom -12388.456798 kJ/mol
# Density = 2.285024 g / cm^3
# Si number density = 22.902370 Si / 1000 Ang^3
#
#
#
# Elastic Constant Matrix: (Units=GPa)
#
#
# Indices 1 2 3 4 5 6 
#
# 1 125.0138 16.5745 31.2196 0.0000 -6.4812 0.0000
# 2 16.5745 60.3824 5.7331 0.0000 -0.4301 0.0000
# 3 31.2196 5.7331 56.6229 0.0000 -10.2564 0.0000
# 4 0.0000 0.0000 0.0000 21.4868 0.0000 4.1642
# 5 -6.4812 -0.4301 -10.2564 0.0000 29.7918 0.0000
# 6 0.0000 0.0000 0.0000 4.1642 0.0000 31.7527
#
#
#
# Elastic Compliance Matrix: (Units=1/GPa)
#
#
# Indices 1 2 3 4 5 6 
#
# 1 0.009546 -0.002144 -0.004986 0.000000 0.000329 0.000000
# 2 -0.002144 0.017207 -0.000639 0.000000 -0.000438 0.000000
# 3 -0.004986 -0.000639 0.021625 0.000000 0.006351 0.000000
# 4 0.000000 0.000000 0.000000 0.047754 0.000000 -0.006263
# 5 0.000329 -0.000438 0.006351 0.000000 0.035818 0.000000
# 6 0.000000 0.000000 0.000000 -0.006263 0.000000 0.032315
#
#
# Mechanical properties :
#
#
# Convention : Reuss Voigt Hill
#
# Bulk Modulus (GPa) = 30.45259 38.78595 34.61927
# Shear Modulus (GPa) = 26.21221 29.17240 27.69230
#
# Velocity S-wave (km/s) = 3.38674 3.57287 3.48105
# Velocity P-wave (km/s) = 5.34967 5.83032 5.59516
#
# Compressibility (1/GPa) = 0.03283793
#
# Stress axis : x y z
#
# Youngs Moduli (GPa) = 104.75873 58.11480 46.24258
#
# Poissons Ratio (x) = 0.12462 0.23058
# Poissons Ratio (y) = 0.22465 0.02956
# Poissons Ratio (z) = 0.52237 0.03715
#
# Static dielectric constant tensor:
#      x y z
#    x 4.136870 0.000000 -0.136320 
#    y 0.000000 4.084910 0.000000 
#    z -0.136320 0.000000 3.816920 
# 
# 
# High freq. dielectric constant tensor:
#      x y z
#    x 1.901170 0.000000 -0.013670 
#    y 0.000000 1.905930 0.000000 
#    z -0.013670 0.000000 1.878440 
# 
# From -- ./inp_files/66270.got.cif
#   From: 2010.03.12/outbox.cif.g09.slc.cpg/sg14_34_cif.got.tgz:66270.got - 2010.03.31 13:35:05.
