data_PCOD8126790
_publ_section_title
;
Structure prediction by ZEFSAII (Michael W. Deem and Ramdas Pophale) SiO2 
 PCOD8126790
Probable space group: P 21/C
;
_chemical_formula_sum "Si O2"
_cell_formula_units_Z 32
_cell_length_a 11.279151
_cell_length_b 9.357820
_cell_length_c 27.106290
_cell_angle_alpha 90.000000
_cell_angle_beta 148.840458
_cell_angle_gamma 90.000000
_cell_volume 1480.358195
_symmetry_space_group_name_H-M "P 21/C"
_symmetry_group_IT_number 14
_symmetry_cell_setting 'monoclinic'
loop_
_space_group_symop_operation_xyz
x,y,z
-x,1/2+y,1/2-z
-x,-y,-z
x,1/2-y,1/2+z
loop_
_atom_site_type_symbol
_atom_site_label
_atom_site_fract_x
_atom_site_fract_y
_atom_site_fract_z
Si Si1 0.469837 0.675394 0.590815
Si Si2 0.654716 0.424786 0.887013
Si Si3 0.920874 0.784254 0.642553
Si Si4 0.977306 0.873054 0.559742
Si Si5 0.101549 0.045278 0.984184
Si Si6 0.573576 0.165586 0.525119
Si Si7 0.842469 0.999187 0.797398
Si Si8 0.965185 0.759008 0.765686
O O1 0.409358 0.768355 0.617093
O O2 0.347481 0.523176 0.556664
O O3 0.373753 0.765236 0.509598
O O4 0.745489 0.651014 0.685095
O O5 0.429738 0.518230 0.798109
O O6 0.781393 0.403392 0.880195
O O7 0.802729 0.506441 0.980468
O O8 0.015660 0.887334 0.632689
O O9 0.651928 0.753156 0.534750
O O10 0.963593 0.846693 0.712864
O O11 0.050472 0.635623 0.690118
O O12 0.877925 0.716391 0.511515
O O13 0.920106 0.982204 0.881094
O O14 0.000000 0.000000 0.000000
O O15 0.793436 0.179651 0.639127
O O16 0.500000 0.000000 0.500000
O O17 0.926138 0.865323 0.796337
#
# Coordination Sequence:
#
# PCOD8126790 Si02
#       8
#     4   4   4   4   4   4   4   4
#     4  10  21  42  67  98 132 176 229 274 340 411
#     4  10  21  43  69  92 132 176 223 280 337 402
#     4  10  24  40  64 101 131 173 226 274 349 407
#     4  10  22  42  65  96 133 173 224 283 341 407
#     4  11  21  44  64  97 134 177 219 282 344 403
#     4  11  23  42  66  96 135 177 227 284 338 418
#     4  10  23  45  65  92 136 170 228 280 338 412
#     4  10  23  41  66  96 132 183 221 280 341 407
#
# _framework density 21.616391
#
# number of rings (size 3 to 8) (size 9 to 14) (size 15 to 20)
#    0.000    1.750    2.500    0.750    7.000    0.500 
#    9.000    2.500    0.000    0.000    0.000    0.000 
#    0.000    0.000    0.000    0.000    0.000    0.000 
#
# Total GULP energy -396623.188196 kJ/mol
# GULP energy per Si atom -12394.474631 kJ/mol
# Density = 2.156719 g / cm^3
# Si number density = 21.616391 Si / 1000 Ang^3
#
#
#
# Elastic Constant Matrix: (Units=GPa)
#
#
# Indices 1 2 3 4 5 6 
#
# 1 116.8059 28.5268 45.9718 0.0000 -1.1851 0.0000
# 2 28.5268 69.8973 27.6810 0.0000 17.7733 0.0000
# 3 45.9718 27.6810 130.0419 0.0000 21.7592 0.0000
# 4 0.0000 0.0000 0.0000 29.3062 0.0000 6.2739
# 5 -1.1851 17.7733 21.7592 0.0000 42.1788 0.0000
# 6 0.0000 0.0000 0.0000 6.2739 0.0000 30.9104
#
#
#
# Elastic Compliance Matrix: (Units=1/GPa)
#
#
# Indices 1 2 3 4 5 6 
#
# 1 0.011044 -0.004039 -0.003701 0.000000 0.003921 0.000000
# 2 -0.004039 0.018277 -0.001264 0.000000 -0.007163 0.000000
# 3 -0.003701 -0.001264 0.010064 0.000000 -0.004763 0.000000
# 4 0.000000 0.000000 0.000000 0.035673 0.000000 -0.007240
# 5 0.003921 -0.007163 -0.004763 0.000000 0.029294 0.000000
# 6 0.000000 0.000000 0.000000 -0.007240 0.000000 0.033821
#
#
# Mechanical properties :
#
#
# Convention : Reuss Voigt Hill
#
# Bulk Modulus (GPa) = 46.77735 57.90048 52.33891
# Shear Modulus (GPa) = 30.61737 34.78345 32.70041
#
# Velocity S-wave (km/s) = 3.76759 4.01574 3.89364
# Velocity P-wave (km/s) = 6.37283 6.95307 6.66926
#
# Compressibility (1/GPa) = 0.02137787
#
# Stress axis : x y z
#
# Youngs Moduli (GPa) = 90.54843 54.71346 99.36284
#
# Poissons Ratio (x) = 0.22098 0.36770
# Poissons Ratio (y) = 0.36571 0.12561
# Poissons Ratio (z) = 0.33508 0.06917
#
# Static dielectric constant tensor:
#      x y z
#    x 4.182720 0.000000 0.091250 
#    y 0.000000 3.656400 0.000000 
#    z 0.091250 0.000000 4.194380 
# 
# 
# High freq. dielectric constant tensor:
#      x y z
#    x 1.868620 0.000000 0.002580 
#    y 0.000000 1.832270 0.000000 
#    z 0.002580 0.000000 1.848670 
# 
# From -- ./inp_files/80022.got.cif
#   From: 2010.03.12/outbox.cif.g09.slc.cpg/sg14_41_cif.got.tgz:80022.got - 2010.03.31 13:35:05.
