data_PCOD8126063
_publ_section_title
;
Structure prediction by ZEFSAII (Michael W. Deem and Ramdas Pophale) SiO2 
 PCOD8126063
Probable space group: P 21/C
;
_chemical_formula_sum "Si O2"
_cell_formula_units_Z 32
_cell_length_a 17.310919
_cell_length_b 19.105342
_cell_length_c 9.379239
_cell_angle_alpha 90.000000
_cell_angle_beta 144.362137
_cell_angle_gamma 90.000000
_cell_volume 1807.414960
_symmetry_space_group_name_H-M "P 21/C"
_symmetry_group_IT_number 14
_symmetry_cell_setting 'monoclinic'
loop_
_space_group_symop_operation_xyz
x,y,z
-x,1/2+y,1/2-z
-x,-y,-z
x,1/2-y,1/2+z
loop_
_atom_site_type_symbol
_atom_site_label
_atom_site_fract_x
_atom_site_fract_y
_atom_site_fract_z
Si Si1 0.379226 0.465885 0.901907
Si Si2 0.223325 0.816274 0.670303
Si Si3 0.526289 0.685159 0.952197
Si Si4 0.620774 0.534115 0.764230
Si Si5 0.223325 0.683726 0.499672
Si Si6 0.526289 0.814841 0.126672
Si Si7 0.856429 0.031522 0.448748
Si Si8 0.143571 0.531522 0.379461
O O1 0.241563 0.491787 0.631834
O O2 0.500000 0.500000 0.000000
O O3 0.384115 0.382567 0.886117
O O4 0.389622 0.485232 0.084433
O O5 0.164588 0.750000 0.496882
O O6 0.140158 0.885936 0.508769
O O7 0.211940 0.796838 0.817909
O O8 0.375319 0.831191 0.852530
O O9 0.375319 0.668809 0.773427
O O10 0.529071 0.708392 0.793606
O O11 0.586598 0.750000 0.129897
O O12 0.500000 0.500000 0.500000
O O13 0.615885 0.617433 0.733773
O O14 0.758437 0.508213 0.907144
O O15 0.140158 0.614064 0.411704
O O16 0.809613 0.021396 0.214419
O O17 1.000000 1.000000 0.690614
#
# Coordination Sequence:
#
# PCOD8126063 Si02
#       8
#     4   4   4   4   4   4   4   4
#     4  11  21  35  56  82 111 140 179 226 271 321
#     4   9  17  32  52  77 105 137 180 222 266 322
#     4   9  18  32  51  78 108 137 176 224 269 321
#     4  11  21  35  56  82 111 140 179 226 271 321
#     4   9  17  32  52  77 105 137 180 222 266 322
#     4   9  18  32  51  78 108 137 176 224 269 321
#     4  10  21  38  57  79 111 148 184 223 272 327
#     4  10  21  38  57  79 111 148 184 223 272 327
#
# _framework density 17.704844999999999
#
# number of rings (size 3 to 8) (size 9 to 14) (size 15 to 20)
#    0.000    2.250    2.500    0.750    0.000    3.500 
#    0.000    1.250    0.000    6.000    0.000    0.000 
#    0.000    0.000    0.000    0.000    0.000    0.000 
#
# Total GULP energy -396832.588171 kJ/mol
# GULP energy per Si atom -12401.018380 kJ/mol
# Density = 1.766455 g / cm^3
# Si number density = 17.704845 Si / 1000 Ang^3
#
#
#
# Elastic Constant Matrix: (Units=GPa)
#
#
# Indices 1 2 3 4 5 6 
#
# 1 99.5672 75.1921 49.6607 0.0000 -4.3355 0.0000
# 2 75.1921 151.7048 67.7006 0.0000 -9.3295 0.0000
# 3 49.6607 67.7006 89.1760 0.0000 -8.6056 0.0000
# 4 0.0000 0.0000 0.0000 29.3576 0.0000 -4.9009
# 5 -4.3355 -9.3295 -8.6056 0.0000 17.8948 0.0000
# 6 0.0000 0.0000 0.0000 -4.9009 0.0000 33.2929
#
#
#
# Elastic Compliance Matrix: (Units=1/GPa)
#
#
# Indices 1 2 3 4 5 6 
#
# 1 0.017311 -0.006513 -0.004844 0.000000 -0.001531 0.000000
# 2 -0.006513 0.012465 -0.005623 0.000000 0.002217 0.000000
# 3 -0.004844 -0.005623 0.018649 0.000000 0.004863 0.000000
# 4 0.000000 0.000000 0.000000 0.034921 0.000000 0.005141
# 5 -0.001531 0.002217 0.004863 0.000000 0.059006 0.000000
# 6 0.000000 0.000000 0.000000 0.005141 0.000000 0.030793
#
#
# Mechanical properties :
#
#
# Convention : Reuss Voigt Hill
#
# Bulk Modulus (GPa) = 69.12092 80.61720 74.86906
# Shear Modulus (GPa) = 23.59319 25.96870 24.78095
#
# Velocity S-wave (km/s) = 3.65442 3.83398 3.74528
# Velocity P-wave (km/s) = 7.54532 8.07664 7.81549
#
# Compressibility (1/GPa) = 0.01446740
#
# Stress axis : x y z
#
# Youngs Moduli (GPa) = 57.76675 80.22269 53.62226
#
# Poissons Ratio (x) = 0.52247 0.25972
# Poissons Ratio (y) = 0.37622 0.30150
# Poissons Ratio (z) = 0.27980 0.45106
#
# Static dielectric constant tensor:
#      x y z
#    x 3.325250 0.000000 -0.063450 
#    y 0.000000 3.584280 0.000000 
#    z -0.063450 0.000000 3.274300 
# 
# 
# High freq. dielectric constant tensor:
#      x y z
#    x 1.676890 0.000000 -0.017600 
#    y 0.000000 1.697770 0.000000 
#    z -0.017600 0.000000 1.662750 
# 
# From -- ./inp_files/16875.got.cif
#   From: 2010.03.12/outbox.cif.g09.slc.cpg/sg14_9_cif.got.tgz:16875.got - 2010.03.31 13:35:05.
