data_PCOD8126067
_publ_section_title
;
Structure prediction by ZEFSAII (Michael W. Deem and Ramdas Pophale) SiO2 
 PCOD8126067
Probable space group: P 21/C
;
_chemical_formula_sum "Si O2"
_cell_formula_units_Z 28
_cell_length_a 19.820444
_cell_length_b 12.680947
_cell_length_c 10.741577
_cell_angle_alpha 90.000000
_cell_angle_beta 148.883511
_cell_angle_gamma 90.000000
_cell_volume 1395.206797
_symmetry_space_group_name_H-M "P 21/C"
_symmetry_group_IT_number 14
_symmetry_cell_setting 'monoclinic'
loop_
_space_group_symop_operation_xyz
x,y,z
-x,1/2+y,1/2-z
-x,-y,-z
x,1/2-y,1/2+z
loop_
_atom_site_type_symbol
_atom_site_label
_atom_site_fract_x
_atom_site_fract_y
_atom_site_fract_z
Si Si1 0.739863 0.196461 0.731731
Si Si2 0.272587 0.034785 0.968877
Si Si3 0.179410 0.686080 0.379946
Si Si4 0.108803 0.148267 0.511376
Si Si5 0.550529 0.486394 0.941145
Si Si6 0.961963 0.029440 0.077033
Si Si7 0.767918 0.864728 0.850046
O O1 0.751596 0.281939 0.640332
O O2 0.606422 0.131169 0.508618
O O3 0.757826 0.246384 0.899991
O O4 0.857281 0.118931 0.895039
O O5 0.177621 0.063450 0.707629
O O6 0.212914 0.936852 0.952170
O O7 0.277712 0.129636 0.077964
O O8 0.419064 0.006740 0.148958
O O9 0.022126 0.696323 0.131668
O O10 0.211339 0.242667 0.650538
O O11 0.080596 0.081565 0.341876
O O12 0.500000 0.500000 0.000000
O O13 0.658048 0.579113 0.086761
O O14 0.906191 0.925161 0.055692
O O15 0.000000 0.000000 0.000000
#
# Coordination Sequence:
#
# PCOD8126067 Si02
#       7
#     4   4   4   4   4   4   4
#     4  10  21  38  63  90 115 169 207 256 311 382
#     4  11  22  40  62  83 125 166 203 262 306 376
#     4  11  22  38  62  91 126 158 207 257 324 374
#     4  11  24  35  63  97 116 164 214 255 314 379
#     4   9  18  42  63  83 117 167 209 244 318 364
#     4  10  21  38  57  87 128 156 190 259 319 362
#     4  10  21  38  61  85 121 161 207 249 309 369
#
# _framework density 20.068708999999998
#
# number of rings (size 3 to 8) (size 9 to 14) (size 15 to 20)
#    0.000    1.714    5.714    1.286    6.000    2.286 
#    0.000    0.000    0.000    4.286    0.000    0.000 
#    0.000    0.000    0.000    0.000    0.000    0.000 
#
# Total GULP energy -346981.348770 kJ/mol
# GULP energy per Si atom -12392.191028 kJ/mol
# Density = 2.002303 g / cm^3
# Si number density = 20.068709 Si / 1000 Ang^3
#
#
#
# Elastic Constant Matrix: (Units=GPa)
#
#
# Indices 1 2 3 4 5 6 
#
# 1 98.0728 36.6112 45.3582 0.0000 -13.7104 0.0000
# 2 36.6112 53.6571 22.6513 0.0000 -2.8094 0.0000
# 3 45.3582 22.6513 92.2956 0.0000 9.2088 0.0000
# 4 0.0000 0.0000 0.0000 21.1183 0.0000 2.7385
# 5 -13.7104 -2.8094 9.2088 0.0000 23.3990 0.0000
# 6 0.0000 0.0000 0.0000 2.7385 0.0000 38.4551
#
#
#
# Elastic Compliance Matrix: (Units=1/GPa)
#
#
# Indices 1 2 3 4 5 6 
#
# 1 0.019506 -0.008876 -0.008787 0.000000 0.013822 0.000000
# 2 -0.008876 0.025336 -0.001707 0.000000 -0.001487 0.000000
# 3 -0.008787 -0.001707 0.016764 0.000000 -0.011951 0.000000
# 4 0.000000 0.000000 0.000000 0.047794 0.000000 -0.003404
# 5 0.013822 -0.001487 -0.011951 0.000000 0.055360 0.000000
# 6 0.000000 0.000000 0.000000 -0.003404 0.000000 0.026247
#
#
# Mechanical properties :
#
#
# Convention : Reuss Voigt Hill
#
# Bulk Modulus (GPa) = 43.73369 50.36298 47.04834
# Shear Modulus (GPa) = 21.06405 25.88813 23.47609
#
# Velocity S-wave (km/s) = 3.24326 3.59552 3.42392
# Velocity P-wave (km/s) = 5.98868 6.51051 6.25504
#
# Compressibility (1/GPa) = 0.02286567
#
# Stress axis : x y z
#
# Youngs Moduli (GPa) = 51.26553 39.46898 59.64986
#
# Poissons Ratio (x) = 0.35034 0.52414
# Poissons Ratio (y) = 0.45505 0.10185
# Poissons Ratio (z) = 0.45046 0.06739
#
# Static dielectric constant tensor:
#      x y z
#    x 3.525420 0.000000 0.295770 
#    y 0.000000 3.541310 0.000000 
#    z 0.295770 0.000000 4.086990 
# 
# 
# High freq. dielectric constant tensor:
#      x y z
#    x 1.771440 0.000000 0.006440 
#    y 0.000000 1.767430 0.000000 
#    z 0.006440 0.000000 1.781650 
# 
# From -- ./inp_files/35202.got.cif
#   From: 2010.03.12/outbox.cif.g09.slc.cpg/sg14_18_cif.got.tgz:35202.got - 2010.03.31 13:35:05.
