data_PCOD8126364
_publ_section_title
;
Structure prediction by ZEFSAII (Michael W. Deem and Ramdas Pophale) SiO2 
 PCOD8126364
Probable space group: P 21/C
;
_chemical_formula_sum "Si O2"
_cell_formula_units_Z 28
_cell_length_a 8.436852
_cell_length_b 8.795797
_cell_length_c 25.277277
_cell_angle_alpha 90.000000
_cell_angle_beta 133.250378
_cell_angle_gamma 90.000000
_cell_volume 1366.267850
_symmetry_space_group_name_H-M "P 21/C"
_symmetry_group_IT_number 14
_symmetry_cell_setting 'monoclinic'
loop_
_space_group_symop_operation_xyz
x,y,z
-x,1/2+y,1/2-z
-x,-y,-z
x,1/2-y,1/2+z
loop_
_atom_site_type_symbol
_atom_site_label
_atom_site_fract_x
_atom_site_fract_y
_atom_site_fract_z
Si Si1 0.727412 0.403371 0.280427
Si Si2 0.060762 0.166206 0.355785
Si Si3 0.472141 0.762119 0.013771
Si Si4 0.009022 0.881909 0.781302
Si Si5 0.367099 0.335922 0.662665
Si Si6 0.485365 0.952387 0.912434
Si Si7 0.021319 0.841059 0.379405
O O1 0.806641 0.510508 0.250517
O O2 0.618147 0.509229 0.299805
O O3 0.561842 0.277490 0.221381
O O4 0.937464 0.313013 0.352532
O O5 0.317646 0.161070 0.425257
O O6 0.019727 0.176845 0.284022
O O7 0.952018 0.015642 0.355866
O O8 0.429085 0.882327 0.050981
O O9 0.518398 0.840626 0.968692
O O10 0.258023 0.659432 0.960818
O O11 0.020084 0.734725 0.821384
O O12 0.233524 0.973975 0.838851
O O13 0.375485 0.385339 0.603830
O O14 0.141898 0.247929 0.619568
#
# Coordination Sequence:
#
# PCOD8126364 Si02
#       7
#     4   4   4   4   4   4   4
#     4  11  23  40  64  99 125 165 209 266 320 378
#     4  12  21  39  69  94 128 163 220 271 308 366
#     4  10  23  41  65  94 123 171 222 260 309 375
#     4  10  21  39  68  94 118 168 220 264 309 369
#     4  11  24  41  65  93 137 165 205 262 329 380
#     4  10  21  41  67  89 126 168 218 258 312 382
#     4  10  24  41  60  96 133 164 209 263 323 385
#
# _framework density 20.493784999999999
#
# number of rings (size 3 to 8) (size 9 to 14) (size 15 to 20)
#    0.000    1.429    2.857    2.143    4.000    1.714 
#    0.000    0.714    0.000    0.000    0.000    0.000 
#    0.000    0.000    0.000    0.000    0.000    0.000 
#
# Total GULP energy -347249.430210 kJ/mol
# GULP energy per Si atom -12401.765365 kJ/mol
# Density = 2.044714 g / cm^3
# Si number density = 20.493785 Si / 1000 Ang^3
#
#
#
# Elastic Constant Matrix: (Units=GPa)
#
#
# Indices 1 2 3 4 5 6 
#
# 1 86.8382 29.0080 36.9769 0.0000 -10.8544 0.0000
# 2 29.0080 97.6072 30.3702 0.0000 -3.3440 0.0000
# 3 36.9769 30.3702 106.4978 0.0000 1.1974 0.0000
# 4 0.0000 0.0000 0.0000 23.2487 0.0000 16.4859
# 5 -10.8544 -3.3440 1.1974 0.0000 28.5242 0.0000
# 6 0.0000 0.0000 0.0000 16.4859 0.0000 27.9452
#
#
#
# Elastic Compliance Matrix: (Units=1/GPa)
#
#
# Indices 1 2 3 4 5 6 
#
# 1 0.015089 -0.002900 -0.004475 0.000000 0.005589 0.000000
# 2 -0.002900 0.011861 -0.002380 0.000000 0.000387 0.000000
# 3 -0.004475 -0.002380 0.011650 0.000000 -0.002471 0.000000
# 4 0.000000 0.000000 0.000000 0.073948 0.000000 -0.043624
# 5 0.005589 0.000387 -0.002471 0.000000 0.037334 0.000000
# 6 0.000000 0.000000 0.000000 -0.043624 0.000000 0.061520
#
#
# Mechanical properties :
#
#
# Convention : Reuss Voigt Hill
#
# Bulk Modulus (GPa) = 52.38385 53.73928 53.06156
# Shear Modulus (GPa) = 21.07272 28.91616 24.99444
#
# Velocity S-wave (km/s) = 3.21011 3.76037 3.49608
# Velocity P-wave (km/s) = 6.27344 6.71811 6.49958
#
# Compressibility (1/GPa) = 0.01908985
#
# Stress axis : x y z
#
# Youngs Moduli (GPa) = 66.27540 84.31130 85.83791
#
# Poissons Ratio (x) = 0.24454 0.38409
# Poissons Ratio (y) = 0.19223 0.20427
# Poissons Ratio (z) = 0.29655 0.20063
#
# Static dielectric constant tensor:
#      x y z
#    x 3.742950 0.000000 0.139190 
#    y 0.000000 3.752740 0.000000 
#    z 0.139190 0.000000 3.749760 
# 
# 
# High freq. dielectric constant tensor:
#      x y z
#    x 1.793830 0.000000 0.010090 
#    y 0.000000 1.812180 0.000000 
#    z 0.010090 0.000000 1.797010 
# 
# From -- ./inp_files/64953.got.cif
#   From: 2010.03.12/outbox.cif.g09.slc.cpg/sg14_33_cif.got.tgz:64953.got - 2010.03.31 13:35:05.
