data_PCOD8126639
_publ_section_title
;
Structure prediction by ZEFSAII (Michael W. Deem and Ramdas Pophale) SiO2 
 PCOD8126639
Probable space group: P 21/C
;
_chemical_formula_sum "Si O2"
_cell_formula_units_Z 32
_cell_length_a 11.731795
_cell_length_b 16.060100
_cell_length_c 14.632602
_cell_angle_alpha 90.000000
_cell_angle_beta 148.350303
_cell_angle_gamma 90.000000
_cell_volume 1446.657070
_symmetry_space_group_name_H-M "P 21/C"
_symmetry_group_IT_number 14
_symmetry_cell_setting 'monoclinic'
loop_
_space_group_symop_operation_xyz
x,y,z
-x,1/2+y,1/2-z
-x,-y,-z
x,1/2-y,1/2+z
loop_
_atom_site_type_symbol
_atom_site_label
_atom_site_fract_x
_atom_site_fract_y
_atom_site_fract_z
Si Si1 0.516504 0.395620 0.195114
Si Si2 0.463465 0.211307 0.474054
Si Si3 0.903061 0.840815 0.309389
Si Si4 0.062678 0.347652 0.959826
Si Si5 0.354544 0.044185 0.325407
Si Si6 0.094931 0.742697 0.299476
Si Si7 0.246857 0.983373 0.836067
Si Si8 0.100876 0.585601 0.417239
O O1 0.577249 0.493273 0.218120
O O2 0.718754 0.369693 0.396191
O O3 0.508563 0.335703 0.101153
O O4 0.292360 0.394015 0.099129
O O5 0.285929 0.283094 0.361415
O O6 0.406881 0.142361 0.358191
O O7 0.662973 0.264794 0.572879
O O8 0.963862 0.817074 0.454326
O O9 0.866695 0.938015 0.286439
O O10 0.088514 0.824202 0.359588
O O11 0.056888 0.262451 0.895145
O O12 0.855891 0.404750 0.788396
O O13 0.094548 0.036751 0.165579
O O14 0.500000 0.000000 0.500000
O O15 0.004724 0.663584 0.295815
O O16 0.203963 0.978553 0.915212
O O17 0.500000 0.000000 0.000000
#
# Coordination Sequence:
#
# PCOD8126639 Si02
#       8
#     4   4   4   4   4   4   4   4
#     4  11  23  42  71  95 134 187 229 284 357 416
#     4  11  23  42  65  98 137 173 230 292 344 416
#     4  12  24  44  69 101 136 180 231 281 353 418
#     4  11  24  47  70  97 143 185 227 287 356 417
#     4  10  21  41  65  93 130 181 231 281 349 411
#     4  11  24  41  66  99 135 173 222 293 345 412
#     4  11  24  44  66  96 140 185 231 281 343 425
#     4  11  23  45  64  99 139 176 228 297 343 414
#
# _framework density 22.119962000000001
#
# number of rings (size 3 to 8) (size 9 to 14) (size 15 to 20)
#    0.000    1.000    2.500    6.000    7.000    0.000 
#    2.250    0.000    0.000    0.000    0.000    0.000 
#    0.000    0.000    0.000    0.000    0.000    0.000 
#
# Total GULP energy -396441.413413 kJ/mol
# GULP energy per Si atom -12388.794169 kJ/mol
# Density = 2.206962 g / cm^3
# Si number density = 22.119962 Si / 1000 Ang^3
#
#
#
# Elastic Constant Matrix: (Units=GPa)
#
#
# Indices 1 2 3 4 5 6 
#
# 1 99.4944 26.9206 56.2076 0.0000 -10.3664 0.0000
# 2 26.9206 61.3136 13.1878 0.0000 -9.8188 0.0000
# 3 56.2076 13.1878 121.3833 0.0000 -2.6271 0.0000
# 4 0.0000 0.0000 0.0000 30.4073 0.0000 2.7098
# 5 -10.3664 -9.8188 -2.6271 0.0000 47.5881 0.0000
# 6 0.0000 0.0000 0.0000 2.7098 0.0000 36.8456
#
#
#
# Elastic Compliance Matrix: (Units=1/GPa)
#
#
# Indices 1 2 3 4 5 6 
#
# 1 0.015269 -0.004999 -0.006485 0.000000 0.001937 0.000000
# 2 -0.004999 0.018887 0.000324 0.000000 0.002826 0.000000
# 3 -0.006485 0.000324 0.011191 0.000000 -0.000728 0.000000
# 4 0.000000 0.000000 0.000000 0.033104 0.000000 -0.002435
# 5 0.001937 0.002826 -0.000728 0.000000 0.021978 0.000000
# 6 0.000000 0.000000 0.000000 -0.002435 0.000000 0.027319
#
#
# Mechanical properties :
#
#
# Convention : Reuss Voigt Hill
#
# Bulk Modulus (GPa) = 43.42919 52.75815 48.09367
# Shear Modulus (GPa) = 31.69679 35.35989 33.52834
#
# Velocity S-wave (km/s) = 3.78954 4.00253 3.89749
# Velocity P-wave (km/s) = 6.23086 6.72778 6.48408
#
# Compressibility (1/GPa) = 0.02302599
#
# Stress axis : x y z
#
# Youngs Moduli (GPa) = 65.49208 52.94551 89.36116
#
# Poissons Ratio (x) = 0.26467 0.57954
# Poissons Ratio (y) = 0.32739 -0.02895
# Poissons Ratio (z) = 0.42474 -0.01715
#
# Static dielectric constant tensor:
#      x y z
#    x 3.136150 0.000000 0.145580 
#    y 0.000000 4.435850 0.000000 
#    z 0.145580 0.000000 4.082050 
# 
# 
# High freq. dielectric constant tensor:
#      x y z
#    x 1.874920 0.000000 0.006180 
#    y 0.000000 1.861600 0.000000 
#    z 0.006180 0.000000 1.874470 
# 
# From -- ./inp_files/45452.got.cif
#   From: 2010.03.12/outbox.cif.g09.slc.cpg/sg14_23_cif.got.tgz:45452.got - 2010.03.31 13:35:05.
