data_PCOD8126888
_publ_section_title
;
Structure prediction by ZEFSAII (Michael W. Deem and Ramdas Pophale) SiO2 
 PCOD8126888
Probable space group: P 21/C
;
_chemical_formula_sum "Si O2"
_cell_formula_units_Z 20
_cell_length_a 15.980365
_cell_length_b 9.818492
_cell_length_c 13.537143
_cell_angle_alpha 90.000000
_cell_angle_beta 26.503037
_cell_angle_gamma 90.000000
_cell_volume 947.833616
_symmetry_space_group_name_H-M "P 21/C"
_symmetry_group_IT_number 14
_symmetry_cell_setting 'monoclinic'
loop_
_space_group_symop_operation_xyz
x,y,z
-x,1/2+y,1/2-z
-x,-y,-z
x,1/2-y,1/2+z
loop_
_atom_site_type_symbol
_atom_site_label
_atom_site_fract_x
_atom_site_fract_y
_atom_site_fract_z
Si Si1 0.043522 0.940353 0.324239
Si Si2 0.574459 0.864404 0.367240
Si Si3 0.097681 0.973410 0.042980
Si Si4 0.824541 0.333279 0.733338
Si Si5 0.306738 0.420670 0.689254
O O1 0.062771 0.913960 0.187824
O O2 0.059997 0.798616 0.363622
O O3 0.829915 0.979213 0.579026
O O4 0.201886 0.045730 0.195993
O O5 0.390923 0.809314 0.503749
O O6 0.654026 0.742113 0.351758
O O7 0.500000 0.000000 0.500000
O O8 0.743134 0.908981 0.117219
O O9 0.163200 0.855012 0.898593
O O10 0.904212 0.035246 0.205848
O O11 0.500000 0.500000 0.500000
#
# Coordination Sequence:
#
# PCOD8126888 Si02
#       5
#     4   4   4   4   4
#     4  11  24  41  70 104 131 183 227 280 340 403
#     4  10  21  44  66  92 132 182 215 273 347 398
#     4  10  23  43  66  96 138 182 222 275 341 415
#     4  10  21  44  68  94 136 178 222 280 339 398
#     4  11  23  43  66  98 139 167 223 290 333 394
#
# _framework density 21.100749
#
# number of rings (size 3 to 8) (size 9 to 14) (size 15 to 20)
#    0.000    1.600    4.000    0.000    0.000    4.800 
#    7.200    0.000    0.000    0.000    0.000    0.000 
#    0.000    0.000    0.000    0.000    0.000    0.000 
#
# Total GULP energy -247824.566533 kJ/mol
# GULP energy per Si atom -12391.228327 kJ/mol
# Density = 2.105272 g / cm^3
# Si number density = 21.100749 Si / 1000 Ang^3
#
#
#
# Elastic Constant Matrix: (Units=GPa)
#
#
# Indices 1 2 3 4 5 6 
#
# 1 116.4254 38.1397 80.1689 0.0000 10.8262 0.0000
# 2 38.1397 108.3522 32.5592 0.0000 3.9616 0.0000
# 3 80.1689 32.5592 117.8622 0.0000 -9.2980 0.0000
# 4 0.0000 0.0000 0.0000 24.5318 0.0000 -7.4535
# 5 10.8262 3.9616 -9.2980 0.0000 44.7433 0.0000
# 6 0.0000 0.0000 0.0000 -7.4535 0.0000 32.5357
#
#
#
# Elastic Compliance Matrix: (Units=1/GPa)
#
#
# Indices 1 2 3 4 5 6 
#
# 1 0.018736 -0.002561 -0.012583 0.000000 -0.006921 0.000000
# 2 -0.002561 0.010514 -0.001207 0.000000 -0.000562 0.000000
# 3 -0.012583 -0.001207 0.017919 0.000000 0.006875 0.000000
# 4 0.000000 0.000000 0.000000 0.043813 0.000000 0.010037
# 5 -0.006921 -0.000562 0.006875 0.000000 0.025503 0.000000
# 6 0.000000 0.000000 0.000000 0.010037 0.000000 0.033035
#
#
# Mechanical properties :
#
#
# Convention : Reuss Voigt Hill
#
# Bulk Modulus (GPa) = 69.11890 71.59727 70.35809
# Shear Modulus (GPa) = 26.73186 33.14694 29.93940
#
# Velocity S-wave (km/s) = 3.56317 3.96774 3.77089
# Velocity P-wave (km/s) = 7.05379 7.41589 7.23711
#
# Compressibility (1/GPa) = 0.01446782
#
# Stress axis : x y z
#
# Youngs Moduli (GPa) = 53.37332 95.11311 55.80718
#
# Poissons Ratio (x) = 0.24358 0.70220
# Poissons Ratio (y) = 0.13669 0.06735
# Poissons Ratio (z) = 0.67158 0.11479
#
# Static dielectric constant tensor:
#      x y z
#    x 3.853390 0.000000 -0.625820 
#    y 0.000000 3.870520 0.000000 
#    z -0.625820 0.000000 4.280200 
# 
# 
# High freq. dielectric constant tensor:
#      x y z
#    x 1.804200 0.000000 -0.037640 
#    y 0.000000 1.831260 0.000000 
#    z -0.037640 0.000000 1.834750 
# 
# From -- ./inp_files/32293.got.cif
#   From: 2010.03.12/outbox.cif.g09.slc.cpg/sg14_17_cif.got.tgz:32293.got - 2010.03.31 13:35:05.
