data_PCOD8126221
_publ_section_title
;
Structure prediction by ZEFSAII (Michael W. Deem and Ramdas Pophale) SiO2 
 PCOD8126221
Probable space group: P 21/C
;
_chemical_formula_sum "Si O2"
_cell_formula_units_Z 28
_cell_length_a 8.134754
_cell_length_b 12.348557
_cell_length_c 17.658977
_cell_angle_alpha 90.000000
_cell_angle_beta 125.918217
_cell_angle_gamma 90.000000
_cell_volume 1436.592292
_symmetry_space_group_name_H-M "P 21/C"
_symmetry_group_IT_number 14
_symmetry_cell_setting 'monoclinic'
loop_
_space_group_symop_operation_xyz
x,y,z
-x,1/2+y,1/2-z
-x,-y,-z
x,1/2-y,1/2+z
loop_
_atom_site_type_symbol
_atom_site_label
_atom_site_fract_x
_atom_site_fract_y
_atom_site_fract_z
Si Si1 0.288722 0.512265 0.025900
Si Si2 0.003575 0.833054 0.369858
Si Si3 0.266330 0.314566 0.429566
Si Si4 0.270256 0.211900 0.581501
Si Si5 0.896291 0.991097 0.215758
Si Si6 0.295804 0.096956 0.365347
Si Si7 0.652545 0.303900 0.619553
O O1 0.233849 0.417997 0.070194
O O2 0.486570 0.573582 0.113097
O O3 0.321923 0.449288 0.956461
O O4 0.118526 0.602900 0.968117
O O5 0.842842 0.753781 0.370409
O O6 0.876125 0.915952 0.283869
O O7 0.162247 0.769179 0.360023
O O8 0.165243 0.272891 0.481240
O O9 0.154155 0.423514 0.373579
O O10 0.243391 0.224488 0.357068
O O11 0.507543 0.334928 0.509173
O O12 0.513460 0.239496 0.644290
O O13 0.737384 0.088719 0.182155
O O14 0.123509 0.037684 0.269856
#
# Coordination Sequence:
#
# PCOD8126221 Si02
#       7
#     4   4   4   4   4   4   4
#     4   9  15  32  54  83 109 147 188 242 278 344
#     4  11  20  37  63  86 114 152 206 239 288 346
#     4   9  19  38  59  81 118 159 192 232 297 351
#     4   9  20  35  61  83 114 156 196 231 292 354
#     4  11  21  33  61  89 117 154 194 247 296 339
#     4   9  16  30  57  83 108 147 195 232 285 335
#     4  10  21  39  60  79 123 155 194 237 298 351
#
# _framework density 19.490568
#
# number of rings (size 3 to 8) (size 9 to 14) (size 15 to 20)
#    0.857    1.429    1.429    3.429    0.000    0.000 
#    0.000    5.000   12.571    0.000    0.000    0.000 
#    0.000    0.000    0.000    0.000    0.000    0.000 
#
# Total GULP energy -346877.851266 kJ/mol
# GULP energy per Si atom -12388.494688 kJ/mol
# Density = 1.944621 g / cm^3
# Si number density = 19.490568 Si / 1000 Ang^3
#
#
#
# Elastic Constant Matrix: (Units=GPa)
#
#
# Indices 1 2 3 4 5 6 
#
# 1 121.4367 42.4984 36.7233 0.0000 12.4741 0.0000
# 2 42.4984 94.5323 52.2088 0.0000 10.5553 0.0000
# 3 36.7233 52.2088 81.8521 0.0000 14.7819 0.0000
# 4 0.0000 0.0000 0.0000 47.6012 0.0000 6.7520
# 5 12.4741 10.5553 14.7819 0.0000 14.8816 0.0000
# 6 0.0000 0.0000 0.0000 6.7520 0.0000 12.3696
#
#
#
# Elastic Compliance Matrix: (Units=1/GPa)
#
#
# Indices 1 2 3 4 5 6 
#
# 1 0.010358 -0.003141 -0.001801 0.000000 -0.004665 0.000000
# 2 -0.003141 0.017312 -0.009616 0.000000 -0.000095 0.000000
# 3 -0.001801 -0.009616 0.021514 0.000000 -0.013039 0.000000
# 4 0.000000 0.000000 0.000000 0.022771 0.000000 -0.012430
# 5 -0.004665 -0.000095 -0.013039 0.000000 0.084127 0.000000
# 6 0.000000 0.000000 0.000000 -0.012430 0.000000 0.087628
#
#
# Mechanical properties :
#
#
# Convention : Reuss Voigt Hill
#
# Bulk Modulus (GPa) = 49.83269 62.29803 56.06536
# Shear Modulus (GPa) = 17.88820 26.06316 21.97568
#
# Velocity S-wave (km/s) = 3.03279 3.66077 3.36147
# Velocity P-wave (km/s) = 6.15523 7.06405 6.62524
#
# Compressibility (1/GPa) = 0.02006715
#
# Stress axis : x y z
#
# Youngs Moduli (GPa) = 96.54521 57.76438 46.48243
#
# Poissons Ratio (x) = 0.18143 0.08373
# Poissons Ratio (y) = 0.30323 0.44697
# Poissons Ratio (z) = 0.17390 0.55546
#
# Static dielectric constant tensor:
#      x y z
#    x 3.202690 0.000000 0.225040 
#    y 0.000000 3.570740 0.000000 
#    z 0.225040 0.000000 3.462570 
# 
# 
# High freq. dielectric constant tensor:
#      x y z
#    x 1.727930 0.000000 0.021740 
#    y 0.000000 1.755990 0.000000 
#    z 0.021740 0.000000 1.747580 
# 
# From -- ./inp_files/72209.got.cif
#   From: 2010.03.12/outbox.cif.g09.slc.cpg/sg14_37_cif.got.tgz:72209.got - 2010.03.31 13:35:05.
