data_PCOD8126406
_publ_section_title
;
Structure prediction by ZEFSAII (Michael W. Deem and Ramdas Pophale) SiO2 
 PCOD8126406
Probable space group: P 21/C
;
_chemical_formula_sum "Si O2"
_cell_formula_units_Z 28
_cell_length_a 11.217426
_cell_length_b 9.294658
_cell_length_c 26.556537
_cell_angle_alpha 90.000000
_cell_angle_beta 149.462202
_cell_angle_gamma 90.000000
_cell_volume 1406.866747
_symmetry_space_group_name_H-M "P 21/C"
_symmetry_group_IT_number 14
_symmetry_cell_setting 'monoclinic'
loop_
_space_group_symop_operation_xyz
x,y,z
-x,1/2+y,1/2-z
-x,-y,-z
x,1/2-y,1/2+z
loop_
_atom_site_type_symbol
_atom_site_label
_atom_site_fract_x
_atom_site_fract_y
_atom_site_fract_z
Si Si1 0.858700 0.235587 0.100934
Si Si2 0.576650 0.864051 0.111904
Si Si3 0.968574 0.982976 0.404972
Si Si4 0.349058 0.871007 0.791217
Si Si5 0.904782 0.161499 0.729174
Si Si6 0.690176 0.879009 0.395785
Si Si7 0.311688 0.414115 0.790938
O O1 0.822544 0.282418 0.145253
O O2 0.882731 0.380141 0.077228
O O3 0.087735 0.136215 0.177044
O O4 0.637123 0.139220 0.004905
O O5 0.556443 0.723930 0.139418
O O6 0.817700 0.866881 0.168382
O O7 0.553739 0.000967 0.139291
O O8 0.842293 0.884242 0.400672
O O9 0.774230 0.070951 0.303711
O O10 0.147086 0.094386 0.496126
O O11 0.155811 0.779683 0.751048
O O12 0.574474 0.777380 0.857929
O O13 0.770645 0.013402 0.692268
O O14 0.488772 0.001121 0.319107
#
# Coordination Sequence:
#
# PCOD8126406 Si02
#       7
#     4   4   4   4   4   4   4
#     4  11  23  37  66  93 130 173 212 261 327 379
#     4  11  21  38  63  93 130 167 213 260 318 384
#     4  11  23  44  67  91 131 171 214 267 329 376
#     4  11  24  42  67  98 129 168 218 270 314 383
#     4  10  23  39  60  96 131 168 214 261 319 386
#     4  10  25  44  67  94 125 170 223 265 321 384
#     4  10  21  40  61  91 127 167 215 261 319 380
#
# _framework density 19.902381999999999
#
# number of rings (size 3 to 8) (size 9 to 14) (size 15 to 20)
#    0.000    1.429    4.286    1.714    2.000    7.429 
#    0.000    0.714    0.000    0.000    0.000    0.000 
#    0.000    0.000    0.000    0.000    0.000    0.000 
#
# Total GULP energy -347320.150666 kJ/mol
# GULP energy per Si atom -12404.291095 kJ/mol
# Density = 1.985708 g / cm^3
# Si number density = 19.902382 Si / 1000 Ang^3
#
#
#
# Elastic Constant Matrix: (Units=GPa)
#
#
# Indices 1 2 3 4 5 6 
#
# 1 58.9652 19.2188 35.1266 0.0000 -8.8334 0.0000
# 2 19.2188 102.2027 39.4114 0.0000 -0.1745 0.0000
# 3 35.1266 39.4114 148.0066 0.0000 -2.4546 0.0000
# 4 0.0000 0.0000 0.0000 32.3393 0.0000 8.1536
# 5 -8.8334 -0.1745 -2.4546 0.0000 24.6765 0.0000
# 6 0.0000 0.0000 0.0000 8.1536 0.0000 24.4046
#
#
#
# Elastic Compliance Matrix: (Units=1/GPa)
#
#
# Indices 1 2 3 4 5 6 
#
# 1 0.021382 -0.002338 -0.004333 0.000000 0.007206 0.000000
# 2 -0.002338 0.011161 -0.002434 0.000000 -0.001000 0.000000
# 3 -0.004333 -0.002434 0.008421 0.000000 -0.000730 0.000000
# 4 0.000000 0.000000 0.000000 0.033767 0.000000 -0.011281
# 5 0.007206 -0.001000 -0.000730 0.000000 0.043024 0.000000
# 6 0.000000 0.000000 0.000000 -0.011281 0.000000 0.044745
#
#
# Mechanical properties :
#
#
# Convention : Reuss Voigt Hill
#
# Bulk Modulus (GPa) = 43.94592 55.18758 49.56675
# Shear Modulus (GPa) = 26.55450 30.64523 28.59987
#
# Velocity S-wave (km/s) = 3.65668 3.92826 3.79490
# Velocity P-wave (km/s) = 6.32116 6.95444 6.64535
#
# Compressibility (1/GPa) = 0.02275524
#
# Stress axis : x y z
#
# Youngs Moduli (GPa) = 46.76906 89.59892 118.75587
#
# Poissons Ratio (x) = 0.20946 0.51451
# Poissons Ratio (y) = 0.10933 0.28902
# Poissons Ratio (z) = 0.20263 0.21806
#
# Static dielectric constant tensor:
#      x y z
#    x 3.528280 0.000000 0.082180 
#    y 0.000000 3.746380 0.000000 
#    z 0.082180 0.000000 3.703970 
# 
# 
# High freq. dielectric constant tensor:
#      x y z
#    x 1.772330 0.000000 0.005470 
#    y 0.000000 1.784550 0.000000 
#    z 0.005470 0.000000 1.779720 
# 
# From -- ./inp_files/48595.got.cif
#   From: 2010.03.12/outbox.cif.g09.slc.cpg/sg14_25_cif.got.tgz:48595.got - 2010.03.31 13:35:05.
