data_PCOD8126368
_publ_section_title
;
Structure prediction by ZEFSAII (Michael W. Deem and Ramdas Pophale) SiO2 
 PCOD8126368
Probable space group: P 21/C
;
_chemical_formula_sum "Si O2"
_cell_formula_units_Z 32
_cell_length_a 15.666595
_cell_length_b 13.416283
_cell_length_c 12.068060
_cell_angle_alpha 90.000000
_cell_angle_beta 36.889305
_cell_angle_gamma 90.000000
_cell_volume 1522.620278
_symmetry_space_group_name_H-M "P 21/C"
_symmetry_group_IT_number 14
_symmetry_cell_setting 'monoclinic'
loop_
_space_group_symop_operation_xyz
x,y,z
-x,1/2+y,1/2-z
-x,-y,-z
x,1/2-y,1/2+z
loop_
_atom_site_type_symbol
_atom_site_label
_atom_site_fract_x
_atom_site_fract_y
_atom_site_fract_z
Si Si1 0.597802 0.396997 0.788535
Si Si2 0.869458 0.894733 0.450884
Si Si3 0.634570 0.391582 0.408071
Si Si4 0.509008 0.113662 0.621443
Si Si5 0.755510 0.106143 0.538935
Si Si6 0.669810 0.885273 0.854061
Si Si7 0.361426 0.268718 0.919895
Si Si8 0.178908 0.815945 0.095797
O O1 0.586146 0.516089 0.800528
O O2 0.484019 0.346170 0.825106
O O3 0.753947 0.369421 0.581518
O O4 0.580964 0.354111 0.930387
O O5 0.811988 0.875787 0.634013
O O6 0.782765 0.828143 0.454183
O O7 0.033885 0.868504 0.278821
O O8 0.857059 0.010867 0.432418
O O9 0.689511 0.371391 0.227365
O O10 0.465256 0.371720 0.588002
O O11 0.662877 0.505426 0.417101
O O12 0.712201 0.319465 0.413882
O O13 0.624509 0.087358 0.593566
O O14 0.408682 0.203790 0.764852
O O15 0.848485 0.200099 0.403057
O O16 0.675778 0.802992 0.940811
#
# Coordination Sequence:
#
# PCOD8126368 Si02
#       8
#     4   4   4   4   4   4   4   4
#     4  11  24  40  67  99 129 170 219 267 323 382
#     4  11  27  44  61  98 140 171 215 263 330 404
#     4  10  22  41  70  99 125 165 227 278 324 371
#     4  11  23  42  69  99 129 164 221 279 321 375
#     4  11  24  43  68  95 130 171 217 280 322 376
#     4  10  21  39  69 100 124 167 220 281 315 375
#     4  12  21  41  69  97 127 171 220 273 322 379
#     4  12  26  41  67  96 135 179 214 260 330 406
#
# _framework density 21.016400999999998
#
# number of rings (size 3 to 8) (size 9 to 14) (size 15 to 20)
#    0.000    1.000    3.750    2.250    5.250    5.000 
#    0.000    0.625    0.000    0.000    0.000    0.000 
#    0.000    0.000    0.000    0.000    0.000    0.000 
#
# Total GULP energy -397005.377754 kJ/mol
# GULP energy per Si atom -12406.418055 kJ/mol
# Density = 2.096857 g / cm^3
# Si number density = 21.016401 Si / 1000 Ang^3
#
#
#
# Elastic Constant Matrix: (Units=GPa)
#
#
# Indices 1 2 3 4 5 6 
#
# 1 64.0261 22.8343 48.3413 0.0000 12.0983 0.0000
# 2 22.8343 100.7195 53.6573 0.0000 8.6863 0.0000
# 3 48.3413 53.6573 136.2877 0.0000 0.3743 0.0000
# 4 0.0000 0.0000 0.0000 25.2607 0.0000 3.1625
# 5 12.0983 8.6863 0.3743 0.0000 27.9230 0.0000
# 6 0.0000 0.0000 0.0000 3.1625 0.0000 31.9715
#
#
#
# Elastic Compliance Matrix: (Units=1/GPa)
#
#
# Indices 1 2 3 4 5 6 
#
# 1 0.023951 -0.000044 -0.008450 0.000000 -0.010250 0.000000
# 2 -0.000044 0.012990 -0.005088 0.000000 -0.003953 0.000000
# 3 -0.008450 -0.005088 0.012324 0.000000 0.005079 0.000000
# 4 0.000000 0.000000 0.000000 0.040083 0.000000 -0.003965
# 5 -0.010250 -0.003953 0.005079 0.000000 0.041416 0.000000
# 6 0.000000 0.000000 0.000000 -0.003965 0.000000 0.031670
#
#
# Mechanical properties :
#
#
# Convention : Reuss Voigt Hill
#
# Bulk Modulus (GPa) = 45.24674 61.18881 53.21777
# Shear Modulus (GPa) = 25.38523 28.77774 27.08148
#
# Velocity S-wave (km/s) = 3.47922 3.70442 3.59359
# Velocity P-wave (km/s) = 6.14133 6.89021 6.52652
#
# Compressibility (1/GPa) = 0.02210104
#
# Stress axis : x y z
#
# Youngs Moduli (GPa) = 41.75157 76.98247 81.14476
#
# Poissons Ratio (x) = 0.00342 0.68566
# Poissons Ratio (y) = 0.00185 0.41283
# Poissons Ratio (z) = 0.35279 0.39166
#
# Static dielectric constant tensor:
#      x y z
#    x 3.635450 0.000000 0.227600 
#    y 0.000000 4.076370 0.000000 
#    z 0.227600 0.000000 3.731780 
# 
# 
# High freq. dielectric constant tensor:
#      x y z
#    x 1.809520 0.000000 0.023790 
#    y 0.000000 1.848600 0.000000 
#    z 0.023790 0.000000 1.816450 
# 
# From -- ./inp_files/32771.got.cif
#   From: 2010.03.12/outbox.cif.g09.slc.cpg/sg14_17_cif.got.tgz:32771.got - 2010.03.31 13:35:05.
