data_PCOD8126269
_publ_section_title
;
Structure prediction by ZEFSAII (Michael W. Deem and Ramdas Pophale) SiO2 
 PCOD8126269
Probable space group: P 21/C
;
_chemical_formula_sum "Si O2"
_cell_formula_units_Z 32
_cell_length_a 15.797591
_cell_length_b 11.110091
_cell_length_c 13.221796
_cell_angle_alpha 90.000000
_cell_angle_beta 39.233282
_cell_angle_gamma 90.000000
_cell_volume 1467.726995
_symmetry_space_group_name_H-M "P 21/C"
_symmetry_group_IT_number 14
_symmetry_cell_setting 'monoclinic'
loop_
_space_group_symop_operation_xyz
x,y,z
-x,1/2+y,1/2-z
-x,-y,-z
x,1/2-y,1/2+z
loop_
_atom_site_type_symbol
_atom_site_label
_atom_site_fract_x
_atom_site_fract_y
_atom_site_fract_z
Si Si1 0.166901 0.907871 0.426639
Si Si2 0.705460 0.482834 0.781012
Si Si3 0.670883 0.359842 0.414902
Si Si4 0.861137 0.626759 0.495682
Si Si5 0.689806 0.882068 0.962647
Si Si6 0.517935 0.697304 0.010949
Si Si7 0.165590 0.648868 0.155616
Si Si8 0.899273 0.847044 0.595127
O O1 0.292066 0.891608 0.235950
O O2 0.211925 0.877916 0.498599
O O3 0.049015 0.819620 0.496346
O O4 0.105531 0.042625 0.479885
O O5 0.826302 0.502767 0.588650
O O6 0.628665 0.608749 0.863879
O O7 0.761402 0.444676 0.838167
O O8 0.606471 0.380015 0.828829
O O9 0.634908 0.480406 0.510412
O O10 0.536789 0.278830 0.531884
O O11 0.792197 0.285939 0.356181
O O12 0.747224 0.648332 0.518562
O O13 0.843328 0.730624 0.593487
O O14 0.006967 0.627288 0.310940
O O15 0.575848 0.784056 0.044392
O O16 0.809463 0.878420 0.773187
#
# Coordination Sequence:
#
# PCOD8126269 Si02
#       8
#     4   4   4   4   4   4   4   4
#     4  10  21  40  63  96 130 173 208 261 336 387
#     4  10  24  44  63  94 132 168 217 272 321 387
#     4  10  23  43  66  95 131 170 223 273 315 389
#     4  12  23  40  66 103 128 169 218 271 336 392
#     4  11  23  43  66  96 125 174 224 267 322 390
#     4  10  22  47  65  85 134 175 215 269 317 380
#     4  11  23  40  70  97 134 170 206 277 338 392
#     4  10  21  39  62  92 137 165 212 267 321 395
#
# _framework density 21.802420999999999
#
# number of rings (size 3 to 8) (size 9 to 14) (size 15 to 20)
#    0.000    1.500    3.750    0.750    1.750    2.000 
#   11.250    0.000    0.000    0.000    0.000    0.000 
#    0.000    0.000    0.000    0.000    0.000    0.000 
#
# Total GULP energy -396807.641816 kJ/mol
# GULP energy per Si atom -12400.238807 kJ/mol
# Density = 2.175280 g / cm^3
# Si number density = 21.802421 Si / 1000 Ang^3
#
#
#
# Elastic Constant Matrix: (Units=GPa)
#
#
# Indices 1 2 3 4 5 6 
#
# 1 142.6692 59.1830 27.1336 0.0000 6.5609 0.0000
# 2 59.1830 110.0404 19.7611 0.0000 -8.1948 0.0000
# 3 27.1336 19.7611 31.1640 0.0000 13.3727 0.0000
# 4 0.0000 0.0000 0.0000 25.6913 0.0000 -8.6368
# 5 6.5609 -8.1948 13.3727 0.0000 30.9516 0.0000
# 6 0.0000 0.0000 0.0000 -8.6368 0.0000 37.4684
#
#
#
# Elastic Compliance Matrix: (Units=1/GPa)
#
#
# Indices 1 2 3 4 5 6 
#
# 1 0.009923 -0.004431 -0.005431 0.000000 -0.000930 0.000000
# 2 -0.004431 0.013541 -0.008189 0.000000 0.008062 0.000000
# 3 -0.005431 -0.008189 0.052106 0.000000 -0.023529 0.000000
# 4 0.000000 0.000000 0.000000 0.042193 0.000000 0.009726
# 5 -0.000930 0.008062 -0.023529 0.000000 0.044806 0.000000
# 6 0.000000 0.000000 0.000000 0.009726 0.000000 0.028931
#
#
# Mechanical properties :
#
#
# Convention : Reuss Voigt Hill
#
# Bulk Modulus (GPa) = 25.33590 55.11433 40.22512
# Shear Modulus (GPa) = 20.76779 30.67533 25.72156
#
# Velocity S-wave (km/s) = 3.08968 3.75503 3.43849
# Velocity P-wave (km/s) = 4.93701 6.64336 5.85270
#
# Compressibility (1/GPa) = 0.03946968
#
# Stress axis : x y z
#
# Youngs Moduli (GPa) = 100.77714 73.84716 19.19175
#
# Poissons Ratio (x) = 0.32720 0.10423
# Poissons Ratio (y) = 0.44652 0.15715
# Poissons Ratio (z) = 0.54731 0.60470
#
# Static dielectric constant tensor:
#      x y z
#    x 3.949200 0.000000 -0.129760 
#    y 0.000000 4.160320 0.000000 
#    z -0.129760 0.000000 3.660150 
# 
# 
# High freq. dielectric constant tensor:
#      x y z
#    x 1.861020 0.000000 -0.009570 
#    y 0.000000 1.864940 0.000000 
#    z -0.009570 0.000000 1.837880 
# 
# From -- ./inp_files/32388.got.cif
#   From: 2010.03.12/outbox.cif.g09.slc.cpg/sg14_17_cif.got.tgz:32388.got - 2010.03.31 13:35:05.
