data_PCOD8126029
_publ_section_title
;
Structure prediction by ZEFSAII (Michael W. Deem and Ramdas Pophale) SiO2 
 PCOD8126029
Probable space group: P 21/C
;
_chemical_formula_sum "Si O2"
_cell_formula_units_Z 32
_cell_length_a 18.108694
_cell_length_b 11.464200
_cell_length_c 26.694012
_cell_angle_alpha 90.000000
_cell_angle_beta 17.944045
_cell_angle_gamma 90.000000
_cell_volume 1707.338304
_symmetry_space_group_name_H-M "P 21/C"
_symmetry_group_IT_number 14
_symmetry_cell_setting 'monoclinic'
loop_
_space_group_symop_operation_xyz
x,y,z
-x,1/2+y,1/2-z
-x,-y,-z
x,1/2-y,1/2+z
loop_
_atom_site_type_symbol
_atom_site_label
_atom_site_fract_x
_atom_site_fract_y
_atom_site_fract_z
Si Si1 0.269482 0.512028 0.344066
Si Si2 0.456638 0.762440 0.674437
Si Si3 0.440376 0.370738 0.056104
Si Si4 0.913116 0.896052 0.354104
Si Si5 0.631994 0.123955 0.542538
Si Si6 0.182732 0.752120 0.753975
Si Si7 0.241028 0.431595 0.473702
Si Si8 0.095781 0.644709 0.629214
O O1 0.352363 0.643604 0.280308
O O2 0.435446 0.418623 0.208859
O O3 0.296395 0.490571 0.385287
O O4 0.000000 0.500000 0.500000
O O5 0.672288 0.819961 0.503630
O O6 0.258305 0.722505 0.761974
O O7 0.539919 0.652455 0.653052
O O8 0.501306 0.356453 0.074575
O O9 0.161973 0.342527 0.229945
O O10 0.500000 0.500000 0.000000
O O11 0.589115 0.279001 0.927545
O O12 0.079412 0.866545 0.199675
O O13 0.048140 0.860574 0.318205
O O14 0.849563 0.032159 0.396417
O O15 0.746240 0.243944 0.487865
O O16 0.010347 0.864053 0.865850
O O17 0.229041 0.530264 0.523537
#
# Coordination Sequence:
#
# PCOD8126029 Si02
#       8
#     4   4   4   4   4   4   4   4
#     4  11  22  43  69  88 116 167 217 257 298 366
#     4  10  22  40  63  92 125 160 204 256 313 369
#     4  12  19  35  64  90 123 159 206 249 300 377
#     4  10  21  37  62  90 127 161 196 257 319 372
#     4  11  24  41  59  95 127 159 210 260 308 372
#     4  11  19  38  63  93 123 163 202 249 312 380
#     4  11  24  38  64  90 123 166 212 252 306 363
#     4  12  23  37  63  93 125 161 204 263 313 368
#
# _framework density 18.742625
#
# number of rings (size 3 to 8) (size 9 to 14) (size 15 to 20)
#    0.000    1.000    6.250    1.500    3.500    0.000 
#    2.250    1.250    0.000    7.500    0.000    0.000 
#    0.000    0.000    0.000    0.000    0.000    0.000 
#
# Total GULP energy -396960.591509 kJ/mol
# GULP energy per Si atom -12405.018485 kJ/mol
# Density = 1.869997 g / cm^3
# Si number density = 18.742625 Si / 1000 Ang^3
#
#
#
# Elastic Constant Matrix: (Units=GPa)
#
#
# Indices 1 2 3 4 5 6 
#
# 1 132.3991 61.1901 38.8224 0.0000 -5.1130 0.0000
# 2 61.1901 104.5849 57.6573 0.0000 -12.8239 0.0000
# 3 38.8224 57.6573 89.6545 0.0000 -1.9269 0.0000
# 4 0.0000 0.0000 0.0000 26.7489 0.0000 -2.9663
# 5 -5.1130 -12.8239 -1.9269 0.0000 35.1410 0.0000
# 6 0.0000 0.0000 0.0000 -2.9663 0.0000 27.9004
#
#
#
# Elastic Compliance Matrix: (Units=1/GPa)
#
#
# Indices 1 2 3 4 5 6 
#
# 1 0.010413 -0.005692 -0.000861 0.000000 -0.000609 0.000000
# 2 -0.005692 0.018815 -0.009516 0.000000 0.005516 0.000000
# 3 -0.000861 -0.009516 0.017590 0.000000 -0.002634 0.000000
# 4 0.000000 0.000000 0.000000 0.037831 0.000000 0.004022
# 5 -0.000609 0.005516 -0.002634 0.000000 0.030237 0.000000
# 6 0.000000 0.000000 0.000000 0.004022 0.000000 0.036269
#
#
# Mechanical properties :
#
#
# Convention : Reuss Voigt Hill
#
# Bulk Modulus (GPa) = 68.12977 71.33090 69.73033
# Shear Modulus (GPa) = 26.56934 29.22263 27.89598
#
# Velocity S-wave (km/s) = 3.76917 3.95290 3.86213
# Velocity P-wave (km/s) = 7.44119 7.67949 7.56128
#
# Compressibility (1/GPa) = 0.01467787
#
# Stress axis : x y z
#
# Youngs Moduli (GPa) = 96.03737 53.15026 56.84904
#
# Poissons Ratio (x) = 0.30253 0.04897
# Poissons Ratio (y) = 0.54664 0.54100
# Poissons Ratio (z) = 0.08273 0.50580
#
# Static dielectric constant tensor:
#      x y z
#    x 3.445320 0.000000 -0.049700 
#    y 0.000000 3.447480 0.000000 
#    z -0.049700 0.000000 3.565590 
# 
# 
# High freq. dielectric constant tensor:
#      x y z
#    x 1.735540 0.000000 -0.001560 
#    y 0.000000 1.719770 0.000000 
#    z -0.001560 0.000000 1.725660 
# 
# From -- ./inp_files/77229.got.cif
#   From: 2010.03.12/outbox.cif.g09.slc.cpg/sg14_39_cif.got.tgz:77229.got - 2010.03.31 13:35:05.
