data_PCOD8126206
_publ_section_title
;
Structure prediction by ZEFSAII (Michael W. Deem and Ramdas Pophale) SiO2 
 PCOD8126206
Probable space group: P 21/C
;
_chemical_formula_sum "Si O2"
_cell_formula_units_Z 32
_cell_length_a 8.402066
_cell_length_b 13.217026
_cell_length_c 28.051600
_cell_angle_alpha 90.000000
_cell_angle_beta 32.884396
_cell_angle_gamma 90.000000
_cell_volume 1691.351691
_symmetry_space_group_name_H-M "P 21/C"
_symmetry_group_IT_number 14
_symmetry_cell_setting 'monoclinic'
loop_
_space_group_symop_operation_xyz
x,y,z
-x,1/2+y,1/2-z
-x,-y,-z
x,1/2-y,1/2+z
loop_
_atom_site_type_symbol
_atom_site_label
_atom_site_fract_x
_atom_site_fract_y
_atom_site_fract_z
Si Si1 0.752759 0.126080 0.689540
Si Si2 0.235133 0.576414 0.572608
Si Si3 0.474141 0.274042 0.828592
Si Si4 0.492498 0.270227 0.429676
Si Si5 0.199617 0.753144 0.003510
Si Si6 0.345032 0.947765 0.783466
Si Si7 0.181782 0.705206 0.401628
Si Si8 0.577470 0.614832 0.971480
O O1 0.542359 0.171816 0.782826
O O2 0.735287 0.190726 0.645532
O O3 0.081211 0.124593 0.626644
O O4 0.641363 0.013092 0.707284
O O5 0.500000 0.500000 0.500000
O O6 0.287497 0.644078 0.606433
O O7 0.223311 0.647333 0.529449
O O8 0.933759 0.517875 0.655514
O O9 0.595240 0.263033 0.851548
O O10 0.644595 0.367142 0.761837
O O11 0.126806 0.292229 0.915506
O O12 0.509866 0.172336 0.458489
O O13 0.165409 0.315539 0.511351
O O14 0.302254 0.786221 0.924933
O O15 0.405674 0.662653 0.970061
O O16 0.330234 0.890084 0.837869
O O17 0.500000 0.500000 0.000000
#
# Coordination Sequence:
#
# PCOD8126206 Si02
#       8
#     4   4   4   4   4   4   4   4
#     4  10  21  39  56  86 119 149 188 249 293 341
#     4  11  21  37  60  88 118 152 200 243 295 352
#     4  10  21  39  59  85 117 153 192 246 301 339
#     4   9  20  39  59  83 116 153 196 244 286 349
#     4  10  21  39  64  86 111 157 203 240 288 360
#     4  11  21  37  62  86 120 158 194 246 303 349
#     4   9  20  38  63  83 113 155 199 235 289 355
#     4  10  21  39  60  81 115 156 195 235 289 359
#
# _framework density 18.919777
#
# number of rings (size 3 to 8) (size 9 to 14) (size 15 to 20)
#    0.000    2.000    2.500    0.750    1.750    2.500 
#    4.500    3.750    0.000    0.000    0.000    0.000 
#    0.000    0.000    0.000    0.000    0.000    0.000 
#
# Total GULP energy -396917.876075 kJ/mol
# GULP energy per Si atom -12403.683627 kJ/mol
# Density = 1.887671 g / cm^3
# Si number density = 18.919777 Si / 1000 Ang^3
#
#
#
# Elastic Constant Matrix: (Units=GPa)
#
#
# Indices 1 2 3 4 5 6 
#
# 1 148.6942 64.8925 56.7173 0.0000 17.3340 0.0000
# 2 64.8925 125.9681 45.5176 0.0000 3.4603 0.0000
# 3 56.7173 45.5176 86.3177 0.0000 10.7128 0.0000
# 4 0.0000 0.0000 0.0000 32.0145 0.0000 -10.9797
# 5 17.3340 3.4603 10.7128 0.0000 32.3695 0.0000
# 6 0.0000 0.0000 0.0000 -10.9797 0.0000 23.2328
#
#
#
# Elastic Compliance Matrix: (Units=1/GPa)
#
#
# Indices 1 2 3 4 5 6 
#
# 1 0.010473 -0.003673 -0.004481 0.000000 -0.003732 0.000000
# 2 -0.003673 0.011110 -0.003694 0.000000 0.002002 0.000000
# 3 -0.004481 -0.003694 0.016821 0.000000 -0.002773 0.000000
# 4 0.000000 0.000000 0.000000 0.037278 0.000000 0.017617
# 5 -0.003732 0.002002 -0.002773 0.000000 0.033596 0.000000
# 6 0.000000 0.000000 0.000000 0.017617 0.000000 0.051368
#
#
# Mechanical properties :
#
#
# Convention : Reuss Voigt Hill
#
# Bulk Modulus (GPa) = 67.98795 77.24832 72.61813
# Shear Modulus (GPa) = 26.42072 30.44685 28.43378
#
# Velocity S-wave (km/s) = 3.74098 4.01591 3.88088
# Velocity P-wave (km/s) = 7.39410 7.90072 7.65161
#
# Compressibility (1/GPa) = 0.01470849
#
# Stress axis : x y z
#
# Youngs Moduli (GPa) = 95.48699 90.00498 59.44801
#
# Poissons Ratio (x) = 0.33061 0.26639
# Poissons Ratio (y) = 0.35075 0.21958
# Poissons Ratio (z) = 0.42789 0.33245
#
# Static dielectric constant tensor:
#      x y z
#    x 3.575240 0.000000 -0.028000 
#    y 0.000000 3.601080 0.000000 
#    z -0.028000 0.000000 3.483600 
# 
# 
# High freq. dielectric constant tensor:
#      x y z
#    x 1.734870 0.000000 -0.001190 
#    y 0.000000 1.742400 0.000000 
#    z -0.001190 0.000000 1.733620 
# 
# From -- ./inp_files/79599.got.cif
#   From: 2010.03.12/outbox.cif.g09.slc.cpg/sg14_40_cif.got.tgz:79599.got - 2010.03.31 13:35:05.
