data_PCOD8126421
_publ_section_title
;
Structure prediction by ZEFSAII (Michael W. Deem and Ramdas Pophale) SiO2 
 PCOD8126421
Probable space group: P 21/C
;
_chemical_formula_sum "Si O2"
_cell_formula_units_Z 32
_cell_length_a 27.769602
_cell_length_b 9.459762
_cell_length_c 10.636363
_cell_angle_alpha 90.000000
_cell_angle_beta 33.030638
_cell_angle_gamma 90.000000
_cell_volume 1523.032523
_symmetry_space_group_name_H-M "P 21/C"
_symmetry_group_IT_number 14
_symmetry_cell_setting 'monoclinic'
loop_
_space_group_symop_operation_xyz
x,y,z
-x,1/2+y,1/2-z
-x,-y,-z
x,1/2-y,1/2+z
loop_
_atom_site_type_symbol
_atom_site_label
_atom_site_fract_x
_atom_site_fract_y
_atom_site_fract_z
Si Si1 0.300985 0.811110 0.226249
Si Si2 0.783488 0.480479 0.881556
Si Si3 0.875054 0.351852 0.989654
Si Si4 0.296772 0.170216 0.640370
Si Si5 0.604140 0.544106 0.631470
Si Si6 0.943754 0.196804 0.064472
Si Si7 0.398652 0.964607 0.583065
Si Si8 0.854528 0.848312 0.434521
O O1 0.221500 0.777680 0.301752
O O2 0.359018 0.673120 0.105511
O O3 0.260900 0.846776 0.451106
O O4 0.354690 0.949358 0.067709
O O5 0.719539 0.534137 0.912248
O O6 0.885470 0.430956 0.629552
O O7 0.791978 0.614725 0.954516
O O8 0.926219 0.291171 0.753168
O O9 0.859743 0.519613 0.017746
O O10 0.921109 0.329695 0.023699
O O11 0.351979 0.300062 0.460834
O O12 0.355191 0.108723 0.625998
O O13 0.196013 0.216467 0.892839
O O14 0.619601 0.465378 0.729079
O O15 0.501087 0.549612 0.826514
O O16 0.047482 0.181324 0.825445
#
# Coordination Sequence:
#
# PCOD8126421 Si02
#       8
#     4   4   4   4   4   4   4   4
#     4  10  22  44  66  90 131 174 210 264 329 388
#     4  10  22  41  66  92 126 176 211 261 320 393
#     4  10  21  40  62  90 125 174 213 260 323 378
#     4  12  23  42  69  98 125 168 225 262 331 383
#     4  11  24  45  63  95 135 158 219 271 335 378
#     4  10  22  38  63  91 128 172 216 262 322 381
#     4  11  26  41  68  95 124 173 211 276 322 403
#     4  10  22  39  62  88 136 165 206 269 320 376
#
# _framework density 21.010714
#
# number of rings (size 3 to 8) (size 9 to 14) (size 15 to 20)
#    0.000    1.750    2.500    3.750    8.750    0.000 
#    0.000    1.875    0.000    0.000    0.000    0.000 
#    0.000    0.000    0.000    0.000    0.000    0.000 
#
# Total GULP energy -396532.718571 kJ/mol
# GULP energy per Si atom -12391.647455 kJ/mol
# Density = 2.096289 g / cm^3
# Si number density = 21.010714 Si / 1000 Ang^3
#
#
#
# Elastic Constant Matrix: (Units=GPa)
#
#
# Indices 1 2 3 4 5 6 
#
# 1 41.5454 18.9813 19.4549 0.0000 -0.5791 0.0000
# 2 18.9813 57.6736 29.7664 0.0000 -9.8425 0.0000
# 3 19.4549 29.7664 113.5464 0.0000 -14.8677 0.0000
# 4 0.0000 0.0000 0.0000 21.6616 0.0000 -6.6094
# 5 -0.5791 -9.8425 -14.8677 0.0000 19.9217 0.0000
# 6 0.0000 0.0000 0.0000 -6.6094 0.0000 25.9849
#
#
#
# Elastic Compliance Matrix: (Units=1/GPa)
#
#
# Indices 1 2 3 4 5 6 
#
# 1 0.029773 -0.009032 -0.003552 0.000000 -0.006247 0.000000
# 2 -0.009032 0.023615 -0.003491 0.000000 0.008799 0.000000
# 3 -0.003552 -0.003491 0.011184 0.000000 0.006519 0.000000
# 4 0.000000 0.000000 0.000000 0.050049 0.000000 0.012730
# 5 -0.006247 0.008799 0.006519 0.000000 0.059228 0.000000
# 6 0.000000 0.000000 0.000000 0.012730 0.000000 0.041722
#
#
# Mechanical properties :
#
#
# Convention : Reuss Voigt Hill
#
# Bulk Modulus (GPa) = 30.84224 38.79674 34.81949
# Shear Modulus (GPa) = 19.34039 23.15114 21.24577
#
# Velocity S-wave (km/s) = 3.03727 3.32305 3.18337
# Velocity P-wave (km/s) = 5.19723 5.76445 5.48817
#
# Compressibility (1/GPa) = 0.03242307
#
# Stress axis : x y z
#
# Youngs Moduli (GPa) = 33.58799 42.34605 89.41153
#
# Poissons Ratio (x) = 0.38246 0.31755
# Poissons Ratio (y) = 0.30336 0.31214
# Poissons Ratio (z) = 0.11929 0.14783
#
# Static dielectric constant tensor:
#      x y z
#    x 3.887780 0.000000 -0.110050 
#    y 0.000000 3.622850 0.000000 
#    z -0.110050 0.000000 3.879270 
# 
# 
# High freq. dielectric constant tensor:
#      x y z
#    x 1.822130 0.000000 -0.011060 
#    y 0.000000 1.815520 0.000000 
#    z -0.011060 0.000000 1.829600 
# 
# From -- ./inp_files/36459.got.cif
#   From: 2010.03.12/outbox.cif.g09.slc.cpg/sg14_19_cif.got.tgz:36459.got - 2010.03.31 13:35:05.
