data_PCOD8126295
_publ_section_title
;
Structure prediction by ZEFSAII (Michael W. Deem and Ramdas Pophale) SiO2 
 PCOD8126295
Probable space group: P 21/C
;
_chemical_formula_sum "Si O2"
_cell_formula_units_Z 32
_cell_length_a 11.722577
_cell_length_b 9.063836
_cell_length_c 26.703674
_cell_angle_alpha 90.000000
_cell_angle_beta 153.340078
_cell_angle_gamma 90.000000
_cell_volume 1273.082050
_symmetry_space_group_name_H-M "P 21/C"
_symmetry_group_IT_number 14
_symmetry_cell_setting 'monoclinic'
loop_
_space_group_symop_operation_xyz
x,y,z
-x,1/2+y,1/2-z
-x,-y,-z
x,1/2-y,1/2+z
loop_
_atom_site_type_symbol
_atom_site_label
_atom_site_fract_x
_atom_site_fract_y
_atom_site_fract_z
Si Si1 0.365643 0.150870 0.393088
Si Si2 0.061697 0.871648 0.706483
Si Si3 0.581451 0.065500 0.236477
Si Si4 0.200246 0.802206 0.985211
Si Si5 0.825053 0.862584 0.002367
Si Si6 0.534869 0.178795 0.575842
Si Si7 0.026224 0.804193 0.320517
Si Si8 0.683887 0.233776 0.860638
O O1 0.524573 0.285394 0.432566
O O2 0.248524 0.160839 0.405817
O O3 0.094037 0.170214 0.257877
O O4 0.489902 0.996608 0.424330
O O5 0.145727 0.891507 0.681389
O O6 0.237463 0.748997 0.801189
O O7 0.092130 0.037550 0.741688
O O8 0.364443 0.146503 0.118922
O O9 0.562910 0.122799 0.286505
O O10 0.531680 0.890564 0.216549
O O11 0.196874 0.725021 0.038608
O O12 0.144695 0.973544 0.965457
O O13 0.995635 0.723903 0.868194
O O14 0.727035 0.760511 0.009990
O O15 0.102685 0.820681 0.093513
O O16 0.660863 0.195156 0.568248
#
# Coordination Sequence:
#
# PCOD8126295 Si02
#       8
#     4   4   4   4   4   4   4   4
#     4  10  21  39  63  93 126 161 208 256 305 375
#     4   9  20  39  63  89 124 162 200 254 315 363
#     4  10  22  42  65  87 120 164 206 258 313 362
#     4  11  24  39  62  91 122 163 209 251 305 379
#     4  10  23  43  61  89 128 162 206 260 309 364
#     4   9  20  39  63  94 127 161 207 256 310 373
#     4  10  21  39  64  90 125 168 203 253 317 370
#     4  11  25  43  65  90 122 165 213 259 306 368
#
# _framework density 25.135852
#
# number of rings (size 3 to 8) (size 9 to 14) (size 15 to 20)
#    0.000    2.000    0.000    3.750    0.000   13.500 
#    0.000    1.875    0.000    0.000    0.000    0.000 
#    0.000    0.000    0.000    0.000    0.000    0.000 
#
# Total GULP energy -396555.318844 kJ/mol
# GULP energy per Si atom -12392.353714 kJ/mol
# Density = 2.507864 g / cm^3
# Si number density = 25.135852 Si / 1000 Ang^3
#
#
#
# Elastic Constant Matrix: (Units=GPa)
#
#
# Indices 1 2 3 4 5 6 
#
# 1 126.6457 31.4183 19.2881 0.0000 -10.9038 0.0000
# 2 31.4183 47.7590 17.5002 0.0000 -18.9439 0.0000
# 3 19.2881 17.5002 45.0390 0.0000 10.2034 0.0000
# 4 0.0000 0.0000 0.0000 30.4636 0.0000 0.0898
# 5 -10.9038 -18.9439 10.2034 0.0000 44.5242 0.0000
# 6 0.0000 0.0000 0.0000 0.0898 0.0000 46.0069
#
#
#
# Elastic Compliance Matrix: (Units=1/GPa)
#
#
# Indices 1 2 3 4 5 6 
#
# 1 0.009589 -0.005255 -0.002204 0.000000 0.000617 0.000000
# 2 -0.005255 0.037935 -0.016722 0.000000 0.018685 0.000000
# 3 -0.002204 -0.016722 0.033097 0.000000 -0.015239 0.000000
# 4 0.000000 0.000000 0.000000 0.032826 0.000000 -0.000064
# 5 0.000617 0.018685 -0.015239 0.000000 0.034053 0.000000
# 6 0.000000 0.000000 0.000000 -0.000064 0.000000 0.021736
#
#
# Mechanical properties :
#
#
# Convention : Reuss Voigt Hill
#
# Bulk Modulus (GPa) = 31.00135 39.53966 35.27050
# Shear Modulus (GPa) = 21.89606 34.28143 28.08874
#
# Velocity S-wave (km/s) = 2.95466 3.69703 3.34650
# Velocity P-wave (km/s) = 4.89901 5.82998 5.38465
#
# Compressibility (1/GPa) = 0.03225666
#
# Stress axis : x y z
#
# Youngs Moduli (GPa) = 104.29011 26.36106 30.21432
#
# Poissons Ratio (x) = 0.13854 0.06660
# Poissons Ratio (y) = 0.54808 0.50525
# Poissons Ratio (z) = 0.22988 0.44082
#
# Static dielectric constant tensor:
#      x y z
#    x 4.976080 0.000000 0.074190 
#    y 0.000000 4.243200 0.000000 
#    z 0.074190 0.000000 4.701850 
# 
# 
# High freq. dielectric constant tensor:
#      x y z
#    x 2.025810 0.000000 0.007160 
#    y 0.000000 1.986670 0.000000 
#    z 0.007160 0.000000 2.024540 
# 
# From -- ./inp_files/79972.got.cif
#   From: 2010.03.12/outbox.cif.g09.slc.cpg/sg14_40_cif.got.tgz:79972.got - 2010.03.31 13:35:05.
