data_PCOD8126183
_publ_section_title
;
Structure prediction by ZEFSAII (Michael W. Deem and Ramdas Pophale) SiO2 
 PCOD8126183
Probable space group: P 21/C
;
_chemical_formula_sum "Si O2"
_cell_formula_units_Z 32
_cell_length_a 17.621328
_cell_length_b 12.925358
_cell_length_c 15.401548
_cell_angle_alpha 90.000000
_cell_angle_beta 154.024419
_cell_angle_gamma 90.000000
_cell_volume 1536.412562
_symmetry_space_group_name_H-M "P 21/C"
_symmetry_group_IT_number 14
_symmetry_cell_setting 'monoclinic'
loop_
_space_group_symop_operation_xyz
x,y,z
-x,1/2+y,1/2-z
-x,-y,-z
x,1/2-y,1/2+z
loop_
_atom_site_type_symbol
_atom_site_label
_atom_site_fract_x
_atom_site_fract_y
_atom_site_fract_z
Si Si1 0.593912 0.732175 0.283069
Si Si2 0.970367 0.744969 0.135509
Si Si3 0.553670 0.616228 0.072787
Si Si4 0.381962 0.817388 0.838543
Si Si5 0.964915 0.286303 0.099788
Si Si6 0.706032 0.381059 0.563934
Si Si7 0.053062 0.380275 0.554789
Si Si8 0.309646 0.112505 0.949047
O O1 0.767666 0.788869 0.424356
O O2 0.629034 0.690233 0.413881
O O3 0.549489 0.638428 0.171795
O O4 0.434731 0.810782 0.130234
O O5 0.009433 0.788842 0.270900
O O6 0.095677 0.648218 0.251750
O O7 0.012521 0.829173 0.103371
O O8 0.419871 0.695231 0.890145
O O9 0.500000 0.500000 0.000000
O O10 0.741760 0.632933 0.225196
O O11 0.323371 0.874044 0.864743
O O12 0.225677 0.833394 0.610266
O O13 0.555206 0.876808 0.989783
O O14 0.971762 0.175984 0.055998
O O15 0.117471 0.358297 0.216808
O O16 0.685706 0.497039 0.508977
O O17 0.000000 0.500000 0.500000
#
# Coordination Sequence:
#
# PCOD8126183 Si02
#       8
#     4   4   4   4   4   4   4   4
#     4   9  23  42  62  92 132 163 213 276 316 393
#     4  10  23  43  64  96 131 170 224 271 327 400
#     4  10  21  38  65  95 130 168 210 270 336 384
#     4  11  22  40  63  94 131 170 220 262 324 398
#     4  11  23  42  68  93 133 176 216 278 327 393
#     4  11  23  41  68  90 131 175 211 268 332 389
#     4  11  22  42  69  97 135 172 223 277 334 395
#     4  11  24  42  62  97 128 169 220 266 323 393
#
# _framework density 20.827739000000001
#
# number of rings (size 3 to 8) (size 9 to 14) (size 15 to 20)
#    0.000    1.500    2.500    1.875    1.750    6.500 
#    0.000    0.000    0.000    0.000    0.000    0.000 
#    0.000    0.000    0.000    0.000    0.000    0.000 
#
# Total GULP energy -396756.443114 kJ/mol
# GULP energy per Si atom -12398.638847 kJ/mol
# Density = 2.078033 g / cm^3
# Si number density = 20.827739 Si / 1000 Ang^3
#
#
#
# Elastic Constant Matrix: (Units=GPa)
#
#
# Indices 1 2 3 4 5 6 
#
# 1 72.4073 13.0404 26.4474 0.0000 9.1228 0.0000
# 2 13.0404 101.5757 27.8687 0.0000 8.7849 0.0000
# 3 26.4474 27.8687 113.9373 0.0000 8.1490 0.0000
# 4 0.0000 0.0000 0.0000 24.7879 0.0000 4.1030
# 5 9.1228 8.7849 8.1490 0.0000 36.0635 0.0000
# 6 0.0000 0.0000 0.0000 4.1030 0.0000 20.8522
#
#
#
# Elastic Compliance Matrix: (Units=1/GPa)
#
#
# Indices 1 2 3 4 5 6 
#
# 1 0.015502 -0.000860 -0.003174 0.000000 -0.002995 0.000000
# 2 -0.000860 0.010748 -0.002295 0.000000 -0.001882 0.000000
# 3 -0.003174 -0.002295 0.010141 0.000000 -0.000930 0.000000
# 4 0.000000 0.000000 0.000000 0.041700 0.000000 -0.008205
# 5 -0.002995 -0.001882 -0.000930 0.000000 0.029155 0.000000
# 6 0.000000 0.000000 0.000000 -0.008205 0.000000 0.049571
#
#
# Mechanical properties :
#
#
# Convention : Reuss Voigt Hill
#
# Bulk Modulus (GPa) = 42.13422 46.95926 44.54674
# Shear Modulus (GPa) = 28.18705 31.04496 29.61601
#
# Velocity S-wave (km/s) = 3.68277 3.86496 3.77497
# Velocity P-wave (km/s) = 6.19334 6.52018 6.35886
#
# Compressibility (1/GPa) = 0.02373368
#
# Stress axis : x y z
#
# Youngs Moduli (GPa) = 64.50658 93.04378 98.60777
#
# Poissons Ratio (x) = 0.08006 0.31296
# Poissons Ratio (y) = 0.05550 0.22626
# Poissons Ratio (z) = 0.20473 0.21349
#
# Static dielectric constant tensor:
#      x y z
#    x 3.986470 0.000000 0.285230 
#    y 0.000000 3.570440 0.000000 
#    z 0.285230 0.000000 4.116530 
# 
# 
# High freq. dielectric constant tensor:
#      x y z
#    x 1.825340 0.000000 0.012570 
#    y 0.000000 1.792480 0.000000 
#    z 0.012570 0.000000 1.831090 
# 
# From -- ./inp_files/49037.got.cif
#   From: 2010.03.12/outbox.cif.g09.slc.cpg/sg14_25_cif.got.tgz:49037.got - 2010.03.31 13:35:05.
