data_PCOD8126728
_publ_section_title
;
Structure prediction by ZEFSAII (Michael W. Deem and Ramdas Pophale) SiO2 
 PCOD8126728
Probable space group: P 21/C
;
_chemical_formula_sum "Si O2"
_cell_formula_units_Z 32
_cell_length_a 14.423812
_cell_length_b 17.502176
_cell_length_c 11.618707
_cell_angle_alpha 90.000000
_cell_angle_beta 29.336826
_cell_angle_gamma 90.000000
_cell_volume 1437.061428
_symmetry_space_group_name_H-M "P 21/C"
_symmetry_group_IT_number 14
_symmetry_cell_setting 'monoclinic'
loop_
_space_group_symop_operation_xyz
x,y,z
-x,1/2+y,1/2-z
-x,-y,-z
x,1/2-y,1/2+z
loop_
_atom_site_type_symbol
_atom_site_label
_atom_site_fract_x
_atom_site_fract_y
_atom_site_fract_z
Si Si1 0.409302 0.938452 0.209887
Si Si2 0.217706 0.064710 0.283791
Si Si3 0.624895 0.399180 0.896215
Si Si4 0.189368 0.343559 0.034984
Si Si5 0.430904 0.462956 0.897451
Si Si6 0.967551 0.368155 0.877004
Si Si7 0.035093 0.706798 0.521930
Si Si8 0.755896 0.683886 0.619323
O O1 0.242581 0.886513 0.444526
O O2 0.303042 0.981104 0.218705
O O3 0.496901 0.997824 0.207616
O O4 0.591259 0.889799 0.968467
O O5 0.133020 0.103692 0.488997
O O6 0.057431 0.063213 0.358144
O O7 0.601057 0.431361 0.792220
O O8 0.779249 0.332474 0.731216
O O9 0.688853 0.472764 0.902139
O O10 0.431670 0.366344 0.161047
O O11 0.311134 0.388676 0.996541
O O12 0.296421 0.267241 0.875182
O O13 0.999430 0.322370 0.310271
O O14 0.943757 0.297758 0.990850
O O15 0.103909 0.357267 0.621527
O O16 0.857870 0.691109 0.631363
#
# Coordination Sequence:
#
# PCOD8126728 Si02
#       8
#     4   4   4   4   4   4   4   4
#     4  10  22  41  65  98 128 175 222 267 330 402
#     4  10  21  42  62  93 135 173 217 269 332 392
#     4  11  24  44  70  96 131 179 224 272 329 401
#     4  10  22  44  66  94 139 170 212 281 326 387
#     4  10  22  46  65  99 132 173 224 270 336 385
#     4  11  23  40  65  95 131 168 219 275 330 394
#     4  11  24  43  65 101 125 171 227 262 339 396
#     4  11  23  44  66  95 134 170 216 281 328 387
#
# _framework density 22.267662000000001
#
# number of rings (size 3 to 8) (size 9 to 14) (size 15 to 20)
#    0.000    1.500    2.500    1.875    1.750    0.500 
#   27.000    0.000    0.000    0.000    0.000    0.000 
#    0.000    0.000    0.000    0.000    0.000    0.000 
#
# Total GULP energy -396573.373978 kJ/mol
# GULP energy per Si atom -12392.917937 kJ/mol
# Density = 2.221698 g / cm^3
# Si number density = 22.267662 Si / 1000 Ang^3
#
#
#
# Elastic Constant Matrix: (Units=GPa)
#
#
# Indices 1 2 3 4 5 6 
#
# 1 85.4000 26.4755 34.9229 0.0000 6.4829 0.0000
# 2 26.4755 52.9760 22.3070 0.0000 2.0127 0.0000
# 3 34.9229 22.3070 104.6802 0.0000 -1.0034 0.0000
# 4 0.0000 0.0000 0.0000 27.1690 0.0000 5.5723
# 5 6.4829 2.0127 -1.0034 0.0000 28.5924 0.0000
# 6 0.0000 0.0000 0.0000 5.5723 0.0000 42.2440
#
#
#
# Elastic Compliance Matrix: (Units=1/GPa)
#
#
# Indices 1 2 3 4 5 6 
#
# 1 0.015385 -0.005924 -0.003901 0.000000 -0.003208 0.000000
# 2 -0.005924 0.023093 -0.002948 0.000000 -0.000386 0.000000
# 3 -0.003901 -0.002948 0.011497 0.000000 0.001495 0.000000
# 4 0.000000 0.000000 0.000000 0.037830 0.000000 -0.004990
# 5 -0.003208 -0.000386 0.001495 0.000000 0.035781 0.000000
# 6 0.000000 0.000000 0.000000 -0.004990 0.000000 0.024330
#
#
# Mechanical properties :
#
#
# Convention : Reuss Voigt Hill
#
# Bulk Modulus (GPa) = 40.93669 45.60744 43.27207
# Shear Modulus (GPa) = 27.53193 30.22444 28.87819
#
# Velocity S-wave (km/s) = 3.52008 3.68819 3.60511
# Velocity P-wave (km/s) = 5.91144 6.21795 6.06663
#
# Compressibility (1/GPa) = 0.02442797
#
# Stress axis : x y z
#
# Youngs Moduli (GPa) = 64.99823 43.30241 86.97960
#
# Poissons Ratio (x) = 0.25654 0.33930
# Poissons Ratio (y) = 0.38507 0.25645
# Poissons Ratio (z) = 0.25356 0.12767
#
# Static dielectric constant tensor:
#      x y z
#    x 4.042460 0.000000 0.156660 
#    y 0.000000 4.034230 0.000000 
#    z 0.156660 0.000000 4.000270 
# 
# 
# High freq. dielectric constant tensor:
#      x y z
#    x 1.884370 0.000000 0.020300 
#    y 0.000000 1.872620 0.000000 
#    z 0.020300 0.000000 1.867740 
# 
# From -- ./inp_files/33026.got.cif
#   From: 2010.03.12/outbox.cif.g09.slc.cpg/sg14_17_cif.got.tgz:33026.got - 2010.03.31 13:35:05.
