data_PCOD8126538
_publ_section_title
;
Structure prediction by ZEFSAII (Michael W. Deem and Ramdas Pophale) SiO2 
 PCOD8126538
Probable space group: P 21/C
;
_chemical_formula_sum "Si O2"
_cell_formula_units_Z 24
_cell_length_a 19.592821
_cell_length_b 5.209447
_cell_length_c 12.710909
_cell_angle_alpha 90.000000
_cell_angle_beta 61.844585
_cell_angle_gamma 90.000000
_cell_volume 1143.856943
_symmetry_space_group_name_H-M "P 21/C"
_symmetry_group_IT_number 14
_symmetry_cell_setting 'monoclinic'
loop_
_space_group_symop_operation_xyz
x,y,z
-x,1/2+y,1/2-z
-x,-y,-z
x,1/2-y,1/2+z
loop_
_atom_site_type_symbol
_atom_site_label
_atom_site_fract_x
_atom_site_fract_y
_atom_site_fract_z
Si Si1 0.900947 0.168201 0.851813
Si Si2 0.596693 0.064651 0.633189
Si Si3 0.157521 0.401477 0.417011
Si Si4 0.525081 0.559579 0.598597
Si Si5 0.227519 0.897180 0.433142
Si Si6 0.957685 0.626175 0.130059
O O1 0.982084 0.294330 0.824819
O O2 0.902394 0.081285 0.728981
O O3 0.829622 0.366757 0.923986
O O4 0.888328 0.924293 0.938873
O O5 0.583373 0.336333 0.588536
O O6 0.552167 0.049221 0.775745
O O7 0.687086 0.056775 0.587857
O O8 0.569177 0.831824 0.577619
O O9 0.214424 0.650003 0.364934
O O10 0.093796 0.370807 0.370225
O O11 0.207512 0.144058 0.378744
O O12 0.500000 0.500000 0.500000
O O13 0.000000 0.500000 0.000000
#
# Coordination Sequence:
#
# PCOD8126538 Si02
#       6
#     4   4   4   4   4   4
#     4  10  25  38  66  87 126 162 223 266 327 373
#     4  10  21  41  68  93 139 163 205 269 306 374
#     4  10  22  42  60  89 126 162 215 260 318 382
#     4  10  21  40  69 100 125 173 212 246 314 389
#     4  10  22  43  61  92 133 161 206 268 321 370
#     4  12  21  42  63  88 121 171 217 272 315 389
#
# _framework density 20.981642000000001
#
# number of rings (size 3 to 8) (size 9 to 14) (size 15 to 20)
#    1.000    0.667    1.667    3.000    0.000    1.333 
#    3.000    0.000    0.000    0.000    0.000    0.000 
#    0.000    0.000    0.000    0.000    0.000    0.000 
#
# Total GULP energy -297421.703843 kJ/mol
# GULP energy per Si atom -12392.570993 kJ/mol
# Density = 2.093389 g / cm^3
# Si number density = 20.981642 Si / 1000 Ang^3
#
#
#
# Elastic Constant Matrix: (Units=GPa)
#
#
# Indices 1 2 3 4 5 6 
#
# 1 119.5901 26.4699 36.8095 0.0000 -23.5372 0.0000
# 2 26.4699 113.4789 17.8172 0.0000 -8.7317 0.0000
# 3 36.8095 17.8172 54.4230 0.0000 5.4353 0.0000
# 4 0.0000 0.0000 0.0000 19.7018 0.0000 4.5570
# 5 -23.5372 -8.7317 5.4353 0.0000 24.3366 0.0000
# 6 0.0000 0.0000 0.0000 4.5570 0.0000 36.0944
#
#
#
# Elastic Compliance Matrix: (Units=1/GPa)
#
#
# Indices 1 2 3 4 5 6 
#
# 1 0.015745 -0.000366 -0.012311 0.000000 0.017846 0.000000
# 2 -0.000366 0.009717 -0.003320 0.000000 0.003874 0.000000
# 3 -0.012311 -0.003320 0.029761 0.000000 -0.019745 0.000000
# 4 0.000000 0.000000 0.000000 0.052283 0.000000 -0.006601
# 5 0.017846 0.003874 -0.019745 0.000000 0.064149 0.000000
# 6 0.000000 0.000000 0.000000 -0.006601 0.000000 0.028539
#
#
# Mechanical properties :
#
#
# Convention : Reuss Voigt Hill
#
# Bulk Modulus (GPa) = 43.05495 49.96500 46.50998
# Shear Modulus (GPa) = 20.83925 29.78626 25.31275
#
# Velocity S-wave (km/s) = 3.15495 3.77189 3.47713
# Velocity P-wave (km/s) = 5.81691 6.54484 6.19158
#
# Compressibility (1/GPa) = 0.02322613
#
# Stress axis : x y z
#
# Youngs Moduli (GPa) = 63.51329 102.91206 33.60158
#
# Poissons Ratio (x) = 0.03771 0.41368
# Poissons Ratio (y) = 0.02327 0.11156
# Poissons Ratio (z) = 0.78194 0.34169
#
# Static dielectric constant tensor:
#      x y z
#    x 3.653450 0.000000 -0.119220 
#    y 0.000000 4.096020 0.000000 
#    z -0.119220 0.000000 3.305930 
# 
# 
# High freq. dielectric constant tensor:
#      x y z
#    x 1.817280 0.000000 0.002030 
#    y 0.000000 1.837390 0.000000 
#    z 0.002030 0.000000 1.799010 
# 
# From -- ./inp_files/34550.got.cif
#   From: 2010.03.12/outbox.cif.g09.slc.cpg/sg14_18_cif.got.tgz:34550.got - 2010.03.31 13:35:05.
