data_PCOD8126470
_publ_section_title
;
Structure prediction by ZEFSAII (Michael W. Deem and Ramdas Pophale) SiO2 
 PCOD8126470
Probable space group: P 21/C
;
_chemical_formula_sum "Si O2"
_cell_formula_units_Z 24
_cell_length_a 14.284368
_cell_length_b 4.947829
_cell_length_c 19.920050
_cell_angle_alpha 90.000000
_cell_angle_beta 40.447561
_cell_angle_gamma 90.000000
_cell_volume 913.365767
_symmetry_space_group_name_H-M "P 21/C"
_symmetry_group_IT_number 14
_symmetry_cell_setting 'monoclinic'
loop_
_space_group_symop_operation_xyz
x,y,z
-x,1/2+y,1/2-z
-x,-y,-z
x,1/2-y,1/2+z
loop_
_atom_site_type_symbol
_atom_site_label
_atom_site_fract_x
_atom_site_fract_y
_atom_site_fract_z
Si Si1 0.162952 0.494957 0.710098
Si Si2 0.114970 0.247220 0.602402
Si Si3 0.647350 0.162727 0.475906
Si Si4 0.684728 0.463835 0.587387
Si Si5 0.343104 0.102807 0.691405
Si Si6 0.621257 0.387714 0.238485
O O1 0.089647 0.463450 0.676421
O O2 0.296364 0.709983 0.626335
O O3 0.216310 0.210811 0.712199
O O4 0.036999 0.600481 0.828174
O O5 0.162670 0.378279 0.504420
O O6 0.246559 0.065987 0.556126
O O7 0.644518 0.396882 0.532877
O O8 0.479366 0.073780 0.566256
O O9 0.550635 0.656905 0.683680
O O10 0.702495 0.199100 0.625112
O O11 0.354182 0.306265 0.749795
O O12 0.314701 0.809957 0.739018
#
# Coordination Sequence:
#
# PCOD8126470 Si02
#       6
#     4   4   4   4   4   4
#     4  11  24  40  63  93 135 173 218 274 327 403
#     4  11  22  40  66  94 128 180 225 264 332 394
#     4  10  21  40  64  94 125 174 218 274 324 385
#     4  10  22  40  67  97 126 168 231 270 320 400
#     4  11  25  41  65 101 133 168 217 276 339 379
#     4  11  23  41  68  97 129 169 216 280 326 380
#
# _framework density 26.276440000000001
#
# number of rings (size 3 to 8) (size 9 to 14) (size 15 to 20)
#    0.000    1.333    3.333    2.500    4.667    0.667 
#    0.000    1.667    0.000    0.000    0.000    0.000 
#    0.000    0.000    0.000    0.000    0.000    0.000 
#
# Total GULP energy -297453.669674 kJ/mol
# GULP energy per Si atom -12393.902903 kJ/mol
# Density = 2.621663 g / cm^3
# Si number density = 26.276440 Si / 1000 Ang^3
#
#
#
# Elastic Constant Matrix: (Units=GPa)
#
#
# Indices 1 2 3 4 5 6 
#
# 1 44.2093 -23.5628 21.2135 0.0000 4.4939 0.0000
# 2 -23.5628 49.8110 12.5381 0.0000 0.6486 0.0000
# 3 21.2135 12.5381 123.9855 0.0000 -4.3090 0.0000
# 4 0.0000 0.0000 0.0000 43.1586 0.0000 5.4670
# 5 4.4939 0.6486 -4.3090 0.0000 39.9144 0.0000
# 6 0.0000 0.0000 0.0000 5.4670 0.0000 25.3213
#
#
#
# Elastic Compliance Matrix: (Units=1/GPa)
#
#
# Indices 1 2 3 4 5 6 
#
# 1 0.038289 0.020403 -0.008809 0.000000 -0.005593 0.000000
# 2 0.020403 0.031484 -0.006798 0.000000 -0.003543 0.000000
# 3 -0.008809 -0.006798 0.010337 0.000000 0.002218 0.000000
# 4 0.000000 0.000000 0.000000 0.023822 0.000000 -0.005143
# 5 -0.005593 -0.003543 0.002218 0.000000 0.025980 0.000000
# 6 0.000000 0.000000 0.000000 -0.005143 0.000000 0.040603
#
#
# Mechanical properties :
#
#
# Convention : Reuss Voigt Hill
#
# Bulk Modulus (GPa) = 11.14790 26.48704 18.81747
# Shear Modulus (GPa) = 26.20204 35.53335 30.86769
#
# Velocity S-wave (km/s) = 3.16122 3.68134 3.43115
# Velocity P-wave (km/s) = 4.19240 5.30770 4.78267
#
# Compressibility (1/GPa) = 0.08970299
#
# Stress axis : x y z
#
# Youngs Moduli (GPa) = 26.11697 31.76170 96.73869
#
# Poissons Ratio (x) = -0.64802 0.85215
# Poissons Ratio (y) = -0.53286 0.65761
# Poissons Ratio (z) = 0.23006 0.21591
#
# Static dielectric constant tensor:
#      x y z
#    x 4.312440 0.000000 0.255020 
#    y 0.000000 4.793660 0.000000 
#    z 0.255020 0.000000 5.507480 
# 
# 
# High freq. dielectric constant tensor:
#      x y z
#    x 2.022610 0.000000 0.018100 
#    y 0.000000 2.062390 0.000000 
#    z 0.018100 0.000000 2.060260 
# 
# From -- ./inp_files/66346.got.cif
#   From: 2010.03.12/outbox.cif.g09.slc.cpg/sg14_34_cif.got.tgz:66346.got - 2010.03.31 13:35:05.
