data_PCOD8126228
_publ_section_title
;
Structure prediction by ZEFSAII (Michael W. Deem and Ramdas Pophale) SiO2 
 PCOD8126228
Probable space group: P 21/C
;
_chemical_formula_sum "Si O2"
_cell_formula_units_Z 28
_cell_length_a 12.565623
_cell_length_b 13.582540
_cell_length_c 8.419792
_cell_angle_alpha 90.000000
_cell_angle_beta 70.188627
_cell_angle_gamma 90.000000
_cell_volume 1351.978943
_symmetry_space_group_name_H-M "P 21/C"
_symmetry_group_IT_number 14
_symmetry_cell_setting 'monoclinic'
loop_
_space_group_symop_operation_xyz
x,y,z
-x,1/2+y,1/2-z
-x,-y,-z
x,1/2-y,1/2+z
loop_
_atom_site_type_symbol
_atom_site_label
_atom_site_fract_x
_atom_site_fract_y
_atom_site_fract_z
Si Si1 0.492448 0.619561 0.492775
Si Si2 0.130952 0.020904 0.962626
Si Si3 0.617240 0.727756 0.151970
Si Si4 0.951753 0.814859 0.802518
Si Si5 0.894471 0.292565 0.047805
Si Si6 0.234194 0.848615 0.094316
Si Si7 0.229773 0.164370 0.688209
O O1 0.500000 0.500000 0.500000
O O2 0.536371 0.659516 0.300406
O O3 0.555930 0.677009 0.603623
O O4 0.363824 0.652030 0.575337
O O5 0.193518 0.057360 0.770850
O O6 0.137283 0.102924 0.098372
O O7 0.206523 0.932641 0.983659
O O8 0.000000 0.000000 0.000000
O O9 0.723641 0.767620 0.194673
O O10 0.671221 0.654925 0.992694
O O11 0.886078 0.712503 0.814501
O O12 0.013393 0.848867 0.608177
O O13 0.044265 0.799053 0.895069
O O14 0.839046 0.363640 0.207403
O O15 0.797720 0.252768 0.977532
#
# Coordination Sequence:
#
# PCOD8126228 Si02
#       7
#     4   4   4   4   4   4   4
#     4  11  24  45  66  94 127 165 225 277 319 382
#     4  12  22  37  60  97 128 157 204 256 304 384
#     4  10  23  42  67  93 122 171 220 272 324 374
#     4  11  19  37  61  90 127 159 198 244 304 382
#     4  10  21  39  60  88 121 169 196 244 315 379
#     4  11  23  40  63  85 124 163 206 257 315 361
#     4  11  20  39  66  89 126 167 204 253 321 372
#
# _framework density 20.710381000000002
#
# number of rings (size 3 to 8) (size 9 to 14) (size 15 to 20)
#    0.000    1.143    4.286    2.571    2.000    0.571 
#    2.571    7.857    0.000    0.000    0.000    0.000 
#    0.000    0.000    0.000    0.000    0.000    0.000 
#
# Total GULP energy -347088.653061 kJ/mol
# GULP energy per Si atom -12396.023324 kJ/mol
# Density = 2.066324 g / cm^3
# Si number density = 20.710381 Si / 1000 Ang^3
#
#
#
# Elastic Constant Matrix: (Units=GPa)
#
#
# Indices 1 2 3 4 5 6 
#
# 1 78.0157 3.9421 21.5184 0.0000 -4.5566 0.0000
# 2 3.9421 68.3967 37.2623 0.0000 -3.6155 0.0000
# 3 21.5184 37.2623 134.8974 0.0000 -5.5192 0.0000
# 4 0.0000 0.0000 0.0000 38.6448 0.0000 1.0104
# 5 -4.5566 -3.6155 -5.5192 0.0000 30.0043 0.0000
# 6 0.0000 0.0000 0.0000 1.0104 0.0000 29.7324
#
#
#
# Elastic Compliance Matrix: (Units=1/GPa)
#
#
# Indices 1 2 3 4 5 6 
#
# 1 0.013506 0.000527 -0.002230 0.000000 0.001704 0.000000
# 2 0.000527 0.017275 -0.004803 0.000000 0.001278 0.000000
# 3 -0.002230 -0.004803 0.009127 0.000000 0.000761 0.000000
# 4 0.000000 0.000000 0.000000 0.025900 0.000000 -0.000880
# 5 0.001704 0.001278 0.000761 0.000000 0.033881 0.000000
# 6 0.000000 0.000000 0.000000 -0.000880 0.000000 0.033663
#
#
# Mechanical properties :
#
#
# Convention : Reuss Voigt Hill
#
# Bulk Modulus (GPa) = 37.18369 45.19505 41.18937
# Shear Modulus (GPa) = 32.18947 34.24877 33.21912
#
# Velocity S-wave (km/s) = 3.94670 4.07098 4.00932
# Velocity P-wave (km/s) = 6.22589 6.63076 6.43151
#
# Compressibility (1/GPa) = 0.02689351
#
# Stress axis : x y z
#
# Youngs Moduli (GPa) = 74.04118 57.88813 109.56758
#
# Poissons Ratio (x) = -0.03049 0.24436
# Poissons Ratio (y) = -0.03899 0.52630
# Poissons Ratio (z) = 0.16513 0.27806
#
# Static dielectric constant tensor:
#      x y z
#    x 3.875830 0.000000 0.075110 
#    y 0.000000 3.615680 0.000000 
#    z 0.075110 0.000000 4.056280 
# 
# 
# High freq. dielectric constant tensor:
#      x y z
#    x 1.816890 0.000000 0.000610 
#    y 0.000000 1.781980 0.000000 
#    z 0.000610 0.000000 1.827180 
# 
# From -- ./inp_files/13054.got.cif
#   From: 2010.03.12/outbox.cif.g09.slc.cpg/sg14_7_cif.got.tgz:13054.got - 2010.03.31 13:35:05.
