data_PCOD8126054
_publ_section_title
;
Structure prediction by ZEFSAII (Michael W. Deem and Ramdas Pophale) SiO2 
 PCOD8126054
Probable space group: P 21/C
;
_chemical_formula_sum "Si O2"
_cell_formula_units_Z 20
_cell_length_a 8.956296
_cell_length_b 4.972967
_cell_length_c 22.538816
_cell_angle_alpha 90.000000
_cell_angle_beta 123.255165
_cell_angle_gamma 90.000000
_cell_volume 839.468396
_symmetry_space_group_name_H-M "P 21/C"
_symmetry_group_IT_number 14
_symmetry_cell_setting 'monoclinic'
loop_
_space_group_symop_operation_xyz
x,y,z
-x,1/2+y,1/2-z
-x,-y,-z
x,1/2-y,1/2+z
loop_
_atom_site_type_symbol
_atom_site_label
_atom_site_fract_x
_atom_site_fract_y
_atom_site_fract_z
Si Si1 0.225145 0.132489 0.302563
Si Si2 0.889719 0.367299 0.656644
Si Si3 0.786836 0.493995 0.950969
Si Si4 0.538904 0.542336 0.796466
Si Si5 0.682488 0.998867 0.001416
O O1 0.224854 0.437812 0.325254
O O2 0.420580 0.056521 0.325383
O O3 0.098311 0.093647 0.217208
O O4 0.165666 0.940021 0.343360
O O5 0.852052 0.439029 0.580651
O O6 0.733873 0.552654 0.870183
O O7 0.696906 0.214018 0.951710
O O8 0.702708 0.709214 0.977224
O O9 0.000000 0.500000 0.000000
O O10 0.472762 0.834072 0.760477
O O11 0.500000 0.000000 0.000000
#
# Coordination Sequence:
#
# PCOD8126054 Si02
#       5
#     4   4   4   4   4
#     4  10  21  39  60  95 127 162 221 265 324 383
#     4  10  21  37  66  92 125 164 212 280 319 389
#     4  12  28  45  69 105 143 176 230 287 344 412
#     4  12  26  43  68  91 135 181 223 264 332 406
#     4  12  24  44  73  98 138 182 231 277 351 405
#
# _framework density 23.824601000000001
#
# number of rings (size 3 to 8) (size 9 to 14) (size 15 to 20)
#    0.000    0.800    0.000    7.200    5.600    0.000 
#    0.000    0.000    0.000    0.000    0.000    0.000 
#    0.000    0.000    0.000    0.000    0.000    0.000 
#
# Total GULP energy -248053.888816 kJ/mol
# GULP energy per Si atom -12402.694441 kJ/mol
# Density = 2.377037 g / cm^3
# Si number density = 23.824601 Si / 1000 Ang^3
#
#
#
# Elastic Constant Matrix: (Units=GPa)
#
#
# Indices 1 2 3 4 5 6 
#
# 1 83.7685 18.2535 6.7507 0.0000 11.0332 0.0000
# 2 18.2535 71.8809 9.6528 0.0000 1.2490 0.0000
# 3 6.7507 9.6528 165.9801 0.0000 12.4397 0.0000
# 4 0.0000 0.0000 0.0000 39.9400 0.0000 -7.1518
# 5 11.0332 1.2490 12.4397 0.0000 28.9774 0.0000
# 6 0.0000 0.0000 0.0000 -7.1518 0.0000 31.7111
#
#
#
# Elastic Compliance Matrix: (Units=1/GPa)
#
#
# Indices 1 2 3 4 5 6 
#
# 1 0.013304 -0.003295 0.000020 0.000000 -0.004932 0.000000
# 2 -0.003295 0.014840 -0.000801 0.000000 0.000959 0.000000
# 3 0.000020 -0.000801 0.006270 0.000000 -0.002665 0.000000
# 4 0.000000 0.000000 0.000000 0.026091 0.000000 0.005884
# 5 -0.004932 0.000959 -0.002665 0.000000 0.037490 0.000000
# 6 0.000000 0.000000 0.000000 0.005884 0.000000 0.032862
#
#
# Mechanical properties :
#
#
# Convention : Reuss Voigt Hill
#
# Bulk Modulus (GPa) = 38.07845 43.43818 40.75831
# Shear Modulus (GPa) = 33.83804 39.25722 36.54763
#
# Velocity S-wave (km/s) = 3.77277 4.06366 3.92092
# Velocity P-wave (km/s) = 5.91574 6.34743 6.13538
#
# Compressibility (1/GPa) = 0.02626157
#
# Stress axis : x y z
#
# Youngs Moduli (GPa) = 75.16701 67.38716 159.48200
#
# Poissons Ratio (x) = 0.22207 -0.00322
# Poissons Ratio (y) = 0.24770 0.12772
# Poissons Ratio (z) = -0.00152 0.05397
#
# Static dielectric constant tensor:
#      x y z
#    x 3.964680 0.000000 0.237560 
#    y 0.000000 4.463620 0.000000 
#    z 0.237560 0.000000 4.591470 
# 
# 
# High freq. dielectric constant tensor:
#      x y z
#    x 1.926000 0.000000 0.012600 
#    y 0.000000 1.958150 0.000000 
#    z 0.012600 0.000000 1.962570 
# 
# From -- ./inp_files/64234.got.cif
#   From: 2010.03.12/outbox.cif.g09.slc.cpg/sg14_33_cif.got.tgz:64234.got - 2010.03.31 13:35:05.
