data_PCOD8126369
_publ_section_title
;
Structure prediction by ZEFSAII (Michael W. Deem and Ramdas Pophale) SiO2 
 PCOD8126369
Probable space group: P 21/C
;
_chemical_formula_sum "Si O2"
_cell_formula_units_Z 28
_cell_length_a 20.607453
_cell_length_b 5.198646
_cell_length_c 13.005365
_cell_angle_alpha 90.000000
_cell_angle_beta 68.257497
_cell_angle_gamma 90.000000
_cell_volume 1294.155461
_symmetry_space_group_name_H-M "P 21/C"
_symmetry_group_IT_number 14
_symmetry_cell_setting 'monoclinic'
loop_
_space_group_symop_operation_xyz
x,y,z
-x,1/2+y,1/2-z
-x,-y,-z
x,1/2-y,1/2+z
loop_
_atom_site_type_symbol
_atom_site_label
_atom_site_fract_x
_atom_site_fract_y
_atom_site_fract_z
Si Si1 0.302844 0.481803 0.462327
Si Si2 0.426925 0.130904 0.017842
Si Si3 0.246537 0.962795 0.593125
Si Si4 0.021616 0.504012 0.869958
Si Si5 0.649231 0.985516 0.292049
Si Si6 0.913096 0.502913 0.756252
Si Si7 0.492170 0.877830 0.689632
O O1 0.376964 0.542996 0.474715
O O2 0.253262 0.729407 0.507885
O O3 0.311777 0.425398 0.336901
O O4 0.267965 0.230160 0.530186
O O5 0.385025 0.223440 0.142615
O O6 0.449235 0.377440 0.934103
O O7 0.500000 0.000000 0.000000
O O8 0.295253 0.894596 0.662034
O O9 0.168412 0.987479 0.677220
O O10 0.070212 0.261287 0.816012
O O11 0.951691 0.498605 0.843055
O O12 0.064836 0.762061 0.825512
O O13 0.000000 0.500000 0.000000
O O14 0.585146 0.184979 0.311737
O O15 0.510236 0.661298 0.762028
#
# Coordination Sequence:
#
# PCOD8126369 Si02
#       7
#     4   4   4   4   4   4   4
#     4  11  26  42  63  90 126 166 217 263 318 389
#     4  11  24  44  65  94 121 163 215 280 337 390
#     4  11  26  45  63  94 132 173 212 259 316 383
#     4  10  21  39  69 103 131 169 212 257 307 368
#     4  11  26  42  66  92 126 167 216 269 331 392
#     4  10  22  41  65  97 137 168 212 260 305 371
#     4  12  25  41  67  90 121 162 211 275 340 386
#
# _framework density 21.635732000000001
#
# number of rings (size 3 to 8) (size 9 to 14) (size 15 to 20)
#    0.000    1.143    1.429    3.429    4.000    5.714 
#    0.000    0.000    0.000    0.000    0.000    0.000 
#    0.000    0.000    0.000    0.000    0.000    0.000 
#
# Total GULP energy -347233.083422 kJ/mol
# GULP energy per Si atom -12401.181551 kJ/mol
# Density = 2.158649 g / cm^3
# Si number density = 21.635732 Si / 1000 Ang^3
#
#
#
# Elastic Constant Matrix: (Units=GPa)
#
#
# Indices 1 2 3 4 5 6 
#
# 1 107.1311 58.0954 85.7123 0.0000 -27.9175 0.0000
# 2 58.0954 217.5802 137.6653 0.0000 -28.4818 0.0000
# 3 85.7123 137.6653 238.2277 0.0000 -25.0191 0.0000
# 4 0.0000 0.0000 0.0000 21.4581 0.0000 -45.1115
# 5 -27.9175 -28.4818 -25.0191 0.0000 33.9960 0.0000
# 6 0.0000 0.0000 0.0000 -45.1115 0.0000 -344.5741
#
#
#
# Elastic Compliance Matrix: (Units=1/GPa)
#
#
# Indices 1 2 3 4 5 6 
#
# 1 0.015412 -0.000013 -0.004562 0.000000 0.009288 0.000000
# 2 -0.000013 0.007590 -0.004026 0.000000 0.003386 0.000000
# 3 -0.004562 -0.004026 0.008039 0.000000 -0.001203 0.000000
# 4 0.000000 0.000000 0.000000 0.036544 0.000000 -0.004784
# 5 0.009288 0.003386 -0.001203 0.000000 0.038994 0.000000
# 6 0.000000 0.000000 0.000000 -0.004784 0.000000 -0.002276
#
#
# Mechanical properties :
#
#
# Convention : Reuss Voigt Hill
#
# Bulk Modulus (GPa) = 72.25834 125.09834 98.67834
# Shear Modulus (GPa) = 39.64573 -39.05957 0.29308
#
# Velocity S-wave (km/s) = 4.28532 -4.25352 0.36845
# Velocity P-wave (km/s) = 7.61285 5.81571 6.77414
#
# Compressibility (1/GPa) = 0.01383923
#
# Stress axis : x y z
#
# Youngs Moduli (GPa) = 64.88580 131.75737 124.39066
#
# Poissons Ratio (x) = 0.00166 0.56750
# Poissons Ratio (y) = 0.00082 0.50077
# Poissons Ratio (z) = 0.29603 0.53043
#
# Static dielectric constant tensor:
#      x y z
#    x 3.948840 0.000000 0.070290 
#    y 0.000000 3.797510 0.000000 
#    z 0.070290 0.000000 4.121140 
# 
# 
# High freq. dielectric constant tensor:
#      x y z
#    x 1.843240 0.000000 0.003000 
#    y 0.000000 1.853100 0.000000 
#    z 0.003000 0.000000 1.864500 
# 
# From -- ./inp_files/34663.got.cif
#   From: 2010.03.12/outbox.cif.g09.slc.cpg/sg14_18_cif.got.tgz:34663.got - 2010.03.31 13:35:05.
