data_PCOD8126148
_publ_section_title
;
Structure prediction by ZEFSAII (Michael W. Deem and Ramdas Pophale) SiO2 
 PCOD8126148
Probable space group: P 21/C
;
_chemical_formula_sum "Si O2"
_cell_formula_units_Z 28
_cell_length_a 9.057513
_cell_length_b 15.680443
_cell_length_c 18.999758
_cell_angle_alpha 90.000000
_cell_angle_beta 28.309006
_cell_angle_gamma 90.000000
_cell_volume 1279.679682
_symmetry_space_group_name_H-M "P 21/C"
_symmetry_group_IT_number 14
_symmetry_cell_setting 'monoclinic'
loop_
_space_group_symop_operation_xyz
x,y,z
-x,1/2+y,1/2-z
-x,-y,-z
x,1/2-y,1/2+z
loop_
_atom_site_type_symbol
_atom_site_label
_atom_site_fract_x
_atom_site_fract_y
_atom_site_fract_z
Si Si1 0.537339 0.740592 0.118479
Si Si2 0.202861 0.031307 0.069544
Si Si3 0.392347 0.859392 0.933359
Si Si4 0.161794 0.614657 0.727126
Si Si5 0.970263 0.439498 0.818921
Si Si6 0.453660 0.190009 0.546754
Si Si7 0.884848 0.344729 0.602173
O O1 0.316323 0.824124 0.219912
O O2 0.503313 0.712069 0.052637
O O3 0.422486 0.670137 0.221665
O O4 0.891886 0.762679 0.986051
O O5 0.994373 0.059893 0.223270
O O6 0.061967 0.072252 0.057665
O O7 0.557479 0.067364 0.934597
O O8 0.206096 0.929099 0.058027
O O9 0.201323 0.852551 0.942233
O O10 0.737516 0.891102 0.769844
O O11 0.421589 0.768857 0.960122
O O12 0.968874 0.538110 0.846292
O O13 0.910681 0.668169 0.784930
O O14 0.659322 0.393751 0.976620
#
# Coordination Sequence:
#
# PCOD8126148 Si02
#       7
#     4   4   4   4   4   4   4
#     4  11  21  41  63  89 122 172 207 252 311 385
#     4  10  21  44  65  89 121 175 211 249 308 385
#     4  11  24  38  65  98 126 158 212 267 304 365
#     4  10  21  38  63  89 120 164 211 253 303 371
#     4  11  22  40  65  89 126 163 212 259 308 373
#     4  12  22  39  64  96 125 161 209 265 312 364
#     4  11  23  40  65  88 131 163 209 255 321 366
#
# _framework density 21.880474
#
# number of rings (size 3 to 8) (size 9 to 14) (size 15 to 20)
#    0.000    1.143    2.857    6.000    2.000    0.000 
#    0.000    0.000    0.000    4.286    0.000    0.000 
#    0.000    0.000    0.000    0.000    0.000    0.000 
#
# Total GULP energy -347050.919660 kJ/mol
# GULP energy per Si atom -12394.675702 kJ/mol
# Density = 2.183067 g / cm^3
# Si number density = 21.880474 Si / 1000 Ang^3
#
#
#
# Elastic Constant Matrix: (Units=GPa)
#
#
# Indices 1 2 3 4 5 6 
#
# 1 99.0782 26.2870 17.5712 0.0000 -0.3940 0.0000
# 2 26.2870 98.6100 25.3861 0.0000 7.7682 0.0000
# 3 17.5712 25.3861 71.9340 0.0000 -6.9397 0.0000
# 4 0.0000 0.0000 0.0000 38.7862 0.0000 -8.5770
# 5 -0.3940 7.7682 -6.9397 0.0000 19.2169 0.0000
# 6 0.0000 0.0000 0.0000 -8.5770 0.0000 19.9299
#
#
#
# Elastic Compliance Matrix: (Units=1/GPa)
#
#
# Indices 1 2 3 4 5 6 
#
# 1 0.011083 -0.002555 -0.001745 0.000000 0.000630 0.000000
# 2 -0.002555 0.012491 -0.004430 0.000000 -0.006702 0.000000
# 3 -0.001745 -0.004430 0.016640 0.000000 0.007765 0.000000
# 4 0.000000 0.000000 0.000000 0.028494 0.000000 0.012263
# 5 0.000630 -0.006702 0.007765 0.000000 0.057564 0.000000
# 6 0.000000 0.000000 0.000000 0.012263 0.000000 0.055453
#
#
# Mechanical properties :
#
#
# Convention : Reuss Voigt Hill
#
# Bulk Modulus (GPa) = 43.94909 45.34564 44.64737
# Shear Modulus (GPa) = 24.18153 28.94511 26.56332
#
# Velocity S-wave (km/s) = 3.32801 3.64108 3.48806
# Velocity P-wave (km/s) = 5.90738 6.20047 6.05570
#
# Compressibility (1/GPa) = 0.02275360
#
# Stress axis : x y z
#
# Youngs Moduli (GPa) = 90.22975 80.06070 60.09450
#
# Poissons Ratio (x) = 0.20454 0.10485
# Poissons Ratio (y) = 0.23052 0.26625
# Poissons Ratio (z) = 0.15743 0.35471
#
# Static dielectric constant tensor:
#      x y z
#    x 3.682300 0.000000 -0.281830 
#    y 0.000000 4.369330 0.000000 
#    z -0.281830 0.000000 3.873510 
# 
# 
# High freq. dielectric constant tensor:
#      x y z
#    x 1.836200 0.000000 -0.023910 
#    y 0.000000 1.875580 0.000000 
#    z -0.023910 0.000000 1.852600 
# 
# From -- ./inp_files/65901.got.cif
#   From: 2010.03.12/outbox.cif.g09.slc.cpg/sg14_33_cif.got.tgz:65901.got - 2010.03.31 13:35:05.
