data_PCOD8126426
_publ_section_title
;
Structure prediction by ZEFSAII (Michael W. Deem and Ramdas Pophale) SiO2 
 PCOD8126426
Probable space group: P 21/C
;
_chemical_formula_sum "Si O2"
_cell_formula_units_Z 32
_cell_length_a 13.943444
_cell_length_b 12.329213
_cell_length_c 10.545570
_cell_angle_alpha 90.000000
_cell_angle_beta 128.670067
_cell_angle_gamma 90.000000
_cell_volume 1415.439554
_symmetry_space_group_name_H-M "P 21/C"
_symmetry_group_IT_number 14
_symmetry_cell_setting 'monoclinic'
loop_
_space_group_symop_operation_xyz
x,y,z
-x,1/2+y,1/2-z
-x,-y,-z
x,1/2-y,1/2+z
loop_
_atom_site_type_symbol
_atom_site_label
_atom_site_fract_x
_atom_site_fract_y
_atom_site_fract_z
Si Si1 0.908404 0.752601 0.045748
Si Si2 0.560803 0.834367 0.579300
Si Si3 0.940191 0.984092 0.626571
Si Si4 0.836551 0.353978 0.226664
Si Si5 0.808425 0.033470 0.273770
Si Si6 0.349504 0.809860 0.997789
Si Si7 0.357954 0.947475 0.250273
Si Si8 0.221885 0.200732 0.811141
O O1 0.879521 0.632752 0.070856
O O2 0.849218 0.820646 0.113780
O O3 0.053144 0.773473 0.145686
O O4 0.853107 0.767485 0.859391
O O5 0.483551 0.742981 0.591400
O O6 0.477422 0.899253 0.414126
O O7 0.655775 0.770687 0.568113
O O8 0.628810 0.920822 0.730557
O O9 0.087671 0.972795 0.750257
O O10 0.895977 0.039263 0.717576
O O11 0.886761 0.056262 0.466185
O O12 0.744099 0.290566 0.054184
O O13 0.764568 0.399391 0.288465
O O14 0.707461 0.128998 0.173403
O O15 0.741616 0.916658 0.216046
O O16 0.354712 0.905475 0.104377
#
# Coordination Sequence:
#
# PCOD8126426 Si02
#       8
#     4   4   4   4   4   4   4   4
#     4  11  24  40  68 102 141 181 225 283 351 413
#     4  10  25  48  65  96 133 184 229 288 343 395
#     4  10  21  40  62  93 146 172 215 269 345 412
#     4  11  23  40  70 101 134 186 221 283 352 415
#     4  10  22  39  63 100 130 176 220 274 335 411
#     4  11  25  41  72  97 131 177 232 291 332 418
#     4  10  25  45  69  97 135 174 236 288 343 404
#     4  11  25  43  68  99 140 184 227 285 342 417
#
# _framework density 22.607818000000002
#
# number of rings (size 3 to 8) (size 9 to 14) (size 15 to 20)
#    0.000    1.500    2.500    0.750    8.750    0.500 
#    4.500    1.875    0.000    0.000    0.000    0.000 
#    0.000    0.000    0.000    0.000    0.000    0.000 
#
# Total GULP energy -396558.053560 kJ/mol
# GULP energy per Si atom -12392.439174 kJ/mol
# Density = 2.255636 g / cm^3
# Si number density = 22.607818 Si / 1000 Ang^3
#
#
#
# Elastic Constant Matrix: (Units=GPa)
#
#
# Indices 1 2 3 4 5 6 
#
# 1 98.8047 30.3127 35.3007 0.0000 17.5813 0.0000
# 2 30.3127 90.2586 18.6090 0.0000 12.5109 0.0000
# 3 35.3007 18.6090 56.2354 0.0000 -1.3811 0.0000
# 4 0.0000 0.0000 0.0000 29.0681 0.0000 5.7678
# 5 17.5813 12.5109 -1.3811 0.0000 25.9245 0.0000
# 6 0.0000 0.0000 0.0000 5.7678 0.0000 39.6696
#
#
#
# Elastic Compliance Matrix: (Units=1/GPa)
#
#
# Indices 1 2 3 4 5 6 
#
# 1 0.016035 -0.001940 -0.009680 0.000000 -0.010454 0.000000
# 2 -0.001940 0.013121 -0.003251 0.000000 -0.005189 0.000000
# 3 -0.009680 -0.003251 0.025168 0.000000 0.009475 0.000000
# 4 0.000000 0.000000 0.000000 0.035424 0.000000 -0.005151
# 5 -0.010454 -0.005189 0.009475 0.000000 0.048672 0.000000
# 6 0.000000 0.000000 0.000000 -0.005151 0.000000 0.025957
#
#
# Mechanical properties :
#
#
# Convention : Reuss Voigt Hill
#
# Bulk Modulus (GPa) = 40.68448 45.97150 43.32799
# Shear Modulus (GPa) = 24.71421 29.67086 27.19253
#
# Velocity S-wave (km/s) = 3.30990 3.62666 3.47189
# Velocity P-wave (km/s) = 5.71332 6.15754 5.93959
#
# Compressibility (1/GPa) = 0.02457940
#
# Stress axis : x y z
#
# Youngs Moduli (GPa) = 62.36377 76.21647 39.73374
#
# Poissons Ratio (x) = 0.14789 0.38463
# Poissons Ratio (y) = 0.12101 0.12918
# Poissons Ratio (z) = 0.60370 0.24779
#
# Static dielectric constant tensor:
#      x y z
#    x 3.899060 0.000000 0.203630 
#    y 0.000000 4.237100 0.000000 
#    z 0.203630 0.000000 3.991700 
# 
# 
# High freq. dielectric constant tensor:
#      x y z
#    x 1.872860 0.000000 0.014370 
#    y 0.000000 1.907030 0.000000 
#    z 0.014370 0.000000 1.880480 
# 
# From -- ./inp_files/32400.got.cif
#   From: 2010.03.12/outbox.cif.g09.slc.cpg/sg14_17_cif.got.tgz:32400.got - 2010.03.31 13:35:05.
