data_PCOD8126795
_publ_section_title
;
Structure prediction by ZEFSAII (Michael W. Deem and Ramdas Pophale) SiO2 
 PCOD8126795
Probable space group: P 21/C
;
_chemical_formula_sum "Si O2"
_cell_formula_units_Z 32
_cell_length_a 23.587586
_cell_length_b 9.050158
_cell_length_c 14.585257
_cell_angle_alpha 90.000000
_cell_angle_beta 151.693739
_cell_angle_gamma 90.000000
_cell_volume 1476.389762
_symmetry_space_group_name_H-M "P 21/C"
_symmetry_group_IT_number 14
_symmetry_cell_setting 'monoclinic'
loop_
_space_group_symop_operation_xyz
x,y,z
-x,1/2+y,1/2-z
-x,-y,-z
x,1/2-y,1/2+z
loop_
_atom_site_type_symbol
_atom_site_label
_atom_site_fract_x
_atom_site_fract_y
_atom_site_fract_z
Si Si1 0.402783 0.176464 0.299587
Si Si2 0.907857 0.437629 0.126161
Si Si3 0.457872 0.852569 0.324125
Si Si4 0.871429 0.819475 0.320823
Si Si5 0.257065 0.664848 0.951164
Si Si6 0.646064 0.849237 0.437629
Si Si7 0.129419 0.850321 0.624189
Si Si8 0.861558 0.770308 0.013268
O O1 0.499957 0.204677 0.516758
O O2 0.418142 0.309962 0.249644
O O3 0.270453 0.172446 0.153520
O O4 0.431580 0.026051 0.287290
O O5 0.855821 0.372637 0.145927
O O6 0.047821 0.395765 0.321100
O O7 0.841733 0.367208 0.942858
O O8 0.891739 0.613885 0.103643
O O9 0.560999 0.808684 0.400060
O O10 0.336815 0.772963 0.124724
O O11 0.876152 0.741952 0.425523
O O12 0.994908 0.790284 0.444041
O O13 0.850432 0.994094 0.296854
O O14 0.766627 0.747735 0.111695
O O15 0.218157 0.735859 0.799174
O O16 0.330279 0.521970 0.026626
#
# Coordination Sequence:
#
# PCOD8126795 Si02
#       8
#     4   4   4   4   4   4   4   4
#     4  11  24  46  70  98 134 179 226 274 332 392
#     4  11  25  41  68 104 135 175 214 272 342 394
#     4  11  27  45  69  95 132 185 226 272 333 394
#     4  10  21  42  68  95 134 174 221 265 335 402
#     4  12  26  43  64 102 134 169 229 276 324 398
#     4  12  24  44  69  97 133 174 227 282 329 384
#     4  10  23  41  66  98 134 178 212 269 339 399
#     4  11  22  44  70 100 138 172 215 277 332 400
#
# _framework density 21.674492000000001
#
# number of rings (size 3 to 8) (size 9 to 14) (size 15 to 20)
#    0.000    1.000    3.750    2.250    1.750    5.000 
#    0.000    0.000    0.000    0.000    0.000    0.000 
#    0.000    0.000    0.000    0.000    0.000    0.000 
#
# Total GULP energy -396988.291840 kJ/mol
# GULP energy per Si atom -12405.884120 kJ/mol
# Density = 2.162516 g / cm^3
# Si number density = 21.674492 Si / 1000 Ang^3
#
#
#
# Elastic Constant Matrix: (Units=GPa)
#
#
# Indices 1 2 3 4 5 6 
#
# 1 59.0826 14.5170 10.4010 0.0000 -3.9186 0.0000
# 2 14.5170 48.1893 22.8809 0.0000 -2.0526 0.0000
# 3 10.4010 22.8809 61.4528 0.0000 -2.0497 0.0000
# 4 0.0000 0.0000 0.0000 39.1629 0.0000 1.1193
# 5 -3.9186 -2.0526 -2.0497 0.0000 28.1714 0.0000
# 6 0.0000 0.0000 0.0000 1.1193 0.0000 32.1907
#
#
#
# Elastic Compliance Matrix: (Units=1/GPa)
#
#
# Indices 1 2 3 4 5 6 
#
# 1 0.018486 -0.004891 -0.001237 0.000000 0.002125 0.000000
# 2 -0.004891 0.026540 -0.009034 0.000000 0.000596 0.000000
# 3 -0.001237 -0.009034 0.019866 0.000000 0.000615 0.000000
# 4 0.000000 0.000000 0.000000 0.025560 0.000000 -0.000889
# 5 0.002125 0.000596 0.000615 0.000000 0.035881 0.000000
# 6 0.000000 0.000000 0.000000 -0.000889 0.000000 0.031096
#
#
# Mechanical properties :
#
#
# Convention : Reuss Voigt Hill
#
# Bulk Modulus (GPa) = 28.92832 29.36914 29.14873
# Shear Modulus (GPa) = 25.09104 27.96674 26.52889
#
# Velocity S-wave (km/s) = 3.40609 3.59598 3.50232
# Velocity P-wave (km/s) = 5.37069 5.55166 5.46192
#
# Compressibility (1/GPa) = 0.03456820
#
# Stress axis : x y z
#
# Youngs Moduli (GPa) = 54.09527 37.67931 50.33702
#
# Poissons Ratio (x) = 0.18429 0.06226
# Poissons Ratio (y) = 0.26459 0.45474
# Poissons Ratio (z) = 0.06690 0.34039
#
# Static dielectric constant tensor:
#      x y z
#    x 3.952770 0.000000 -0.084530 
#    y 0.000000 3.858530 0.000000 
#    z -0.084530 0.000000 3.939210 
# 
# 
# High freq. dielectric constant tensor:
#      x y z
#    x 1.862700 0.000000 -0.008960 
#    y 0.000000 1.848460 0.000000 
#    z -0.008960 0.000000 1.855910 
# 
# From -- ./inp_files/51404.got.cif
#   From: 2010.03.12/outbox.cif.g09.slc.cpg/sg14_26_cif.got.tgz:51404.got - 2010.03.31 13:35:05.
