data_PCOD8126401
_publ_section_title
;
Structure prediction by ZEFSAII (Michael W. Deem and Ramdas Pophale) SiO2 
 PCOD8126401
Probable space group: P 21/C
;
_chemical_formula_sum "Si O2"
_cell_formula_units_Z 16
_cell_length_a 11.918463
_cell_length_b 8.569116
_cell_length_c 9.241171
_cell_angle_alpha 90.000000
_cell_angle_beta 45.238885
_cell_angle_gamma 90.000000
_cell_volume 670.149151
_symmetry_space_group_name_H-M "P 21/C"
_symmetry_group_IT_number 14
_symmetry_cell_setting 'monoclinic'
loop_
_space_group_symop_operation_xyz
x,y,z
-x,1/2+y,1/2-z
-x,-y,-z
x,1/2-y,1/2+z
loop_
_atom_site_type_symbol
_atom_site_label
_atom_site_fract_x
_atom_site_fract_y
_atom_site_fract_z
Si Si1 0.960147 0.046681 0.835405
Si Si2 0.528133 0.234858 0.423885
Si Si3 0.615815 0.571235 0.686907
Si Si4 0.117006 0.772785 0.824543
O O1 0.973898 0.126223 0.665560
O O2 0.960063 0.190664 0.950296
O O3 0.105577 0.929967 0.734552
O O4 0.802773 0.944575 0.998234
O O5 0.411757 0.199094 0.662654
O O6 0.461735 0.381455 0.395323
O O7 0.700032 0.273628 0.332803
O O8 0.536139 0.090517 0.305849
#
# Coordination Sequence:
#
# PCOD8126401 Si02
#       4
#     4   4   4   4
#     4  10  23  41  61  88 119 155 196 243 293 349
#     4  10  21  40  61  89 122 152 196 246 290 348
#     4  10  22  38  61  88 120 156 196 243 292 346
#     4  10  22  41  61  87 121 153 196 243 291 349
#
# _framework density 23.875281999999999
#
# number of rings (size 3 to 8) (size 9 to 14) (size 15 to 20)
#    0.000    2.000    0.000    3.000    0.000   13.000 
#    0.000    0.000    0.000    0.000    0.000    0.000 
#    0.000    0.000    0.000    0.000    0.000    0.000 
#
# Total GULP energy -198428.832697 kJ/mol
# GULP energy per Si atom -12401.802044 kJ/mol
# Density = 2.382094 g / cm^3
# Si number density = 23.875282 Si / 1000 Ang^3
#
#
#
# Elastic Constant Matrix: (Units=GPa)
#
#
# Indices 1 2 3 4 5 6 
#
# 1 137.8363 36.9080 25.8037 0.0000 18.9368 0.0000
# 2 36.9080 19.6465 3.6493 0.0000 14.7754 0.0000
# 3 25.8037 3.6493 42.6175 0.0000 5.9031 0.0000
# 4 0.0000 0.0000 0.0000 24.4331 0.0000 22.2732
# 5 18.9368 14.7754 5.9031 0.0000 19.6885 0.0000
# 6 0.0000 0.0000 0.0000 22.2732 0.0000 75.7731
#
#
#
# Elastic Compliance Matrix: (Units=1/GPa)
#
#
# Indices 1 2 3 4 5 6 
#
# 1 0.021121 -0.057062 -0.011497 0.000000 0.025955 0.000000
# 2 -0.057062 0.271215 0.033298 0.000000 -0.158636 0.000000
# 3 -0.011497 0.033298 0.030782 0.000000 -0.023160 0.000000
# 4 0.000000 0.000000 0.000000 0.055910 0.000000 -0.016434
# 5 0.025955 -0.158636 -0.023160 0.000000 0.151821 0.000000
# 6 0.000000 0.000000 0.000000 -0.016434 0.000000 0.018028
#
#
# Mechanical properties :
#
#
# Convention : Reuss Voigt Hill
#
# Bulk Modulus (GPa) = 3.95887 36.98028 20.46957
# Shear Modulus (GPa) = 7.10636 32.89488 20.00062
#
# Velocity S-wave (km/s) = 1.72711 3.71587 2.89747
# Velocity P-wave (km/s) = 2.37465 5.82519 4.44813
#
# Compressibility (1/GPa) = 0.25259722
#
# Stress axis : x y z
#
# Youngs Moduli (GPa) = 47.34721 3.68712 32.48621
#
# Poissons Ratio (x) = 0.21039 0.37349
# Poissons Ratio (y) = 2.70170 -1.08174
# Poissons Ratio (z) = 0.54435 -0.12277
#
# Static dielectric constant tensor:
#      x y z
#    x 4.406520 0.000000 0.227780 
#    y 0.000000 4.134320 0.000000 
#    z 0.227780 0.000000 3.983150 
# 
# 
# High freq. dielectric constant tensor:
#      x y z
#    x 1.960400 0.000000 0.017680 
#    y 0.000000 1.939030 0.000000 
#    z 0.017680 0.000000 1.921550 
# 
# From -- ./inp_files/7189.got.cif
#   From: 2010.03.12/outbox.cif.g09.slc.cpg/sg14_4_cif.got.tgz:7189.got - 2010.03.31 13:35:05.
