data_PCOD8126922
_publ_section_title
;
Structure prediction by ZEFSAII (Michael W. Deem and Ramdas Pophale) SiO2 
 PCOD8126922
Probable space group: P 21/C
;
_chemical_formula_sum "Si O2"
_cell_formula_units_Z 32
_cell_length_a 8.661161
_cell_length_b 17.445342
_cell_length_c 10.855341
_cell_angle_alpha 90.000000
_cell_angle_beta 125.212838
_cell_angle_gamma 90.000000
_cell_volume 1340.076164
_symmetry_space_group_name_H-M "P 21/C"
_symmetry_group_IT_number 14
_symmetry_cell_setting 'monoclinic'
loop_
_space_group_symop_operation_xyz
x,y,z
-x,1/2+y,1/2-z
-x,-y,-z
x,1/2-y,1/2+z
loop_
_atom_site_type_symbol
_atom_site_label
_atom_site_fract_x
_atom_site_fract_y
_atom_site_fract_z
Si Si1 0.760634 0.863703 0.892809
Si Si2 0.730054 0.438166 0.696240
Si Si3 0.346399 0.396190 0.393967
Si Si4 0.072693 0.765503 0.959038
Si Si5 0.498190 0.777933 0.214544
Si Si6 0.443019 0.381767 0.048789
Si Si7 0.459412 0.546985 0.149172
Si Si8 0.962750 0.814786 0.661343
O O1 0.606064 0.801326 0.777111
O O2 0.677106 0.943560 0.799600
O O3 0.971882 0.847893 0.941056
O O4 0.767388 0.861477 0.043472
O O5 0.560890 0.417497 0.526562
O O6 0.769443 0.529151 0.704646
O O7 0.679595 0.416784 0.814014
O O8 0.909592 0.387915 0.745224
O O9 0.357619 0.332922 0.292571
O O10 0.007508 0.748700 0.786230
O O11 0.298003 0.766348 0.056768
O O12 0.992676 0.711312 0.032728
O O13 0.448929 0.816891 0.323524
O O14 0.410742 0.457586 0.115553
O O15 0.571025 0.406569 0.991605
O O16 0.248716 0.343927 0.915218
#
# Coordination Sequence:
#
# PCOD8126922 Si02
#       8
#     4   4   4   4   4   4   4   4
#     4  11  25  43  71 104 144 185 243 303 362 439
#     4  10  21  45  71  96 143 187 244 288 364 434
#     4  10  22  43  69 101 138 192 230 298 369 432
#     4  12  27  45  72 110 147 191 244 300 375 435
#     4  12  25  45  73 105 142 191 242 301 368 435
#     4  11  24  44  71 100 149 185 239 299 368 426
#     4  10  22  44  68 101 137 193 232 290 363 432
#     4  12  26  49  71 112 149 189 247 312 358 452
#
# _framework density 23.879238000000001
#
# number of rings (size 3 to 8) (size 9 to 14) (size 15 to 20)
#    0.000    1.000    5.000    1.500    3.500    1.500 
#    4.500    1.250    0.000    0.000    0.000    0.000 
#    0.000    0.000    0.000    0.000    0.000    0.000 
#
# Total GULP energy -396612.115185 kJ/mol
# GULP energy per Si atom -12394.128600 kJ/mol
# Density = 2.382489 g / cm^3
# Si number density = 23.879238 Si / 1000 Ang^3
#
#
#
# Elastic Constant Matrix: (Units=GPa)
#
#
# Indices 1 2 3 4 5 6 
#
# 1 58.0581 17.8683 24.7581 0.0000 -16.2053 0.0000
# 2 17.8683 71.2694 44.9846 0.0000 -6.4434 0.0000
# 3 24.7581 44.9846 104.9361 0.0000 -7.3056 0.0000
# 4 0.0000 0.0000 0.0000 46.1227 0.0000 -7.3315
# 5 -16.2053 -6.4434 -7.3056 0.0000 28.6734 0.0000
# 6 0.0000 0.0000 0.0000 -7.3315 0.0000 29.7449
#
#
#
# Elastic Compliance Matrix: (Units=1/GPa)
#
#
# Indices 1 2 3 4 5 6 
#
# 1 0.022638 -0.002436 -0.003506 0.000000 0.011354 0.000000
# 2 -0.002436 0.019644 -0.007773 0.000000 0.001057 0.000000
# 3 -0.003506 -0.007773 0.013672 0.000000 -0.000245 0.000000
# 4 0.000000 0.000000 0.000000 0.022565 0.000000 0.005562
# 5 0.011354 0.001057 -0.000245 0.000000 0.041467 0.000000
# 6 0.000000 0.000000 0.000000 0.005562 0.000000 0.034990
#
#
# Mechanical properties :
#
#
# Convention : Reuss Voigt Hill
#
# Bulk Modulus (GPa) = 35.05883 45.49842 40.27863
# Shear Modulus (GPa) = 26.05330 30.68504 28.36917
#
# Velocity S-wave (km/s) = 3.30668 3.58859 3.45052
# Velocity P-wave (km/s) = 5.41225 6.02209 5.72529
#
# Compressibility (1/GPa) = 0.02852348
#
# Stress axis : x y z
#
# Youngs Moduli (GPa) = 44.17329 50.90723 73.14309
#
# Poissons Ratio (x) = 0.12401 0.25647
# Poissons Ratio (y) = 0.10761 0.56851
# Poissons Ratio (z) = 0.15489 0.39568
#
# Static dielectric constant tensor:
#      x y z
#    x 4.172270 0.000000 -0.287330 
#    y 0.000000 4.428870 0.000000 
#    z -0.287330 0.000000 4.536320 
# 
# 
# High freq. dielectric constant tensor:
#      x y z
#    x 1.938450 0.000000 -0.027540 
#    y 0.000000 1.937180 0.000000 
#    z -0.027540 0.000000 1.955330 
# 
# From -- ./inp_files/26268.got.cif
#   From: 2010.03.12/outbox.cif.g09.slc.cpg/sg14_14_cif.got.tgz:26268.got - 2010.03.31 13:35:05.
