data_PCOD8126280
_publ_section_title
;
Structure prediction by ZEFSAII (Michael W. Deem and Ramdas Pophale) SiO2 
 PCOD8126280
Probable space group: P 21/C
;
_chemical_formula_sum "Si O2"
_cell_formula_units_Z 28
_cell_length_a 14.009452
_cell_length_b 7.288314
_cell_length_c 12.408306
_cell_angle_alpha 90.000000
_cell_angle_beta 77.073342
_cell_angle_gamma 90.000000
_cell_volume 1234.845492
_symmetry_space_group_name_H-M "P 21/C"
_symmetry_group_IT_number 14
_symmetry_cell_setting 'monoclinic'
loop_
_space_group_symop_operation_xyz
x,y,z
-x,1/2+y,1/2-z
-x,-y,-z
x,1/2-y,1/2+z
loop_
_atom_site_type_symbol
_atom_site_label
_atom_site_fract_x
_atom_site_fract_y
_atom_site_fract_z
Si Si1 0.102953 0.049252 0.616953
Si Si2 0.027198 0.598798 0.347127
Si Si3 0.122232 0.667753 0.536187
Si Si4 0.486858 0.187255 0.921159
Si Si5 0.659415 0.282084 0.527123
Si Si6 0.407119 0.543584 0.252377
Si Si7 0.320680 0.390434 0.074236
O O1 0.096637 0.885953 0.529983
O O2 0.094893 0.925232 0.726501
O O3 0.019182 0.199529 0.628907
O O4 0.206522 0.154925 0.585177
O O5 0.944660 0.439210 0.360226
O O6 0.099685 0.568367 0.428885
O O7 0.236098 0.640501 0.539451
O O8 0.527516 0.373997 0.859439
O O9 0.474730 0.062464 0.819384
O O10 0.569521 0.110948 0.986630
O O11 0.385213 0.225130 0.009536
O O12 0.652192 0.309510 0.658804
O O13 0.650354 0.069862 0.501667
O O14 0.335751 0.411621 0.200321
#
# Coordination Sequence:
#
# PCOD8126280 Si02
#       7
#     4   4   4   4   4   4   4
#     4  11  22  42  65  94 125 164 207 262 319 377
#     4  11  22  41  66  89 128 160 212 258 324 370
#     4  10  23  41  64  92 123 168 205 264 310 381
#     4  11  22  39  61  89 127 162 206 256 304 372
#     4  10  21  39  63  87 121 162 207 249 315 368
#     4  11  21  38  61  86 123 166 201 249 309 363
#     4  10  23  40  60  90 127 158 206 259 308 371
#
# _framework density 22.674901999999999
#
# number of rings (size 3 to 8) (size 9 to 14) (size 15 to 20)
#    0.000    1.429    1.429    5.143    2.000    0.000 
#    0.000    1.429    0.000    0.000    0.000    0.000 
#    0.000    0.000    0.000    0.000    0.000    0.000 
#
# Total GULP energy -347063.095768 kJ/mol
# GULP energy per Si atom -12395.110563 kJ/mol
# Density = 2.262329 g / cm^3
# Si number density = 22.674902 Si / 1000 Ang^3
#
#
#
# Elastic Constant Matrix: (Units=GPa)
#
#
# Indices 1 2 3 4 5 6 
#
# 1 96.8719 29.4092 31.7787 0.0000 -14.9042 0.0000
# 2 29.4092 53.3126 4.4591 0.0000 -5.9308 0.0000
# 3 31.7787 4.4591 94.6634 0.0000 1.5404 0.0000
# 4 0.0000 0.0000 0.0000 25.7470 0.0000 2.6238
# 5 -14.9042 -5.9308 1.5404 0.0000 32.9091 0.0000
# 6 0.0000 0.0000 0.0000 2.6238 0.0000 33.9197
#
#
#
# Elastic Compliance Matrix: (Units=1/GPa)
#
#
# Indices 1 2 3 4 5 6 
#
# 1 0.014956 -0.007218 -0.004774 0.000000 0.005696 0.000000
# 2 -0.007218 0.022711 0.001341 0.000000 0.000761 0.000000
# 3 -0.004774 0.001341 0.012144 0.000000 -0.002489 0.000000
# 4 0.000000 0.000000 0.000000 0.039148 0.000000 -0.003028
# 5 0.005696 0.000761 -0.002489 0.000000 0.033220 0.000000
# 6 0.000000 0.000000 0.000000 -0.003028 0.000000 0.029716
#
#
# Mechanical properties :
#
#
# Convention : Reuss Voigt Hill
#
# Bulk Modulus (GPa) = 35.07482 41.79355 38.43418
# Shear Modulus (GPa) = 27.36732 30.46190 28.91461
#
# Velocity S-wave (km/s) = 3.47788 3.66924 3.57484
# Velocity P-wave (km/s) = 5.62402 6.03513 5.83320
#
# Compressibility (1/GPa) = 0.02851049
#
# Stress axis : x y z
#
# Youngs Moduli (GPa) = 66.86063 44.03090 82.34786
#
# Poissons Ratio (x) = 0.31780 0.39310
# Poissons Ratio (y) = 0.48257 -0.11041
# Poissons Ratio (z) = 0.31917 -0.05903
#
# Static dielectric constant tensor:
#      x y z
#    x 4.104310 0.000000 -0.018740 
#    y 0.000000 3.967280 0.000000 
#    z -0.018740 0.000000 4.090620 
# 
# 
# High freq. dielectric constant tensor:
#      x y z
#    x 1.893060 0.000000 -0.001300 
#    y 0.000000 1.892860 0.000000 
#    z -0.001300 0.000000 1.895790 
# 
# From -- ./inp_files/31516.got.cif
#   From: 2010.03.12/outbox.cif.g09.slc.cpg/sg14_16_cif.got.tgz:31516.got - 2010.03.31 13:35:05.
