data_PCOD8126439
_publ_section_title
;
Structure prediction by ZEFSAII (Michael W. Deem and Ramdas Pophale) SiO2 
 PCOD8126439
Probable space group: P 21/C
;
_chemical_formula_sum "Si O2"
_cell_formula_units_Z 32
_cell_length_a 8.397326
_cell_length_b 18.353278
_cell_length_c 19.562730
_cell_angle_alpha 90.000000
_cell_angle_beta 148.704835
_cell_angle_gamma 90.000000
_cell_volume 1566.121185
_symmetry_space_group_name_H-M "P 21/C"
_symmetry_group_IT_number 14
_symmetry_cell_setting 'monoclinic'
loop_
_space_group_symop_operation_xyz
x,y,z
-x,1/2+y,1/2-z
-x,-y,-z
x,1/2-y,1/2+z
loop_
_atom_site_type_symbol
_atom_site_label
_atom_site_fract_x
_atom_site_fract_y
_atom_site_fract_z
Si Si1 0.881963 0.310793 0.696085
Si Si2 0.837480 0.709427 0.349805
Si Si3 0.676257 0.467131 0.883770
Si Si4 0.170774 0.527311 0.360138
Si Si5 0.828354 0.306095 0.924040
Si Si6 0.860781 0.549913 0.391288
Si Si7 0.673961 0.700874 0.013320
Si Si8 0.635167 0.452314 0.108628
O O1 0.812935 0.397010 0.676039
O O2 0.554077 0.269247 0.582470
O O3 0.042519 0.294451 0.683267
O O4 0.121708 0.288196 0.843632
O O5 0.477647 0.732848 0.217925
O O6 0.888090 0.636307 0.414211
O O7 0.037892 0.769402 0.460024
O O8 0.706261 0.381877 0.910873
O O9 0.498034 0.472768 0.745760
O O10 0.497759 0.514701 0.871898
O O11 0.000000 0.500000 0.000000
O O12 0.500000 0.500000 0.500000
O O13 0.001355 0.536680 0.369170
O O14 0.002364 0.466256 0.250671
O O15 0.090360 0.310276 0.962686
O O16 0.000000 0.500000 0.500000
O O17 0.448127 0.631462 0.934300
O O18 0.500000 0.500000 0.000000
#
# Coordination Sequence:
#
# PCOD8126439 Si02
#       8
#     4   4   4   4   4   4   4   4
#     4  11  25  44  65  97 133 174 218 275 325 397
#     4  10  23  43  64  88 130 170 213 260 330 392
#     4  10  21  40  63  92 126 159 212 264 318 380
#     4  10  23  42  64  92 131 168 214 265 322 386
#     4  11  23  42  65  95 129 170 214 267 326 391
#     4   9  21  39  62  88 122 164 205 259 314 378
#     4  12  25  42  68  99 132 168 223 274 330 387
#     4  11  23  42  67  96 126 170 217 270 326 387
#
# _framework density 20.432645000000001
#
# number of rings (size 3 to 8) (size 9 to 14) (size 15 to 20)
#    0.000    1.500    2.500    2.250    3.500    5.000 
#    2.250    0.000    0.000    0.000    0.000    0.000 
#    0.000    0.000    0.000    0.000    0.000    0.000 
#
# Total GULP energy -396517.084402 kJ/mol
# GULP energy per Si atom -12391.158888 kJ/mol
# Density = 2.038614 g / cm^3
# Si number density = 20.432645 Si / 1000 Ang^3
#
#
#
# Elastic Constant Matrix: (Units=GPa)
#
#
# Indices 1 2 3 4 5 6 
#
# 1 25.4961 7.4424 9.3606 0.0000 6.6321 0.0000
# 2 7.4424 72.9108 60.9401 0.0000 3.1778 0.0000
# 3 9.3606 60.9401 173.3092 0.0000 14.4666 0.0000
# 4 0.0000 0.0000 0.0000 48.6595 0.0000 1.1085
# 5 6.6321 3.1778 14.4666 0.0000 38.6755 0.0000
# 6 0.0000 0.0000 0.0000 1.1085 0.0000 29.9639
#
#
#
# Elastic Compliance Matrix: (Units=1/GPa)
#
#
# Indices 1 2 3 4 5 6 
#
# 1 0.042209 -0.003655 -0.000429 0.000000 -0.006777 0.000000
# 2 -0.003655 0.019777 -0.006889 0.000000 0.001578 0.000000
# 3 -0.000429 -0.006889 0.008425 0.000000 -0.002512 0.000000
# 4 0.000000 0.000000 0.000000 0.020568 0.000000 -0.000761
# 5 -0.006777 0.001578 -0.002512 0.000000 0.027828 0.000000
# 6 0.000000 0.000000 0.000000 -0.000761 0.000000 0.033402
#
#
# Mechanical properties :
#
#
# Convention : Reuss Voigt Hill
#
# Bulk Modulus (GPa) = 20.63262 47.46693 34.04978
# Shear Modulus (GPa) = 26.27304 36.39130 31.33217
#
# Velocity S-wave (km/s) = 3.58975 4.22481 3.92016
# Velocity P-wave (km/s) = 5.22508 6.86149 6.09842
#
# Compressibility (1/GPa) = 0.04846694
#
# Stress axis : x y z
#
# Youngs Moduli (GPa) = 23.69172 50.56326 118.69327
#
# Poissons Ratio (x) = 0.18479 0.05092
# Poissons Ratio (y) = 0.08658 0.81763
# Poissons Ratio (z) = 0.01016 0.34831
#
# Static dielectric constant tensor:
#      x y z
#    x 3.656100 0.000000 0.170670 
#    y 0.000000 3.888400 0.000000 
#    z 0.170670 0.000000 3.576540 
# 
# 
# High freq. dielectric constant tensor:
#      x y z
#    x 1.792990 0.000000 0.009220 
#    y 0.000000 1.797240 0.000000 
#    z 0.009220 0.000000 1.824410 
# 
# From -- ./inp_files/56237.got.cif
#   From: 2010.03.12/outbox.cif.g09.slc.cpg/sg14_29_cif.got.tgz:56237.got - 2010.03.31 13:35:05.
