data_PCOD8126906
_publ_section_title
;
Structure prediction by ZEFSAII (Michael W. Deem and Ramdas Pophale) SiO2 
 PCOD8126906
Probable space group: P 21/C
;
_chemical_formula_sum "Si O2"
_cell_formula_units_Z 24
_cell_length_a 8.950927
_cell_length_b 15.485690
_cell_length_c 7.206278
_cell_angle_alpha 90.000000
_cell_angle_beta 71.494922
_cell_angle_gamma 90.000000
_cell_volume 947.225305
_symmetry_space_group_name_H-M "P 21/C"
_symmetry_group_IT_number 14
_symmetry_cell_setting 'monoclinic'
loop_
_space_group_symop_operation_xyz
x,y,z
-x,1/2+y,1/2-z
-x,-y,-z
x,1/2-y,1/2+z
loop_
_atom_site_type_symbol
_atom_site_label
_atom_site_fract_x
_atom_site_fract_y
_atom_site_fract_z
Si Si1 0.676268 0.692136 0.600408
Si Si2 0.827912 0.368954 0.828512
Si Si3 0.360747 0.045421 0.163433
Si Si4 0.463932 0.136223 0.471778
Si Si5 0.028447 0.523202 0.703923
Si Si6 0.980059 0.302036 0.422191
O O1 0.667786 0.638751 0.415042
O O2 0.561078 0.773372 0.625098
O O3 0.629834 0.634474 0.796860
O O4 0.857453 0.722598 0.539974
O O5 0.645851 0.377154 0.948893
O O6 0.915111 0.457205 0.863161
O O7 0.854381 0.352961 0.599971
O O8 0.901994 0.285680 0.893896
O O9 0.405377 0.058283 0.362703
O O10 0.206315 0.987774 0.203595
O O11 0.500000 0.000000 0.000000
O O12 0.000000 0.500000 0.500000
O O13 0.986582 0.625379 0.752425
#
# Coordination Sequence:
#
# PCOD8126906 Si02
#       6
#     4   4   4   4   4   4
#     4  12  24  45  71 102 139 185 239 291 351 432
#     4  11  23  44  67  99 137 180 234 292 348 420
#     4  12  25  45  73 101 147 186 231 299 366 416
#     4  12  26  43  73 106 141 184 241 290 360 424
#     4  10  21  44  70  96 137 189 228 285 357 414
#     4  11  23  44  73  93 139 186 231 291 356 413
#
# _framework density 25.337160999999998
#
# number of rings (size 3 to 8) (size 9 to 14) (size 15 to 20)
#    0.000    0.667    5.000    5.000    2.333    0.667 
#    0.000    1.667    0.000    0.000    0.000    0.000 
#    0.000    0.000    0.000    0.000    0.000    0.000 
#
# Total GULP energy -297611.743372 kJ/mol
# GULP energy per Si atom -12400.489307 kJ/mol
# Density = 2.527949 g / cm^3
# Si number density = 25.337161 Si / 1000 Ang^3
#
#
#
# Elastic Constant Matrix: (Units=GPa)
#
#
# Indices 1 2 3 4 5 6 
#
# 1 165.1366 30.0027 2.5370 0.0000 -17.8738 0.0000
# 2 30.0027 67.3883 -21.0388 0.0000 5.5293 0.0000
# 3 2.5370 -21.0388 60.9007 0.0000 -1.9762 0.0000
# 4 0.0000 0.0000 0.0000 36.9199 0.0000 -1.1364
# 5 -17.8738 5.5293 -1.9762 0.0000 28.7354 0.0000
# 6 0.0000 0.0000 0.0000 -1.1364 0.0000 39.8502
#
#
#
# Elastic Compliance Matrix: (Units=1/GPa)
#
#
# Indices 1 2 3 4 5 6 
#
# 1 0.007428 -0.004245 -0.001603 0.000000 0.005327 0.000000
# 2 -0.004245 0.019289 0.006649 0.000000 -0.005894 0.000000
# 3 -0.001603 0.006649 0.018752 0.000000 -0.000987 0.000000
# 4 0.000000 0.000000 0.000000 0.027109 0.000000 0.000773
# 5 0.005327 -0.005894 -0.000987 0.000000 0.039180 0.000000
# 6 0.000000 0.000000 0.000000 0.000773 0.000000 0.025116
#
#
# Mechanical properties :
#
#
# Convention : Reuss Voigt Hill
#
# Bulk Modulus (GPa) = 21.24427 35.15860 28.20143
# Shear Modulus (GPa) = 33.12105 39.89608 36.50856
#
# Velocity S-wave (km/s) = 3.61946 3.97244 3.80005
# Velocity P-wave (km/s) = 5.08627 5.91158 5.51439
#
# Compressibility (1/GPa) = 0.04707152
#
# Stress axis : x y z
#
# Youngs Moduli (GPa) = 134.62675 51.84399 53.32792
#
# Poissons Ratio (x) = 0.22006 0.08548
# Poissons Ratio (y) = 0.57143 -0.35458
# Poissons Ratio (z) = 0.21580 -0.34471
#
# Static dielectric constant tensor:
#      x y z
#    x 4.900220 0.000000 0.303590 
#    y 0.000000 5.165880 0.000000 
#    z 0.303590 0.000000 4.763390 
# 
# 
# High freq. dielectric constant tensor:
#      x y z
#    x 2.017450 0.000000 0.000820 
#    y 0.000000 2.027280 0.000000 
#    z 0.000820 0.000000 2.002320 
# 
# From -- ./inp_files/24056.got.cif
#   From: 2010.03.12/outbox.cif.g09.slc.cpg/sg14_13_cif.got.tgz:24056.got - 2010.03.31 13:35:05.
