data_PCOD8126138
_publ_section_title
;
Structure prediction by ZEFSAII (Michael W. Deem and Ramdas Pophale) SiO2 
 PCOD8126138
Probable space group: P 21/C
;
_chemical_formula_sum "Si O2"
_cell_formula_units_Z 32
_cell_length_a 23.320727
_cell_length_b 9.084987
_cell_length_c 24.336155
_cell_angle_alpha 90.000000
_cell_angle_beta 162.870906
_cell_angle_gamma 90.000000
_cell_volume 1518.593181
_symmetry_space_group_name_H-M "P 21/C"
_symmetry_group_IT_number 14
_symmetry_cell_setting 'monoclinic'
loop_
_space_group_symop_operation_xyz
x,y,z
-x,1/2+y,1/2-z
-x,-y,-z
x,1/2-y,1/2+z
loop_
_atom_site_type_symbol
_atom_site_label
_atom_site_fract_x
_atom_site_fract_y
_atom_site_fract_z
Si Si1 0.283395 0.888563 0.351491
Si Si2 0.864480 0.995440 0.995890
Si Si3 0.616718 0.393107 0.178069
Si Si4 0.555843 0.841508 0.906730
Si Si5 0.067575 0.064044 0.351474
Si Si6 0.606920 0.720529 0.326654
Si Si7 0.647694 0.339495 0.498325
Si Si8 0.022698 0.254845 0.704395
O O1 0.279710 0.848369 0.283809
O O2 0.387524 0.756365 0.479523
O O3 0.405289 0.037394 0.472840
O O4 0.065973 0.908265 0.174859
O O5 0.901904 0.167289 0.045308
O O6 0.753308 0.991466 0.835766
O O7 0.729435 0.921323 0.918895
O O8 0.599274 0.249366 0.200243
O O9 0.537933 0.806776 0.825514
O O10 0.768297 0.800159 0.124536
O O11 0.517119 0.013586 0.882356
O O12 0.255912 0.135739 0.552352
O O13 0.056324 0.113577 0.278331
O O14 0.873499 0.119212 0.203256
O O15 0.091729 0.886936 0.376243
O O16 0.418385 0.746594 0.115936
#
# Coordination Sequence:
#
# PCOD8126138 Si02
#       8
#     4   4   4   4   4   4   4   4
#     4  11  24  45  66  90 127 172 221 267 308 375
#     4  12  22  42  66  95 125 167 215 266 318 380
#     4  11  25  43  67  93 126 172 220 264 314 371
#     4  10  24  42  61  98 132 164 209 262 327 381
#     4  10  22  38  58  92 134 165 204 255 324 383
#     4  11  24  38  63 100 129 166 210 258 325 390
#     4  11  23  40  65  91 128 168 208 261 318 379
#     4  10  21  38  62  91 128 170 201 262 320 384
#
# _framework density 21.072134999999999
#
# number of rings (size 3 to 8) (size 9 to 14) (size 15 to 20)
#    0.000    1.250    3.750    2.625    5.250    0.500 
#    0.000    0.000    0.000    2.250    0.000    0.000 
#    0.000    0.000    0.000    0.000    0.000    0.000 
#
# Total GULP energy -396847.727671 kJ/mol
# GULP energy per Si atom -12401.491490 kJ/mol
# Density = 2.102417 g / cm^3
# Si number density = 21.072135 Si / 1000 Ang^3
#
#
#
# Elastic Constant Matrix: (Units=GPa)
#
#
# Indices 1 2 3 4 5 6 
#
# 1 102.1688 51.5504 25.7982 0.0000 -19.7200 0.0000
# 2 51.5504 121.0334 29.6013 0.0000 -7.9174 0.0000
# 3 25.7982 29.6013 57.0257 0.0000 -19.6557 0.0000
# 4 0.0000 0.0000 0.0000 24.6797 0.0000 -1.5587
# 5 -19.7200 -7.9174 -19.6557 0.0000 27.1273 0.0000
# 6 0.0000 0.0000 0.0000 -1.5587 0.0000 31.6673
#
#
#
# Elastic Compliance Matrix: (Units=1/GPa)
#
#
# Indices 1 2 3 4 5 6 
#
# 1 0.014280 -0.005334 -0.000866 0.000000 0.008196 0.000000
# 2 -0.005334 0.011479 -0.004968 0.000000 -0.004127 0.000000
# 3 -0.000866 -0.004968 0.026378 0.000000 0.017033 0.000000
# 4 0.000000 0.000000 0.000000 0.040645 0.000000 0.002001
# 5 0.008196 -0.004127 0.017033 0.000000 0.053958 0.000000
# 6 0.000000 0.000000 0.000000 0.002001 0.000000 0.031677
#
#
# Mechanical properties :
#
#
# Convention : Reuss Voigt Hill
#
# Bulk Modulus (GPa) = 33.55726 54.90305 44.23016
# Shear Modulus (GPa) = 23.73194 28.24675 25.98934
#
# Velocity S-wave (km/s) = 3.35957 3.66523 3.51572
# Velocity P-wave (km/s) = 5.56852 6.63500 6.12502
#
# Compressibility (1/GPa) = 0.02979981
#
# Stress axis : x y z
#
# Youngs Moduli (GPa) = 70.02928 87.11483 37.91106
#
# Poissons Ratio (x) = 0.46467 0.03284
# Poissons Ratio (y) = 0.37354 0.18834
# Poissons Ratio (z) = 0.06066 0.43279
#
# Static dielectric constant tensor:
#      x y z
#    x 3.534860 0.000000 -0.068260 
#    y 0.000000 3.911200 0.000000 
#    z -0.068260 0.000000 3.873750 
# 
# 
# High freq. dielectric constant tensor:
#      x y z
#    x 1.798530 0.000000 -0.003770 
#    y 0.000000 1.827820 0.000000 
#    z -0.003770 0.000000 1.836280 
# 
# From -- ./inp_files/74936.got.cif
#   From: 2010.03.12/outbox.cif.g09.slc.cpg/sg14_38_cif.got.tgz:74936.got - 2010.03.31 13:35:05.
