data_PCOD8126195
_publ_section_title
;
Structure prediction by ZEFSAII (Michael W. Deem and Ramdas Pophale) SiO2 
 PCOD8126195
Probable space group: P 21/C
;
_chemical_formula_sum "Si O2"
_cell_formula_units_Z 16
_cell_length_a 9.322209
_cell_length_b 15.685348
_cell_length_c 5.127827
_cell_angle_alpha 90.000000
_cell_angle_beta 108.291591
_cell_angle_gamma 90.000000
_cell_volume 711.915281
_symmetry_space_group_name_H-M "P 21/C"
_symmetry_group_IT_number 14
_symmetry_cell_setting 'monoclinic'
loop_
_space_group_symop_operation_xyz
x,y,z
-x,1/2+y,1/2-z
-x,-y,-z
x,1/2-y,1/2+z
loop_
_atom_site_type_symbol
_atom_site_label
_atom_site_fract_x
_atom_site_fract_y
_atom_site_fract_z
Si Si1 0.049246 0.447670 0.282563
Si Si2 0.815216 0.194133 0.670226
Si Si3 0.390026 0.083539 0.109655
Si Si4 0.522992 0.397933 0.185406
O O1 0.227882 0.435327 0.395390
O O2 0.000000 0.500000 0.500000
O O3 0.974050 0.354837 0.260892
O O4 0.000000 0.500000 0.000000
O O5 0.802795 0.230569 0.372230
O O6 0.685245 0.126588 0.663731
O O7 0.396037 0.130357 0.396002
O O8 0.482763 0.997993 0.240397
O O9 0.478426 0.142125 0.942892
#
# Coordination Sequence:
#
# PCOD8126195 Si02
#       4
#     4   4   4   4
#     4  12  24  42  68  99 131 175 225 278 324 394
#     4  12  26  44  64  96 138 179 215 269 348 405
#     4  10  21  38  67  98 122 159 223 276 312 367
#     4  10  21  39  64  95 127 162 215 270 320 387
#
# _framework density 22.474587
#
# number of rings (size 3 to 8) (size 9 to 14) (size 15 to 20)
#    0.000    1.000    2.500    4.500    7.000    0.000 
#    0.000    7.500    0.000    0.000    0.000    0.000 
#    0.000    0.000    0.000    0.000    0.000    0.000 
#
# Total GULP energy -198227.658679 kJ/mol
# GULP energy per Si atom -12389.228667 kJ/mol
# Density = 2.242343 g / cm^3
# Si number density = 22.474587 Si / 1000 Ang^3
#
#
#
# Elastic Constant Matrix: (Units=GPa)
#
#
# Indices 1 2 3 4 5 6 
#
# 1 110.1344 11.3273 69.0733 0.0000 0.6654 0.0000
# 2 11.3273 40.0712 17.8319 0.0000 -5.2128 0.0000
# 3 69.0733 17.8319 195.6286 0.0000 -11.2743 0.0000
# 4 0.0000 0.0000 0.0000 32.7443 0.0000 -8.3495
# 5 0.6654 -5.2128 -11.2743 0.0000 47.0416 0.0000
# 6 0.0000 0.0000 0.0000 -8.3495 0.0000 38.0544
#
#
#
# Elastic Compliance Matrix: (Units=1/GPa)
#
#
# Indices 1 2 3 4 5 6 
#
# 1 0.011834 -0.001694 -0.004101 0.000000 -0.001338 0.000000
# 2 -0.001694 0.026511 -0.001671 0.000000 0.002561 0.000000
# 3 -0.004101 -0.001671 0.006799 0.000000 0.001502 0.000000
# 4 0.000000 0.000000 0.000000 0.032350 0.000000 0.007098
# 5 -0.001338 0.002561 0.001502 0.000000 0.021921 0.000000
# 6 0.000000 0.000000 0.000000 0.007098 0.000000 0.027835
#
#
# Mechanical properties :
#
#
# Convention : Reuss Voigt Hill
#
# Bulk Modulus (GPa) = 33.09972 60.25545 46.67759
# Shear Modulus (GPa) = 32.84014 40.07484 36.45749
#
# Velocity S-wave (km/s) = 3.82673 4.22728 4.03198
# Velocity P-wave (km/s) = 5.85532 7.12006 6.51843
#
# Compressibility (1/GPa) = 0.03021174
#
# Stress axis : x y z
#
# Youngs Moduli (GPa) = 84.50008 37.71996 147.08808
#
# Poissons Ratio (x) = 0.06391 0.60323
# Poissons Ratio (y) = 0.14317 0.24574
# Poissons Ratio (z) = 0.34655 0.06302
#
# Static dielectric constant tensor:
#      x y z
#    x 7.370770 0.000000 0.893120 
#    y 0.000000 3.635260 0.000000 
#    z 0.893120 0.000000 5.433950 
# 
# 
# High freq. dielectric constant tensor:
#      x y z
#    x 1.886070 0.000000 -0.016770 
#    y 0.000000 1.847720 0.000000 
#    z -0.016770 0.000000 1.925920 
# 
# From -- ./inp_files/906.got.cif
#   From: 2010.03.12/outbox.cif.g09.slc.cpg/sg14_1_cif.got.tgz:906.got - 2010.03.31 13:35:05.
