data_PCOD8126662
_publ_section_title
;
Structure prediction by ZEFSAII (Michael W. Deem and Ramdas Pophale) SiO2 
 PCOD8126662
Probable space group: P 21/C
;
_chemical_formula_sum "Si O2"
_cell_formula_units_Z 28
_cell_length_a 8.074837
_cell_length_b 8.626792
_cell_length_c 28.071007
_cell_angle_alpha 90.000000
_cell_angle_beta 139.167064
_cell_angle_gamma 90.000000
_cell_volume 1278.565447
_symmetry_space_group_name_H-M "P 21/C"
_symmetry_group_IT_number 14
_symmetry_cell_setting 'monoclinic'
loop_
_space_group_symop_operation_xyz
x,y,z
-x,1/2+y,1/2-z
-x,-y,-z
x,1/2-y,1/2+z
loop_
_atom_site_type_symbol
_atom_site_label
_atom_site_fract_x
_atom_site_fract_y
_atom_site_fract_z
Si Si1 0.750239 0.667468 0.603592
Si Si2 0.521377 0.166046 0.529576
Si Si3 0.734907 0.583686 0.937813
Si Si4 0.022799 0.836566 0.835729
Si Si5 0.659802 0.677289 0.821547
Si Si6 0.392726 0.314719 0.830749
Si Si7 0.749997 0.180870 0.321881
O O1 0.508382 0.699969 0.516924
O O2 0.829285 0.491126 0.619495
O O3 0.669135 0.696447 0.640475
O O4 0.956064 0.780236 0.622409
O O5 0.303081 0.179367 0.522203
O O6 0.785057 0.191973 0.615496
O O7 0.500000 0.000000 0.500000
O O8 0.737326 0.697192 0.893253
O O9 0.496619 0.469314 0.878296
O O10 0.000000 0.500000 0.000000
O O11 0.805623 0.814019 0.826989
O O12 0.880068 0.843975 0.753812
O O13 0.369176 0.725605 0.749046
O O14 0.716323 0.505085 0.813734
O O15 0.610628 0.256722 0.840423
#
# Coordination Sequence:
#
# PCOD8126662 Si02
#       7
#     4   4   4   4   4   4   4
#     4  12  24  43  70  96 148 176 229 298 350 418
#     4  12  24  43  69  97 135 184 233 283 360 421
#     4  11  22  42  69 100 132 185 236 285 350 429
#     4  11  26  44  65 106 137 179 237 290 358 428
#     4  10  22  41  67  97 137 175 233 288 351 416
#     4  10  24  41  70 102 135 179 237 286 349 421
#     4  10  21  41  66  99 134 182 226 287 348 417
#
# _framework density 21.899543999999999
#
# number of rings (size 3 to 8) (size 9 to 14) (size 15 to 20)
#    0.000    1.143    1.429    6.429    4.000    1.143 
#    2.571    0.714    0.000    0.000    0.000    0.000 
#    0.000    0.000    0.000    0.000    0.000    0.000 
#
# Total GULP energy -346946.656940 kJ/mol
# GULP energy per Si atom -12390.952034 kJ/mol
# Density = 2.184970 g / cm^3
# Si number density = 21.899544 Si / 1000 Ang^3
#
#
#
# Elastic Constant Matrix: (Units=GPa)
#
#
# Indices 1 2 3 4 5 6 
#
# 1 91.0247 17.0803 40.1137 0.0000 -17.3471 0.0000
# 2 17.0803 74.9681 37.2521 0.0000 -11.5142 0.0000
# 3 40.1137 37.2521 135.4554 0.0000 -14.6752 0.0000
# 4 0.0000 0.0000 0.0000 37.5541 0.0000 7.8235
# 5 -17.3471 -11.5142 -14.6752 0.0000 40.4249 0.0000
# 6 0.0000 0.0000 0.0000 7.8235 0.0000 32.7091
#
#
#
# Elastic Compliance Matrix: (Units=1/GPa)
#
#
# Indices 1 2 3 4 5 6 
#
# 1 0.013406 -0.000751 -0.003293 0.000000 0.004343 0.000000
# 2 -0.000751 0.015844 -0.003832 0.000000 0.002800 0.000000
# 3 -0.003293 -0.003832 0.009514 0.000000 0.000949 0.000000
# 4 0.000000 0.000000 0.000000 0.028025 0.000000 -0.006703
# 5 0.004343 0.002800 0.000949 0.000000 0.027743 0.000000
# 6 0.000000 0.000000 0.000000 -0.006703 0.000000 0.032176
#
#
# Mechanical properties :
#
#
# Convention : Reuss Voigt Hill
#
# Bulk Modulus (GPa) = 43.45334 54.48227 48.96780
# Shear Modulus (GPa) = 33.30451 35.93777 34.62114
#
# Velocity S-wave (km/s) = 3.90396 4.05536 3.98038
# Velocity P-wave (km/s) = 6.34085 6.84545 6.59797
#
# Compressibility (1/GPa) = 0.02301319
#
# Stress axis : x y z
#
# Youngs Moduli (GPa) = 74.59434 63.11522 105.10506
#
# Poissons Ratio (x) = 0.04740 0.34610
# Poissons Ratio (y) = 0.05602 0.40272
# Poissons Ratio (z) = 0.24563 0.24183
#
# Static dielectric constant tensor:
#      x y z
#    x 4.241070 0.000000 -0.201450 
#    y 0.000000 3.622590 0.000000 
#    z -0.201450 0.000000 4.640960 
# 
# 
# High freq. dielectric constant tensor:
#      x y z
#    x 1.862930 0.000000 0.000510 
#    y 0.000000 1.837400 0.000000 
#    z 0.000510 0.000000 1.883930 
# 
# From -- ./inp_files/76497.got.cif
#   From: 2010.03.12/outbox.cif.g09.slc.cpg/sg14_39_cif.got.tgz:76497.got - 2010.03.31 13:35:05.
