data_PCOD8126984
_publ_section_title
;
Structure prediction by ZEFSAII (Michael W. Deem and Ramdas Pophale) SiO2 
 PCOD8126984
Probable space group: P 21/C
;
_chemical_formula_sum "Si O2"
_cell_formula_units_Z 32
_cell_length_a 7.748343
_cell_length_b 16.805362
_cell_length_c 21.489452
_cell_angle_alpha 90.000000
_cell_angle_beta 32.183693
_cell_angle_gamma 90.000000
_cell_volume 1490.431747
_symmetry_space_group_name_H-M "P 21/C"
_symmetry_group_IT_number 14
_symmetry_cell_setting 'monoclinic'
loop_
_space_group_symop_operation_xyz
x,y,z
-x,1/2+y,1/2-z
-x,-y,-z
x,1/2-y,1/2+z
loop_
_atom_site_type_symbol
_atom_site_label
_atom_site_fract_x
_atom_site_fract_y
_atom_site_fract_z
Si Si1 0.067801 0.685343 0.027558
Si Si2 0.366500 0.861525 0.310995
Si Si3 0.588180 0.242829 0.812516
Si Si4 0.873434 0.345483 0.430796
Si Si5 0.896443 0.399698 0.718718
Si Si6 0.434767 0.115710 0.954345
Si Si7 0.569745 0.546861 0.353665
Si Si8 0.703868 0.959083 0.671259
O O1 0.208457 0.751129 0.033203
O O2 0.696768 0.710459 0.134135
O O3 0.032327 0.593988 0.062236
O O4 0.279355 0.686679 0.900180
O O5 0.228750 0.814248 0.293029
O O6 0.750997 0.867574 0.184333
O O7 0.198840 0.948199 0.363380
O O8 0.840496 0.309048 0.759185
O O9 0.423623 0.196715 0.919346
O O10 0.741526 0.377957 0.406123
O O11 0.702371 0.393258 0.538456
O O12 0.565184 0.444024 0.800549
O O13 0.110668 0.397649 0.591443
O O14 0.081422 0.441646 0.719244
O O15 0.470067 0.043761 0.895717
O O16 0.575399 0.562011 0.278800
#
# Coordination Sequence:
#
# PCOD8126984 Si02
#       8
#     4   4   4   4   4   4   4   4
#     4  10  24  39  60  90 123 160 207 245 298 372
#     4  11  21  41  60  90 121 160 205 246 303 361
#     4  10  22  37  61  87 119 164 195 250 307 358
#     4  10  24  36  65  91 121 157 201 258 302 357
#     4  10  23  39  60  88 127 153 199 262 297 362
#     4  11  21  40  59  92 122 154 203 252 309 355
#     4  11  23  40  64  95 121 155 209 250 305 362
#     4  11  23  40  67  87 121 169 198 249 308 356
#
# _framework density 21.470289999999999
#
# number of rings (size 3 to 8) (size 9 to 14) (size 15 to 20)
#    0.000    1.500    1.250    4.125   10.500    2.000 
#    0.000    0.000    0.000    3.000    0.000    0.000 
#    0.000    0.000    0.000    0.000    0.000    0.000 
#
# Total GULP energy -396721.957846 kJ/mol
# GULP energy per Si atom -12397.561183 kJ/mol
# Density = 2.142142 g / cm^3
# Si number density = 21.470290 Si / 1000 Ang^3
#
#
#
# Elastic Constant Matrix: (Units=GPa)
#
#
# Indices 1 2 3 4 5 6 
#
# 1 28.3740 4.4751 15.0444 0.0000 5.0474 0.0000
# 2 4.4751 94.9834 14.0751 0.0000 1.1894 0.0000
# 3 15.0444 14.0751 47.3159 0.0000 6.9303 0.0000
# 4 0.0000 0.0000 0.0000 34.7641 0.0000 10.9764
# 5 5.0474 1.1894 6.9303 0.0000 21.8460 0.0000
# 6 0.0000 0.0000 0.0000 10.9764 0.0000 23.9285
#
#
#
# Elastic Compliance Matrix: (Units=1/GPa)
#
#
# Indices 1 2 3 4 5 6 
#
# 1 0.043099 -0.000056 -0.012825 0.000000 -0.005886 0.000000
# 2 -0.000056 0.011018 -0.003328 0.000000 0.000469 0.000000
# 3 -0.012825 -0.003328 0.026996 0.000000 -0.005420 0.000000
# 4 0.000000 0.000000 0.000000 0.033637 0.000000 -0.015430
# 5 -0.005886 0.000469 -0.005420 0.000000 0.048829 0.000000
# 6 0.000000 0.000000 0.000000 -0.015430 0.000000 0.048869
#
#
# Mechanical properties :
#
#
# Convention : Reuss Voigt Hill
#
# Bulk Modulus (GPa) = 20.53617 26.42917 23.48267
# Shear Modulus (GPa) = 19.14979 25.24629 22.19804
#
# Velocity S-wave (km/s) = 2.98974 3.43282 3.21891
# Velocity P-wave (km/s) = 4.63722 5.29610 4.97757
#
# Compressibility (1/GPa) = 0.04869458
#
# Stress axis : x y z
#
# Youngs Moduli (GPa) = 23.20217 90.75931 37.04225
#
# Poissons Ratio (x) = 0.00512 0.47506
# Poissons Ratio (y) = 0.00131 0.12329
# Poissons Ratio (z) = 0.29756 0.30208
#
# Static dielectric constant tensor:
#      x y z
#    x 3.774030 0.000000 0.084930 
#    y 0.000000 4.511680 0.000000 
#    z 0.084930 0.000000 3.725950 
# 
# 
# High freq. dielectric constant tensor:
#      x y z
#    x 1.824310 0.000000 0.012050 
#    y 0.000000 1.863690 0.000000 
#    z 0.012050 0.000000 1.833490 
# 
# From -- ./inp_files/72472.got.cif
#   From: 2010.03.12/outbox.cif.g09.slc.cpg/sg14_37_cif.got.tgz:72472.got - 2010.03.31 13:35:05.
