data_PCOD8126209
_publ_section_title
;
Structure prediction by ZEFSAII (Michael W. Deem and Ramdas Pophale) SiO2 
 PCOD8126209
Probable space group: P 21/C
;
_chemical_formula_sum "Si O2"
_cell_formula_units_Z 28
_cell_length_a 14.188021
_cell_length_b 11.850047
_cell_length_c 9.007060
_cell_angle_alpha 90.000000
_cell_angle_beta 59.982750
_cell_angle_gamma 90.000000
_cell_volume 1311.233592
_symmetry_space_group_name_H-M "P 21/C"
_symmetry_group_IT_number 14
_symmetry_cell_setting 'monoclinic'
loop_
_space_group_symop_operation_xyz
x,y,z
-x,1/2+y,1/2-z
-x,-y,-z
x,1/2-y,1/2+z
loop_
_atom_site_type_symbol
_atom_site_label
_atom_site_fract_x
_atom_site_fract_y
_atom_site_fract_z
Si Si1 0.388915 0.340930 0.081749
Si Si2 0.494694 0.006573 0.704707
Si Si3 0.147549 0.374899 0.166658
Si Si4 0.457248 0.850591 0.971308
Si Si5 0.344071 0.815057 0.360949
Si Si6 0.023634 0.252537 0.011042
Si Si7 0.107606 0.635154 0.132648
O O1 0.390794 0.420338 0.228628
O O2 0.272093 0.341386 0.097720
O O3 0.428185 0.212680 0.083488
O O4 0.482834 0.391630 0.901477
O O5 0.479690 0.979380 0.893221
O O6 0.602601 0.081551 0.590579
O O7 0.114264 0.307294 0.045306
O O8 0.077568 0.343701 0.366570
O O9 0.128402 0.505283 0.149643
O O10 0.399949 0.799460 0.870001
O O11 0.368685 0.840255 0.169561
O O12 0.217082 0.805354 0.491728
O O13 0.931148 0.195706 0.185825
O O14 0.976421 0.348480 0.937611
#
# Coordination Sequence:
#
# PCOD8126209 Si02
#       7
#     4   4   4   4   4   4   4
#     4  10  22  38  63  88 128 160 197 251 308 363
#     4  10  21  39  57  91 124 159 200 246 299 370
#     4  11  23  42  67  91 125 166 207 263 317 368
#     4  11  22  38  59  93 127 158 205 248 299 378
#     4  11  22  36  62  88 120 166 199 249 313 363
#     4  10  25  42  64  95 120 163 220 259 320 368
#     4  11  22  43  64  89 127 162 210 272 309 369
#
# _framework density 21.353936000000001
#
# number of rings (size 3 to 8) (size 9 to 14) (size 15 to 20)
#    0.000    1.429    2.857    2.143    2.000    1.143 
#    0.000    4.286    0.000    0.000    0.000    0.000 
#    0.000    0.000    0.000    0.000    0.000    0.000 
#
# Total GULP energy -347069.854118 kJ/mol
# GULP energy per Si atom -12395.351933 kJ/mol
# Density = 2.130533 g / cm^3
# Si number density = 21.353936 Si / 1000 Ang^3
#
#
#
# Elastic Constant Matrix: (Units=GPa)
#
#
# Indices 1 2 3 4 5 6 
#
# 1 138.2512 37.7314 46.6745 0.0000 0.9515 0.0000
# 2 37.7314 36.9690 14.8430 0.0000 -6.0369 0.0000
# 3 46.6745 14.8430 117.2065 0.0000 8.2316 0.0000
# 4 0.0000 0.0000 0.0000 32.1519 0.0000 2.3170
# 5 0.9515 -6.0369 8.2316 0.0000 33.6177 0.0000
# 6 0.0000 0.0000 0.0000 2.3170 0.0000 16.0108
#
#
#
# Elastic Compliance Matrix: (Units=1/GPa)
#
#
# Indices 1 2 3 4 5 6 
#
# 1 0.011077 -0.010334 -0.003002 0.000000 -0.001434 0.000000
# 2 -0.010334 0.039428 -0.001420 0.000000 0.007720 0.000000
# 3 -0.003002 -0.001420 0.010093 0.000000 -0.002641 0.000000
# 4 0.000000 0.000000 0.000000 0.031430 0.000000 -0.004548
# 5 -0.001434 0.007720 -0.002641 0.000000 0.031820 0.000000
# 6 0.000000 0.000000 0.000000 -0.004548 0.000000 0.063116
#
#
# Mechanical properties :
#
#
# Convention : Reuss Voigt Hill
#
# Bulk Modulus (GPa) = 32.16926 54.54717 43.35821
# Shear Modulus (GPa) = 22.04221 29.23460 25.63840
#
# Velocity S-wave (km/s) = 3.21632 3.70408 3.46879
# Velocity P-wave (km/s) = 5.37498 6.62521 6.03257
#
# Compressibility (1/GPa) = 0.03108558
#
# Stress axis : x y z
#
# Youngs Moduli (GPa) = 90.27788 25.36262 99.08255
#
# Poissons Ratio (x) = 0.26211 0.29741
# Poissons Ratio (y) = 0.93297 0.14069
# Poissons Ratio (z) = 0.27098 0.03601
#
# Static dielectric constant tensor:
#      x y z
#    x 3.877140 0.000000 0.285820 
#    y 0.000000 3.896900 0.000000 
#    z 0.285820 0.000000 3.923310 
# 
# 
# High freq. dielectric constant tensor:
#      x y z
#    x 1.835120 0.000000 0.022390 
#    y 0.000000 1.842780 0.000000 
#    z 0.022390 0.000000 1.846650 
# 
# From -- ./inp_files/15632.got.cif
#   From: 2010.03.12/outbox.cif.g09.slc.cpg/sg14_8_cif.got.tgz:15632.got - 2010.03.31 13:35:05.
