data_PCOD8126794
_publ_section_title
;
Structure prediction by ZEFSAII (Michael W. Deem and Ramdas Pophale) SiO2 
 PCOD8126794
Probable space group: P 21/C
;
_chemical_formula_sum "Si O2"
_cell_formula_units_Z 32
_cell_length_a 15.603219
_cell_length_b 12.439723
_cell_length_c 13.358586
_cell_angle_alpha 90.000000
_cell_angle_beta 36.877346
_cell_angle_gamma 90.000000
_cell_volume 1556.008344
_symmetry_space_group_name_H-M "P 21/C"
_symmetry_group_IT_number 14
_symmetry_cell_setting 'monoclinic'
loop_
_space_group_symop_operation_xyz
x,y,z
-x,1/2+y,1/2-z
-x,-y,-z
x,1/2-y,1/2+z
loop_
_atom_site_type_symbol
_atom_site_label
_atom_site_fract_x
_atom_site_fract_y
_atom_site_fract_z
Si Si1 0.683020 0.897202 0.571985
Si Si2 0.844662 0.127421 0.133543
Si Si3 0.516596 0.402277 0.908657
Si Si4 0.953554 0.981637 0.206092
Si Si5 0.640511 0.701129 0.504610
Si Si6 0.415364 0.544036 0.671994
Si Si7 0.861748 0.134990 0.640996
Si Si8 0.912424 0.939099 0.728162
O O1 0.549873 0.947284 0.633272
O O2 0.838298 0.923690 0.383244
O O3 0.673939 0.766390 0.576599
O O4 0.664211 0.944025 0.700285
O O5 0.682886 0.126370 0.244591
O O6 0.889536 0.240936 0.140497
O O7 0.866733 0.044436 0.202464
O O8 0.943838 0.103360 0.944868
O O9 0.500000 0.500000 0.000000
O O10 0.422287 0.291378 0.017031
O O11 0.048469 0.057402 0.190386
O O12 0.523417 0.610904 0.641103
O O13 0.780134 0.641071 0.331729
O O14 0.500000 0.500000 0.500000
O O15 0.300228 0.628772 0.743259
O O16 0.957366 0.103039 0.457890
O O17 0.880773 0.060781 0.720893
#
# Coordination Sequence:
#
# PCOD8126794 Si02
#       8
#     4   4   4   4   4   4   4   4
#     4  10  23  44  64  97 133 176 219 280 327 401
#     4  11  23  42  66 103 127 181 219 281 332 398
#     4  10  21  42  68  94 133 167 223 277 329 389
#     4  11  24  43  68  94 142 170 232 273 331 408
#     4  10  23  42  66  97 132 171 226 270 337 398
#     4  12  23  45  66  98 137 172 224 283 333 404
#     4  11  23  41  67  94 135 173 225 270 339 396
#     4  11  24  43  64  97 134 180 217 277 332 410
#
# _framework density 20.565442999999998
#
# number of rings (size 3 to 8) (size 9 to 14) (size 15 to 20)
#    0.750    0.500    5.000    0.750    1.750    2.000 
#    4.500    1.250    0.000    0.000    0.000    0.000 
#    0.000    0.000    0.000    0.000    0.000    0.000 
#
# Total GULP energy -396457.736479 kJ/mol
# GULP energy per Si atom -12389.304265 kJ/mol
# Density = 2.051864 g / cm^3
# Si number density = 20.565443 Si / 1000 Ang^3
#
#
#
# Elastic Constant Matrix: (Units=GPa)
#
#
# Indices 1 2 3 4 5 6 
#
# 1 69.3856 11.4537 38.9767 0.0000 -15.0544 0.0000
# 2 11.4537 103.0957 51.5283 0.0000 -8.2333 0.0000
# 3 38.9767 51.5283 128.9314 0.0000 -9.7475 0.0000
# 4 0.0000 0.0000 0.0000 28.9687 0.0000 -4.1425
# 5 -15.0544 -8.2333 -9.7475 0.0000 33.5839 0.0000
# 6 0.0000 0.0000 0.0000 -4.1425 0.0000 31.9975
#
#
#
# Elastic Compliance Matrix: (Units=1/GPa)
#
#
# Indices 1 2 3 4 5 6 
#
# 1 0.018961 0.001324 -0.005720 0.000000 0.007164 0.000000
# 2 0.001324 0.012298 -0.005156 0.000000 0.002112 0.000000
# 3 -0.005720 -0.005156 0.011509 0.000000 -0.000487 0.000000
# 4 0.000000 0.000000 0.000000 0.035171 0.000000 0.004553
# 5 0.007164 0.002112 -0.000487 0.000000 0.033364 0.000000
# 6 0.000000 0.000000 0.000000 0.004553 0.000000 0.031842
#
#
# Mechanical properties :
#
#
# Convention : Reuss Voigt Hill
#
# Bulk Modulus (GPa) = 42.25495 56.14777 49.20136
# Shear Modulus (GPa) = 29.38835 32.20696 30.79766
#
# Velocity S-wave (km/s) = 3.78433 3.96166 3.87401
# Velocity P-wave (km/s) = 6.29969 6.94893 6.63226
#
# Compressibility (1/GPa) = 0.02366587
#
# Stress axis : x y z
#
# Youngs Moduli (GPa) = 52.73998 81.31301 86.88997
#
# Poissons Ratio (x) = -0.10769 0.49698
# Poissons Ratio (y) = -0.06985 0.44798
# Poissons Ratio (z) = 0.30166 0.41923
#
# Static dielectric constant tensor:
#      x y z
#    x 3.714860 0.000000 -0.331950 
#    y 0.000000 4.106660 0.000000 
#    z -0.331950 0.000000 3.673330 
# 
# 
# High freq. dielectric constant tensor:
#      x y z
#    x 1.796610 0.000000 -0.027750 
#    y 0.000000 1.808690 0.000000 
#    z -0.027750 0.000000 1.803360 
# 
# From -- ./inp_files/48984.got.cif
#   From: 2010.03.12/outbox.cif.g09.slc.cpg/sg14_25_cif.got.tgz:48984.got - 2010.03.31 13:35:05.
