data_PCOD8126010
_publ_section_title
;
Structure prediction by ZEFSAII (Michael W. Deem and Ramdas Pophale) SiO2 
 PCOD8126010
Probable space group: P 21/C
;
_chemical_formula_sum "Si O2"
_cell_formula_units_Z 20
_cell_length_a 8.659825
_cell_length_b 11.663611
_cell_length_c 11.483503
_cell_angle_alpha 90.000000
_cell_angle_beta 127.847333
_cell_angle_gamma 90.000000
_cell_volume 915.904718
_symmetry_space_group_name_H-M "P 21/C"
_symmetry_group_IT_number 14
_symmetry_cell_setting 'monoclinic'
loop_
_space_group_symop_operation_xyz
x,y,z
-x,1/2+y,1/2-z
-x,-y,-z
x,1/2-y,1/2+z
loop_
_atom_site_type_symbol
_atom_site_label
_atom_site_fract_x
_atom_site_fract_y
_atom_site_fract_z
Si Si1 0.153180 0.388888 0.149617
Si Si2 0.367025 0.171783 0.337261
Si Si3 0.473288 0.029475 0.167307
Si Si4 0.668134 0.160640 0.055205
Si Si5 0.047826 0.403865 0.850416
O O1 0.229090 0.281160 0.254827
O O2 0.329544 0.472728 0.193535
O O3 0.011751 0.461797 0.169496
O O4 0.048503 0.351284 0.981351
O O5 0.367678 0.093918 0.223422
O O6 0.585076 0.215843 0.473131
O O7 0.262941 0.101371 0.392519
O O8 0.519945 0.120509 0.087628
O O9 0.331611 0.930920 0.050587
O O10 0.890025 0.170383 0.203355
#
# Coordination Sequence:
#
# PCOD8126010 Si02
#       5
#     4   4   4   4   4
#     4   9  21  40  56  82 121 150 185 241 287 334
#     4  11  21  37  62  86 112 154 196 233 283 342
#     4   9  19  38  59  81 114 152 189 235 288 338
#     4   9  20  38  57  82 118 151 186 238 289 336
#     4  10  21  37  60  86 117 153 192 235 285 338
#
# _framework density 21.836331000000001
#
# number of rings (size 3 to 8) (size 9 to 14) (size 15 to 20)
#    0.000    2.400    0.000    2.400    0.000    6.400 
#    0.000    8.000    0.000    0.000    0.000    0.000 
#    0.000    0.000    0.000    0.000    0.000    0.000 
#
# Total GULP energy -247980.652263 kJ/mol
# GULP energy per Si atom -12399.032613 kJ/mol
# Density = 2.178663 g / cm^3
# Si number density = 21.836331 Si / 1000 Ang^3
#
#
#
# Elastic Constant Matrix: (Units=GPa)
#
#
# Indices 1 2 3 4 5 6 
#
# 1 80.3893 44.7225 26.0042 0.0000 -18.2162 0.0000
# 2 44.7225 68.8227 30.1924 0.0000 -10.0511 0.0000
# 3 26.0042 30.1924 123.4274 0.0000 2.1303 0.0000
# 4 0.0000 0.0000 0.0000 11.7106 0.0000 -8.0734
# 5 -18.2162 -10.0511 2.1303 0.0000 28.4388 0.0000
# 6 0.0000 0.0000 0.0000 -8.0734 0.0000 27.7745
#
#
#
# Elastic Compliance Matrix: (Units=1/GPa)
#
#
# Indices 1 2 3 4 5 6 
#
# 1 0.021986 -0.012011 -0.001866 0.000000 0.009978 0.000000
# 2 -0.012011 0.023953 -0.003346 0.000000 0.001023 0.000000
# 3 -0.001866 -0.003346 0.009367 0.000000 -0.003080 0.000000
# 4 0.000000 0.000000 0.000000 0.106794 0.000000 0.031042
# 5 0.009978 0.001023 -0.003080 0.000000 0.042147 0.000000
# 6 0.000000 0.000000 0.000000 0.031042 0.000000 0.045027
#
#
# Mechanical properties :
#
#
# Convention : Reuss Voigt Hill
#
# Bulk Modulus (GPa) = 47.94277 52.71972 50.33124
# Shear Modulus (GPa) = 17.20143 25.03280 21.11712
#
# Velocity S-wave (km/s) = 2.80972 3.38950 3.11314
# Velocity P-wave (km/s) = 5.70344 6.28600 6.00179
#
# Compressibility (1/GPa) = 0.02085820
#
# Stress axis : x y z
#
# Youngs Moduli (GPa) = 45.48297 41.74917 106.75983
#
# Poissons Ratio (x) = 0.50146 0.19924
# Poissons Ratio (y) = 0.54631 0.35725
# Poissons Ratio (z) = 0.08488 0.13970
#
# Static dielectric constant tensor:
#      x y z
#    x 3.573870 0.000000 0.122420 
#    y 0.000000 3.797460 0.000000 
#    z 0.122420 0.000000 4.125350 
# 
# 
# High freq. dielectric constant tensor:
#      x y z
#    x 1.834220 0.000000 0.002060 
#    y 0.000000 1.840980 0.000000 
#    z 0.002060 0.000000 1.873790 
# 
# From -- ./inp_files/23954.got.cif
#   From: 2010.03.12/outbox.cif.g09.slc.cpg/sg14_12_cif.got.tgz:23954.got - 2010.03.31 13:35:05.
