data_PCOD8126939
_publ_section_title
;
Structure prediction by ZEFSAII (Michael W. Deem and Ramdas Pophale) SiO2 
 PCOD8126939
Probable space group: P 21/C
;
_chemical_formula_sum "Si O2"
_cell_formula_units_Z 32
_cell_length_a 22.554163
_cell_length_b 4.974803
_cell_length_c 10.449197
_cell_angle_alpha 90.000000
_cell_angle_beta 99.060156
_cell_angle_gamma 90.000000
_cell_volume 1157.798498
_symmetry_space_group_name_H-M "P 21/C"
_symmetry_group_IT_number 14
_symmetry_cell_setting 'monoclinic'
loop_
_space_group_symop_operation_xyz
x,y,z
-x,1/2+y,1/2-z
-x,-y,-z
x,1/2-y,1/2+z
loop_
_atom_site_type_symbol
_atom_site_label
_atom_site_fract_x
_atom_site_fract_y
_atom_site_fract_z
Si Si1 0.006521 0.755555 0.669503
Si Si2 0.286895 0.614481 0.129151
Si Si3 0.198870 0.251097 0.229995
Si Si4 0.096265 0.459779 0.031662
Si Si5 0.812707 0.253635 0.103984
Si Si6 0.613168 0.811672 0.466933
Si Si7 0.510382 0.209783 0.672711
Si Si8 0.636086 0.498487 0.225425
O O1 0.070381 0.848085 0.634396
O O2 0.011640 0.449050 0.718067
O O3 0.955670 0.770976 0.543068
O O4 0.261764 0.337737 0.183772
O O5 0.348444 0.565751 0.072327
O O6 0.304388 0.814340 0.252049
O O7 0.236324 0.751584 0.025144
O O8 0.146731 0.262078 0.105887
O O9 0.182087 0.453027 0.340140
O O10 0.205487 0.951613 0.285824
O O11 0.123411 0.652182 0.930797
O O12 0.540984 0.856697 0.451235
O O13 0.624789 0.579240 0.368230
O O14 0.640568 0.760937 0.620125
O O15 0.504761 0.520967 0.710771
O O16 0.578519 0.166248 0.648661
#
# Coordination Sequence:
#
# PCOD8126939 Si02
#       8
#     4   4   4   4   4   4   4   4
#     4  11  24  41  68 104 144 184 231 291 352 427
#     4  11  26  43  69  99 140 187 241 301 369 441
#     4  11  26  45  69  99 138 186 240 299 358 426
#     4  10  24  43  70 102 139 188 236 289 359 423
#     4  11  26  45  70  98 140 184 243 297 359 427
#     4  11  25  44  73 103 144 189 240 303 371 454
#     4  10  21  46  69 105 140 186 235 297 367 448
#     4  11  25  46  71 107 142 189 241 301 374 450
#
# _framework density 27.638662
#
# number of rings (size 3 to 8) (size 9 to 14) (size 15 to 20)
#    0.000    1.250    1.250    2.625    5.250    8.000 
#    0.000    3.125    0.000    0.000    0.000    0.000 
#    0.000    0.000    0.000    0.000    0.000    0.000 
#
# Total GULP energy -396804.422484 kJ/mol
# GULP energy per Si atom -12400.138203 kJ/mol
# Density = 2.757576 g / cm^3
# Si number density = 27.638662 Si / 1000 Ang^3
#
#
#
# Elastic Constant Matrix: (Units=GPa)
#
#
# Indices 1 2 3 4 5 6 
#
# 1 104.2444 -5.8400 28.5786 0.0000 8.1089 0.0000
# 2 -5.8400 50.7871 10.8260 0.0000 9.8993 0.0000
# 3 28.5786 10.8260 109.7833 0.0000 10.8752 0.0000
# 4 0.0000 0.0000 0.0000 36.5743 0.0000 0.1450
# 5 8.1089 9.8993 10.8752 0.0000 41.0896 0.0000
# 6 0.0000 0.0000 0.0000 0.1450 0.0000 19.8679
#
#
#
# Elastic Compliance Matrix: (Units=1/GPa)
#
#
# Indices 1 2 3 4 5 6 
#
# 1 0.010628 0.002185 -0.002796 0.000000 -0.001884 0.000000
# 2 0.002185 0.021382 -0.002182 0.000000 -0.005005 0.000000
# 3 -0.002796 -0.002182 0.010213 0.000000 -0.001626 0.000000
# 4 0.000000 0.000000 0.000000 0.027342 0.000000 -0.000200
# 5 -0.001884 -0.005005 -0.001626 0.000000 0.026345 0.000000
# 6 0.000000 0.000000 0.000000 -0.000200 0.000000 0.050334
#
#
# Mechanical properties :
#
#
# Convention : Reuss Voigt Hill
#
# Bulk Modulus (GPa) = 27.29316 36.88264 32.08790
# Shear Modulus (GPa) = 30.48016 34.92303 32.70159
#
# Velocity S-wave (km/s) = 3.32446 3.55851 3.44347
# Velocity P-wave (km/s) = 4.96311 5.50069 5.23880
#
# Compressibility (1/GPa) = 0.03663922
#
# Stress axis : x y z
#
# Youngs Moduli (GPa) = 94.08904 46.76838 97.91660
#
# Poissons Ratio (x) = -0.10220 0.27373
# Poissons Ratio (y) = -0.20561 0.21361
# Poissons Ratio (z) = 0.26303 0.10203
#
# Static dielectric constant tensor:
#      x y z
#    x 5.261350 0.000000 0.184780 
#    y 0.000000 4.475280 0.000000 
#    z 0.184780 0.000000 5.029720 
# 
# 
# High freq. dielectric constant tensor:
#      x y z
#    x 2.133750 0.000000 0.011280 
#    y 0.000000 2.092010 0.000000 
#    z 0.011280 0.000000 2.123090 
# 
# From -- ./inp_files/35538.got.cif
#   From: 2010.03.12/outbox.cif.g09.slc.cpg/sg14_18_cif.got.tgz:35538.got - 2010.03.31 13:35:05.
