data_PCOD8126193
_publ_section_title
;
Structure prediction by ZEFSAII (Michael W. Deem and Ramdas Pophale) SiO2 
 PCOD8126193
Probable space group: P 21/C
;
_chemical_formula_sum "Si O2"
_cell_formula_units_Z 28
_cell_length_a 8.533162
_cell_length_b 22.391972
_cell_length_c 9.085570
_cell_angle_alpha 90.000000
_cell_angle_beta 50.212667
_cell_angle_gamma 90.000000
_cell_volume 1334.000552
_symmetry_space_group_name_H-M "P 21/C"
_symmetry_group_IT_number 14
_symmetry_cell_setting 'monoclinic'
loop_
_space_group_symop_operation_xyz
x,y,z
-x,1/2+y,1/2-z
-x,-y,-z
x,1/2-y,1/2+z
loop_
_atom_site_type_symbol
_atom_site_label
_atom_site_fract_x
_atom_site_fract_y
_atom_site_fract_z
Si Si1 0.688858 0.569075 0.144653
Si Si2 0.940222 0.546193 0.718764
Si Si3 0.237702 0.129981 0.105860
Si Si4 0.014927 0.665718 0.507531
Si Si5 0.530074 0.315412 0.829541
Si Si6 0.661427 0.750640 0.310582
Si Si7 0.328220 0.020629 0.887137
O O1 0.808037 0.595481 0.214155
O O2 0.551847 0.618243 0.145357
O O3 0.533893 0.516678 0.283340
O O4 0.864165 0.545655 0.931755
O O5 0.007738 0.611662 0.626720
O O6 0.752015 0.521783 0.732771
O O7 0.138704 0.504253 0.597239
O O8 0.341301 0.192589 0.082844
O O9 0.040604 0.143326 0.123754
O O10 0.380404 0.087065 0.918247
O O11 0.881440 0.719165 0.655680
O O12 0.239655 0.690971 0.359484
O O13 0.408378 0.266474 0.809279
O O14 0.492990 0.298262 0.022475
#
# Coordination Sequence:
#
# PCOD8126193 Si02
#       7
#     4   4   4   4   4   4   4
#     4  11  21  41  65  95 123 170 209 261 313 379
#     4  10  21  38  67  93 127 166 208 262 310 376
#     4  10  24  41  63  90 134 163 206 274 313 369
#     4  11  22  43  62  89 128 167 206 270 315 381
#     4  11  24  39  66  91 123 165 217 253 329 375
#     4  11  23  43  60  93 124 165 215 265 315 387
#     4  10  21  41  62  96 130 164 212 255 320 377
#
# _framework density 20.989495999999999
#
# number of rings (size 3 to 8) (size 9 to 14) (size 15 to 20)
#    0.000    1.429    4.286    0.857    2.000    0.571 
#    0.000    2.857    0.000    0.000    0.000    0.000 
#    0.000    0.000    0.000    0.000    0.000    0.000 
#
# Total GULP energy -347134.631899 kJ/mol
# GULP energy per Si atom -12397.665425 kJ/mol
# Density = 2.094172 g / cm^3
# Si number density = 20.989496 Si / 1000 Ang^3
#
#
#
# Elastic Constant Matrix: (Units=GPa)
#
#
# Indices 1 2 3 4 5 6 
#
# 1 36.0822 23.7977 23.2667 0.0000 -0.3830 0.0000
# 2 23.7977 95.4570 36.5054 0.0000 -1.4930 0.0000
# 3 23.2667 36.5054 111.3165 0.0000 -6.0344 0.0000
# 4 0.0000 0.0000 0.0000 26.8597 0.0000 5.7754
# 5 -0.3830 -1.4930 -6.0344 0.0000 32.5918 0.0000
# 6 0.0000 0.0000 0.0000 5.7754 0.0000 29.4818
#
#
#
# Elastic Compliance Matrix: (Units=1/GPa)
#
#
# Indices 1 2 3 4 5 6 
#
# 1 0.035626 -0.006894 -0.005232 0.000000 -0.000866 0.000000
# 2 -0.006894 0.013313 -0.002926 0.000000 -0.000013 0.000000
# 3 -0.005232 -0.002926 0.011138 0.000000 0.001867 0.000000
# 4 0.000000 0.000000 0.000000 0.038868 0.000000 -0.007614
# 5 -0.000866 -0.000013 0.001867 0.000000 0.031017 0.000000
# 6 0.000000 0.000000 0.000000 -0.007614 0.000000 0.035411
#
#
# Mechanical properties :
#
#
# Convention : Reuss Voigt Hill
#
# Bulk Modulus (GPa) = 33.36382 45.55505 39.45944
# Shear Modulus (GPa) = 24.33457 28.40572 26.37014
#
# Velocity S-wave (km/s) = 3.40864 3.68275 3.54835
# Velocity P-wave (km/s) = 5.60552 6.31145 5.96893
#
# Compressibility (1/GPa) = 0.02997259
#
# Stress axis : x y z
#
# Youngs Moduli (GPa) = 28.06909 75.11252 89.78515
#
# Poissons Ratio (x) = 0.51785 0.46979
# Poissons Ratio (y) = 0.19352 0.26269
# Poissons Ratio (z) = 0.14687 0.21976
#
# Static dielectric constant tensor:
#      x y z
#    x 3.685360 0.000000 0.250390 
#    y 0.000000 3.978770 0.000000 
#    z 0.250390 0.000000 3.667070 
# 
# 
# High freq. dielectric constant tensor:
#      x y z
#    x 1.806830 0.000000 0.018670 
#    y 0.000000 1.839130 0.000000 
#    z 0.018670 0.000000 1.816820 
# 
# From -- ./inp_files/10360.got.cif
#   From: 2010.03.12/outbox.cif.g09.slc.cpg/sg14_6_cif.got.tgz:10360.got - 2010.03.31 13:35:05.
