data_PCOD8126388
_publ_section_title
;
Structure prediction by ZEFSAII (Michael W. Deem and Ramdas Pophale) SiO2 
 PCOD8126388
Probable space group: P 21/C
;
_chemical_formula_sum "Si O2"
_cell_formula_units_Z 24
_cell_length_a 11.759125
_cell_length_b 19.509658
_cell_length_c 5.137648
_cell_angle_alpha 90.000000
_cell_angle_beta 71.711829
_cell_angle_gamma 90.000000
_cell_volume 1119.127412
_symmetry_space_group_name_H-M "P 21/C"
_symmetry_group_IT_number 14
_symmetry_cell_setting 'monoclinic'
loop_
_space_group_symop_operation_xyz
x,y,z
-x,1/2+y,1/2-z
-x,-y,-z
x,1/2-y,1/2+z
loop_
_atom_site_type_symbol
_atom_site_label
_atom_site_fract_x
_atom_site_fract_y
_atom_site_fract_z
Si Si1 0.698298 0.086248 0.783702
Si Si2 0.157956 0.078776 0.902134
Si Si3 0.944753 0.050021 0.748169
Si Si4 0.251988 0.205178 0.105403
Si Si5 0.475170 0.708614 0.630009
Si Si6 0.362920 0.507624 0.168072
O O1 0.840438 0.100528 0.720242
O O2 0.621915 0.153658 0.885135
O O3 0.688587 0.063355 0.492747
O O4 0.648759 0.029816 0.022056
O O5 0.169996 0.137728 0.113437
O O6 0.050035 0.099453 0.784697
O O7 0.289454 0.064673 0.679024
O O8 0.120151 0.001761 0.007793
O O9 0.000000 0.000000 0.500000
O O10 0.223237 0.262966 0.907781
O O11 0.389678 0.180545 0.997561
O O12 0.455687 0.771121 0.443988
O O13 0.500000 0.500000 0.000000
#
# Coordination Sequence:
#
# PCOD8126388 Si02
#       6
#     4   4   4   4   4   4
#     4  11  22  38  60  88 119 157 204 242 302 368
#     4  10  22  39  61  88 124 159 202 252 305 362
#     4  10  21  40  62  88 120 165 199 252 312 350
#     4  10  23  39  61  88 119 160 199 244 301 362
#     4  10  21  40  60  85 122 162 199 246 304 359
#     4  11  22  35  59  93 120 149 195 256 313 358
#
# _framework density 21.445281000000001
#
# number of rings (size 3 to 8) (size 9 to 14) (size 15 to 20)
#    0.000    1.667    1.667    2.500    2.333    4.000 
#    0.000    1.667    0.000    0.000    0.000    0.000 
#    0.000    0.000    0.000    0.000    0.000    0.000 
#
# Total GULP energy -297400.510886 kJ/mol
# GULP energy per Si atom -12391.687954 kJ/mol
# Density = 2.139647 g / cm^3
# Si number density = 21.445281 Si / 1000 Ang^3
#
#
#
# Elastic Constant Matrix: (Units=GPa)
#
#
# Indices 1 2 3 4 5 6 
#
# 1 163.7349 42.6012 10.4849 0.0000 4.6763 0.0000
# 2 42.6012 49.2340 -9.7373 0.0000 1.9513 0.0000
# 3 10.4849 -9.7373 62.7109 0.0000 7.9493 0.0000
# 4 0.0000 0.0000 0.0000 20.3771 0.0000 7.8701
# 5 4.6763 1.9513 7.9493 0.0000 27.1950 0.0000
# 6 0.0000 0.0000 0.0000 7.8701 0.0000 43.9992
#
#
#
# Elastic Compliance Matrix: (Units=1/GPa)
#
#
# Indices 1 2 3 4 5 6 
#
# 1 0.008266 -0.007652 -0.002554 0.000000 -0.000126 0.000000
# 2 -0.007652 0.028211 0.005971 0.000000 -0.002454 0.000000
# 3 -0.002554 0.005971 0.017965 0.000000 -0.005240 0.000000
# 4 0.000000 0.000000 0.000000 0.052717 0.000000 -0.009429
# 5 -0.000126 -0.002454 -0.005240 0.000000 0.038501 0.000000
# 6 0.000000 0.000000 0.000000 -0.009429 0.000000 0.024414
#
#
# Mechanical properties :
#
#
# Convention : Reuss Voigt Hill
#
# Bulk Modulus (GPa) = 21.75356 40.26415 31.00886
# Shear Modulus (GPa) = 25.79087 33.80300 29.79694
#
# Velocity S-wave (km/s) = 3.47167 3.97450 3.73156
# Velocity P-wave (km/s) = 5.12208 6.31492 5.74952
#
# Compressibility (1/GPa) = 0.04596949
#
# Stress axis : x y z
#
# Youngs Moduli (GPa) = 120.98393 35.44766 55.66502
#
# Poissons Ratio (x) = 0.27125 0.14218
# Poissons Ratio (y) = 0.92579 -0.33236
# Poissons Ratio (z) = 0.30902 -0.21165
#
# Static dielectric constant tensor:
#      x y z
#    x 4.437800 0.000000 0.163070 
#    y 0.000000 3.508800 0.000000 
#    z 0.163070 0.000000 3.895990 
# 
# 
# High freq. dielectric constant tensor:
#      x y z
#    x 1.866210 0.000000 0.007730 
#    y 0.000000 1.801760 0.000000 
#    z 0.007730 0.000000 1.841510 
# 
# From -- ./inp_files/2658.got.cif
#   From: 2010.03.12/outbox.cif.g09.slc.cpg/sg14_2_cif.got.tgz:2658.got - 2010.03.31 13:35:05.
