data_PCOD8126701
_publ_section_title
;
Structure prediction by ZEFSAII (Michael W. Deem and Ramdas Pophale) SiO2 
 PCOD8126701
Probable space group: P 21/C
;
_chemical_formula_sum "Si O2"
_cell_formula_units_Z 24
_cell_length_a 20.316105
_cell_length_b 11.899864
_cell_length_c 14.107693
_cell_angle_alpha 90.000000
_cell_angle_beta 20.981728
_cell_angle_gamma 90.000000
_cell_volume 1221.255784
_symmetry_space_group_name_H-M "P 21/C"
_symmetry_group_IT_number 14
_symmetry_cell_setting 'monoclinic'
loop_
_space_group_symop_operation_xyz
x,y,z
-x,1/2+y,1/2-z
-x,-y,-z
x,1/2-y,1/2+z
loop_
_atom_site_type_symbol
_atom_site_label
_atom_site_fract_x
_atom_site_fract_y
_atom_site_fract_z
Si Si1 0.418120 0.174036 0.105665
Si Si2 0.687694 0.731314 0.941245
Si Si3 0.811676 0.486496 0.805012
Si Si4 0.962981 0.383340 0.996703
Si Si5 0.629079 0.230481 0.494780
Si Si6 0.765164 0.461154 0.080896
O O1 0.321971 0.255714 0.159127
O O2 0.262272 0.092985 0.358951
O O3 0.504748 0.250428 0.070170
O O4 0.568314 0.098970 0.849805
O O5 0.704375 0.602745 0.948681
O O6 0.856088 0.806838 0.752225
O O7 0.493893 0.766878 0.245969
O O8 0.703769 0.395272 0.888344
O O9 0.000000 0.500000 0.500000
O O10 0.844802 0.446227 0.868394
O O11 0.796390 0.320071 0.274823
O O12 0.908080 0.406592 0.961891
O O13 0.000000 0.500000 0.000000
#
# Coordination Sequence:
#
# PCOD8126701 Si02
#       6
#     4   4   4   4   4   4
#     4  10  21  41  70  97 124 179 225 262 329 408
#     4  12  24  42  71  97 136 174 220 280 334 397
#     4  12  25  45  63  99 142 171 213 288 337 379
#     4  11  24  44  69  98 128 179 231 263 327 415
#     4  11  25  44  66  99 136 173 223 275 337 394
#     4  10  21  42  69  91 133 176 221 268 327 403
#
# _framework density 19.651903000000001
#
# number of rings (size 3 to 8) (size 9 to 14) (size 15 to 20)
#    0.000    1.000    6.667    0.000    2.333    2.000 
#    6.000    0.000    0.000    0.000    0.000    0.000 
#    0.000    0.000    0.000    0.000    0.000    0.000 
#
# Total GULP energy -297675.611464 kJ/mol
# GULP energy per Si atom -12403.150478 kJ/mol
# Density = 1.960717 g / cm^3
# Si number density = 19.651903 Si / 1000 Ang^3
#
#
#
# Elastic Constant Matrix: (Units=GPa)
#
#
# Indices 1 2 3 4 5 6 
#
# 1 114.4036 48.1919 31.4426 0.0000 3.6543 0.0000
# 2 48.1919 127.3546 34.8945 0.0000 -14.6042 0.0000
# 3 31.4426 34.8945 102.5169 0.0000 2.7863 0.0000
# 4 0.0000 0.0000 0.0000 30.2907 0.0000 -4.7765
# 5 3.6543 -14.6042 2.7863 0.0000 31.1932 0.0000
# 6 0.0000 0.0000 0.0000 -4.7765 0.0000 36.0294
#
#
#
# Elastic Compliance Matrix: (Units=1/GPa)
#
#
# Indices 1 2 3 4 5 6 
#
# 1 0.011054 -0.003991 -0.001951 0.000000 -0.002989 0.000000
# 2 -0.003991 0.010726 -0.002582 0.000000 0.005720 0.000000
# 3 -0.001951 -0.002582 0.011286 0.000000 -0.001989 0.000000
# 4 0.000000 0.000000 0.000000 0.033718 0.000000 0.004470
# 5 -0.002989 0.005720 -0.001989 0.000000 0.035264 0.000000
# 6 0.000000 0.000000 0.000000 0.004470 0.000000 0.028348
#
#
# Mechanical properties :
#
#
# Convention : Reuss Voigt Hill
#
# Bulk Modulus (GPa) = 62.43155 63.70369 63.06762
# Shear Modulus (GPa) = 32.72627 34.81906 33.77267
#
# Velocity S-wave (km/s) = 4.08523 4.21383 4.15003
# Velocity P-wave (km/s) = 7.35458 7.49410 7.42467
#
# Compressibility (1/GPa) = 0.01601754
#
# Stress axis : x y z
#
# Youngs Moduli (GPa) = 90.46640 93.23291 88.60781
#
# Poissons Ratio (x) = 0.37211 0.17283
# Poissons Ratio (y) = 0.36107 0.22880
# Poissons Ratio (z) = 0.17646 0.24074
#
# Static dielectric constant tensor:
#      x y z
#    x 3.562690 0.000000 0.007590 
#    y 0.000000 3.614640 0.000000 
#    z 0.007590 0.000000 3.663780 
# 
# 
# High freq. dielectric constant tensor:
#      x y z
#    x 1.771520 0.000000 0.000650 
#    y 0.000000 1.772010 0.000000 
#    z 0.000650 0.000000 1.766030 
# 
# From -- ./inp_files/44256.got.cif
#   From: 2010.03.12/outbox.cif.g09.slc.cpg/sg14_23_cif.got.tgz:44256.got - 2010.03.31 13:35:05.
