data_PCOD8126461
_publ_section_title
;
Structure prediction by ZEFSAII (Michael W. Deem and Ramdas Pophale) SiO2 
 PCOD8126461
Probable space group: P 21/C
;
_chemical_formula_sum "Si O2"
_cell_formula_units_Z 24
_cell_length_a 17.369185
_cell_length_b 8.529855
_cell_length_c 13.872292
_cell_angle_alpha 90.000000
_cell_angle_beta 150.225717
_cell_angle_gamma 90.000000
_cell_volume 1020.616062
_symmetry_space_group_name_H-M "P 21/C"
_symmetry_group_IT_number 14
_symmetry_cell_setting 'monoclinic'
loop_
_space_group_symop_operation_xyz
x,y,z
-x,1/2+y,1/2-z
-x,-y,-z
x,1/2-y,1/2+z
loop_
_atom_site_type_symbol
_atom_site_label
_atom_site_fract_x
_atom_site_fract_y
_atom_site_fract_z
Si Si1 0.133526 0.851648 0.840236
Si Si2 0.719677 0.855879 0.685322
Si Si3 0.978548 0.809092 0.341743
Si Si4 0.551341 0.768206 0.174046
Si Si5 0.227438 0.713599 0.751336
Si Si6 0.472178 0.563706 0.764806
O O1 0.002956 0.785673 0.769568
O O2 0.141579 0.729633 0.760869
O O3 0.300745 0.862720 0.073582
O O4 0.081155 0.018608 0.743472
O O5 0.693671 0.752727 0.754386
O O6 0.561263 0.859215 0.451791
O O7 0.855117 0.781784 0.771565
O O8 0.766256 0.030349 0.769853
O O9 0.139242 0.813698 0.574642
O O10 0.535558 0.620909 0.228549
O O11 0.566888 0.911775 0.266518
O O12 0.397064 0.789924 0.942724
#
# Coordination Sequence:
#
# PCOD8126461 Si02
#       6
#     4   4   4   4   4   4
#     4  11  24  42  63  92 128 168 209 256 307 368
#     4  11  22  39  66  94 123 166 207 256 314 367
#     4  12  24  41  64  94 127 165 209 257 312 372
#     4  10  21  40  64  91 124 166 207 255 311 367
#     4  10  22  41  63  88 126 168 207 253 308 368
#     4  10  21  41  64  91 125 161 210 255 306 372
#
# _framework density 23.51521
#
# number of rings (size 3 to 8) (size 9 to 14) (size 15 to 20)
#    0.000    1.333    0.000    7.000    0.000    2.667 
#    0.000   15.833    0.000    0.000    0.000    0.000 
#    0.000    0.000    0.000    0.000    0.000    0.000 
#
# Total GULP energy -297660.275803 kJ/mol
# GULP energy per Si atom -12402.511492 kJ/mol
# Density = 2.346169 g / cm^3
# Si number density = 23.515210 Si / 1000 Ang^3
#
#
#
# Elastic Constant Matrix: (Units=GPa)
#
#
# Indices 1 2 3 4 5 6 
#
# 1 1064.9192 517.2649 -166.2832 0.0000 151.0284 0.0000
# 2 517.2649 297.6667 -82.5799 0.0000 78.2025 0.0000
# 3 -166.2832 -82.5799 96.7424 0.0000 -38.5860 0.0000
# 4 0.0000 0.0000 0.0000 23.5126 0.0000 0.8589
# 5 151.0284 78.2025 -38.5860 0.0000 48.0031 0.0000
# 6 0.0000 0.0000 0.0000 0.8589 0.0000 35.0413
#
#
#
# Elastic Compliance Matrix: (Units=1/GPa)
#
#
# Indices 1 2 3 4 5 6 
#
# 1 0.006458 -0.010128 0.001371 0.000000 -0.002716 0.000000
# 2 -0.010128 0.021969 -0.000325 0.000000 -0.004186 0.000000
# 3 0.001371 -0.000325 0.016054 0.000000 0.009119 0.000000
# 4 0.000000 0.000000 0.000000 0.042568 0.000000 -0.001043
# 5 -0.002716 -0.004186 0.009119 0.000000 0.043526 0.000000
# 6 0.000000 0.000000 0.000000 -0.001043 0.000000 0.028563
#
#
# Mechanical properties :
#
#
# Convention : Reuss Voigt Hill
#
# Bulk Modulus (GPa) = 37.99936 221.79245 129.89590
# Shear Modulus (GPa) = 26.87100 100.70652 63.78876
#
# Velocity S-wave (km/s) = 3.38406 6.55127 5.21397
# Velocity P-wave (km/s) = 5.60925 12.31864 9.57112
#
# Compressibility (1/GPa) = 0.02631623
#
# Stress axis : x y z
#
# Youngs Moduli (GPa) = 154.85003 45.51880 62.29164
#
# Poissons Ratio (x) = 0.46102 -0.08542
# Poissons Ratio (y) = 1.56834 0.02026
# Poissons Ratio (z) = -0.21235 0.01481
#
# Static dielectric constant tensor:
#      x y z
#    x 4.396390 0.000000 -0.083390 
#    y 0.000000 4.063660 0.000000 
#    z -0.083390 0.000000 4.516530 
# 
# 
# High freq. dielectric constant tensor:
#      x y z
#    x 1.945190 0.000000 -0.006400 
#    y 0.000000 1.914010 0.000000 
#    z -0.006400 0.000000 1.935860 
# 
# From -- ./inp_files/48670.got.cif
#   From: 2010.03.12/outbox.cif.g09.slc.cpg/sg14_25_cif.got.tgz:48670.got - 2010.03.31 13:35:05.
