data_PCOD8126347
_publ_section_title
;
Structure prediction by ZEFSAII (Michael W. Deem and Ramdas Pophale) SiO2 
 PCOD8126347
Probable space group: P 21/C
;
_chemical_formula_sum "Si O2"
_cell_formula_units_Z 32
_cell_length_a 15.201618
_cell_length_b 5.240190
_cell_length_c 21.980932
_cell_angle_alpha 90.000000
_cell_angle_beta 60.024278
_cell_angle_gamma 90.000000
_cell_volume 1516.770166
_symmetry_space_group_name_H-M "P 21/C"
_symmetry_group_IT_number 14
_symmetry_cell_setting 'monoclinic'
loop_
_space_group_symop_operation_xyz
x,y,z
-x,1/2+y,1/2-z
-x,-y,-z
x,1/2-y,1/2+z
loop_
_atom_site_type_symbol
_atom_site_label
_atom_site_fract_x
_atom_site_fract_y
_atom_site_fract_z
Si Si1 0.216101 0.583471 0.743604
Si Si2 0.041904 0.205566 0.809426
Si Si3 0.610545 0.838987 0.752148
Si Si4 0.145084 0.920982 0.673925
Si Si5 0.618148 0.337555 0.672689
Si Si6 0.809232 0.319836 0.526788
Si Si7 0.914085 0.322496 0.614519
Si Si8 0.136846 0.178113 0.561256
O O1 0.116055 0.426462 0.760620
O O2 0.313286 0.399130 0.718010
O O3 0.235866 0.772990 0.678440
O O4 0.189240 0.722883 0.816884
O O5 0.921393 0.255230 0.851188
O O6 0.063579 0.975474 0.755278
O O7 0.067937 0.113108 0.868982
O O8 0.634737 0.557626 0.717970
O O9 0.495278 0.862386 0.815868
O O10 0.630545 0.054852 0.694997
O O11 0.178340 0.152382 0.617528
O O12 0.697449 0.374518 0.591355
O O13 0.895517 0.328426 0.549184
O O14 0.830545 0.543645 0.471821
O O15 0.810081 0.041213 0.496760
O O16 0.012956 0.151639 0.598994
#
# Coordination Sequence:
#
# PCOD8126347 Si02
#       8
#     4   4   4   4   4   4   4   4
#     4  11  22  35  65  87 122 154 199 270 302 353
#     4  11  20  36  61  83 122 160 198 269 295 344
#     4  10  21  39  66  96 115 152 187 268 319 360
#     4  11  22  37  54  86 120 165 210 239 299 350
#     4  10  21  41  64  90 126 145 201 248 321 369
#     4  12  25  40  61  86 125 168 200 245 297 367
#     4  11  23  37  57  90 123 156 211 246 307 357
#     4  12  26  39  58  84 127 177 204 234 284 375
#
# _framework density 21.097460999999999
#
# number of rings (size 3 to 8) (size 9 to 14) (size 15 to 20)
#    0.000    1.000    3.750    3.750    5.250    0.000 
#    0.000    0.000    0.000    1.500    0.000    0.000 
#    0.000    0.000    0.000    0.000    0.000    0.000 
#
# Total GULP energy -396598.956920 kJ/mol
# GULP energy per Si atom -12393.717404 kJ/mol
# Density = 2.104944 g / cm^3
# Si number density = 21.097461 Si / 1000 Ang^3
#
#
#
# Elastic Constant Matrix: (Units=GPa)
#
#
# Indices 1 2 3 4 5 6 
#
# 1 61.2940 8.3412 29.6946 0.0000 -8.9600 0.0000
# 2 8.3412 80.1278 16.8909 0.0000 4.6721 0.0000
# 3 29.6946 16.8909 72.8589 0.0000 1.8048 0.0000
# 4 0.0000 0.0000 0.0000 27.9696 0.0000 1.6269
# 5 -8.9600 4.6721 1.8048 0.0000 31.2685 0.0000
# 6 0.0000 0.0000 0.0000 1.6269 0.0000 27.7105
#
#
#
# Elastic Compliance Matrix: (Units=1/GPa)
#
#
# Indices 1 2 3 4 5 6 
#
# 1 0.021702 -0.000797 -0.008830 0.000000 0.006847 0.000000
# 2 -0.000797 0.013251 -0.002696 0.000000 -0.002053 0.000000
# 3 -0.008830 -0.002696 0.018027 0.000000 -0.003168 0.000000
# 4 0.000000 0.000000 0.000000 0.035876 0.000000 -0.002106
# 5 0.006847 -0.002053 -0.003168 0.000000 0.034433 0.000000
# 6 0.000000 0.000000 0.000000 -0.002106 0.000000 0.036211
#
#
# Mechanical properties :
#
#
# Convention : Reuss Voigt Hill
#
# Bulk Modulus (GPa) = 35.29307 36.01489 35.65398
# Shear Modulus (GPa) = 25.82769 28.01333 26.92051
#
# Velocity S-wave (km/s) = 3.50267 3.64786 3.57600
# Velocity P-wave (km/s) = 5.75527 5.90341 5.82981
#
# Compressibility (1/GPa) = 0.02833417
#
# Stress axis : x y z
#
# Youngs Moduli (GPa) = 46.07892 75.46534 55.47127
#
# Poissons Ratio (x) = 0.06015 0.48979
# Poissons Ratio (y) = 0.03673 0.14957
# Poissons Ratio (z) = 0.40686 0.20348
#
# Static dielectric constant tensor:
#      x y z
#    x 3.805250 0.000000 0.019720 
#    y 0.000000 3.984980 0.000000 
#    z 0.019720 0.000000 3.716590 
# 
# 
# High freq. dielectric constant tensor:
#      x y z
#    x 1.804920 0.000000 0.012000 
#    y 0.000000 1.847210 0.000000 
#    z 0.012000 0.000000 1.803300 
# 
# From -- ./inp_files/67837.got.cif
#   From: 2010.03.12/outbox.cif.g09.slc.cpg/sg14_34_cif.got.tgz:67837.got - 2010.03.31 13:35:05.
