data_PCOD8126744
_publ_section_title
;
Structure prediction by ZEFSAII (Michael W. Deem and Ramdas Pophale) SiO2 
 PCOD8126744
Probable space group: P 21/C
;
_chemical_formula_sum "Si O2"
_cell_formula_units_Z 32
_cell_length_a 15.776082
_cell_length_b 17.668940
_cell_length_c 12.373316
_cell_angle_alpha 90.000000
_cell_angle_beta 153.473667
_cell_angle_gamma 90.000000
_cell_volume 1540.363785
_symmetry_space_group_name_H-M "P 21/C"
_symmetry_group_IT_number 14
_symmetry_cell_setting 'monoclinic'
loop_
_space_group_symop_operation_xyz
x,y,z
-x,1/2+y,1/2-z
-x,-y,-z
x,1/2-y,1/2+z
loop_
_atom_site_type_symbol
_atom_site_label
_atom_site_fract_x
_atom_site_fract_y
_atom_site_fract_z
Si Si1 0.832056 0.374736 0.576685
Si Si2 0.556011 0.040312 0.902395
Si Si3 0.095657 0.895954 0.300542
Si Si4 0.395902 0.606080 0.310175
Si Si5 0.897025 0.247379 0.813953
Si Si6 0.234971 0.347838 0.698341
Si Si7 0.186144 0.059349 0.354312
Si Si8 0.603639 0.230143 0.659966
O O1 0.722800 0.446523 0.504801
O O2 0.919493 0.323489 0.770821
O O3 0.680328 0.324671 0.339483
O O4 0.996290 0.403184 0.685346
O O5 0.358496 0.074842 0.633266
O O6 0.534436 0.951008 0.902736
O O7 0.610431 0.085815 0.071613
O O8 0.177715 0.902009 0.515823
O O9 0.194808 0.822295 0.359393
O O10 0.154027 0.970178 0.299854
O O11 0.865344 0.883973 0.024317
O O12 0.476363 0.690950 0.382007
O O13 0.767852 0.260905 0.769912
O O14 0.106876 0.222941 0.093124
O O15 0.240229 0.409264 0.799259
O O16 0.443355 0.315958 0.910878
#
# Coordination Sequence:
#
# PCOD8126744 Si02
#       8
#     4   4   4   4   4   4   4   4
#     4  12  22  40  65  94 124 167 209 259 311 374
#     4  10  23  41  63  90 123 171 205 254 306 376
#     4   9  21  43  60  89 130 163 197 264 311 363
#     4  10  21  42  64  85 132 164 202 255 309 368
#     4  10  23  39  61  94 124 159 204 258 318 359
#     4  10  22  39  64  96 120 163 207 258 314 366
#     4  11  22  41  64  91 128 163 209 256 314 373
#     4  12  21  40  66  93 125 164 208 259 315 369
#
# _framework density 20.774314
#
# number of rings (size 3 to 8) (size 9 to 14) (size 15 to 20)
#    0.750    0.750    5.000    0.375    1.750    0.000 
#    4.500   10.625    0.000    0.000    0.000    0.000 
#    0.000    0.000    0.000    0.000    0.000    0.000 
#
# Total GULP energy -396520.168849 kJ/mol
# GULP energy per Si atom -12391.255277 kJ/mol
# Density = 2.072703 g / cm^3
# Si number density = 20.774314 Si / 1000 Ang^3
#
#
#
# Elastic Constant Matrix: (Units=GPa)
#
#
# Indices 1 2 3 4 5 6 
#
# 1 35.5585 3.6885 -4.8109 0.0000 0.2824 0.0000
# 2 3.6885 76.2993 1.7722 0.0000 -0.7557 0.0000
# 3 -4.8109 1.7722 85.1707 0.0000 -17.7756 0.0000
# 4 0.0000 0.0000 0.0000 31.0892 0.0000 -5.9888
# 5 0.2824 -0.7557 -17.7756 0.0000 29.8068 0.0000
# 6 0.0000 0.0000 0.0000 -5.9888 0.0000 25.3965
#
#
#
# Elastic Compliance Matrix: (Units=1/GPa)
#
#
# Indices 1 2 3 4 5 6 
#
# 1 0.028507 -0.001412 0.001800 0.000000 0.000767 0.000000
# 2 -0.001412 0.013184 -0.000322 0.000000 0.000156 0.000000
# 3 0.001800 -0.000322 0.013528 0.000000 0.008042 0.000000
# 4 0.000000 0.000000 0.000000 0.033696 0.000000 0.007946
# 5 0.000767 0.000156 0.008042 0.000000 0.038342 0.000000
# 6 0.000000 0.000000 0.000000 0.007946 0.000000 0.041249
#
#
# Mechanical properties :
#
#
# Convention : Reuss Voigt Hill
#
# Bulk Modulus (GPa) = 18.06688 22.03646 20.05167
# Shear Modulus (GPa) = 26.76318 30.35042 28.55680
#
# Velocity S-wave (km/s) = 3.59316 3.82640 3.71161
# Velocity P-wave (km/s) = 5.09215 5.49111 5.29539
#
# Compressibility (1/GPa) = 0.05534989
#
# Stress axis : x y z
#
# Youngs Moduli (GPa) = 35.07965 75.85205 73.92100
#
# Poissons Ratio (x) = 0.10712 -0.13304
# Poissons Ratio (y) = 0.04954 0.02377
# Poissons Ratio (z) = -0.06313 0.02439
#
# Static dielectric constant tensor:
#      x y z
#    x 3.282540 0.000000 -0.171500 
#    y 0.000000 3.896740 0.000000 
#    z -0.171500 0.000000 3.862980 
# 
# 
# High freq. dielectric constant tensor:
#      x y z
#    x 1.775410 0.000000 -0.017390 
#    y 0.000000 1.826180 0.000000 
#    z -0.017390 0.000000 1.819570 
# 
# From -- ./inp_files/33078.got.cif
#   From: 2010.03.12/outbox.cif.g09.slc.cpg/sg14_17_cif.got.tgz:33078.got - 2010.03.31 13:35:05.
