data_PCOD8126811
_publ_section_title
;
Structure prediction by ZEFSAII (Michael W. Deem and Ramdas Pophale) SiO2 
 PCOD8126811
Probable space group: P 21/C
;
_chemical_formula_sum "Si O2"
_cell_formula_units_Z 28
_cell_length_a 18.164636
_cell_length_b 5.599904
_cell_length_c 14.076963
_cell_angle_alpha 90.000000
_cell_angle_beta 113.861596
_cell_angle_gamma 90.000000
_cell_volume 1309.519525
_symmetry_space_group_name_H-M "P 21/C"
_symmetry_group_IT_number 14
_symmetry_cell_setting 'monoclinic'
loop_
_space_group_symop_operation_xyz
x,y,z
-x,1/2+y,1/2-z
-x,-y,-z
x,1/2-y,1/2+z
loop_
_atom_site_type_symbol
_atom_site_label
_atom_site_fract_x
_atom_site_fract_y
_atom_site_fract_z
Si Si1 0.546535 0.729946 0.265920
Si Si2 0.181413 0.108980 0.695309
Si Si3 0.721955 0.271672 0.359047
Si Si4 0.331122 0.400219 0.035355
Si Si5 0.661992 0.626421 0.174845
Si Si6 0.047839 0.093535 0.780232
Si Si7 0.176050 0.151301 0.002996
O O1 0.502918 0.472312 0.239469
O O2 0.613548 0.697548 0.385751
O O3 0.589549 0.775614 0.185471
O O4 0.256814 0.219255 0.791478
O O5 0.109132 0.051829 0.727120
O O6 0.150389 0.286485 0.597188
O O7 0.208847 0.867835 0.660608
O O8 0.672616 0.407790 0.252466
O O9 0.769039 0.417993 0.464065
O O10 0.656961 0.121771 0.385820
O O11 0.360697 0.455879 0.943780
O O12 0.235017 0.348196 0.986494
O O13 0.094763 0.113009 0.903363
O O14 0.004206 0.349699 0.742258
#
# Coordination Sequence:
#
# PCOD8126811 Si02
#       7
#     4   4   4   4   4   4   4
#     4  12  27  48  68 109 160 182 234 310 369 420
#     4  10  23  43  72 100 135 190 242 289 348 436
#     4  10  21  42  72 103 134 180 256 302 331 428
#     4  11  23  43  74 103 137 194 249 292 355 435
#     4  11  23  43  74 103 137 194 249 292 355 435
#     4  12  30  46  68 110 150 179 230 307 364 416
#     4  10  23  43  72 100 135 190 242 289 348 436
#
# _framework density 21.381888
#
# number of rings (size 3 to 8) (size 9 to 14) (size 15 to 20)
#    0.000    1.143    5.714    0.857   10.000    2.286 
#    0.000    0.000    0.000    0.000    0.000    0.000 
#    0.000    0.000    0.000    0.000    0.000    0.000 
#
# Total GULP energy -346962.108489 kJ/mol
# GULP energy per Si atom -12391.503875 kJ/mol
# Density = 2.133322 g / cm^3
# Si number density = 21.381888 Si / 1000 Ang^3
#
#
#
# Elastic Constant Matrix: (Units=GPa)
#
#
# Indices 1 2 3 4 5 6 
#
# 1 101.5862 21.2591 41.4236 0.0000 -18.6790 0.0000
# 2 21.2591 92.6563 18.8252 0.0000 -0.7539 0.0000
# 3 41.4236 18.8252 82.5437 0.0000 -14.9887 0.0000
# 4 0.0000 0.0000 0.0000 17.5699 0.0000 1.8344
# 5 -18.6790 -0.7539 -14.9887 0.0000 38.7748 0.0000
# 6 0.0000 0.0000 0.0000 1.8344 0.0000 20.0801
#
#
#
# Elastic Compliance Matrix: (Units=1/GPa)
#
#
# Indices 1 2 3 4 5 6 
#
# 1 0.013239 -0.001897 -0.005442 0.000000 0.004237 0.000000
# 2 -0.001897 0.011614 -0.001959 0.000000 -0.001446 0.000000
# 3 -0.005442 -0.001959 0.015927 0.000000 0.003497 0.000000
# 4 0.000000 0.000000 0.000000 0.057464 0.000000 -0.005250
# 5 0.004237 -0.001446 0.003497 0.000000 0.029155 0.000000
# 6 0.000000 0.000000 0.000000 -0.005250 0.000000 0.050280
#
#
# Mechanical properties :
#
#
# Convention : Reuss Voigt Hill
#
# Bulk Modulus (GPa) = 45.07690 48.86687 46.97188
# Shear Modulus (GPa) = 24.54945 28.30352 26.42649
#
# Velocity S-wave (km/s) = 3.39210 3.64224 3.51939
# Velocity P-wave (km/s) = 6.03899 6.37117 6.20730
#
# Compressibility (1/GPa) = 0.02218431
#
# Stress axis : x y z
#
# Youngs Moduli (GPa) = 75.53436 86.10160 62.78451
#
# Poissons Ratio (x) = 0.16338 0.34165
# Poissons Ratio (y) = 0.14333 0.12300
# Poissons Ratio (z) = 0.41103 0.16868
#
# Static dielectric constant tensor:
#      x y z
#    x 3.822780 0.000000 -0.012970 
#    y 0.000000 3.993260 0.000000 
#    z -0.012970 0.000000 3.816220 
# 
# 
# High freq. dielectric constant tensor:
#      x y z
#    x 1.838750 0.000000 -0.006420 
#    y 0.000000 1.841880 0.000000 
#    z -0.006420 0.000000 1.837920 
# 
# From -- ./inp_files/47914.got.cif
#   From: 2010.03.12/outbox.cif.g09.slc.cpg/sg14_24_cif.got.tgz:47914.got - 2010.03.31 13:35:05.
