data_PCOD8126281
_publ_section_title
;
Structure prediction by ZEFSAII (Michael W. Deem and Ramdas Pophale) SiO2 
 PCOD8126281
Probable space group: P 21/C
;
_chemical_formula_sum "Si O2"
_cell_formula_units_Z 32
_cell_length_a 12.154877
_cell_length_b 11.392741
_cell_length_c 20.713519
_cell_angle_alpha 90.000000
_cell_angle_beta 148.012762
_cell_angle_gamma 90.000000
_cell_volume 1519.453948
_symmetry_space_group_name_H-M "P 21/C"
_symmetry_group_IT_number 14
_symmetry_cell_setting 'monoclinic'
loop_
_space_group_symop_operation_xyz
x,y,z
-x,1/2+y,1/2-z
-x,-y,-z
x,1/2-y,1/2+z
loop_
_atom_site_type_symbol
_atom_site_label
_atom_site_fract_x
_atom_site_fract_y
_atom_site_fract_z
Si Si1 0.894370 0.906505 0.362320
Si Si2 0.507212 0.465523 0.183360
Si Si3 0.435013 0.925625 0.139219
Si Si4 0.376935 0.816175 0.931885
Si Si5 0.138396 0.668209 0.711493
Si Si6 0.696797 0.309132 0.976391
Si Si7 0.245624 0.450486 0.429642
Si Si8 0.085715 0.150015 0.485109
O O1 0.660562 0.896981 0.219035
O O2 0.911439 0.832101 0.436756
O O3 0.064777 0.853543 0.398352
O O4 0.931442 0.043733 0.392670
O O5 0.546941 0.474421 0.279660
O O6 0.711573 0.422781 0.249173
O O7 0.450359 0.593940 0.129163
O O8 0.317809 0.376759 0.074793
O O9 0.306287 0.804662 0.071682
O O10 0.325749 0.025090 0.042141
O O11 0.268294 0.763547 0.815222
O O12 0.246328 0.930347 0.888314
O O13 0.384276 0.720121 0.992457
O O14 0.612300 0.851369 0.032575
O O15 0.989754 0.595645 0.685510
O O16 0.996186 0.731868 0.587778
#
# Coordination Sequence:
#
# PCOD8126281 Si02
#       8
#     4   4   4   4   4   4   4   4
#     4   9  18  35  59  83 115 156 189 229 294 360
#     4  10  23  38  60  94 119 148 194 250 303 351
#     4  10  21  39  63  87 122 156 191 243 299 361
#     4  10  24  42  58  81 119 163 202 242 290 352
#     4  12  23  37  62  87 118 153 194 253 303 338
#     4  10  22  38  58  88 121 153 199 247 290 348
#     4  10  24  42  60  86 115 159 209 238 288 370
#     4   9  19  35  56  86 117 150 192 231 289 366
#
# _framework density 21.060196999999999
#
# number of rings (size 3 to 8) (size 9 to 14) (size 15 to 20)
#    0.000    2.000    0.000    3.000    0.000   12.000 
#    0.000    0.000    0.000    0.000    0.000    0.000 
#    0.000    0.000    0.000    0.000    0.000    0.000 
#
# Total GULP energy -396896.284522 kJ/mol
# GULP energy per Si atom -12403.008891 kJ/mol
# Density = 2.101226 g / cm^3
# Si number density = 21.060197 Si / 1000 Ang^3
#
#
#
# Elastic Constant Matrix: (Units=GPa)
#
#
# Indices 1 2 3 4 5 6 
#
# 1 109.0131 40.6543 24.9351 0.0000 16.0564 0.0000
# 2 40.6543 69.7382 15.3550 0.0000 2.9756 0.0000
# 3 24.9351 15.3550 43.7723 0.0000 6.9618 0.0000
# 4 0.0000 0.0000 0.0000 29.1878 0.0000 -2.8944
# 5 16.0564 2.9756 6.9618 0.0000 37.0764 0.0000
# 6 0.0000 0.0000 0.0000 -2.8944 0.0000 36.8399
#
#
#
# Elastic Compliance Matrix: (Units=1/GPa)
#
#
# Indices 1 2 3 4 5 6 
#
# 1 0.013316 -0.006566 -0.004586 0.000000 -0.004379 0.000000
# 2 -0.006566 0.018779 -0.003154 0.000000 0.001929 0.000000
# 3 -0.004586 -0.003154 0.027015 0.000000 -0.002834 0.000000
# 4 0.000000 0.000000 0.000000 0.034530 0.000000 0.002713
# 5 -0.004379 0.001929 -0.002834 0.000000 0.029245 0.000000
# 6 0.000000 0.000000 0.000000 0.002713 0.000000 0.027358
#
#
# Mechanical properties :
#
#
# Convention : Reuss Voigt Hill
#
# Bulk Modulus (GPa) = 32.78857 42.71248 37.75052
# Shear Modulus (GPa) = 26.45232 30.05943 28.25587
#
# Velocity S-wave (km/s) = 3.54790 3.78207 3.66686
# Velocity P-wave (km/s) = 5.69089 6.27673 5.99097
#
# Compressibility (1/GPa) = 0.03049844
#
# Stress axis : x y z
#
# Youngs Moduli (GPa) = 75.09957 53.25055 37.01668
#
# Poissons Ratio (x) = 0.34964 0.16975
# Poissons Ratio (y) = 0.49310 0.11675
# Poissons Ratio (z) = 0.34438 0.16795
#
# Static dielectric constant tensor:
#      x y z
#    x 3.828590 0.000000 0.104660 
#    y 0.000000 3.646050 0.000000 
#    z 0.104660 0.000000 3.773500 
# 
# 
# High freq. dielectric constant tensor:
#      x y z
#    x 1.826380 0.000000 0.003980 
#    y 0.000000 1.820130 0.000000 
#    z 0.003980 0.000000 1.824220 
# 
# From -- ./inp_files/67440.got.cif
#   From: 2010.03.12/outbox.cif.g09.slc.cpg/sg14_34_cif.got.tgz:67440.got - 2010.03.31 13:35:05.
