data_PCOD8126560
_publ_section_title
;
Structure prediction by ZEFSAII (Michael W. Deem and Ramdas Pophale) SiO2 
 PCOD8126560
Probable space group: P 21/C
;
_chemical_formula_sum "Si O2"
_cell_formula_units_Z 32
_cell_length_a 25.509941
_cell_length_b 8.987692
_cell_length_c 15.816943
_cell_angle_alpha 90.000000
_cell_angle_beta 155.060326
_cell_angle_gamma 90.000000
_cell_volume 1529.137329
_symmetry_space_group_name_H-M "P 21/C"
_symmetry_group_IT_number 14
_symmetry_cell_setting 'monoclinic'
loop_
_space_group_symop_operation_xyz
x,y,z
-x,1/2+y,1/2-z
-x,-y,-z
x,1/2-y,1/2+z
loop_
_atom_site_type_symbol
_atom_site_label
_atom_site_fract_x
_atom_site_fract_y
_atom_site_fract_z
Si Si1 0.947492 0.877152 0.359554
Si Si2 0.138584 0.641106 0.686599
Si Si3 0.603230 0.376788 0.166020
Si Si4 0.991332 0.325831 0.330443
Si Si5 0.412531 0.705079 0.038056
Si Si6 0.517445 0.626665 0.842937
Si Si7 0.202638 0.305827 0.746328
Si Si8 0.115902 0.551291 0.401832
O O1 0.819383 0.802839 0.206494
O O2 0.047031 0.742429 0.495160
O O3 0.908274 0.954201 0.216290
O O4 0.000000 0.000000 0.500000
O O5 0.107136 0.656371 0.738766
O O6 0.134707 0.466555 0.659027
O O7 0.274930 0.704196 0.872734
O O8 0.575242 0.308517 0.218972
O O9 0.739003 0.452605 0.360124
O O10 0.500000 0.500000 0.000000
O O11 0.589957 0.260626 0.067317
O O12 0.924416 0.222196 0.164160
O O13 0.118980 0.241269 0.546869
O O14 0.029013 0.484470 0.347375
O O15 0.483491 0.550768 0.158321
O O16 0.483127 0.828284 0.197049
O O17 0.653894 0.686428 0.066392
#
# Coordination Sequence:
#
# PCOD8126560 Si02
#       8
#     4   4   4   4   4   4   4   4
#     4  11  22  38  62  93 121 161 208 265 315 386
#     4  10  21  41  61  85 131 168 201 264 331 385
#     4  10  23  43  64  90 128 173 217 263 323 394
#     4  11  23  39  56  93 125 161 206 264 323 393
#     4  10  22  41  67  90 125 172 219 267 329 385
#     4  10  22  41  66  94 121 175 219 267 318 389
#     4  10  22  40  63  88 130 163 212 260 334 384
#     4  12  25  38  64  93 128 168 215 265 331 388
#
# _framework density 20.926831
#
# number of rings (size 3 to 8) (size 9 to 14) (size 15 to 20)
#    0.000    1.500    2.500    4.500    8.750    0.000 
#    0.000    0.625    0.000    0.000    0.000    0.000 
#    0.000    0.000    0.000    0.000    0.000    0.000 
#
# Total GULP energy -396559.249680 kJ/mol
# GULP energy per Si atom -12392.476553 kJ/mol
# Density = 2.087920 g / cm^3
# Si number density = 20.926831 Si / 1000 Ang^3
#
#
#
# Elastic Constant Matrix: (Units=GPa)
#
#
# Indices 1 2 3 4 5 6 
#
# 1 120.8797 28.4376 40.8749 0.0000 -7.8802 0.0000
# 2 28.4376 60.0772 31.5779 0.0000 6.3807 0.0000
# 3 40.8749 31.5779 85.7528 0.0000 -7.4117 0.0000
# 4 0.0000 0.0000 0.0000 30.8754 0.0000 -6.8322
# 5 -7.8802 6.3807 -7.4117 0.0000 35.2666 0.0000
# 6 0.0000 0.0000 0.0000 -6.8322 0.0000 28.5315
#
#
#
# Elastic Compliance Matrix: (Units=1/GPa)
#
#
# Indices 1 2 3 4 5 6 
#
# 1 0.010388 -0.003277 -0.003557 0.000000 0.002166 0.000000
# 2 -0.003277 0.022749 -0.007368 0.000000 -0.006397 0.000000
# 3 -0.003557 -0.007368 0.016415 0.000000 0.003988 0.000000
# 4 0.000000 0.000000 0.000000 0.034200 0.000000 0.008190
# 5 0.002166 -0.006397 0.003988 0.000000 0.030835 0.000000
# 6 0.000000 0.000000 0.000000 0.008190 0.000000 0.037010
#
#
# Mechanical properties :
#
#
# Convention : Reuss Voigt Hill
#
# Bulk Modulus (GPa) = 47.28920 52.05449 49.67184
# Shear Modulus (GPa) = 26.73077 29.98933 28.36005
#
# Velocity S-wave (km/s) = 3.57787 3.78968 3.68530
# Velocity P-wave (km/s) = 6.30196 6.63908 6.47272
#
# Compressibility (1/GPa) = 0.02114648
#
# Stress axis : x y z
#
# Youngs Moduli (GPa) = 96.26641 43.95874 60.92045
#
# Poissons Ratio (x) = 0.14407 0.21671
# Poissons Ratio (y) = 0.31550 0.44884
# Poissons Ratio (z) = 0.34245 0.32387
#
# Static dielectric constant tensor:
#      x y z
#    x 4.354480 0.000000 -0.120380 
#    y 0.000000 3.737550 0.000000 
#    z -0.120380 0.000000 3.939120 
# 
# 
# High freq. dielectric constant tensor:
#      x y z
#    x 1.832080 0.000000 -0.001580 
#    y 0.000000 1.795820 0.000000 
#    z -0.001580 0.000000 1.826450 
# 
# From -- ./inp_files/51391.got.cif
#   From: 2010.03.12/outbox.cif.g09.slc.cpg/sg14_26_cif.got.tgz:51391.got - 2010.03.31 13:35:05.
