data_PCOD8126468
_publ_section_title
;
Structure prediction by ZEFSAII (Michael W. Deem and Ramdas Pophale) SiO2 
 PCOD8126468
Probable space group: P 21/C
;
_chemical_formula_sum "Si O2"
_cell_formula_units_Z 32
_cell_length_a 8.117825
_cell_length_b 24.814959
_cell_length_c 14.562523
_cell_angle_alpha 90.000000
_cell_angle_beta 149.151135
_cell_angle_gamma 90.000000
_cell_volume 1504.239274
_symmetry_space_group_name_H-M "P 21/C"
_symmetry_group_IT_number 14
_symmetry_cell_setting 'monoclinic'
loop_
_space_group_symop_operation_xyz
x,y,z
-x,1/2+y,1/2-z
-x,-y,-z
x,1/2-y,1/2+z
loop_
_atom_site_type_symbol
_atom_site_label
_atom_site_fract_x
_atom_site_fract_y
_atom_site_fract_z
Si Si1 0.827743 0.053478 0.450564
Si Si2 0.797845 0.394890 0.265309
Si Si3 0.727244 0.512833 0.194796
Si Si4 0.033365 0.825813 0.990503
Si Si5 0.931996 0.634237 0.069629
Si Si6 0.877652 0.628768 0.759894
Si Si7 0.154934 0.888777 0.869518
Si Si8 0.258675 0.215214 0.662358
O O1 0.473254 0.041134 0.319425
O O2 0.811265 0.094396 0.356467
O O3 0.041352 0.081192 0.631280
O O4 0.000000 0.000000 0.500000
O O5 0.890538 0.457995 0.309475
O O6 0.016077 0.364764 0.445639
O O7 0.862945 0.367908 0.197395
O O8 0.421056 0.392040 0.107576
O O9 0.017741 0.550598 0.299953
O O10 0.500000 0.500000 0.000000
O O11 0.366972 0.795635 0.162024
O O12 0.004972 0.860830 0.886124
O O13 0.766886 0.779601 0.852731
O O14 0.037983 0.644100 0.224408
O O15 0.923689 0.691495 0.014043
O O16 0.537360 0.612203 0.554158
O O17 0.878924 0.686855 0.811030
#
# Coordination Sequence:
#
# PCOD8126468 Si02
#       8
#     4   4   4   4   4   4   4   4
#     4  11  20  38  64  87 123 169 208 243 308 366
#     4  11  22  42  63  93 128 164 210 250 308 373
#     4  12  22  40  65  92 126 174 204 247 309 375
#     4  10  24  43  64  90 124 161 207 265 306 371
#     4  10  21  40  64  93 123 163 209 254 303 378
#     4  10  23  40  62  93 126 158 207 263 302 373
#     4  11  24  41  61  96 130 160 211 256 308 363
#     4   9  22  43  65  87 122 160 207 258 319 360
#
# _framework density 21.273212000000001
#
# number of rings (size 3 to 8) (size 9 to 14) (size 15 to 20)
#    0.000    1.500    3.750    0.750    0.000    7.000 
#    0.000    5.000    0.000    0.000    0.000    0.000 
#    0.000    0.000    0.000    0.000    0.000    0.000 
#
# Total GULP energy -396867.861163 kJ/mol
# GULP energy per Si atom -12402.120661 kJ/mol
# Density = 2.122479 g / cm^3
# Si number density = 21.273212 Si / 1000 Ang^3
#
#
#
# Elastic Constant Matrix: (Units=GPa)
#
#
# Indices 1 2 3 4 5 6 
#
# 1 102.0697 23.1087 23.9374 0.0000 -19.3976 0.0000
# 2 23.1087 104.2225 40.7559 0.0000 -10.0942 0.0000
# 3 23.9374 40.7559 76.8201 0.0000 -24.3423 0.0000
# 4 0.0000 0.0000 0.0000 34.5576 0.0000 1.6486
# 5 -19.3976 -10.0942 -24.3423 0.0000 33.4190 0.0000
# 6 0.0000 0.0000 0.0000 1.6486 0.0000 24.5119
#
#
#
# Elastic Compliance Matrix: (Units=1/GPa)
#
#
# Indices 1 2 3 4 5 6 
#
# 1 0.011426 -0.001625 -0.000978 0.000000 0.005429 0.000000
# 2 -0.001625 0.012383 -0.006730 0.000000 -0.002105 0.000000
# 3 -0.000978 -0.006730 0.020891 0.000000 0.012616 0.000000
# 4 0.000000 0.000000 0.000000 0.029030 0.000000 -0.001952
# 5 0.005429 -0.002105 0.012616 0.000000 0.041628 0.000000
# 6 0.000000 0.000000 0.000000 -0.001952 0.000000 0.040928
#
#
# Mechanical properties :
#
#
# Convention : Reuss Voigt Hill
#
# Bulk Modulus (GPa) = 38.41303 50.96850 44.69077
# Shear Modulus (GPa) = 27.22850 31.51838 29.37344
#
# Velocity S-wave (km/s) = 3.58151 3.85333 3.71990
# Velocity P-wave (km/s) = 5.93289 6.61880 6.28521
#
# Compressibility (1/GPa) = 0.02603283
#
# Stress axis : x y z
#
# Youngs Moduli (GPa) = 87.51761 80.75430 47.86837
#
# Poissons Ratio (x) = 0.13125 0.04681
# Poissons Ratio (y) = 0.14224 0.32218
# Poissons Ratio (z) = 0.08558 0.54352
#
# Static dielectric constant tensor:
#      x y z
#    x 4.083160 0.000000 -0.131380 
#    y 0.000000 3.907010 0.000000 
#    z -0.131380 0.000000 3.660020 
# 
# 
# High freq. dielectric constant tensor:
#      x y z
#    x 1.845440 0.000000 -0.007910 
#    y 0.000000 1.831460 0.000000 
#    z -0.007910 0.000000 1.823160 
# 
# From -- ./inp_files/42240.got.cif
#   From: 2010.03.12/outbox.cif.g09.slc.cpg/sg14_22_cif.got.tgz:42240.got - 2010.03.31 13:35:05.
