data_PCOD8126504
_publ_section_title
;
Structure prediction by ZEFSAII (Michael W. Deem and Ramdas Pophale) SiO2 
 PCOD8126504
Probable space group: P 21/C
;
_chemical_formula_sum "Si O2"
_cell_formula_units_Z 24
_cell_length_a 7.734788
_cell_length_b 18.503199
_cell_length_c 11.533851
_cell_angle_alpha 90.000000
_cell_angle_beta 141.982242
_cell_angle_gamma 90.000000
_cell_volume 1016.678827
_symmetry_space_group_name_H-M "P 21/C"
_symmetry_group_IT_number 14
_symmetry_cell_setting 'monoclinic'
loop_
_space_group_symop_operation_xyz
x,y,z
-x,1/2+y,1/2-z
-x,-y,-z
x,1/2-y,1/2+z
loop_
_atom_site_type_symbol
_atom_site_label
_atom_site_fract_x
_atom_site_fract_y
_atom_site_fract_z
Si Si1 0.024531 0.844545 0.040253
Si Si2 0.395377 0.721423 0.544056
Si Si3 0.989345 0.805482 0.636647
Si Si4 0.017941 0.339613 0.119216
Si Si5 0.710857 0.898952 0.664931
Si Si6 0.120591 0.951523 0.291297
O O1 0.109633 0.913224 0.161080
O O2 0.927451 0.777883 0.070527
O O3 0.290441 0.821748 0.102288
O O4 0.767016 0.866463 0.821552
O O5 0.733673 0.719072 0.725398
O O6 0.275022 0.685902 0.362494
O O7 0.273091 0.803639 0.485737
O O8 0.015134 0.854316 0.534825
O O9 0.731827 0.835932 0.578386
O O10 0.091489 0.412981 0.228455
O O11 0.416474 0.938829 0.511041
O O12 0.938640 0.963200 0.755287
#
# Coordination Sequence:
#
# PCOD8126504 Si02
#       6
#     4   4   4   4   4   4
#     4  10  21  40  66  89 128 169 219 265 316 387
#     4  10  23  39  59  98 128 164 215 272 317 374
#     4  10  22  40  64  93 128 164 219 266 318 373
#     4  11  24  37  64  95 131 168 212 270 323 379
#     4  10  24  43  65  94 133 175 209 268 324 386
#     4  11  23  41  64  96 134 170 217 258 330 390
#
# _framework density 23.606276000000001
#
# number of rings (size 3 to 8) (size 9 to 14) (size 15 to 20)
#    0.000    1.667    1.667    1.500    7.000    4.667 
#    0.000    3.333    0.000    0.000    0.000    0.000 
#    0.000    0.000    0.000    0.000    0.000    0.000 
#
# Total GULP energy -297559.488328 kJ/mol
# GULP energy per Si atom -12398.312014 kJ/mol
# Density = 2.355255 g / cm^3
# Si number density = 23.606276 Si / 1000 Ang^3
#
#
#
# Elastic Constant Matrix: (Units=GPa)
#
#
# Indices 1 2 3 4 5 6 
#
# 1 44.8629 16.9587 32.4076 0.0000 -16.2911 0.0000
# 2 16.9587 110.7921 27.3219 0.0000 -16.4857 0.0000
# 3 32.4076 27.3219 88.4957 0.0000 -23.6960 0.0000
# 4 0.0000 0.0000 0.0000 28.1262 0.0000 -4.0454
# 5 -16.2911 -16.4857 -23.6960 0.0000 44.3055 0.0000
# 6 0.0000 0.0000 0.0000 -4.0454 0.0000 26.7676
#
#
#
# Elastic Compliance Matrix: (Units=1/GPa)
#
#
# Indices 1 2 3 4 5 6 
#
# 1 0.032044 -0.001636 -0.009614 0.000000 0.006032 0.000000
# 2 -0.001636 0.010069 -0.001946 0.000000 0.002104 0.000000
# 3 -0.009614 -0.001946 0.016668 0.000000 0.004655 0.000000
# 4 0.000000 0.000000 0.000000 0.036344 0.000000 0.005493
# 5 0.006032 0.002104 0.004655 0.000000 0.028061 0.000000
# 6 0.000000 0.000000 0.000000 0.005493 0.000000 0.038189
#
#
# Mechanical properties :
#
#
# Convention : Reuss Voigt Hill
#
# Bulk Modulus (GPa) = 30.87583 44.16968 37.52276
# Shear Modulus (GPa) = 25.18058 31.00404 28.09231
#
# Velocity S-wave (km/s) = 3.26957 3.62799 3.45343
# Velocity P-wave (km/s) = 5.23080 6.02506 5.64193
#
# Compressibility (1/GPa) = 0.03238779
#
# Stress axis : x y z
#
# Youngs Moduli (GPa) = 31.20689 99.31056 59.99434
#
# Poissons Ratio (x) = 0.16252 0.57681
# Poissons Ratio (y) = 0.05107 0.11676
# Poissons Ratio (z) = 0.30004 0.19327
#
# Static dielectric constant tensor:
#      x y z
#    x 4.081510 0.000000 -0.312460 
#    y 0.000000 4.587690 0.000000 
#    z -0.312460 0.000000 4.293240 
# 
# 
# High freq. dielectric constant tensor:
#      x y z
#    x 1.918280 0.000000 -0.024530 
#    y 0.000000 1.926500 0.000000 
#    z -0.024530 0.000000 1.944780 
# 
# From -- ./inp_files/26699.got.cif
#   From: 2010.03.12/outbox.cif.g09.slc.cpg/sg14_14_cif.got.tgz:26699.got - 2010.03.31 13:35:05.
