data_PCOD8126868
_publ_section_title
;
Structure prediction by ZEFSAII (Michael W. Deem and Ramdas Pophale) SiO2 
 PCOD8126868
Probable space group: P 21/C
;
_chemical_formula_sum "Si O2"
_cell_formula_units_Z 28
_cell_length_a 21.347172
_cell_length_b 9.133090
_cell_length_c 9.543345
_cell_angle_alpha 90.000000
_cell_angle_beta 46.518360
_cell_angle_gamma 90.000000
_cell_volume 1350.059594
_symmetry_space_group_name_H-M "P 21/C"
_symmetry_group_IT_number 14
_symmetry_cell_setting 'monoclinic'
loop_
_space_group_symop_operation_xyz
x,y,z
-x,1/2+y,1/2-z
-x,-y,-z
x,1/2-y,1/2+z
loop_
_atom_site_type_symbol
_atom_site_label
_atom_site_fract_x
_atom_site_fract_y
_atom_site_fract_z
Si Si1 0.585068 0.598245 0.372646
Si Si2 0.947564 0.064965 0.952795
Si Si3 0.168998 0.348045 0.853831
Si Si4 0.247535 0.603403 0.182932
Si Si5 0.937395 0.673403 0.258658
Si Si6 0.655659 0.814177 0.470390
Si Si7 0.259540 0.607771 0.837937
O O1 0.500000 0.500000 0.500000
O O2 0.584564 0.737391 0.479347
O O3 0.608342 0.673148 0.190812
O O4 0.655917 0.486371 0.317365
O O5 0.975640 0.231193 0.885878
O O6 0.968621 0.978327 0.777793
O O7 0.847021 0.046427 0.135602
O O8 0.000000 0.000000 0.000000
O O9 0.099261 0.355752 0.838551
O O10 0.257487 0.282491 0.654495
O O11 0.180846 0.511825 0.896993
O O12 0.135235 0.249226 0.033378
O O13 0.271815 0.743164 0.235902
O O14 0.316709 0.478289 0.118353
O O15 0.247686 0.644204 0.019253
#
# Coordination Sequence:
#
# PCOD8126868 Si02
#       7
#     4   4   4   4   4   4   4
#     4  10  23  43  69 105 131 167 213 265 328 394
#     4  12  26  42  60  94 129 170 228 280 338 382
#     4  11  22  43  65  93 122 181 221 268 326 402
#     4  11  24  42  63  93 129 176 222 270 323 396
#     4  12  25  40  66  89 131 170 226 280 340 373
#     4  10  21  43  70  92 134 175 215 258 324 398
#     4  10  25  40  67  95 131 166 225 267 322 397
#
# _framework density 20.739825
#
# number of rings (size 3 to 8) (size 9 to 14) (size 15 to 20)
#    0.000    1.143    2.857    3.429    6.000    4.000 
#    0.000    1.429    0.000    0.000    0.000    0.000 
#    0.000    0.000    0.000    0.000    0.000    0.000 
#
# Total GULP energy -347201.592939 kJ/mol
# GULP energy per Si atom -12400.056891 kJ/mol
# Density = 2.069262 g / cm^3
# Si number density = 20.739825 Si / 1000 Ang^3
#
#
#
# Elastic Constant Matrix: (Units=GPa)
#
#
# Indices 1 2 3 4 5 6 
#
# 1 107.8338 71.3698 41.7658 0.0000 18.3372 0.0000
# 2 71.3698 135.8826 37.6586 0.0000 25.3800 0.0000
# 3 41.7658 37.6586 75.3905 0.0000 13.5779 0.0000
# 4 0.0000 0.0000 0.0000 37.5301 0.0000 4.0017
# 5 18.3372 25.3800 13.5779 0.0000 27.0221 0.0000
# 6 0.0000 0.0000 0.0000 4.0017 0.0000 50.3336
#
#
#
# Elastic Compliance Matrix: (Units=1/GPa)
#
#
# Indices 1 2 3 4 5 6 
#
# 1 0.015988 -0.006570 -0.005204 0.000000 -0.002064 0.000000
# 2 -0.006570 0.012408 -0.001388 0.000000 -0.006499 0.000000
# 3 -0.005204 -0.001388 0.017559 0.000000 -0.003988 0.000000
# 4 0.000000 0.000000 0.000000 0.026873 0.000000 -0.002137
# 5 -0.002064 -0.006499 -0.003988 0.000000 0.046515 0.000000
# 6 0.000000 0.000000 0.000000 -0.002137 0.000000 0.020037
#
#
# Mechanical properties :
#
#
# Convention : Reuss Voigt Hill
#
# Bulk Modulus (GPa) = 50.93779 68.96616 59.95197
# Shear Modulus (GPa) = 29.02777 34.19801 31.61289
#
# Velocity S-wave (km/s) = 3.74520 4.06508 3.90841
# Velocity P-wave (km/s) = 6.58147 7.44032 7.02403
#
# Compressibility (1/GPa) = 0.01963179
#
# Stress axis : x y z
#
# Youngs Moduli (GPa) = 62.54547 80.58999 56.95148
#
# Poissons Ratio (x) = 0.52946 0.29637
# Poissons Ratio (y) = 0.41091 0.07906
# Poissons Ratio (z) = 0.32548 0.11187
#
# Static dielectric constant tensor:
#      x y z
#    x 3.797390 0.000000 0.077570 
#    y 0.000000 3.986110 0.000000 
#    z 0.077570 0.000000 3.886000 
# 
# 
# High freq. dielectric constant tensor:
#      x y z
#    x 1.804990 0.000000 0.011460 
#    y 0.000000 1.823800 0.000000 
#    z 0.011460 0.000000 1.814730 
# 
# From -- ./inp_files/17603.got.cif
#   From: 2010.03.12/outbox.cif.g09.slc.cpg/sg14_9_cif.got.tgz:17603.got - 2010.03.31 13:35:05.
