data_PCOD8126374
_publ_section_title
;
Structure prediction by ZEFSAII (Michael W. Deem and Ramdas Pophale) SiO2 
 PCOD8126374
Probable space group: P 21/C
;
_chemical_formula_sum "Si O2"
_cell_formula_units_Z 32
_cell_length_a 15.892620
_cell_length_b 11.384230
_cell_length_c 15.199914
_cell_angle_alpha 90.000000
_cell_angle_beta 31.673500
_cell_angle_gamma 90.000000
_cell_volume 1443.989993
_symmetry_space_group_name_H-M "P 21/C"
_symmetry_group_IT_number 14
_symmetry_cell_setting 'monoclinic'
loop_
_space_group_symop_operation_xyz
x,y,z
-x,1/2+y,1/2-z
-x,-y,-z
x,1/2-y,1/2+z
loop_
_atom_site_type_symbol
_atom_site_label
_atom_site_fract_x
_atom_site_fract_y
_atom_site_fract_z
Si Si1 0.671510 0.023740 0.993879
Si Si2 0.701592 0.984468 0.657554
Si Si3 0.663290 0.163377 0.835180
Si Si4 0.298994 0.017318 0.838289
Si Si5 0.834246 0.390755 0.696467
Si Si6 0.160150 0.243860 0.912248
Si Si7 0.341270 0.033352 0.501783
Si Si8 0.685958 0.715091 0.404331
O O1 0.746419 0.894856 0.908153
O O2 0.735512 0.114629 0.863590
O O3 0.723992 0.048976 0.047873
O O4 0.481615 0.041336 0.156502
O O5 0.819781 0.875104 0.569216
O O6 0.713208 0.015941 0.544516
O O7 0.750435 0.093529 0.677142
O O8 0.692560 0.300899 0.800948
O O9 0.471314 0.157564 0.000810
O O10 0.281383 0.158576 0.857537
O O11 0.156610 0.971129 0.899943
O O12 0.475390 0.000262 0.640470
O O13 0.784427 0.474388 0.820618
O O14 0.984894 0.309308 0.584287
O O15 0.191803 0.245511 0.779753
O O16 0.336378 0.174950 0.510789
#
# Coordination Sequence:
#
# PCOD8126374 Si02
#       8
#     4   4   4   4   4   4   4   4
#     4  10  21  39  69  99 120 165 222 272 319 372
#     4  10  22  41  68  96 127 166 216 275 316 383
#     4  11  21  42  66  96 126 167 220 259 322 380
#     4  11  23  41  64  93 129 167 222 268 315 380
#     4  12  26  40  62  96 133 177 208 261 324 390
#     4  12  23  42  66  91 131 173 212 260 333 385
#     4  11  23  41  68  97 126 169 219 272 318 373
#     4  11  19  40  70  92 125 164 217 267 323 380
#
# _framework density 22.160817000000002
#
# number of rings (size 3 to 8) (size 9 to 14) (size 15 to 20)
#    0.000    1.000    5.000    3.000    0.000    1.500 
#    2.250    2.500    0.000    0.000    0.000    0.000 
#    0.000    0.000    0.000    0.000    0.000    0.000 
#
# Total GULP energy -396631.669914 kJ/mol
# GULP energy per Si atom -12394.739685 kJ/mol
# Density = 2.211038 g / cm^3
# Si number density = 22.160817 Si / 1000 Ang^3
#
#
#
# Elastic Constant Matrix: (Units=GPa)
#
#
# Indices 1 2 3 4 5 6 
#
# 1 71.1322 22.1137 40.9368 0.0000 26.5705 0.0000
# 2 22.1137 100.4941 25.6995 0.0000 13.2794 0.0000
# 3 40.9368 25.6995 66.7484 0.0000 16.3752 0.0000
# 4 0.0000 0.0000 0.0000 30.6167 0.0000 -2.6030
# 5 26.5705 13.2794 16.3752 0.0000 36.6569 0.0000
# 6 0.0000 0.0000 0.0000 -2.6030 0.0000 27.6846
#
#
#
# Elastic Compliance Matrix: (Units=1/GPa)
#
#
# Indices 1 2 3 4 5 6 
#
# 1 0.026619 -0.000843 -0.012738 0.000000 -0.013299 0.000000
# 2 -0.000843 0.011249 -0.003329 0.000000 -0.001977 0.000000
# 3 -0.012738 -0.003329 0.024163 0.000000 -0.000355 0.000000
# 4 0.000000 0.000000 0.000000 0.032925 0.000000 0.003096
# 5 -0.013299 -0.001977 -0.000355 0.000000 0.037794 0.000000
# 6 0.000000 0.000000 0.000000 0.003096 0.000000 0.036412
#
#
# Mechanical properties :
#
#
# Convention : Reuss Voigt Hill
#
# Bulk Modulus (GPa) = 35.44809 46.20829 40.82819
# Shear Modulus (GPa) = 23.54205 28.96663 26.25434
#
# Velocity S-wave (km/s) = 3.26287 3.61932 3.44571
# Velocity P-wave (km/s) = 5.49779 6.19375 5.85612
#
# Compressibility (1/GPa) = 0.02821026
#
# Stress axis : x y z
#
# Youngs Moduli (GPa) = 37.56735 88.89766 41.38579
#
# Poissons Ratio (x) = 0.07490 0.52719
# Poissons Ratio (y) = 0.03165 0.13778
# Poissons Ratio (z) = 0.47855 0.29597
#
# Static dielectric constant tensor:
#      x y z
#    x 3.864180 0.000000 0.268180 
#    y 0.000000 4.101140 0.000000 
#    z 0.268180 0.000000 3.790280 
# 
# 
# High freq. dielectric constant tensor:
#      x y z
#    x 1.860680 0.000000 0.020680 
#    y 0.000000 1.883200 0.000000 
#    z 0.020680 0.000000 1.854760 
# 
# From -- ./inp_files/48986.got.cif
#   From: 2010.03.12/outbox.cif.g09.slc.cpg/sg14_25_cif.got.tgz:48986.got - 2010.03.31 13:35:05.
