data_PCOD8126758
_publ_section_title
;
Structure prediction by ZEFSAII (Michael W. Deem and Ramdas Pophale) SiO2 
 PCOD8126758
Probable space group: P 21/C
;
_chemical_formula_sum "Si O2"
_cell_formula_units_Z 24
_cell_length_a 10.670789
_cell_length_b 6.273107
_cell_length_c 17.469426
_cell_angle_alpha 90.000000
_cell_angle_beta 102.126321
_cell_angle_gamma 90.000000
_cell_volume 1143.293229
_symmetry_space_group_name_H-M "P 21/C"
_symmetry_group_IT_number 14
_symmetry_cell_setting 'monoclinic'
loop_
_space_group_symop_operation_xyz
x,y,z
-x,1/2+y,1/2-z
-x,-y,-z
x,1/2-y,1/2+z
loop_
_atom_site_type_symbol
_atom_site_label
_atom_site_fract_x
_atom_site_fract_y
_atom_site_fract_z
Si Si1 0.023774 0.284664 0.153478
Si Si2 0.631321 0.141212 0.091332
Si Si3 0.650087 0.680945 0.464667
Si Si4 0.179424 0.918700 0.482075
Si Si5 0.180829 0.627101 0.252580
Si Si6 0.823587 0.093183 0.889717
O O1 0.145472 0.408341 0.204035
O O2 0.944232 0.448665 0.088898
O O3 0.938853 0.195729 0.211459
O O4 0.066220 0.084096 0.107099
O O5 0.490927 0.249040 0.082678
O O6 0.713677 0.307428 0.054863
O O7 0.691495 0.091504 0.181689
O O8 0.630492 0.915781 0.046905
O O9 0.696213 0.505764 0.410006
O O10 0.758310 0.863334 0.479852
O O11 0.129723 0.780200 0.547486
O O12 0.213548 0.812618 0.197136
#
# Coordination Sequence:
#
# PCOD8126758 Si02
#       6
#     4   4   4   4   4   4
#     4  11  23  39  63  89 125 164 207 256 315 374
#     4   9  22  41  65  93 121 163 211 255 308 372
#     4  10  21  42  65  91 123 163 211 258 304 371
#     4  10  22  39  67  92 122 163 207 258 310 371
#     4  11  23  39  61  89 124 166 204 256 315 370
#     4  11  23  40  57  95 126 160 211 255 311 370
#
# _framework density 20.991989
#
# number of rings (size 3 to 8) (size 9 to 14) (size 15 to 20)
#    0.000    1.667    1.667    2.000    2.333    4.000 
#    6.000    0.000    0.000    0.000    0.000    0.000 
#    0.000    0.000    0.000    0.000    0.000    0.000 
#
# Total GULP energy -297598.816705 kJ/mol
# GULP energy per Si atom -12399.950696 kJ/mol
# Density = 2.094421 g / cm^3
# Si number density = 20.991989 Si / 1000 Ang^3
#
#
#
# Elastic Constant Matrix: (Units=GPa)
#
#
# Indices 1 2 3 4 5 6 
#
# 1 75.4408 33.5498 65.7084 0.0000 7.7633 0.0000
# 2 33.5498 92.2476 44.7615 0.0000 7.2979 0.0000
# 3 65.7084 44.7615 126.4300 0.0000 10.9732 0.0000
# 4 0.0000 0.0000 0.0000 32.8226 0.0000 -3.0098
# 5 7.7633 7.2979 10.9732 0.0000 35.4192 0.0000
# 6 0.0000 0.0000 0.0000 -3.0098 0.0000 30.6277
#
#
#
# Elastic Compliance Matrix: (Units=1/GPa)
#
#
# Indices 1 2 3 4 5 6 
#
# 1 0.025106 -0.003328 -0.011768 0.000000 -0.001171 0.000000
# 2 -0.003328 0.013588 -0.002982 0.000000 -0.001147 0.000000
# 3 -0.011768 -0.002982 0.015213 0.000000 -0.001519 0.000000
# 4 0.000000 0.000000 0.000000 0.030744 0.000000 0.003021
# 5 -0.001171 -0.001147 -0.001519 0.000000 0.029197 0.000000
# 6 0.000000 0.000000 0.000000 0.003021 0.000000 0.032947
#
#
# Mechanical properties :
#
#
# Convention : Reuss Voigt Hill
#
# Bulk Modulus (GPa) = 56.33234 64.68418 60.50826
# Shear Modulus (GPa) = 26.47345 29.78048 28.12696
#
# Velocity S-wave (km/s) = 3.55508 3.77060 3.66442
# Velocity P-wave (km/s) = 6.61399 7.05954 6.84040
#
# Compressibility (1/GPa) = 0.01775179
#
# Stress axis : x y z
#
# Youngs Moduli (GPa) = 39.83111 73.59294 65.73204
#
# Poissons Ratio (x) = 0.24491 0.77355
# Poissons Ratio (y) = 0.13255 0.19600
# Poissons Ratio (z) = 0.46874 0.21943
#
# Static dielectric constant tensor:
#      x y z
#    x 3.762160 0.000000 -0.089010 
#    y 0.000000 3.703300 0.000000 
#    z -0.089010 0.000000 3.974230 
# 
# 
# High freq. dielectric constant tensor:
#      x y z
#    x 1.821920 0.000000 -0.010490 
#    y 0.000000 1.815360 0.000000 
#    z -0.010490 0.000000 1.829100 
# 
# From -- ./inp_files/56615.got.cif
#   From: 2010.03.12/outbox.cif.g09.slc.cpg/sg14_29_cif.got.tgz:56615.got - 2010.03.31 13:35:05.
