data_PCOD8126729
_publ_section_title
;
Structure prediction by ZEFSAII (Michael W. Deem and Ramdas Pophale) SiO2 
 PCOD8126729
Probable space group: P 21/C
;
_chemical_formula_sum "Si O2"
_cell_formula_units_Z 28
_cell_length_a 6.671622
_cell_length_b 12.471986
_cell_length_c 18.011160
_cell_angle_alpha 90.000000
_cell_angle_beta 61.696964
_cell_angle_gamma 90.000000
_cell_volume 1319.515601
_symmetry_space_group_name_H-M "P 21/C"
_symmetry_group_IT_number 14
_symmetry_cell_setting 'monoclinic'
loop_
_space_group_symop_operation_xyz
x,y,z
-x,1/2+y,1/2-z
-x,-y,-z
x,1/2-y,1/2+z
loop_
_atom_site_type_symbol
_atom_site_label
_atom_site_fract_x
_atom_site_fract_y
_atom_site_fract_z
Si Si1 0.355792 0.167979 0.519573
Si Si2 0.008147 0.674826 0.472987
Si Si3 0.001891 0.962794 0.111191
Si Si4 0.543923 0.572020 0.765924
Si Si5 0.486661 0.279154 0.645401
Si Si6 0.290807 0.537970 0.121940
Si Si7 0.811316 0.518376 0.269764
O O1 0.173709 0.228296 0.499028
O O2 0.409111 0.246712 0.577364
O O3 0.588745 0.142940 0.433678
O O4 0.256263 0.054686 0.566105
O O5 0.050798 0.640170 0.550948
O O6 0.917657 0.571517 0.443666
O O7 0.241950 0.715185 0.396669
O O8 0.733371 0.968232 0.174879
O O9 0.141736 0.951637 0.163242
O O10 0.594326 0.694648 0.778545
O O11 0.544981 0.502501 0.841008
O O12 0.296989 0.562952 0.770857
O O13 0.372345 0.390396 0.684925
O O14 0.044351 0.569437 0.197517
#
# Coordination Sequence:
#
# PCOD8126729 Si02
#       7
#     4   4   4   4   4   4   4
#     4  10  21  42  62  94 126 165 213 265 312 384
#     4  11  22  40  62  91 126 166 210 263 312 387
#     4  10  23  40  61  90 128 164 211 261 320 374
#     4  10  22  41  61  94 125 164 212 266 316 382
#     4  11  23  37  66  92 122 172 213 253 326 375
#     4   9  22  40  66  90 127 165 211 267 320 369
#     4  11  21  42  64  89 129 167 210 269 316 380
#
# _framework density 21.219908
#
# number of rings (size 3 to 8) (size 9 to 14) (size 15 to 20)
#    0.000    1.714    2.857    0.857    0.000    5.143 
#    0.000    4.286    0.000    0.000    0.000    0.000 
#    0.000    0.000    0.000    0.000    0.000    0.000 
#
# Total GULP energy -347269.980334 kJ/mol
# GULP energy per Si atom -12402.499298 kJ/mol
# Density = 2.117161 g / cm^3
# Si number density = 21.219908 Si / 1000 Ang^3
#
#
#
# Elastic Constant Matrix: (Units=GPa)
#
#
# Indices 1 2 3 4 5 6 
#
# 1 126.8674 46.2093 40.5904 0.0000 5.1588 0.0000
# 2 46.2093 83.6533 37.6156 0.0000 2.2814 0.0000
# 3 40.5904 37.6156 101.4387 0.0000 1.7860 0.0000
# 4 0.0000 0.0000 0.0000 22.4551 0.0000 -3.8228
# 5 5.1588 2.2814 1.7860 0.0000 28.2981 0.0000
# 6 0.0000 0.0000 0.0000 -3.8228 0.0000 33.3465
#
#
#
# Elastic Compliance Matrix: (Units=1/GPa)
#
#
# Indices 1 2 3 4 5 6 
#
# 1 0.010394 -0.004614 -0.002424 0.000000 -0.001370 0.000000
# 2 -0.004614 0.016414 -0.004236 0.000000 -0.000215 0.000000
# 3 -0.002424 -0.004236 0.012399 0.000000 0.000001 0.000000
# 4 0.000000 0.000000 0.000000 0.045420 0.000000 0.005207
# 5 -0.001370 -0.000215 0.000001 0.000000 0.035605 0.000000
# 6 0.000000 0.000000 0.000000 0.005207 0.000000 0.030585
#
#
# Mechanical properties :
#
#
# Convention : Reuss Voigt Hill
#
# Bulk Modulus (GPa) = 60.03259 62.31001 61.17130
# Shear Modulus (GPa) = 27.94563 29.32287 28.63425
#
# Velocity S-wave (km/s) = 3.63292 3.72137 3.67741
# Velocity P-wave (km/s) = 6.77861 6.92044 6.84989
#
# Compressibility (1/GPa) = 0.01665762
#
# Stress axis : x y z
#
# Youngs Moduli (GPa) = 96.20766 60.92434 80.65125
#
# Poissons Ratio (x) = 0.28112 0.19550
# Poissons Ratio (y) = 0.44393 0.34167
# Poissons Ratio (z) = 0.23321 0.25810
#
# Static dielectric constant tensor:
#      x y z
#    x 3.741490 0.000000 0.052140 
#    y 0.000000 3.631190 0.000000 
#    z 0.052140 0.000000 3.945900 
# 
# 
# High freq. dielectric constant tensor:
#      x y z
#    x 1.830600 0.000000 0.002910 
#    y 0.000000 1.820210 0.000000 
#    z 0.002910 0.000000 1.838390 
# 
# From -- ./inp_files/53286.got.cif
#   From: 2010.03.12/outbox.cif.g09.slc.cpg/sg14_27_cif.got.tgz:53286.got - 2010.03.31 13:35:05.
