data_PCOD8126464
_publ_section_title
;
Structure prediction by ZEFSAII (Michael W. Deem and Ramdas Pophale) SiO2 
 PCOD8126464
Probable space group: P 21/C
;
_chemical_formula_sum "Si O2"
_cell_formula_units_Z 24
_cell_length_a 10.755203
_cell_length_b 21.408065
_cell_length_c 11.935333
_cell_angle_alpha 90.000000
_cell_angle_beta 154.306000
_cell_angle_gamma 90.000000
_cell_volume 1191.473821
_symmetry_space_group_name_H-M "P 21/C"
_symmetry_group_IT_number 14
_symmetry_cell_setting 'monoclinic'
loop_
_space_group_symop_operation_xyz
x,y,z
-x,1/2+y,1/2-z
-x,-y,-z
x,1/2-y,1/2+z
loop_
_atom_site_type_symbol
_atom_site_label
_atom_site_fract_x
_atom_site_fract_y
_atom_site_fract_z
Si Si1 0.582546 0.943367 0.749996
Si Si2 0.002298 0.782842 0.249999
Si Si3 0.198832 0.611632 0.749996
Si Si4 0.614011 0.162351 0.250001
Si Si5 0.095190 0.643307 0.249997
Si Si6 0.524065 0.088155 0.750002
O O1 0.414909 0.928617 0.500156
O O2 0.456467 0.903591 0.749997
O O3 0.546669 0.014869 0.750003
O O4 0.914584 0.928615 0.999827
O O5 0.130442 0.821715 0.249999
O O6 0.170492 0.797576 0.499877
O O7 0.033170 0.710666 0.249995
O O8 0.670739 0.797577 0.000126
O O9 0.345485 0.625280 0.750000
O O10 0.757888 0.148081 0.250002
O O11 0.305287 0.605354 0.500382
O O12 0.804519 0.605354 0.999613
#
# Coordination Sequence:
#
# PCOD8126464 Si02
#       6
#     4   4   4   4   4   4
#     4  10  21  41  67  88 128 163 205 254 303 364
#     4  10  23  40  63  82 121 164 205 257 299 367
#     4  10  21  40  64  92 118 169 206 254 303 352
#     4  10  23  44  61  89 120 167 206 245 317 363
#     4  12  26  38  61  93 125 162 201 258 307 368
#     4  12  24  39  62 100 124 159 207 254 309 360
#
# _framework density 20.14312
#
# number of rings (size 3 to 8) (size 9 to 14) (size 15 to 20)
#    0.000    1.333    0.000    5.000    4.667    1.333 
#    0.000    0.000    0.000    0.000    0.000    0.000 
#    0.000    0.000    0.000    0.000    0.000    0.000 
#
# Total GULP energy -297774.170932 kJ/mol
# GULP energy per Si atom -12407.257122 kJ/mol
# Density = 2.009727 g / cm^3
# Si number density = 20.143120 Si / 1000 Ang^3
#
#
#
# Elastic Constant Matrix: (Units=GPa)
#
#
# Indices 1 2 3 4 5 6 
#
# 1 121.8122 -19.7069 36.8537 0.0000 -1.3996 0.0000
# 2 -19.7069 40.5529 6.6506 0.0000 1.9391 0.0000
# 3 36.8537 6.6506 170.3278 0.0000 4.9681 0.0000
# 4 0.0000 0.0000 0.0000 16.4121 0.0000 -0.1640
# 5 -1.3996 1.9391 4.9681 0.0000 33.4511 0.0000
# 6 0.0000 0.0000 0.0000 -0.1640 0.0000 18.6424
#
#
#
# Elastic Compliance Matrix: (Units=1/GPa)
#
#
# Indices 1 2 3 4 5 6 
#
# 1 0.009740 0.005092 -0.002320 0.000000 0.000457 0.000000
# 2 0.005092 0.027536 -0.002146 0.000000 -0.001064 0.000000
# 3 -0.002320 -0.002146 0.006484 0.000000 -0.000936 0.000000
# 4 0.000000 0.000000 0.000000 0.060936 0.000000 0.000536
# 5 0.000457 -0.001064 -0.000936 0.000000 0.030114 0.000000
# 6 0.000000 0.000000 0.000000 0.000536 0.000000 0.053646
#
#
# Mechanical properties :
#
#
# Convention : Reuss Voigt Hill
#
# Bulk Modulus (GPa) = 22.21564 42.25417 32.23491
# Shear Modulus (GPa) = 24.72699 34.29416 29.51057
#
# Velocity S-wave (km/s) = 3.50746 4.13064 3.83174
# Velocity P-wave (km/s) = 5.23984 6.61605 5.96775
#
# Compressibility (1/GPa) = 0.04501333
#
# Stress axis : x y z
#
# Youngs Moduli (GPa) = 102.66768 36.31559 154.22570
#
# Poissons Ratio (x) = -0.18491 0.35774
# Poissons Ratio (y) = -0.52277 0.33095
# Poissons Ratio (z) = 0.23815 0.07793
#
# Static dielectric constant tensor:
#      x y z
#    x 3.727010 0.000000 0.016020 
#    y 0.000000 3.657660 0.000000 
#    z 0.016020 0.000000 3.944340 
# 
# 
# High freq. dielectric constant tensor:
#      x y z
#    x 1.793940 0.000000 0.001320 
#    y 0.000000 1.793530 0.000000 
#    z 0.001320 0.000000 1.811800 
# 
# From -- ./inp_files/21638.got.cif
#   From: 2010.03.12/outbox.cif.g09.slc.cpg/sg14_11_cif.got.tgz:21638.got - 2010.03.31 13:35:05.
