data_PCOD8126908
_publ_section_title
;
Structure prediction by ZEFSAII (Michael W. Deem and Ramdas Pophale) SiO2 
 PCOD8126908
Probable space group: P 21/C
;
_chemical_formula_sum "Si O2"
_cell_formula_units_Z 32
_cell_length_a 11.856945
_cell_length_b 8.525315
_cell_length_c 31.019923
_cell_angle_alpha 90.000000
_cell_angle_beta 153.257474
_cell_angle_gamma 90.000000
_cell_volume 1410.974128
_symmetry_space_group_name_H-M "P 21/C"
_symmetry_group_IT_number 14
_symmetry_cell_setting 'monoclinic'
loop_
_space_group_symop_operation_xyz
x,y,z
-x,1/2+y,1/2-z
-x,-y,-z
x,1/2-y,1/2+z
loop_
_atom_site_type_symbol
_atom_site_label
_atom_site_fract_x
_atom_site_fract_y
_atom_site_fract_z
Si Si1 0.183745 0.160938 0.875760
Si Si2 0.687618 0.445207 0.508842
Si Si3 0.857487 0.361801 0.473095
Si Si4 0.939942 0.775339 0.313343
Si Si5 0.639106 0.701408 0.847474
Si Si6 0.454363 0.443899 0.274403
Si Si7 0.708472 0.998150 0.606989
Si Si8 0.342085 0.992242 0.315192
O O1 0.136540 0.342023 0.850450
O O2 0.927581 0.083530 0.775255
O O3 0.252743 0.116388 0.949364
O O4 0.397671 0.093690 0.917273
O O5 0.741942 0.436051 0.476975
O O6 0.863433 0.319895 0.591623
O O7 0.637454 0.325053 0.363753
O O8 0.000000 0.500000 0.500000
O O9 0.054714 0.217538 0.547599
O O10 0.825639 0.912593 0.304140
O O11 0.705916 0.669434 0.217500
O O12 0.098187 0.855773 0.328920
O O13 0.536079 0.599342 0.772614
O O14 0.544984 0.607100 0.857437
O O15 0.520457 0.874334 0.804069
O O16 0.500000 0.000000 0.500000
O O17 0.564339 0.997383 0.603566
#
# Coordination Sequence:
#
# PCOD8126908 Si02
#       8
#     4   4   4   4   4   4   4   4
#     4  10  23  43  70  99 137 188 231 286 356 425
#     4  10  21  44  70  99 137 182 232 288 354 421
#     4  10  24  42  72 102 141 186 238 288 359 429
#     4  11  23  44  68  96 139 183 226 300 350 419
#     4  11  24  49  67 106 140 190 241 297 357 431
#     4  11  24  43  73  99 140 188 242 291 358 424
#     4  12  25  42  65 105 140 175 236 294 353 420
#     4  11  26  44  71  95 144 187 236 289 358 427
#
# _framework density 22.679366999999999
#
# number of rings (size 3 to 8) (size 9 to 14) (size 15 to 20)
#    0.000    1.250    2.500    2.250    8.750    2.000 
#    2.250    1.250    0.000    0.000    0.000    0.000 
#    0.000    0.000    0.000    0.000    0.000    0.000 
#
# Total GULP energy -396564.868942 kJ/mol
# GULP energy per Si atom -12392.652154 kJ/mol
# Density = 2.262775 g / cm^3
# Si number density = 22.679367 Si / 1000 Ang^3
#
#
#
# Elastic Constant Matrix: (Units=GPa)
#
#
# Indices 1 2 3 4 5 6 
#
# 1 141.0477 29.7120 50.8323 0.0000 -11.3882 0.0000
# 2 29.7120 95.9219 15.1296 0.0000 -5.8176 0.0000
# 3 50.8323 15.1296 70.9414 0.0000 -14.3114 0.0000
# 4 0.0000 0.0000 0.0000 22.5643 0.0000 7.4904
# 5 -11.3882 -5.8176 -14.3114 0.0000 36.9524 0.0000
# 6 0.0000 0.0000 0.0000 7.4904 0.0000 39.5807
#
#
#
# Elastic Compliance Matrix: (Units=1/GPa)
#
#
# Indices 1 2 3 4 5 6 
#
# 1 0.009923 -0.002015 -0.006647 0.000000 0.000167 0.000000
# 2 -0.002015 0.011223 -0.000779 0.000000 0.000844 0.000000
# 3 -0.006647 -0.000779 0.020163 0.000000 0.005638 0.000000
# 4 0.000000 0.000000 0.000000 0.047289 0.000000 -0.008949
# 5 0.000167 0.000844 0.005638 0.000000 0.029430 0.000000
# 6 0.000000 0.000000 0.000000 -0.008949 0.000000 0.026958
#
#
# Mechanical properties :
#
#
# Convention : Reuss Voigt Hill
#
# Bulk Modulus (GPa) = 44.59093 55.47318 50.03205
# Shear Modulus (GPa) = 29.18100 33.96861 31.57480
#
# Velocity S-wave (km/s) = 3.59092 3.87431 3.73530
# Velocity P-wave (km/s) = 6.07429 6.67282 6.38058
#
# Compressibility (1/GPa) = 0.02242609
#
# Stress axis : x y z
#
# Youngs Moduli (GPa) = 100.77292 89.09882 49.59691
#
# Poissons Ratio (x) = 0.17956 0.32967
# Poissons Ratio (y) = 0.20308 0.03865
# Poissons Ratio (z) = 0.66984 0.06944
#
# Static dielectric constant tensor:
#      x y z
#    x 4.408290 0.000000 0.300140 
#    y 0.000000 1.494570 0.000000 
#    z 0.300140 0.000000 4.704500 
# 
# 
# High freq. dielectric constant tensor:
#      x y z
#    x 1.902740 0.000000 0.003140 
#    y 0.000000 1.890950 0.000000 
#    z 0.003140 0.000000 1.898670 
# 
# From -- ./inp_files/80014.got.cif
#   From: 2010.03.12/outbox.cif.g09.slc.cpg/sg14_41_cif.got.tgz:80014.got - 2010.03.31 13:35:05.
