data_PCOD8126047
_publ_section_title
;
Structure prediction by ZEFSAII (Michael W. Deem and Ramdas Pophale) SiO2 
 PCOD8126047
Probable space group: P 21/C
;
_chemical_formula_sum "Si O2"
_cell_formula_units_Z 32
_cell_length_a 22.584424
_cell_length_b 9.713730
_cell_length_c 18.782555
_cell_angle_alpha 90.000000
_cell_angle_beta 156.763982
_cell_angle_gamma 90.000000
_cell_volume 1625.617377
_symmetry_space_group_name_H-M "P 21/C"
_symmetry_group_IT_number 14
_symmetry_cell_setting 'monoclinic'
loop_
_space_group_symop_operation_xyz
x,y,z
-x,1/2+y,1/2-z
-x,-y,-z
x,1/2-y,1/2+z
loop_
_atom_site_type_symbol
_atom_site_label
_atom_site_fract_x
_atom_site_fract_y
_atom_site_fract_z
Si Si1 0.403979 0.973246 0.163383
Si Si2 0.671204 0.715784 0.927326
Si Si3 0.333765 0.380915 0.231609
Si Si4 0.333906 0.542462 0.432500
Si Si5 0.811221 0.363514 0.861870
Si Si6 0.321659 0.369481 0.823310
Si Si7 0.848344 0.723580 0.754869
Si Si8 0.353257 0.611039 0.759217
O O1 0.566941 0.903195 0.344993
O O2 0.313843 0.931579 0.134662
O O3 0.419463 0.139205 0.176406
O O4 0.316159 0.915582 0.996123
O O5 0.729108 0.671666 0.913555
O O6 0.816216 0.728662 0.138532
O O7 0.491931 0.458800 0.397109
O O8 0.214839 0.484471 0.135296
O O9 0.357891 0.251118 0.308336
O O10 0.242516 0.645523 0.279956
O O11 0.273172 0.389184 0.354550
O O12 0.717889 0.259283 0.806921
O O13 0.986114 0.334281 0.057726
O O14 0.179708 0.344123 0.718555
O O15 0.277310 0.505194 0.730274
O O16 0.467951 0.392420 0.033537
#
# Coordination Sequence:
#
# PCOD8126047 Si02
#       8
#     4   4   4   4   4   4   4   4
#     4  10  21  37  65  88 122 153 202 260 301 353
#     4  10  22  40  61  92 124 155 203 253 312 356
#     4  11  21  39  65  93 115 158 212 258 291 359
#     4  10  21  38  64  90 116 154 212 254 295 354
#     4  12  24  39  63  92 123 164 208 244 308 371
#     4  11  21  38  65  87 125 156 203 262 297 360
#     4  11  23  41  60  89 128 165 196 253 312 367
#     4  11  23  39  61  94 122 159 208 251 310 358
#
# _framework density 19.684829000000001
#
# number of rings (size 3 to 8) (size 9 to 14) (size 15 to 20)
#    0.000    1.250    5.000    1.500    3.500    0.500 
#    4.500    0.000    0.000    0.000    0.000    0.000 
#    0.000    0.000    0.000    0.000    0.000    0.000 
#
# Total GULP energy -396812.769395 kJ/mol
# GULP energy per Si atom -12400.399044 kJ/mol
# Density = 1.964003 g / cm^3
# Si number density = 19.684829 Si / 1000 Ang^3
#
#
#
# Elastic Constant Matrix: (Units=GPa)
#
#
# Indices 1 2 3 4 5 6 
#
# 1 105.7689 29.7495 57.8642 0.0000 -31.3942 0.0000
# 2 29.7495 74.1194 24.2492 0.0000 -6.5130 0.0000
# 3 57.8642 24.2492 103.9793 0.0000 -12.5490 0.0000
# 4 0.0000 0.0000 0.0000 23.1073 0.0000 -0.3557
# 5 -31.3942 -6.5130 -12.5490 0.0000 25.1793 0.0000
# 6 0.0000 0.0000 0.0000 -0.3557 0.0000 34.3337
#
#
#
# Elastic Compliance Matrix: (Units=1/GPa)
#
#
# Indices 1 2 3 4 5 6 
#
# 1 0.021708 -0.004013 -0.008515 0.000000 0.021784 0.000000
# 2 -0.004013 0.015465 -0.001590 0.000000 -0.001796 0.000000
# 3 -0.008515 -0.001590 0.014253 0.000000 -0.003925 0.000000
# 4 0.000000 0.000000 0.000000 0.043283 0.000000 0.000448
# 5 0.021784 -0.001796 -0.003925 0.000000 0.064455 0.000000
# 6 0.000000 0.000000 0.000000 0.000448 0.000000 0.029131
#
#
# Mechanical properties :
#
#
# Convention : Reuss Voigt Hill
#
# Bulk Modulus (GPa) = 43.12380 56.39927 49.76153
# Shear Modulus (GPa) = 22.29543 27.99103 25.14323
#
# Velocity S-wave (km/s) = 3.36909 3.77498 3.57780
# Velocity P-wave (km/s) = 6.09008 6.90753 6.51164
#
# Compressibility (1/GPa) = 0.02318905
#
# Stress axis : x y z
#
# Youngs Moduli (GPa) = 46.06658 64.66287 70.15932
#
# Poissons Ratio (x) = 0.25948 0.59744
# Poissons Ratio (y) = 0.18485 0.11157
# Poissons Ratio (z) = 0.39228 0.10283
#
# Static dielectric constant tensor:
#      x y z
#    x 3.733200 0.000000 -0.393410 
#    y 0.000000 3.647020 0.000000 
#    z -0.393410 0.000000 3.423780 
# 
# 
# High freq. dielectric constant tensor:
#      x y z
#    x 1.778330 0.000000 -0.029520 
#    y 0.000000 1.768820 0.000000 
#    z -0.029520 0.000000 1.741420 
# 
# From -- ./inp_files/70539.got.cif
#   From: 2010.03.12/outbox.cif.g09.slc.cpg/sg14_36_cif.got.tgz:70539.got - 2010.03.31 13:35:05.
