data_PCOD8126435
_publ_section_title
;
Structure prediction by ZEFSAII (Michael W. Deem and Ramdas Pophale) SiO2 
 PCOD8126435
Probable space group: P 21/C
;
_chemical_formula_sum "Si O2"
_cell_formula_units_Z 24
_cell_length_a 17.716112
_cell_length_b 8.886827
_cell_length_c 14.455330
_cell_angle_alpha 90.000000
_cell_angle_beta 29.088921
_cell_angle_gamma 90.000000
_cell_volume 1106.440609
_symmetry_space_group_name_H-M "P 21/C"
_symmetry_group_IT_number 14
_symmetry_cell_setting 'monoclinic'
loop_
_space_group_symop_operation_xyz
x,y,z
-x,1/2+y,1/2-z
-x,-y,-z
x,1/2-y,1/2+z
loop_
_atom_site_type_symbol
_atom_site_label
_atom_site_fract_x
_atom_site_fract_y
_atom_site_fract_z
Si Si1 0.035030 0.664021 0.924487
Si Si2 0.712350 0.198045 0.998941
Si Si3 0.247778 0.175265 0.857168
Si Si4 0.490843 0.168172 0.971878
Si Si5 0.431763 0.385938 0.331273
Si Si6 0.807269 0.330288 0.593924
O O1 0.193545 0.669810 0.695519
O O2 0.047750 0.771532 0.000756
O O3 0.000000 0.500000 0.000000
O O4 0.897056 0.716212 0.005507
O O5 0.605725 0.347967 0.107123
O O6 0.830806 0.204971 0.959429
O O7 0.586641 0.066012 0.151734
O O8 0.394119 0.226429 0.641925
O O9 0.296420 0.186566 0.912809
O O10 0.206946 0.006430 0.871770
O O11 0.409052 0.173039 0.959478
O O12 0.660571 0.237122 0.786432
O O13 0.500000 0.000000 0.000000
#
# Coordination Sequence:
#
# PCOD8126435 Si02
#       6
#     4   4   4   4   4   4
#     4  12  25  42  63  91 129 168 209 261 322 385
#     4  10  23  41  64  91 123 161 209 260 312 375
#     4  11  23  39  61  90 125 164 204 260 319 376
#     4  11  21  39  67  94 124 164 213 262 307 370
#     4  10  21  40  63  91 122 161 212 259 310 369
#     4  10  23  41  60  89 122 164 211 256 310 369
#
# _framework density 21.691179000000002
#
# number of rings (size 3 to 8) (size 9 to 14) (size 15 to 20)
#    0.000    1.333    0.000    6.000    0.000    8.000 
#    0.000    1.667    0.000    0.000    0.000    0.000 
#    0.000    0.000    0.000    0.000    0.000    0.000 
#
# Total GULP energy -297620.928021 kJ/mol
# GULP energy per Si atom -12400.872001 kJ/mol
# Density = 2.164181 g / cm^3
# Si number density = 21.691179 Si / 1000 Ang^3
#
#
#
# Elastic Constant Matrix: (Units=GPa)
#
#
# Indices 1 2 3 4 5 6 
#
# 1 158.7572 47.5029 24.0104 0.0000 7.0052 0.0000
# 2 47.5029 99.7919 20.4659 0.0000 9.0913 0.0000
# 3 24.0104 20.4659 50.2063 0.0000 15.6327 0.0000
# 4 0.0000 0.0000 0.0000 36.1156 0.0000 -5.9506
# 5 7.0052 9.0913 15.6327 0.0000 27.3586 0.0000
# 6 0.0000 0.0000 0.0000 -5.9506 0.0000 37.9068
#
#
#
# Elastic Compliance Matrix: (Units=1/GPa)
#
#
# Indices 1 2 3 4 5 6 
#
# 1 0.007598 -0.003150 -0.002518 0.000000 0.000540 0.000000
# 2 -0.003150 0.012280 -0.003017 0.000000 -0.001550 0.000000
# 3 -0.002518 -0.003017 0.026565 0.000000 -0.013532 0.000000
# 4 0.000000 0.000000 0.000000 0.028424 0.000000 0.004462
# 5 0.000540 -0.001550 -0.013532 0.000000 0.044661 0.000000
# 6 0.000000 0.000000 0.000000 0.004462 0.000000 0.027081
#
#
# Mechanical properties :
#
#
# Convention : Reuss Voigt Hill
#
# Bulk Modulus (GPa) = 34.39401 54.74599 44.57000
# Shear Modulus (GPa) = 28.79024 34.72796 31.75910
#
# Velocity S-wave (km/s) = 3.64714 4.00561 3.83057
# Velocity P-wave (km/s) = 5.79880 6.83278 6.33691
#
# Compressibility (1/GPa) = 0.02907483
#
# Stress axis : x y z
#
# Youngs Moduli (GPa) = 131.60687 81.43220 37.64322
#
# Poissons Ratio (x) = 0.25649 0.09478
# Poissons Ratio (y) = 0.41453 0.11356
# Poissons Ratio (z) = 0.33138 0.24566
#
# Static dielectric constant tensor:
#      x y z
#    x 4.326770 0.000000 0.099520 
#    y 0.000000 3.949880 0.000000 
#    z 0.099520 0.000000 3.616910 
# 
# 
# High freq. dielectric constant tensor:
#      x y z
#    x 1.882220 0.000000 0.004770 
#    y 0.000000 1.856520 0.000000 
#    z 0.004770 0.000000 1.827040 
# 
# From -- ./inp_files/48483.got.cif
#   From: 2010.03.12/outbox.cif.g09.slc.cpg/sg14_25_cif.got.tgz:48483.got - 2010.03.31 13:35:05.
