data_PCOD8126222
_publ_section_title
;
Structure prediction by ZEFSAII (Michael W. Deem and Ramdas Pophale) SiO2 
 PCOD8126222
Probable space group: P 21/C
;
_chemical_formula_sum "Si O2"
_cell_formula_units_Z 32
_cell_length_a 7.708069
_cell_length_b 34.315403
_cell_length_c 5.165468
_cell_angle_alpha 90.000000
_cell_angle_beta 91.276442
_cell_angle_gamma 90.000000
_cell_volume 1365.955624
_symmetry_space_group_name_H-M "P 21/C"
_symmetry_group_IT_number 14
_symmetry_cell_setting 'monoclinic'
loop_
_space_group_symop_operation_xyz
x,y,z
-x,1/2+y,1/2-z
-x,-y,-z
x,1/2-y,1/2+z
loop_
_atom_site_type_symbol
_atom_site_label
_atom_site_fract_x
_atom_site_fract_y
_atom_site_fract_z
Si Si1 0.898851 0.887670 0.667778
Si Si2 0.487570 0.725214 0.462941
Si Si3 0.985085 0.150145 0.813143
Si Si4 0.386038 0.004646 0.749897
Si Si5 0.107161 0.227960 0.029486
Si Si6 0.414730 0.086257 0.628154
Si Si7 0.620602 0.138798 0.955317
Si Si8 0.247721 0.573874 0.147501
O O1 0.701922 0.903057 0.626712
O O2 0.916753 0.852048 0.460021
O O3 0.047196 0.917731 0.570469
O O4 0.925212 0.878076 0.969139
O O5 0.428497 0.748379 0.718323
O O6 0.691649 0.717484 0.483658
O O7 0.404600 0.682309 0.433423
O O8 0.782804 0.139800 0.759844
O O9 0.989997 0.192442 0.937492
O O10 0.242391 0.970202 0.763677
O O11 0.500000 0.000000 0.500000
O O12 0.313635 0.049323 0.754829
O O13 0.500000 0.000000 0.000000
O O14 0.059938 0.237993 0.323395
O O15 0.441612 0.123994 0.814370
O O16 0.613352 0.072754 0.581220
O O17 0.675638 0.108439 0.175417
#
# Coordination Sequence:
#
# PCOD8126222 Si02
#       8
#     4   4   4   4   4   4   4   4
#     4  11  25  39  64  95 131 166 223 263 315 384
#     4  10  24  39  59  93 123 161 213 265 315 382
#     4  11  24  42  60  95 127 164 215 274 313 385
#     4  10  21  39  66  94 132 169 216 266 322 382
#     4  10  21  39  60  84 123 162 204 264 327 379
#     4  11  23  40  69  95 127 181 214 263 334 377
#     4  11  23  40  69  88 133 169 215 267 323 385
#     4  10  23  43  63  98 135 167 221 269 321 385
#
# _framework density 23.426822000000001
#
# number of rings (size 3 to 8) (size 9 to 14) (size 15 to 20)
#    0.000    1.500    2.500    1.500    5.250    2.500 
#    0.000    0.000    0.000    5.250    0.000    0.000 
#    0.000    0.000    0.000    0.000    0.000    0.000 
#
# Total GULP energy -396443.812662 kJ/mol
# GULP energy per Si atom -12388.869146 kJ/mol
# Density = 2.337350 g / cm^3
# Si number density = 23.426822 Si / 1000 Ang^3
#
#
#
# Elastic Constant Matrix: (Units=GPa)
#
#
# Indices 1 2 3 4 5 6 
#
# 1 71.9124 15.0874 3.5883 0.0000 19.9339 0.0000
# 2 15.0874 121.6149 6.7334 0.0000 11.8033 0.0000
# 3 3.5883 6.7334 82.4203 0.0000 11.9228 0.0000
# 4 0.0000 0.0000 0.0000 32.0813 0.0000 8.3141
# 5 19.9339 11.8033 11.9228 0.0000 29.1005 0.0000
# 6 0.0000 0.0000 0.0000 8.3141 0.0000 22.4681
#
#
#
# Elastic Compliance Matrix: (Units=1/GPa)
#
#
# Indices 1 2 3 4 5 6 
#
# 1 0.017375 -0.001058 0.001052 0.000000 -0.011904 0.000000
# 2 -0.001058 0.008628 -0.000274 0.000000 -0.002662 0.000000
# 3 0.001052 -0.000274 0.012966 0.000000 -0.005922 0.000000
# 4 0.000000 0.000000 0.000000 0.034477 0.000000 -0.012758
# 5 -0.011904 -0.002662 -0.005922 0.000000 0.046024 0.000000
# 6 0.000000 0.000000 0.000000 -0.012758 0.000000 0.049228
#
#
# Mechanical properties :
#
#
# Convention : Reuss Voigt Hill
#
# Bulk Modulus (GPa) = 26.03595 36.30733 31.17164
# Shear Modulus (GPa) = 27.46330 33.43254 30.44792
#
# Velocity S-wave (km/s) = 3.42760 3.78180 3.60905
# Velocity P-wave (km/s) = 5.17711 5.88228 5.54092
#
# Compressibility (1/GPa) = 0.03840843
#
# Stress axis : x y z
#
# Youngs Moduli (GPa) = 57.55382 115.90822 77.12388
#
# Poissons Ratio (x) = 0.12269 -0.08113
# Poissons Ratio (y) = 0.06092 0.02110
# Poissons Ratio (z) = -0.06055 0.03172
#
# Static dielectric constant tensor:
#      x y z
#    x 4.183770 0.000000 0.056910 
#    y 0.000000 4.553460 0.000000 
#    z 0.056910 0.000000 4.123610 
# 
# 
# High freq. dielectric constant tensor:
#      x y z
#    x 1.912080 0.000000 0.010430 
#    y 0.000000 1.936850 0.000000 
#    z 0.010430 0.000000 1.922510 
# 
# From -- ./inp_files/2231.got.cif
#   From: 2010.03.12/outbox.cif.g09.slc.cpg/sg14_2_cif.got.tgz:2231.got - 2010.03.31 13:35:05.
