data_PCOD8126522
_publ_section_title
;
Structure prediction by ZEFSAII (Michael W. Deem and Ramdas Pophale) SiO2 
 PCOD8126522
Probable space group: P 21/C
;
_chemical_formula_sum "Si O2"
_cell_formula_units_Z 32
_cell_length_a 11.054976
_cell_length_b 8.558151
_cell_length_c 23.569180
_cell_angle_alpha 90.000000
_cell_angle_beta 137.227589
_cell_angle_gamma 90.000000
_cell_volume 1514.287117
_symmetry_space_group_name_H-M "P 21/C"
_symmetry_group_IT_number 14
_symmetry_cell_setting 'monoclinic'
loop_
_space_group_symop_operation_xyz
x,y,z
-x,1/2+y,1/2-z
-x,-y,-z
x,1/2-y,1/2+z
loop_
_atom_site_type_symbol
_atom_site_label
_atom_site_fract_x
_atom_site_fract_y
_atom_site_fract_z
Si Si1 0.453399 0.689511 0.571986
Si Si2 0.848831 0.402692 0.060884
Si Si3 0.864790 0.834886 0.873855
Si Si4 0.911845 0.577107 0.196756
Si Si5 0.369463 0.046531 0.305086
Si Si6 0.274377 0.143789 0.567268
Si Si7 0.198391 0.080796 0.858059
Si Si8 0.826206 0.544210 0.521228
O O1 0.335408 0.808860 0.494007
O O2 0.548814 0.783685 0.654554
O O3 0.591480 0.602350 0.578381
O O4 0.329960 0.560992 0.559845
O O5 0.862160 0.518303 0.117586
O O6 0.013119 0.282808 0.120452
O O7 0.839220 0.496290 0.996629
O O8 0.717131 0.926303 0.786379
O O9 0.782436 0.721704 0.893115
O O10 0.988042 0.976994 0.941127
O O11 0.776006 0.505424 0.196874
O O12 0.906406 0.761473 0.191001
O O13 0.114649 0.540137 0.284148
O O14 0.518440 0.908719 0.355859
O O15 0.228820 0.277416 0.506019
O O16 0.162727 0.013642 0.907834
#
# Coordination Sequence:
#
# PCOD8126522 Si02
#       8
#     4   4   4   4   4   4   4   4
#     4   9  22  36  61  89 131 160 202 257 326 380
#     4  10  21  40  67  94 122 171 205 265 322 383
#     4  11  23  45  64  88 134 168 212 265 318 376
#     4  11  22  38  63  90 132 159 209 264 324 386
#     4  10  23  42  61  94 123 170 210 265 323 376
#     4  11  24  41  66  93 124 166 224 259 310 380
#     4  11  22  37  59  94 127 166 203 254 326 384
#     4  11  22  41  60  94 123 168 214 259 312 377
#
# _framework density 21.132057
#
# number of rings (size 3 to 8) (size 9 to 14) (size 15 to 20)
#    0.000    1.500    2.500    2.625    3.500    3.500 
#    0.000    3.750    0.000    0.000    0.000    0.000 
#    0.000    0.000    0.000    0.000    0.000    0.000 
#
# Total GULP energy -396529.223007 kJ/mol
# GULP energy per Si atom -12391.538219 kJ/mol
# Density = 2.108396 g / cm^3
# Si number density = 21.132057 Si / 1000 Ang^3
#
#
#
# Elastic Constant Matrix: (Units=GPa)
#
#
# Indices 1 2 3 4 5 6 
#
# 1 74.9550 17.1765 34.9948 0.0000 -2.0914 0.0000
# 2 17.1765 79.1874 32.0848 0.0000 12.9286 0.0000
# 3 34.9948 32.0848 100.7467 0.0000 1.5736 0.0000
# 4 0.0000 0.0000 0.0000 39.4392 0.0000 9.3440
# 5 -2.0914 12.9286 1.5736 0.0000 28.9141 0.0000
# 6 0.0000 0.0000 0.0000 9.3440 0.0000 26.7168
#
#
#
# Elastic Compliance Matrix: (Units=1/GPa)
#
#
# Indices 1 2 3 4 5 6 
#
# 1 0.016194 -0.001824 -0.005079 0.000000 0.002263 0.000000
# 2 -0.001824 0.015923 -0.004328 0.000000 -0.007016 0.000000
# 3 -0.005079 -0.004328 0.013055 0.000000 0.000857 0.000000
# 4 0.000000 0.000000 0.000000 0.027646 0.000000 -0.009669
# 5 0.002263 -0.007016 0.000857 0.000000 0.037839 0.000000
# 6 0.000000 0.000000 0.000000 -0.009669 0.000000 0.040811
#
#
# Mechanical properties :
#
#
# Convention : Reuss Voigt Hill
#
# Bulk Modulus (GPa) = 44.03470 47.04460 45.53965
# Shear Modulus (GPa) = 27.54796 30.38956 28.96876
#
# Velocity S-wave (km/s) = 3.61447 3.79631 3.70651
# Velocity P-wave (km/s) = 6.18889 6.44411 6.31779
#
# Compressibility (1/GPa) = 0.02270936
#
# Stress axis : x y z
#
# Youngs Moduli (GPa) = 61.75133 62.80244 76.59817
#
# Poissons Ratio (x) = 0.11456 0.38908
# Poissons Ratio (y) = 0.11264 0.33150
# Poissons Ratio (z) = 0.31367 0.27180
#
# Static dielectric constant tensor:
#      x y z
#    x 3.675080 0.000000 0.210520 
#    y 0.000000 3.928150 0.000000 
#    z 0.210520 0.000000 3.879570 
# 
# 
# High freq. dielectric constant tensor:
#      x y z
#    x 1.806750 0.000000 0.008410 
#    y 0.000000 1.839760 0.000000 
#    z 0.008410 0.000000 1.838390 
# 
# From -- ./inp_files/73114.got.cif
#   From: 2010.03.12/outbox.cif.g09.slc.cpg/sg14_37_cif.got.tgz:73114.got - 2010.03.31 13:35:05.
