data_PCOD8126300
_publ_section_title
;
Structure prediction by ZEFSAII (Michael W. Deem and Ramdas Pophale) SiO2 
 PCOD8126300
Probable space group: P 21/C
;
_chemical_formula_sum "Si O2"
_cell_formula_units_Z 32
_cell_length_a 30.491261
_cell_length_b 8.906330
_cell_length_c 12.504022
_cell_angle_alpha 90.000000
_cell_angle_beta 27.386281
_cell_angle_gamma 90.000000
_cell_volume 1561.959023
_symmetry_space_group_name_H-M "P 21/C"
_symmetry_group_IT_number 14
_symmetry_cell_setting 'monoclinic'
loop_
_space_group_symop_operation_xyz
x,y,z
-x,1/2+y,1/2-z
-x,-y,-z
x,1/2-y,1/2+z
loop_
_atom_site_type_symbol
_atom_site_label
_atom_site_fract_x
_atom_site_fract_y
_atom_site_fract_z
Si Si1 0.963460 0.242485 0.104074
Si Si2 0.133536 0.358960 0.864421
Si Si3 0.210793 0.957244 0.017115
Si Si4 0.478501 0.253594 0.043703
Si Si5 0.578462 0.478425 0.976559
Si Si6 0.015366 0.447945 0.308981
Si Si7 0.818167 0.547462 0.649065
Si Si8 0.611688 0.476273 0.148033
O O1 0.859249 0.315008 0.325770
O O2 0.954865 0.084518 0.181420
O O3 0.037466 0.349673 0.002477
O O4 0.005353 0.208327 0.895434
O O5 0.208130 0.453753 0.634697
O O6 0.183771 0.204486 0.785324
O O7 0.103426 0.441071 0.037701
O O8 0.318870 0.903590 0.769474
O O9 0.184876 0.065314 0.972857
O O10 0.502849 0.363460 0.089777
O O11 0.571844 0.172042 0.792579
O O12 0.429524 0.354795 0.057459
O O13 0.407397 0.125338 0.240287
O O14 0.561604 0.493517 0.140238
O O15 0.914371 0.461477 0.469187
O O16 0.725711 0.455255 0.889442
#
# Coordination Sequence:
#
# PCOD8126300 Si02
#       8
#     4   4   4   4   4   4   4   4
#     4  10  22  36  55  80 113 153 202 235 288 339
#     4  11  21  36  59  80 116 159 194 240 287 342
#     4  11  22  36  60  86 114 155 196 242 287 349
#     4  10  21  40  64  89 115 160 189 239 312 363
#     4  10  22  39  61  91 123 146 196 251 292 363
#     4  10  22  37  54  81 117 156 194 247 283 340
#     4  10  22  37  56  86 117 150 196 247 287 341
#     4  10  21  39  64  86 119 155 196 241 299 360
#
# _framework density 20.487095
#
# number of rings (size 3 to 8) (size 9 to 14) (size 15 to 20)
#    0.000    1.750    1.250    2.625    5.250    0.000 
#    2.250    0.000    2.750    0.000    0.000    0.000 
#    0.000    0.000    0.000    0.000    0.000    0.000 
#
# Total GULP energy -396767.177226 kJ/mol
# GULP energy per Si atom -12398.974288 kJ/mol
# Density = 2.044047 g / cm^3
# Si number density = 20.487095 Si / 1000 Ang^3
#
#
#
# Elastic Constant Matrix: (Units=GPa)
#
#
# Indices 1 2 3 4 5 6 
#
# 1 66.0782 15.0740 11.4841 0.0000 13.7377 0.0000
# 2 15.0740 44.4618 16.9994 0.0000 0.4761 0.0000
# 3 11.4841 16.9994 84.1704 0.0000 16.4872 0.0000
# 4 0.0000 0.0000 0.0000 27.8219 0.0000 2.0235
# 5 13.7377 0.4761 16.4872 0.0000 32.4955 0.0000
# 6 0.0000 0.0000 0.0000 2.0235 0.0000 25.3005
#
#
#
# Elastic Compliance Matrix: (Units=1/GPa)
#
#
# Indices 1 2 3 4 5 6 
#
# 1 0.018091 -0.006160 0.000284 0.000000 -0.007702 0.000000
# 2 -0.006160 0.026637 -0.005522 0.000000 0.005015 0.000000
# 3 0.000284 -0.005522 0.014395 0.000000 -0.007343 0.000000
# 4 0.000000 0.000000 0.000000 0.036153 0.000000 -0.002891
# 5 -0.007702 0.005015 -0.007343 0.000000 0.037682 0.000000
# 6 0.000000 0.000000 0.000000 -0.002891 0.000000 0.039756
#
#
# Mechanical properties :
#
#
# Convention : Reuss Voigt Hill
#
# Bulk Modulus (GPa) = 27.52606 31.31394 29.42000
# Shear Modulus (GPa) = 24.08277 27.20044 25.64160
#
# Velocity S-wave (km/s) = 3.43229 3.64770 3.54163
# Velocity P-wave (km/s) = 5.40115 5.74968 5.57814
#
# Compressibility (1/GPa) = 0.03632922
#
# Stress axis : x y z
#
# Youngs Moduli (GPa) = 55.27749 37.54185 69.46665
#
# Poissons Ratio (x) = 0.23124 -0.01976
# Poissons Ratio (y) = 0.34048 0.38357
# Poissons Ratio (z) = -0.01572 0.20729
#
# Static dielectric constant tensor:
#      x y z
#    x 3.845420 0.000000 0.213640 
#    y 0.000000 3.567230 0.000000 
#    z 0.213640 0.000000 3.684100 
# 
# 
# High freq. dielectric constant tensor:
#      x y z
#    x 1.806240 0.000000 0.014470 
#    y 0.000000 1.791620 0.000000 
#    z 0.014470 0.000000 1.803570 
# 
# From -- ./inp_files/34971.got.cif
#   From: 2010.03.12/outbox.cif.g09.slc.cpg/sg14_18_cif.got.tgz:34971.got - 2010.03.31 13:35:05.
