data_PCOD8126345
_publ_section_title
;
Structure prediction by ZEFSAII (Michael W. Deem and Ramdas Pophale) SiO2 
 PCOD8126345
Probable space group: P 21/C
;
_chemical_formula_sum "Si O2"
_cell_formula_units_Z 20
_cell_length_a 12.110263
_cell_length_b 5.723586
_cell_length_c 25.065100
_cell_angle_alpha 90.000000
_cell_angle_beta 149.080878
_cell_angle_gamma 90.000000
_cell_volume 892.706412
_symmetry_space_group_name_H-M "P 21/C"
_symmetry_group_IT_number 14
_symmetry_cell_setting 'monoclinic'
loop_
_space_group_symop_operation_xyz
x,y,z
-x,1/2+y,1/2-z
-x,-y,-z
x,1/2-y,1/2+z
loop_
_atom_site_type_symbol
_atom_site_label
_atom_site_fract_x
_atom_site_fract_y
_atom_site_fract_z
Si Si1 0.251715 0.853507 0.564138
Si Si2 0.393319 0.830102 0.322520
Si Si3 0.729115 0.526233 0.508329
Si Si4 0.008153 0.016967 0.222427
Si Si5 0.102132 0.813325 0.613430
O O1 0.345243 0.698944 0.555063
O O2 0.227663 0.730321 0.611877
O O3 0.432582 0.052316 0.644454
O O4 0.016559 0.943196 0.447938
O O5 0.522048 0.696658 0.423065
O O6 0.262988 0.651740 0.230039
O O7 0.230835 0.014562 0.282160
O O8 0.799807 0.471629 0.597827
O O9 0.928411 0.620496 0.556666
O O10 0.993941 0.760650 0.245683
#
# Coordination Sequence:
#
# PCOD8126345 Si02
#       5
#     4   4   4   4   4
#     4  10  21  39  66  93 138 175 217 274 332 413
#     4  10  24  40  65 101 128 174 227 277 334 414
#     4  10  23  41  68  95 132 170 228 280 336 410
#     4  11  28  48  71  95 134 180 232 295 348 390
#     4   9  21  40  60  99 137 176 214 266 342 404
#
# _framework density 22.403782
#
# number of rings (size 3 to 8) (size 9 to 14) (size 15 to 20)
#    0.000    2.000    0.000    0.600   14.000    3.200 
#    3.600    0.000    0.000    0.000    0.000    0.000 
#    0.000    0.000    0.000    0.000    0.000    0.000 
#
# Total GULP energy -247823.904223 kJ/mol
# GULP energy per Si atom -12391.195211 kJ/mol
# Density = 2.235279 g / cm^3
# Si number density = 22.403782 Si / 1000 Ang^3
#
#
#
# Elastic Constant Matrix: (Units=GPa)
#
#
# Indices 1 2 3 4 5 6 
#
# 1 74.5108 18.7610 32.8744 0.0000 -12.5702 0.0000
# 2 18.7610 71.7363 12.0675 0.0000 -6.9025 0.0000
# 3 32.8744 12.0675 119.0269 0.0000 -2.4509 0.0000
# 4 0.0000 0.0000 0.0000 19.3719 0.0000 -12.0485
# 5 -12.5702 -6.9025 -2.4509 0.0000 28.6147 0.0000
# 6 0.0000 0.0000 0.0000 -12.0485 0.0000 34.8344
#
#
#
# Elastic Compliance Matrix: (Units=1/GPa)
#
#
# Indices 1 2 3 4 5 6 
#
# 1 0.017195 -0.003156 -0.004297 0.000000 0.006424 0.000000
# 2 -0.003156 0.015080 -0.000612 0.000000 0.002199 0.000000
# 3 -0.004297 -0.000612 0.009625 0.000000 -0.001211 0.000000
# 4 0.000000 0.000000 0.000000 0.065770 0.000000 0.022748
# 5 0.006424 0.002199 -0.001211 0.000000 0.038196 0.000000
# 6 0.000000 0.000000 0.000000 0.022748 0.000000 0.036575
#
#
# Mechanical properties :
#
#
# Convention : Reuss Voigt Hill
#
# Bulk Modulus (GPa) = 38.80390 43.63109 41.21750
# Shear Modulus (GPa) = 24.13578 30.00225 27.06902
#
# Velocity S-wave (km/s) = 3.28580 3.66342 3.47974
# Velocity P-wave (km/s) = 5.63499 6.11649 5.88067
#
# Compressibility (1/GPa) = 0.02577061
#
# Stress axis : x y z
#
# Youngs Moduli (GPa) = 58.15600 66.31374 103.89231
#
# Poissons Ratio (x) = 0.20929 0.44642
# Poissons Ratio (y) = 0.18354 0.06357
# Poissons Ratio (z) = 0.24989 0.04058
#
# Static dielectric constant tensor:
#      x y z
#    x 3.965900 0.000000 -0.018660 
#    y 0.000000 3.766520 0.000000 
#    z -0.018660 0.000000 4.276330 
# 
# 
# High freq. dielectric constant tensor:
#      x y z
#    x 1.877780 0.000000 0.002550 
#    y 0.000000 1.862860 0.000000 
#    z 0.002550 0.000000 1.898130 
# 
# From -- ./inp_files/27383.got.cif
#   From: 2010.03.12/outbox.cif.g09.slc.cpg/sg14_14_cif.got.tgz:27383.got - 2010.03.31 13:35:05.
