data_PCOD8126462
_publ_section_title
;
Structure prediction by ZEFSAII (Michael W. Deem and Ramdas Pophale) SiO2 
 PCOD8126462
Probable space group: P 21/C
;
_chemical_formula_sum "Si O2"
_cell_formula_units_Z 32
_cell_length_a 12.319946
_cell_length_b 9.443266
_cell_length_c 31.450092
_cell_angle_alpha 90.000000
_cell_angle_beta 155.365750
_cell_angle_gamma 90.000000
_cell_volume 1525.126654
_symmetry_space_group_name_H-M "P 21/C"
_symmetry_group_IT_number 14
_symmetry_cell_setting 'monoclinic'
loop_
_space_group_symop_operation_xyz
x,y,z
-x,1/2+y,1/2-z
-x,-y,-z
x,1/2-y,1/2+z
loop_
_atom_site_type_symbol
_atom_site_label
_atom_site_fract_x
_atom_site_fract_y
_atom_site_fract_z
Si Si1 0.311928 0.018814 0.471946
Si Si2 0.675724 0.259074 0.129207
Si Si3 0.480800 0.378072 0.717911
Si Si4 0.919993 0.252804 0.628191
Si Si5 0.765004 0.958318 0.038711
Si Si6 0.491426 0.297734 0.299644
Si Si7 0.870473 0.270282 0.792276
Si Si8 0.913654 0.402473 0.506879
O O1 0.471929 0.109839 0.563706
O O2 0.050553 0.095620 0.364256
O O3 0.500000 0.000000 0.500000
O O4 0.219267 0.862311 0.452934
O O5 0.881293 0.288071 0.164227
O O6 0.832938 0.243380 0.228493
O O7 0.511347 0.120576 0.056968
O O8 0.524107 0.546919 0.728306
O O9 0.603976 0.315862 0.805399
O O10 0.596966 0.298991 0.718152
O O11 0.179334 0.326234 0.616299
O O12 0.763568 0.396841 0.564514
O O13 0.222506 0.257574 0.724198
O O14 0.001134 0.868765 0.142340
O O15 0.807006 0.992650 0.004544
O O16 0.691715 0.296681 0.410740
O O17 0.000000 0.500000 0.500000
#
# Coordination Sequence:
#
# PCOD8126462 Si02
#       8
#     4   4   4   4   4   4   4   4
#     4   9  21  42  62  89 128 165 211 265 327 385
#     4  10  23  42  67  92 128 172 219 270 332 397
#     4  11  22  41  65  92 127 166 223 265 326 388
#     4  11  22  43  62  96 129 172 214 274 337 387
#     4  11  23  43  65  99 132 167 225 273 323 401
#     4  11  23  42  66  91 128 175 215 274 327 391
#     4  11  22  41  67  96 126 176 215 267 330 391
#     4  10  21  40  64  91 127 170 213 262 326 384
#
# _framework density 20.981863000000001
#
# number of rings (size 3 to 8) (size 9 to 14) (size 15 to 20)
#    0.000    1.500    2.500    3.375    0.000    3.000 
#    9.000    0.625    0.000    0.000    0.000    0.000 
#    0.000    0.000    0.000    0.000    0.000    0.000 
#
# Total GULP energy -396579.025050 kJ/mol
# GULP energy per Si atom -12393.094533 kJ/mol
# Density = 2.093411 g / cm^3
# Si number density = 20.981863 Si / 1000 Ang^3
#
#
#
# Elastic Constant Matrix: (Units=GPa)
#
#
# Indices 1 2 3 4 5 6 
#
# 1 106.2266 15.4962 25.0540 0.0000 -0.9969 0.0000
# 2 15.4962 98.9660 28.8598 0.0000 -2.9234 0.0000
# 3 25.0540 28.8598 75.5043 0.0000 -1.5981 0.0000
# 4 0.0000 0.0000 0.0000 22.0975 0.0000 -4.4656
# 5 -0.9969 -2.9234 -1.5981 0.0000 30.9390 0.0000
# 6 0.0000 0.0000 0.0000 -4.4656 0.0000 33.1403
#
#
#
# Elastic Compliance Matrix: (Units=1/GPa)
#
#
# Indices 1 2 3 4 5 6 
#
# 1 0.010255 -0.000688 -0.003138 0.000000 0.000103 0.000000
# 2 -0.000688 0.011441 -0.004127 0.000000 0.000846 0.000000
# 3 -0.003138 -0.004127 0.015870 0.000000 0.000329 0.000000
# 4 0.000000 0.000000 0.000000 0.046521 0.000000 0.006269
# 5 0.000103 0.000846 0.000329 0.000000 0.032422 0.000000
# 6 0.000000 0.000000 0.000000 0.006269 0.000000 0.031019
#
#
# Mechanical properties :
#
#
# Convention : Reuss Voigt Hill
#
# Bulk Modulus (GPa) = 46.16614 46.61299 46.38957
# Shear Modulus (GPa) = 29.29927 31.32115 30.31021
#
# Velocity S-wave (km/s) = 3.74091 3.86783 3.80490
# Velocity P-wave (km/s) = 6.38043 6.49699 6.43897
#
# Compressibility (1/GPa) = 0.02166090
#
# Stress axis : x y z
#
# Youngs Moduli (GPa) = 97.51146 87.40813 63.01257
#
# Poissons Ratio (x) = 0.06011 0.19773
# Poissons Ratio (y) = 0.06706 0.26004
# Poissons Ratio (z) = 0.30598 0.36072
#
# Static dielectric constant tensor:
#      x y z
#    x 3.473260 0.000000 -0.400460 
#    y 0.000000 3.998730 0.000000 
#    z -0.400460 0.000000 4.361660 
# 
# 
# High freq. dielectric constant tensor:
#      x y z
#    x 1.829600 0.000000 0.010740 
#    y 0.000000 1.821490 0.000000 
#    z 0.010740 0.000000 1.816920 
# 
# From -- ./inp_files/79973.got.cif
#   From: 2010.03.12/outbox.cif.g09.slc.cpg/sg14_40_cif.got.tgz:79973.got - 2010.03.31 13:35:05.
