data_PCOD8126358
_publ_section_title
;
Structure prediction by ZEFSAII (Michael W. Deem and Ramdas Pophale) SiO2 
 PCOD8126358
Probable space group: P 21/C
;
_chemical_formula_sum "Si O2"
_cell_formula_units_Z 32
_cell_length_a 5.296505
_cell_length_b 15.322767
_cell_length_c 24.388693
_cell_angle_alpha 90.000000
_cell_angle_beta 131.319784
_cell_angle_gamma 90.000000
_cell_volume 1486.537870
_symmetry_space_group_name_H-M "P 21/C"
_symmetry_group_IT_number 14
_symmetry_cell_setting 'monoclinic'
loop_
_space_group_symop_operation_xyz
x,y,z
-x,1/2+y,1/2-z
-x,-y,-z
x,1/2-y,1/2+z
loop_
_atom_site_type_symbol
_atom_site_label
_atom_site_fract_x
_atom_site_fract_y
_atom_site_fract_z
Si Si1 0.367267 0.306077 0.931542
Si Si2 0.756028 0.215122 0.805503
Si Si3 0.849747 0.078710 0.189455
Si Si4 0.913632 0.166151 0.594960
Si Si5 0.554359 0.653005 0.169113
Si Si6 0.648884 0.234347 0.667830
Si Si7 0.420385 0.516393 0.706341
Si Si8 0.036053 0.525865 0.125471
O O1 0.504957 0.282412 0.890890
O O2 0.047316 0.242143 0.890862
O O3 0.276887 0.409130 0.909798
O O4 0.624074 0.287959 0.017332
O O5 0.471274 0.288258 0.778457
O O6 0.854850 0.224332 0.754993
O O7 0.642541 0.118667 0.803146
O O8 0.665737 0.168359 0.144711
O O9 0.086253 0.104220 0.275186
O O10 0.549747 0.013540 0.164854
O O11 0.080273 0.035267 0.175005
O O12 0.818830 0.173377 0.645896
O O13 0.268617 0.207844 0.629076
O O14 0.912080 0.063740 0.580246
O O15 0.276063 0.578695 0.119159
O O16 0.735059 0.496687 0.789687
#
# Coordination Sequence:
#
# PCOD8126358 Si02
#       8
#     4   4   4   4   4   4   4   4
#     4  11  24  42  65  95 139 179 211 270 335 394
#     4  11  24  41  69  97 132 174 226 274 318 394
#     4  11  22  41  64  96 127 169 216 279 324 373
#     4  12  28  40  67  98 138 178 217 264 329 406
#     4  10  21  39  67  93 138 172 216 265 331 382
#     4  12  25  45  65  95 134 176 222 273 323 387
#     4  11  23  37  68 102 123 166 225 273 324 378
#     4  10  22  39  59  99 138 178 210 257 328 407
#
# _framework density 21.526527999999999
#
# number of rings (size 3 to 8) (size 9 to 14) (size 15 to 20)
#    0.000    1.000    3.750    3.375    8.750    0.500 
#    0.000    0.000    0.000    4.500    0.000    0.000 
#    0.000    0.000    0.000    0.000    0.000    0.000 
#
# Total GULP energy -396423.445812 kJ/mol
# GULP energy per Si atom -12388.232682 kJ/mol
# Density = 2.147753 g / cm^3
# Si number density = 21.526528 Si / 1000 Ang^3
#
#
#
# Elastic Constant Matrix: (Units=GPa)
#
#
# Indices 1 2 3 4 5 6 
#
# 1 133.4516 54.5468 27.1750 0.0000 9.0494 0.0000
# 2 54.5468 116.7003 20.3693 0.0000 13.1220 0.0000
# 3 27.1750 20.3693 60.6546 0.0000 5.5203 0.0000
# 4 0.0000 0.0000 0.0000 25.3522 0.0000 1.0849
# 5 9.0494 13.1220 5.5203 0.0000 23.2649 0.0000
# 6 0.0000 0.0000 0.0000 1.0849 0.0000 15.5501
#
#
#
# Elastic Compliance Matrix: (Units=1/GPa)
#
#
# Indices 1 2 3 4 5 6 
#
# 1 0.009773 -0.003951 -0.002972 0.000000 -0.000867 0.000000
# 2 -0.003951 0.011187 -0.001586 0.000000 -0.004396 0.000000
# 3 -0.002972 -0.001586 0.018566 0.000000 -0.002354 0.000000
# 4 0.000000 0.000000 0.000000 0.039562 0.000000 -0.002760
# 5 -0.000867 -0.004396 -0.002354 0.000000 0.046359 0.000000
# 6 0.000000 0.000000 0.000000 -0.002760 0.000000 0.064501
#
#
# Mechanical properties :
#
#
# Convention : Reuss Voigt Hill
#
# Bulk Modulus (GPa) = 44.43539 57.22096 50.82818
# Shear Modulus (GPa) = 23.31335 26.74781 25.03058
#
# Velocity S-wave (km/s) = 3.29447 3.52881 3.41365
# Velocity P-wave (km/s) = 5.92945 6.57591 6.26103
#
# Compressibility (1/GPa) = 0.02250458
#
# Stress axis : x y z
#
# Youngs Moduli (GPa) = 102.32744 89.38841 53.86316
#
# Poissons Ratio (x) = 0.35321 0.16011
# Poissons Ratio (y) = 0.40434 0.08545
# Poissons Ratio (z) = 0.30416 0.14181
#
# Static dielectric constant tensor:
#      x y z
#    x 4.127410 0.000000 0.132340 
#    y 0.000000 3.997080 0.000000 
#    z 0.132340 0.000000 3.496380 
# 
# 
# High freq. dielectric constant tensor:
#      x y z
#    x 1.862020 0.000000 0.017670 
#    y 0.000000 1.846190 0.000000 
#    z 0.017670 0.000000 1.797870 
# 
# From -- ./inp_files/63780.got.cif
#   From: 2010.03.12/outbox.cif.g09.slc.cpg/sg14_32_cif.got.tgz:63780.got - 2010.03.31 13:35:05.
