data_PCOD8126840
_publ_section_title
;
Structure prediction by ZEFSAII (Michael W. Deem and Ramdas Pophale) SiO2 
 PCOD8126840
Probable space group: P 21/C
;
_chemical_formula_sum "Si O2"
_cell_formula_units_Z 28
_cell_length_a 11.476018
_cell_length_b 9.299326
_cell_length_c 13.079456
_cell_angle_alpha 90.000000
_cell_angle_beta 68.407892
_cell_angle_gamma 90.000000
_cell_volume 1297.880218
_symmetry_space_group_name_H-M "P 21/C"
_symmetry_group_IT_number 14
_symmetry_cell_setting 'monoclinic'
loop_
_space_group_symop_operation_xyz
x,y,z
-x,1/2+y,1/2-z
-x,-y,-z
x,1/2-y,1/2+z
loop_
_atom_site_type_symbol
_atom_site_label
_atom_site_fract_x
_atom_site_fract_y
_atom_site_fract_z
Si Si1 0.783101 0.124502 0.313740
Si Si2 0.221335 0.342512 0.306611
Si Si3 0.246250 0.899073 0.300762
Si Si4 0.397949 0.374759 0.648049
Si Si5 0.942828 0.614812 0.221958
Si Si6 0.327076 0.738474 0.470084
Si Si7 0.216763 0.439169 0.535579
O O1 0.809786 0.258649 0.233279
O O2 0.670701 0.166079 0.427405
O O3 0.909387 0.091076 0.337156
O O4 0.741652 0.993041 0.256790
O O5 0.337862 0.238624 0.245903
O O6 0.094711 0.278344 0.296687
O O7 0.199808 0.357119 0.434519
O O8 0.289542 0.856338 0.398944
O O9 0.367550 0.965606 0.202313
O O10 0.132425 0.013706 0.334020
O O11 0.543681 0.342663 0.594470
O O12 0.337442 0.370093 0.554214
O O13 0.903418 0.583692 0.352429
O O14 0.226412 0.610399 0.513165
#
# Coordination Sequence:
#
# PCOD8126840 Si02
#       7
#     4   4   4   4   4   4   4
#     4  12  23  40  66  99 127 171 227 266 315 392
#     4  10  23  40  67  96 127 170 223 266 321 394
#     4  10  23  42  64  99 130 173 221 263 329 388
#     4  10  25  44  65  95 138 167 209 280 323 392
#     4  10  24  44  64  93 140 167 215 281 320 382
#     4  12  24  39  72  96 130 175 216 266 332 391
#     4  10  21  43  66  91 126 178 207 262 340 377
#
# _framework density 21.573640000000001
#
# number of rings (size 3 to 8) (size 9 to 14) (size 15 to 20)
#    0.000    1.714    4.286    1.286    2.000    7.429 
#    0.000    0.000    0.000    0.000    0.000    0.000 
#    0.000    0.000    0.000    0.000    0.000    0.000 
#
# Total GULP energy -347117.643058 kJ/mol
# GULP energy per Si atom -12397.058681 kJ/mol
# Density = 2.152454 g / cm^3
# Si number density = 21.573640 Si / 1000 Ang^3
#
#
#
# Elastic Constant Matrix: (Units=GPa)
#
#
# Indices 1 2 3 4 5 6 
#
# 1 43.4994 21.1575 24.0110 0.0000 0.3140 0.0000
# 2 21.1575 107.9017 33.4616 0.0000 5.7959 0.0000
# 3 24.0110 33.4616 90.8645 0.0000 15.8869 0.0000
# 4 0.0000 0.0000 0.0000 41.9740 0.0000 7.2036
# 5 0.3140 5.7959 15.8869 0.0000 26.6754 0.0000
# 6 0.0000 0.0000 0.0000 7.2036 0.0000 25.2973
#
#
#
# Elastic Compliance Matrix: (Units=1/GPa)
#
#
# Indices 1 2 3 4 5 6 
#
# 1 0.028622 -0.003685 -0.007018 0.000000 0.004644 0.000000
# 2 -0.003685 0.010937 -0.002953 0.000000 -0.000574 0.000000
# 3 -0.007018 -0.002953 0.015427 0.000000 -0.008464 0.000000
# 4 0.000000 0.000000 0.000000 0.025048 0.000000 -0.007133
# 5 0.004644 -0.000574 -0.008464 0.000000 0.042598 0.000000
# 6 0.000000 0.000000 0.000000 -0.007133 0.000000 0.041561
#
#
# Mechanical properties :
#
#
# Convention : Reuss Voigt Hill
#
# Bulk Modulus (GPa) = 36.13693 44.39175 40.26434
# Shear Modulus (GPa) = 24.90891 29.69838 27.30365
#
# Velocity S-wave (km/s) = 3.40163 3.71429 3.56139
# Velocity P-wave (km/s) = 5.67582 6.24629 5.96787
#
# Compressibility (1/GPa) = 0.02767252
#
# Stress axis : x y z
#
# Youngs Moduli (GPa) = 34.93869 91.43241 64.81991
#
# Poissons Ratio (x) = 0.33695 0.45491
# Poissons Ratio (y) = 0.12876 0.19144
# Poissons Ratio (z) = 0.24520 0.27004
#
# Static dielectric constant tensor:
#      x y z
#    x 3.654810 0.000000 0.046300 
#    y 0.000000 4.155970 0.000000 
#    z 0.046300 0.000000 3.942370 
# 
# 
# High freq. dielectric constant tensor:
#      x y z
#    x 1.824990 0.000000 0.006310 
#    y 0.000000 1.860230 0.000000 
#    z 0.006310 0.000000 1.846700 
# 
# From -- ./inp_files/43381.got.cif
#   From: 2010.03.12/outbox.cif.g09.slc.cpg/sg14_22_cif.got.tgz:43381.got - 2010.03.31 13:35:05.
