data_PCOD8126268
_publ_section_title
;
Structure prediction by ZEFSAII (Michael W. Deem and Ramdas Pophale) SiO2 
 PCOD8126268
Probable space group: P 21/C
;
_chemical_formula_sum "Si O2"
_cell_formula_units_Z 32
_cell_length_a 11.481201
_cell_length_b 22.220807
_cell_length_c 11.009525
_cell_angle_alpha 90.000000
_cell_angle_beta 146.683444
_cell_angle_gamma 90.000000
_cell_volume 1542.755515
_symmetry_space_group_name_H-M "P 21/C"
_symmetry_group_IT_number 14
_symmetry_cell_setting 'monoclinic'
loop_
_space_group_symop_operation_xyz
x,y,z
-x,1/2+y,1/2-z
-x,-y,-z
x,1/2-y,1/2+z
loop_
_atom_site_type_symbol
_atom_site_label
_atom_site_fract_x
_atom_site_fract_y
_atom_site_fract_z
Si Si1 0.486096 0.673326 0.249697
Si Si2 0.293832 0.397243 0.109545
Si Si3 0.748937 0.898868 0.164978
Si Si4 0.950113 0.289088 0.049410
Si Si5 0.852853 0.734572 0.038210
Si Si6 0.983269 0.494716 0.769576
Si Si7 0.648613 0.069312 0.519692
Si Si8 0.342019 0.534921 0.711556
O O1 0.593291 0.621534 0.423560
O O2 0.654322 0.721257 0.348586
O O3 0.386845 0.638768 0.047698
O O4 0.304579 0.706469 0.169878
O O5 0.381165 0.395302 0.322988
O O6 0.234229 0.331557 0.011051
O O7 0.475793 0.423843 0.185511
O O8 0.080277 0.437915 0.924572
O O9 0.951936 0.855383 0.351672
O O10 0.814062 0.968440 0.202095
O O11 0.016575 0.250353 0.226011
O O12 0.015909 0.261158 0.975041
O O13 0.869285 0.468739 0.551326
O O14 0.168069 0.541478 0.901949
O O15 0.728502 0.068101 0.727313
O O16 0.430130 0.031873 0.315337
#
# Coordination Sequence:
#
# PCOD8126268 Si02
#       8
#     4   4   4   4   4   4   4   4
#     4  11  22  42  71  87 126 172 212 266 319 386
#     4  10  24  40  59  93 129 162 206 263 320 378
#     4  10  21  40  64  93 125 162 216 253 314 391
#     4  10  23  44  67  94 125 170 215 275 316 383
#     4  10  25  44  64  95 128 165 222 266 320 382
#     4  11  20  39  62  93 126 164 204 262 317 381
#     4  10  21  39  62  92 123 162 216 256 319 379
#     4  10  22  38  61  93 128 164 203 265 314 379
#
# _framework density 20.742108000000002
#
# number of rings (size 3 to 8) (size 9 to 14) (size 15 to 20)
#    0.000    1.750    2.500    0.750    1.750    6.500 
#    2.250    0.000    0.000    0.000    0.000    0.000 
#    0.000    0.000    0.000    0.000    0.000    0.000 
#
# Total GULP energy -396806.724439 kJ/mol
# GULP energy per Si atom -12400.210139 kJ/mol
# Density = 2.069490 g / cm^3
# Si number density = 20.742108 Si / 1000 Ang^3
#
#
#
# Elastic Constant Matrix: (Units=GPa)
#
#
# Indices 1 2 3 4 5 6 
#
# 1 87.4863 31.3917 11.7975 0.0000 -10.0374 0.0000
# 2 31.3917 114.4100 25.0167 0.0000 -4.7948 0.0000
# 3 11.7975 25.0167 63.4811 0.0000 -0.8325 0.0000
# 4 0.0000 0.0000 0.0000 19.5032 0.0000 -1.2975
# 5 -10.0374 -4.7948 -0.8325 0.0000 33.4182 0.0000
# 6 0.0000 0.0000 0.0000 -1.2975 0.0000 26.7542
#
#
#
# Elastic Compliance Matrix: (Units=1/GPa)
#
#
# Indices 1 2 3 4 5 6 
#
# 1 0.013131 -0.003211 -0.001130 0.000000 0.003455 0.000000
# 2 -0.003211 0.010405 -0.003498 0.000000 0.000441 0.000000
# 3 -0.001130 -0.003498 0.017336 0.000000 -0.000409 0.000000
# 4 0.000000 0.000000 0.000000 0.051440 0.000000 0.002495
# 5 0.003455 0.000441 -0.000409 0.000000 0.031015 0.000000
# 6 0.000000 0.000000 0.000000 0.002495 0.000000 0.037498
#
#
# Mechanical properties :
#
#
# Convention : Reuss Voigt Hill
#
# Bulk Modulus (GPa) = 39.69074 44.64324 42.16699
# Shear Modulus (GPa) = 27.04167 29.07990 28.06078
#
# Velocity S-wave (km/s) = 3.61461 3.74836 3.68209
# Velocity P-wave (km/s) = 6.04958 6.34849 6.20083
#
# Compressibility (1/GPa) = 0.02519479
#
# Stress axis : x y z
#
# Youngs Moduli (GPa) = 76.15370 96.10869 57.68444
#
# Poissons Ratio (x) = 0.30862 0.06516
# Poissons Ratio (y) = 0.24454 0.20177
# Poissons Ratio (z) = 0.08602 0.33617
#
# Static dielectric constant tensor:
#      x y z
#    x 3.787980 0.000000 -0.102770 
#    y 0.000000 3.754040 0.000000 
#    z -0.102770 0.000000 3.712160 
# 
# 
# High freq. dielectric constant tensor:
#      x y z
#    x 1.816080 0.000000 -0.006840 
#    y 0.000000 1.810750 0.000000 
#    z -0.006840 0.000000 1.810360 
# 
# From -- ./inp_files/30828.got.cif
#   From: 2010.03.12/outbox.cif.g09.slc.cpg/sg14_16_cif.got.tgz:30828.got - 2010.03.31 13:35:05.
