data_PCOD8126956
_publ_section_title
;
Structure prediction by ZEFSAII (Michael W. Deem and Ramdas Pophale) SiO2 
 PCOD8126956
Probable space group: P 21/C
;
_chemical_formula_sum "Si O2"
_cell_formula_units_Z 16
_cell_length_a 9.616722
_cell_length_b 16.161923
_cell_length_c 8.893271
_cell_angle_alpha 90.000000
_cell_angle_beta 32.497180
_cell_angle_gamma 90.000000
_cell_volume 742.616495
_symmetry_space_group_name_H-M "P 21/C"
_symmetry_group_IT_number 14
_symmetry_cell_setting 'monoclinic'
loop_
_space_group_symop_operation_xyz
x,y,z
-x,1/2+y,1/2-z
-x,-y,-z
x,1/2-y,1/2+z
loop_
_atom_site_type_symbol
_atom_site_label
_atom_site_fract_x
_atom_site_fract_y
_atom_site_fract_z
Si Si1 0.818816 0.629457 0.041963
Si Si2 0.630212 0.160182 0.848583
Si Si3 0.761027 0.949288 0.279944
Si Si4 0.422306 0.295987 0.226930
O O1 0.595228 0.605196 0.366389
O O2 0.772197 0.725010 0.031158
O O3 0.807472 0.568035 0.912694
O O4 0.094207 0.618828 0.871587
O O5 0.587843 0.163075 0.708985
O O6 0.619521 0.253533 0.927460
O O7 0.748240 0.864373 0.200087
O O8 0.500000 0.000000 0.500000
O O9 0.000000 0.000000 0.000000
#
# Coordination Sequence:
#
# PCOD8126956 Si02
#       4
#     4   4   4   4
#     4  10  22  42  64  97 125 175 224 262 311 409
#     4  10  22  35  72  89 128 157 242 261 307 373
#     4  12  27  44  67  99 142 172 210 277 349 384
#     4  10  23  41  68  96 129 173 228 265 322 387
#
# _framework density 21.545442999999999
#
# number of rings (size 3 to 8) (size 9 to 14) (size 15 to 20)
#    1.500    0.000    2.500    1.500   10.500    0.000 
#    0.000    7.500    0.000    0.000    0.000    0.000 
#    0.000    0.000    0.000    0.000    0.000    0.000 
#
# Total GULP energy -198362.789068 kJ/mol
# GULP energy per Si atom -12397.674317 kJ/mol
# Density = 2.149640 g / cm^3
# Si number density = 21.545443 Si / 1000 Ang^3
#
#
#
# Elastic Constant Matrix: (Units=GPa)
#
#
# Indices 1 2 3 4 5 6 
#
# 1 96.4624 -25.0743 17.9128 0.0000 -9.0532 0.0000
# 2 -25.0743 26.9185 8.4240 0.0000 -0.2463 0.0000
# 3 17.9128 8.4240 107.1555 0.0000 -34.2960 0.0000
# 4 0.0000 0.0000 0.0000 22.0685 0.0000 4.3620
# 5 -9.0532 -0.2463 -34.2960 0.0000 38.3023 0.0000
# 6 0.0000 0.0000 0.0000 4.3620 0.0000 39.0221
#
#
#
# Elastic Compliance Matrix: (Units=1/GPa)
#
#
# Indices 1 2 3 4 5 6 
#
# 1 0.014986 0.015071 -0.003540 0.000000 0.000470 0.000000
# 2 0.015071 0.053564 -0.007681 0.000000 -0.002971 0.000000
# 3 -0.003540 -0.007681 0.014359 0.000000 0.011971 0.000000
# 4 0.000000 0.000000 0.000000 0.046337 0.000000 -0.005180
# 5 0.000470 -0.002971 0.011971 0.000000 0.036919 0.000000
# 6 0.000000 0.000000 0.000000 -0.005180 0.000000 0.026206
#
#
# Mechanical properties :
#
#
# Convention : Reuss Voigt Hill
#
# Bulk Modulus (GPa) = 11.03637 25.89571 18.46604
# Shear Modulus (GPa) = 23.26942 35.16350 29.21646
#
# Velocity S-wave (km/s) = 3.28992 4.04426 3.68644
# Velocity P-wave (km/s) = 4.42323 5.81836 5.16809
#
# Compressibility (1/GPa) = 0.09060947
#
# Stress axis : x y z
#
# Youngs Moduli (GPa) = 66.73063 18.66915 69.64108
#
# Poissons Ratio (x) = -0.28136 0.24650
# Poissons Ratio (y) = -1.00569 0.53493
# Poissons Ratio (z) = 0.23620 0.14340
#
# Static dielectric constant tensor:
#      x y z
#    x 3.774960 0.000000 0.011040 
#    y 0.000000 3.656880 0.000000 
#    z 0.011040 0.000000 3.646140 
# 
# 
# High freq. dielectric constant tensor:
#      x y z
#    x 1.857660 0.000000 -0.003370 
#    y 0.000000 1.825560 0.000000 
#    z -0.003370 0.000000 1.838780 
# 
# From -- ./inp_files/5064.got.cif
#   From: 2010.03.12/outbox.cif.g09.slc.cpg/sg14_3_cif.got.tgz:5064.got - 2010.03.31 13:35:05.
