data_PCOD8126256
_publ_section_title
;
Structure prediction by ZEFSAII (Michael W. Deem and Ramdas Pophale) SiO2 
 PCOD8126256
Probable space group: P 21/C
;
_chemical_formula_sum "Si O2"
_cell_formula_units_Z 32
_cell_length_a 11.986797
_cell_length_b 17.567148
_cell_length_c 15.612510
_cell_angle_alpha 90.000000
_cell_angle_beta 27.284637
_cell_angle_gamma 90.000000
_cell_volume 1507.066531
_symmetry_space_group_name_H-M "P 21/C"
_symmetry_group_IT_number 14
_symmetry_cell_setting 'monoclinic'
loop_
_space_group_symop_operation_xyz
x,y,z
-x,1/2+y,1/2-z
-x,-y,-z
x,1/2-y,1/2+z
loop_
_atom_site_type_symbol
_atom_site_label
_atom_site_fract_x
_atom_site_fract_y
_atom_site_fract_z
Si Si1 0.473851 0.099027 0.181018
Si Si2 0.764927 0.916248 0.339751
Si Si3 0.660461 0.072686 0.735829
Si Si4 0.784615 0.085320 0.265512
Si Si5 0.169606 0.383807 0.640627
Si Si6 0.973677 0.824644 0.591613
Si Si7 0.124568 0.658747 0.472424
Si Si8 0.149082 0.553470 0.711367
O O1 0.244181 0.153272 0.323536
O O2 0.619990 0.134786 0.160325
O O3 0.403061 0.012150 0.252363
O O4 0.639056 0.098464 0.983156
O O5 0.492491 0.886053 0.538066
O O6 0.887705 0.923973 0.349873
O O7 0.787432 0.994548 0.271487
O O8 0.901354 0.855877 0.188305
O O9 0.835583 0.073965 0.699701
O O10 0.816113 0.110659 0.553923
O O11 0.419964 0.124177 0.916598
O O12 0.903970 0.111391 0.095298
O O13 0.940729 0.122733 0.234226
O O14 0.128217 0.319481 0.741424
O O15 0.194323 0.463801 0.672883
O O16 0.104320 0.748509 0.468818
#
# Coordination Sequence:
#
# PCOD8126256 Si02
#       8
#     4   4   4   4   4   4   4   4
#     4  10  21  42  65  90 126 164 214 271 308 371
#     4   9  21  40  66  91 123 171 213 265 304 368
#     4  11  21  38  69  96 120 164 217 269 313 365
#     4  10  22  41  66  90 124 176 216 248 308 387
#     4  10  21  39  61  92 127 155 209 264 311 367
#     4  12  25  39  62  97 127 168 208 258 330 380
#     4  11  26  42  59  96 135 166 207 262 328 381
#     4   9  17  38  67  96 117 154 217 269 313 353
#
# _framework density 21.233301000000001
#
# number of rings (size 3 to 8) (size 9 to 14) (size 15 to 20)
#    0.000    1.750    2.500    2.250    1.750    6.000 
#    4.500    0.000    0.000    0.000    0.000    0.000 
#    0.000    0.000    0.000    0.000    0.000    0.000 
#
# Total GULP energy -396858.122847 kJ/mol
# GULP energy per Si atom -12401.816339 kJ/mol
# Density = 2.118497 g / cm^3
# Si number density = 21.233301 Si / 1000 Ang^3
#
#
#
# Elastic Constant Matrix: (Units=GPa)
#
#
# Indices 1 2 3 4 5 6 
#
# 1 88.9583 35.4814 39.2524 0.0000 -21.1615 0.0000
# 2 35.4814 75.1442 27.2550 0.0000 -6.7107 0.0000
# 3 39.2524 27.2550 79.8779 0.0000 -22.7894 0.0000
# 4 0.0000 0.0000 0.0000 29.2317 0.0000 0.2677
# 5 -21.1615 -6.7107 -22.7894 0.0000 33.8576 0.0000
# 6 0.0000 0.0000 0.0000 0.2677 0.0000 14.4046
#
#
#
# Elastic Compliance Matrix: (Units=1/GPa)
#
#
# Indices 1 2 3 4 5 6 
#
# 1 0.017134 -0.005852 -0.004577 0.000000 0.006468 0.000000
# 2 -0.005852 0.017196 -0.003791 0.000000 -0.002801 0.000000
# 3 -0.004577 -0.003791 0.018604 0.000000 0.008910 0.000000
# 4 0.000000 0.000000 0.000000 0.034215 0.000000 -0.000636
# 5 0.006468 -0.002801 0.008910 0.000000 0.039020 0.000000
# 6 0.000000 0.000000 0.000000 -0.000636 0.000000 0.069434
#
#
# Mechanical properties :
#
#
# Convention : Reuss Voigt Hill
#
# Bulk Modulus (GPa) = 40.82847 49.77310 45.30079
# Shear Modulus (GPa) = 21.53241 24.96489 23.24865
#
# Velocity S-wave (km/s) = 3.18793 3.43263 3.31254
# Velocity P-wave (km/s) = 5.72894 6.26119 6.00097
#
# Compressibility (1/GPa) = 0.02449271
#
# Stress axis : x y z
#
# Youngs Moduli (GPa) = 58.36407 58.15367 53.75208
#
# Poissons Ratio (x) = 0.34034 0.24605
# Poissons Ratio (y) = 0.34157 0.20375
# Poissons Ratio (z) = 0.26716 0.22044
#
# Static dielectric constant tensor:
#      x y z
#    x 3.828040 0.000000 -0.181780 
#    y 0.000000 3.491460 0.000000 
#    z -0.181780 0.000000 3.881710 
# 
# 
# High freq. dielectric constant tensor:
#      x y z
#    x 1.836090 0.000000 -0.010230 
#    y 0.000000 1.800620 0.000000 
#    z -0.010230 0.000000 1.840610 
# 
# From -- ./inp_files/45419.got.cif
#   From: 2010.03.12/outbox.cif.g09.slc.cpg/sg14_23_cif.got.tgz:45419.got - 2010.03.31 13:35:05.
