data_PCOD8126229
_publ_section_title
;
Structure prediction by ZEFSAII (Michael W. Deem and Ramdas Pophale) SiO2 
 PCOD8126229
Probable space group: P 21/C
;
_chemical_formula_sum "Si O2"
_cell_formula_units_Z 32
_cell_length_a 16.064169
_cell_length_b 6.493682
_cell_length_c 26.360292
_cell_angle_alpha 90.000000
_cell_angle_beta 35.057945
_cell_angle_gamma 90.000000
_cell_volume 1579.491852
_symmetry_space_group_name_H-M "P 21/C"
_symmetry_group_IT_number 14
_symmetry_cell_setting 'monoclinic'
loop_
_space_group_symop_operation_xyz
x,y,z
-x,1/2+y,1/2-z
-x,-y,-z
x,1/2-y,1/2+z
loop_
_atom_site_type_symbol
_atom_site_label
_atom_site_fract_x
_atom_site_fract_y
_atom_site_fract_z
Si Si1 0.327801 0.804419 0.215771
Si Si2 0.772986 0.547833 0.663974
Si Si3 0.517804 0.812632 0.821681
Si Si4 0.102409 0.798117 0.747206
Si Si5 0.982324 0.374355 0.381404
Si Si6 0.743167 0.917446 0.067974
Si Si7 0.615919 0.572378 0.066815
Si Si8 0.138868 0.974597 0.624773
O O1 0.256387 0.684058 0.299949
O O2 0.217122 0.818376 0.224910
O O3 0.468436 0.685506 0.125952
O O4 0.370218 0.039206 0.205159
O O5 0.619475 0.668040 0.736958
O O6 0.892336 0.660225 0.639229
O O7 0.830617 0.563101 0.577355
O O8 0.419214 0.666866 0.906048
O O9 0.402822 0.950448 0.848755
O O10 0.968902 0.650264 0.803502
O O11 0.049001 0.005766 0.800641
O O12 0.175401 0.841365 0.656326
O O13 0.846622 0.497355 0.472379
O O14 0.928175 0.154556 0.388607
O O15 0.695180 0.686429 0.075150
O O16 0.715584 0.582638 0.967481
#
# Coordination Sequence:
#
# PCOD8126229 Si02
#       8
#     4   4   4   4   4   4   4   4
#     4   9  22  42  60  90 124 156 202 256 293 357
#     4  10  23  37  62  90 122 162 204 244 297 356
#     4  10  21  39  60  88 123 162 198 246 301 347
#     4  11  23  40  66  89 117 157 204 251 310 365
#     4  11  22  42  59  90 125 156 199 258 299 357
#     4  11  22  37  63  87 125 163 202 243 298 359
#     4  10  22  39  61  89 125 159 201 247 300 360
#     4  12  22  40  65  90 117 162 201 251 310 361
#
# _framework density 20.259678999999998
#
# number of rings (size 3 to 8) (size 9 to 14) (size 15 to 20)
#    0.000    1.500    3.750    1.125    5.250    0.500 
#    0.000    1.250    0.000    0.000    0.000    0.000 
#    0.000    0.000    0.000    0.000    0.000    0.000 
#
# Total GULP energy -396729.168203 kJ/mol
# GULP energy per Si atom -12397.786506 kJ/mol
# Density = 2.021357 g / cm^3
# Si number density = 20.259679 Si / 1000 Ang^3
#
#
#
# Elastic Constant Matrix: (Units=GPa)
#
#
# Indices 1 2 3 4 5 6 
#
# 1 47.8236 -5.2972 17.7552 0.0000 16.4184 0.0000
# 2 -5.2972 60.8225 7.8925 0.0000 10.5562 0.0000
# 3 17.7552 7.8925 66.0618 0.0000 9.0583 0.0000
# 4 0.0000 0.0000 0.0000 28.7257 0.0000 -6.9537
# 5 16.4184 10.5562 9.0583 0.0000 28.4274 0.0000
# 6 0.0000 0.0000 0.0000 -6.9537 0.0000 25.0331
#
#
#
# Elastic Compliance Matrix: (Units=1/GPa)
#
#
# Indices 1 2 3 4 5 6 
#
# 1 0.030131 0.006546 -0.006442 0.000000 -0.017780 0.000000
# 2 0.006546 0.019097 -0.002667 0.000000 -0.010022 0.000000
# 3 -0.006442 -0.002667 0.017297 0.000000 -0.000801 0.000000
# 4 0.000000 0.000000 0.000000 0.037322 0.000000 0.010367
# 5 -0.017780 -0.010022 -0.000801 0.000000 0.049423 0.000000
# 6 0.000000 0.000000 0.000000 0.010367 0.000000 0.042827
#
#
# Mechanical properties :
#
#
# Convention : Reuss Voigt Hill
#
# Bulk Modulus (GPa) = 16.28672 23.93431 20.11052
# Shear Modulus (GPa) = 22.55406 26.72773 24.64090
#
# Velocity S-wave (km/s) = 3.34016 3.63610 3.49127
# Velocity P-wave (km/s) = 4.78873 5.42842 5.11858
#
# Compressibility (1/GPa) = 0.06139970
#
# Stress axis : x y z
#
# Youngs Moduli (GPa) = 33.18808 52.36453 57.81283
#
# Poissons Ratio (x) = -0.34278 0.37245
# Poissons Ratio (y) = -0.21725 0.15417
# Poissons Ratio (z) = 0.21381 0.13964
#
# Static dielectric constant tensor:
#      x y z
#    x 3.551080 0.000000 -0.091240 
#    y 0.000000 3.730450 0.000000 
#    z -0.091240 0.000000 3.757360 
# 
# 
# High freq. dielectric constant tensor:
#      x y z
#    x 1.779710 0.000000 -0.010450 
#    y 0.000000 1.791420 0.000000 
#    z -0.010450 0.000000 1.798430 
# 
# From -- ./inp_files/80328.got.cif
#   From: 2010.03.12/outbox.cif.g09.slc.cpg/sg14_41_cif.got.tgz:80328.got - 2010.03.31 13:35:05.
