data_PCOD8126883
_publ_section_title
;
Structure prediction by ZEFSAII (Michael W. Deem and Ramdas Pophale) SiO2 
 PCOD8126883
Probable space group: P 21/C
;
_chemical_formula_sum "Si O2"
_cell_formula_units_Z 32
_cell_length_a 13.146519
_cell_length_b 11.702964
_cell_length_c 10.814649
_cell_angle_alpha 90.000000
_cell_angle_beta 109.884907
_cell_angle_gamma 90.000000
_cell_volume 1564.665186
_symmetry_space_group_name_H-M "P 21/C"
_symmetry_group_IT_number 14
_symmetry_cell_setting 'monoclinic'
loop_
_space_group_symop_operation_xyz
x,y,z
-x,1/2+y,1/2-z
-x,-y,-z
x,1/2-y,1/2+z
loop_
_atom_site_type_symbol
_atom_site_label
_atom_site_fract_x
_atom_site_fract_y
_atom_site_fract_z
Si Si1 0.675135 0.448258 0.855510
Si Si2 0.802804 0.244441 0.296251
Si Si3 0.718518 0.459487 0.149232
Si Si4 0.883162 0.167365 0.081391
Si Si5 0.426943 0.398405 0.770734
Si Si6 0.257790 0.450607 0.498927
Si Si7 0.708013 0.822092 0.236836
Si Si8 0.128957 0.134623 0.160360
O O1 0.737904 0.373675 0.780322
O O2 0.552558 0.405454 0.796920
O O3 0.691937 0.581675 0.834720
O O4 0.724799 0.420954 0.010091
O O5 0.721975 0.350306 0.241516
O O6 0.878366 0.242183 0.205058
O O7 0.870756 0.260579 0.450239
O O8 0.604627 0.525050 0.122906
O O9 0.816326 0.544303 0.224101
O O10 0.002655 0.115861 0.126949
O O11 0.787044 0.075110 0.054587
O O12 0.362264 0.455816 0.630284
O O13 0.388639 0.268415 0.780563
O O14 0.299074 0.379838 0.399197
O O15 0.159483 0.389237 0.530336
O O16 0.826014 0.762274 0.293939
#
# Coordination Sequence:
#
# PCOD8126883 Si02
#       8
#     4   4   4   4   4   4   4   4
#     4  12  25  43  67  96 136 176 217 285 326 398
#     4  12  25  43  64 100 137 168 226 278 324 400
#     4  10  23  44  64  95 132 168 224 270 327 405
#     4  12  24  44  68  99 133 182 220 275 343 391
#     4  10  25  40  69  93 129 184 211 274 344 389
#     4  10  21  44  63  95 132 166 230 269 322 415
#     4  10  24  41  63 101 131 165 229 277 323 407
#     4  10  25  41  72  91 131 176 216 273 344 392
#
# _framework density 20.45166
#
# number of rings (size 3 to 8) (size 9 to 14) (size 15 to 20)
#    0.000    1.500    5.000    0.750   10.500    1.500 
#    0.000    1.250    0.000    0.000    0.000    0.000 
#    0.000    0.000    0.000    0.000    0.000    0.000 
#
# Total GULP energy -396687.049566 kJ/mol
# GULP energy per Si atom -12396.470299 kJ/mol
# Density = 2.040511 g / cm^3
# Si number density = 20.451660 Si / 1000 Ang^3
#
#
#
# Elastic Constant Matrix: (Units=GPa)
#
#
# Indices 1 2 3 4 5 6 
#
# 1 79.1945 20.9010 51.3700 0.0000 4.7820 0.0000
# 2 20.9010 99.7554 31.4629 0.0000 4.4898 0.0000
# 3 51.3700 31.4629 110.2168 0.0000 -13.7996 0.0000
# 4 0.0000 0.0000 0.0000 29.2376 0.0000 -9.2012
# 5 4.7820 4.4898 -13.7996 0.0000 30.1638 0.0000
# 6 0.0000 0.0000 0.0000 -9.2012 0.0000 26.0731
#
#
#
# Elastic Compliance Matrix: (Units=1/GPa)
#
#
# Indices 1 2 3 4 5 6 
#
# 1 0.019711 -0.000650 -0.009950 0.000000 -0.007580 0.000000
# 2 -0.000650 0.011350 -0.003326 0.000000 -0.003108 0.000000
# 3 -0.009950 -0.003326 0.015826 0.000000 0.009313 0.000000
# 4 0.000000 0.000000 0.000000 0.038476 0.000000 0.013578
# 5 -0.007580 -0.003108 0.009313 0.000000 0.039077 0.000000
# 6 0.000000 0.000000 0.000000 0.013578 0.000000 0.043145
#
#
# Mechanical properties :
#
#
# Convention : Reuss Voigt Hill
#
# Bulk Modulus (GPa) = 52.53900 55.18161 53.86031
# Shear Modulus (GPa) = 24.77921 29.45708 27.11815
#
# Velocity S-wave (km/s) = 3.48458 3.79928 3.64533
# Velocity P-wave (km/s) = 6.47571 6.80339 6.64157
#
# Compressibility (1/GPa) = 0.01903348
#
# Stress axis : x y z
#
# Youngs Moduli (GPa) = 50.73375 88.10833 63.18697
#
# Poissons Ratio (x) = 0.05730 0.62872
# Poissons Ratio (y) = 0.03300 0.21015
# Poissons Ratio (z) = 0.50481 0.29304
#
# Static dielectric constant tensor:
#      x y z
#    x 3.529330 0.000000 -0.156170 
#    y 0.000000 3.773480 0.000000 
#    z -0.156170 0.000000 3.715750 
# 
# 
# High freq. dielectric constant tensor:
#      x y z
#    x 1.787700 0.000000 -0.014520 
#    y 0.000000 1.806430 0.000000 
#    z -0.014520 0.000000 1.805530 
# 
# From -- ./inp_files/32212.got.cif
#   From: 2010.03.12/outbox.cif.g09.slc.cpg/sg14_17_cif.got.tgz:32212.got - 2010.03.31 13:35:05.
