data_PCOD8126862
_publ_section_title
;
Structure prediction by ZEFSAII (Michael W. Deem and Ramdas Pophale) SiO2 
 PCOD8126862
Probable space group: P 21/C
;
_chemical_formula_sum "Si O2"
_cell_formula_units_Z 20
_cell_length_a 27.184963
_cell_length_b 7.959989
_cell_length_c 18.530164
_cell_angle_alpha 90.000000
_cell_angle_beta 166.514278
_cell_angle_gamma 90.000000
_cell_volume 935.092754
_symmetry_space_group_name_H-M "P 21/C"
_symmetry_group_IT_number 14
_symmetry_cell_setting 'monoclinic'
loop_
_space_group_symop_operation_xyz
x,y,z
-x,1/2+y,1/2-z
-x,-y,-z
x,1/2-y,1/2+z
loop_
_atom_site_type_symbol
_atom_site_label
_atom_site_fract_x
_atom_site_fract_y
_atom_site_fract_z
Si Si1 0.687407 0.422957 0.958718
Si Si2 0.010094 0.264216 0.832844
Si Si3 0.508537 0.735114 0.182710
Si Si4 0.379299 0.012978 0.903118
Si Si5 0.694983 0.978546 0.831327
O O1 0.678902 0.626618 0.955237
O O2 0.516274 0.369942 0.653061
O O3 0.918529 0.362787 0.262606
O O4 0.637110 0.331202 0.961314
O O5 0.819917 0.347403 0.516535
O O6 0.146656 0.410825 0.064786
O O7 0.154302 0.166705 0.982734
O O8 0.360371 0.826551 0.911205
O O9 0.623155 0.577519 0.308952
O O10 0.500000 0.000000 0.000000
O O11 0.500000 0.000000 0.500000
#
# Coordination Sequence:
#
# PCOD8126862 Si02
#       5
#     4   4   4   4   4
#     4  10  23  43  66  98 136 180 227 286 345 400
#     4  12  23  41  70 100 134 186 237 281 342 421
#     4  10  23  46  67  95 146 177 222 297 342 400
#     4  10  21  43  69  92 142 175 226 287 345 395
#     4  12  26  42  72 105 138 183 234 284 347 411
#
# _framework density 21.388252000000001
#
# number of rings (size 3 to 8) (size 9 to 14) (size 15 to 20)
#    1.200    0.000    2.000    4.800    2.800    0.800 
#    0.000    2.000    0.000    0.000    0.000    0.000 
#    0.000    0.000    0.000    0.000    0.000    0.000 
#
# Total GULP energy -247937.229122 kJ/mol
# GULP energy per Si atom -12396.861456 kJ/mol
# Density = 2.133957 g / cm^3
# Si number density = 21.388252 Si / 1000 Ang^3
#
#
#
# Elastic Constant Matrix: (Units=GPa)
#
#
# Indices 1 2 3 4 5 6 
#
# 1 132.8400 22.2854 29.5717 0.0000 8.5930 0.0000
# 2 22.2854 72.8386 22.8148 0.0000 0.9428 0.0000
# 3 29.5717 22.8148 84.7134 0.0000 8.8375 0.0000
# 4 0.0000 0.0000 0.0000 46.6951 0.0000 -3.4674
# 5 8.5930 0.9428 8.8375 0.0000 21.5023 0.0000
# 6 0.0000 0.0000 0.0000 -3.4674 0.0000 44.9394
#
#
#
# Elastic Compliance Matrix: (Units=1/GPa)
#
#
# Indices 1 2 3 4 5 6 
#
# 1 0.008489 -0.001875 -0.002208 0.000000 -0.002403 0.000000
# 2 -0.001875 0.015430 -0.003666 0.000000 0.001579 0.000000
# 3 -0.002208 -0.003666 0.014056 0.000000 -0.004734 0.000000
# 4 0.000000 0.000000 0.000000 0.021539 0.000000 0.001662
# 5 -0.002403 0.001579 -0.004734 0.000000 0.049344 0.000000
# 6 0.000000 0.000000 0.000000 0.001662 0.000000 0.022380
#
#
# Mechanical properties :
#
#
# Convention : Reuss Voigt Hill
#
# Bulk Modulus (GPa) = 44.48604 48.85955 46.67280
# Shear Modulus (GPa) = 32.41930 37.00871 34.71400
#
# Velocity S-wave (km/s) = 3.89749 4.16423 4.03307
# Velocity P-wave (km/s) = 6.41080 6.78342 6.59974
#
# Compressibility (1/GPa) = 0.02247896
#
# Stress axis : x y z
#
# Youngs Moduli (GPa) = 117.79554 64.80714 71.14177
#
# Poissons Ratio (x) = 0.12149 0.15707
# Poissons Ratio (y) = 0.22083 0.26081
# Poissons Ratio (z) = 0.26008 0.23758
#
# Static dielectric constant tensor:
#      x y z
#    x 3.755570 0.000000 -0.011070 
#    y 0.000000 3.972600 0.000000 
#    z -0.011070 0.000000 3.745370 
# 
# 
# High freq. dielectric constant tensor:
#      x y z
#    x 1.841910 0.000000 0.009740 
#    y 0.000000 1.846070 0.000000 
#    z 0.009740 0.000000 1.820430 
# 
# From -- ./inp_files/70728.got.cif
#   From: 2010.03.12/outbox.cif.g09.slc.cpg/sg14_36_cif.got.tgz:70728.got - 2010.03.31 13:35:05.
