data_PCOD8126809
_publ_section_title
;
Structure prediction by ZEFSAII (Michael W. Deem and Ramdas Pophale) SiO2 
 PCOD8126809
Probable space group: P 21/C
;
_chemical_formula_sum "Si O2"
_cell_formula_units_Z 28
_cell_length_a 9.039806
_cell_length_b 7.971779
_cell_length_c 29.003488
_cell_angle_alpha 90.000000
_cell_angle_beta 141.726095
_cell_angle_gamma 90.000000
_cell_volume 1294.645596
_symmetry_space_group_name_H-M "P 21/C"
_symmetry_group_IT_number 14
_symmetry_cell_setting 'monoclinic'
loop_
_space_group_symop_operation_xyz
x,y,z
-x,1/2+y,1/2-z
-x,-y,-z
x,1/2-y,1/2+z
loop_
_atom_site_type_symbol
_atom_site_label
_atom_site_fract_x
_atom_site_fract_y
_atom_site_fract_z
Si Si1 0.661191 0.785160 0.918369
Si Si2 0.402041 0.656483 0.764670
Si Si3 0.500163 0.005324 0.445225
Si Si4 0.445686 0.282298 0.792605
Si Si5 0.725662 0.963959 0.177122
Si Si6 0.963913 0.818601 0.689964
Si Si7 0.845663 0.168131 0.463432
O O1 0.568248 0.707357 0.847978
O O2 0.584960 0.668488 0.943074
O O3 0.543383 0.968461 0.898097
O O4 0.948268 0.811317 0.983675
O O5 0.328014 0.462842 0.753771
O O6 0.537361 0.676539 0.749979
O O7 0.171232 0.779061 0.703621
O O8 0.221046 0.035410 0.366880
O O9 0.663141 0.155606 0.462679
O O10 0.500000 0.000000 0.500000
O O11 0.270231 0.170077 0.780193
O O12 0.698629 0.307287 0.880437
O O13 0.827481 0.859384 0.159570
O O14 0.897899 0.121419 0.229957
O O15 0.000000 0.000000 0.500000
#
# Coordination Sequence:
#
# PCOD8126809 Si02
#       7
#     4   4   4   4   4   4   4
#     4  10  22  43  66  97 131 175 223 276 332 398
#     4  11  23  38  67  97 132 165 225 278 331 399
#     4  11  23  41  68  96 130 183 221 263 340 406
#     4  12  23  43  65 104 126 177 226 274 340 402
#     4  11  22  41  68  93 131 173 213 282 332 395
#     4  11  22  39  63  94 131 168 217 271 336 388
#     4  10  21  42  71  89 138 175 219 272 335 405
#
# _framework density 21.62754
#
# number of rings (size 3 to 8) (size 9 to 14) (size 15 to 20)
#    0.000    1.143    4.286    4.286    4.000    1.714 
#    0.000    2.143    0.000    0.000    0.000    0.000 
#    0.000    0.000    0.000    0.000    0.000    0.000 
#
# Total GULP energy -346937.671909 kJ/mol
# GULP energy per Si atom -12390.631140 kJ/mol
# Density = 2.157831 g / cm^3
# Si number density = 21.627540 Si / 1000 Ang^3
#
#
#
# Elastic Constant Matrix: (Units=GPa)
#
#
# Indices 1 2 3 4 5 6 
#
# 1 78.0534 -1.4192 40.8520 0.0000 -7.9879 0.0000
# 2 -1.4192 58.7039 7.9939 0.0000 2.0405 0.0000
# 3 40.8520 7.9939 82.5618 0.0000 2.3448 0.0000
# 4 0.0000 0.0000 0.0000 34.7685 0.0000 6.0865
# 5 -7.9879 2.0405 2.3448 0.0000 44.5952 0.0000
# 6 0.0000 0.0000 0.0000 6.0865 0.0000 42.3061
#
#
#
# Elastic Compliance Matrix: (Units=1/GPa)
#
#
# Indices 1 2 3 4 5 6 
#
# 1 0.018009 0.001557 -0.009165 0.000000 0.003636 0.000000
# 2 0.001557 0.017419 -0.002446 0.000000 -0.000390 0.000000
# 3 -0.009165 -0.002446 0.016953 0.000000 -0.002421 0.000000
# 4 0.000000 0.000000 0.000000 0.029505 0.000000 -0.004245
# 5 0.003636 -0.000390 -0.002421 0.000000 0.023220 0.000000
# 6 0.000000 0.000000 0.000000 -0.004245 0.000000 0.024248
#
#
# Mechanical properties :
#
#
# Convention : Reuss Voigt Hill
#
# Bulk Modulus (GPa) = 30.98592 34.90806 32.94699
# Shear Modulus (GPa) = 31.20730 35.79346 33.50038
#
# Velocity S-wave (km/s) = 3.80273 4.07258 3.93996
# Velocity P-wave (km/s) = 5.79993 6.18790 5.99705
#
# Compressibility (1/GPa) = 0.03227272
#
# Stress axis : x y z
#
# Youngs Moduli (GPa) = 55.52774 57.40895 58.98797
#
# Poissons Ratio (x) = -0.08939 0.54062
# Poissons Ratio (y) = -0.08646 0.14428
# Poissons Ratio (z) = 0.50891 0.14042
#
# Static dielectric constant tensor:
#      x y z
#    x 4.141130 0.000000 0.504550 
#    y 0.000000 4.174820 0.000000 
#    z 0.504550 0.000000 4.116270 
# 
# 
# High freq. dielectric constant tensor:
#      x y z
#    x 1.851350 0.000000 0.023070 
#    y 0.000000 1.851850 0.000000 
#    z 0.023070 0.000000 1.831660 
# 
# From -- ./inp_files/70177.got.cif
#   From: 2010.03.12/outbox.cif.g09.slc.cpg/sg14_36_cif.got.tgz:70177.got - 2010.03.31 13:35:05.
