data_PCOD8126341
_publ_section_title
;
Structure prediction by ZEFSAII (Michael W. Deem and Ramdas Pophale) SiO2 
 PCOD8126341
Probable space group: P 21/C
;
_chemical_formula_sum "Si O2"
_cell_formula_units_Z 32
_cell_length_a 12.231849
_cell_length_b 9.263768
_cell_length_c 14.947223
_cell_angle_alpha 90.000000
_cell_angle_beta 115.720914
_cell_angle_gamma 90.000000
_cell_volume 1525.899326
_symmetry_space_group_name_H-M "P 21/C"
_symmetry_group_IT_number 14
_symmetry_cell_setting 'monoclinic'
loop_
_space_group_symop_operation_xyz
x,y,z
-x,1/2+y,1/2-z
-x,-y,-z
x,1/2-y,1/2+z
loop_
_atom_site_type_symbol
_atom_site_label
_atom_site_fract_x
_atom_site_fract_y
_atom_site_fract_z
Si Si1 0.658433 0.747604 0.133028
Si Si2 0.393403 0.750764 0.099708
Si Si3 0.090307 0.607966 0.756575
Si Si4 0.277932 0.489173 0.966556
Si Si5 0.638585 0.042616 0.061370
Si Si6 0.091501 0.297817 0.699657
Si Si7 0.877716 0.574089 0.928273
Si Si8 0.258515 0.827729 0.725980
O O1 0.538314 0.777827 0.149430
O O2 0.634031 0.622670 0.052200
O O3 0.764978 0.692054 0.233503
O O4 0.707167 0.891341 0.099513
O O5 0.346615 0.747610 0.184457
O O6 0.368308 0.598383 0.045544
O O7 0.322698 0.872497 0.015346
O O8 0.181899 0.569811 0.869106
O O9 0.041290 0.461822 0.690025
O O10 0.154747 0.710756 0.707809
O O11 0.975441 0.694216 0.753681
O O12 0.203371 0.398683 0.013679
O O13 0.662326 0.142227 0.157049
O O14 0.500000 0.000000 0.000000
O O15 0.081417 0.228418 0.597804
O O16 0.803474 0.475349 0.830754
O O17 0.000000 0.500000 0.000000
#
# Coordination Sequence:
#
# PCOD8126341 Si02
#       8
#     4   4   4   4   4   4   4   4
#     4  10  22  41  61  95 127 169 218 269 328 388
#     4  10  22  42  66  97 132 172 220 265 335 401
#     4  11  23  40  67  93 127 175 217 275 331 399
#     4  10  21  39  66  92 129 173 214 269 331 397
#     4  10  21  42  65  94 132 174 212 269 327 388
#     4  11  23  41  64  94 128 174 222 269 335 394
#     4  11  22  41  64  94 132 172 222 271 334 399
#     4  11  23  43  67  96 136 176 215 276 335 392
#
# _framework density 20.971238
#
# number of rings (size 3 to 8) (size 9 to 14) (size 15 to 20)
#    0.000    1.500    3.750    1.125    1.750    1.000 
#   13.500    0.625    0.000    0.000    0.000    0.000 
#    0.000    0.000    0.000    0.000    0.000    0.000 
#
# Total GULP energy -396641.473967 kJ/mol
# GULP energy per Si atom -12395.046061 kJ/mol
# Density = 2.092351 g / cm^3
# Si number density = 20.971238 Si / 1000 Ang^3
#
#
#
# Elastic Constant Matrix: (Units=GPa)
#
#
# Indices 1 2 3 4 5 6 
#
# 1 87.5894 12.3523 15.6563 0.0000 -8.2613 0.0000
# 2 12.3523 68.4056 2.8504 0.0000 -9.3416 0.0000
# 3 15.6563 2.8504 67.9466 0.0000 -2.6325 0.0000
# 4 0.0000 0.0000 0.0000 28.5835 0.0000 -3.8564
# 5 -8.2613 -9.3416 -2.6325 0.0000 25.4057 0.0000
# 6 0.0000 0.0000 0.0000 -3.8564 0.0000 36.0264
#
#
#
# Elastic Compliance Matrix: (Units=1/GPa)
#
#
# Indices 1 2 3 4 5 6 
#
# 1 0.012431 -0.001705 -0.002671 0.000000 0.003139 0.000000
# 2 -0.001705 0.015638 -0.000062 0.000000 0.005189 0.000000
# 3 -0.002671 -0.000062 0.015363 0.000000 0.000700 0.000000
# 4 0.000000 0.000000 0.000000 0.035498 0.000000 0.003800
# 5 0.003139 0.005189 0.000700 0.000000 0.042362 0.000000
# 6 0.000000 0.000000 0.000000 0.003800 0.000000 0.028164
#
#
# Mechanical properties :
#
#
# Convention : Reuss Voigt Hill
#
# Bulk Modulus (GPa) = 28.93939 31.73997 30.33968
# Shear Modulus (GPa) = 29.43771 30.87531 30.15651
#
# Velocity S-wave (km/s) = 3.75069 3.84118 3.79620
# Velocity P-wave (km/s) = 5.70845 5.90260 5.80634
#
# Compressibility (1/GPa) = 0.03455498
#
# Stress axis : x y z
#
# Youngs Moduli (GPa) = 80.44523 63.94786 65.09279
#
# Poissons Ratio (x) = 0.10902 0.17388
# Poissons Ratio (y) = 0.13714 0.00404
# Poissons Ratio (z) = 0.21489 0.00397
#
# Static dielectric constant tensor:
#      x y z
#    x 46.879280 0.000000 -35.065480 
#    y 0.000000 4.539200 0.000000 
#    z -35.065480 0.000000 32.153910 
# 
# 
# High freq. dielectric constant tensor:
#      x y z
#    x 1.817150 0.000000 0.000850 
#    y 0.000000 1.830280 0.000000 
#    z 0.000850 0.000000 1.813210 
# 
# From -- ./inp_files/43783.got.cif
#   From: 2010.03.12/outbox.cif.g09.slc.cpg/sg14_22_cif.got.tgz:43783.got - 2010.03.31 13:35:05.
