data_PCOD8126187
_publ_section_title
;
Structure prediction by ZEFSAII (Michael W. Deem and Ramdas Pophale) SiO2 
 PCOD8126187
Probable space group: P 21/C
;
_chemical_formula_sum "Si O2"
_cell_formula_units_Z 28
_cell_length_a 9.187194
_cell_length_b 11.515758
_cell_length_c 15.067781
_cell_angle_alpha 90.000000
_cell_angle_beta 60.649436
_cell_angle_gamma 90.000000
_cell_volume 1389.505909
_symmetry_space_group_name_H-M "P 21/C"
_symmetry_group_IT_number 14
_symmetry_cell_setting 'monoclinic'
loop_
_space_group_symop_operation_xyz
x,y,z
-x,1/2+y,1/2-z
-x,-y,-z
x,1/2-y,1/2+z
loop_
_atom_site_type_symbol
_atom_site_label
_atom_site_fract_x
_atom_site_fract_y
_atom_site_fract_z
Si Si1 0.457329 0.079056 0.373582
Si Si2 0.101896 0.776195 0.865918
Si Si3 0.529957 0.130688 0.016883
Si Si4 0.345242 0.960403 0.852009
Si Si5 0.273848 0.201717 0.967927
Si Si6 0.154292 0.919183 0.482857
Si Si7 0.232343 0.695997 0.135031
O O1 0.523607 0.018544 0.264949
O O2 0.359059 0.199222 0.381876
O O3 0.617997 0.105192 0.387485
O O4 0.323213 0.990359 0.454060
O O5 0.175519 0.901018 0.869800
O O6 0.192695 0.670829 0.891004
O O7 0.119401 0.769292 0.753899
O O8 0.914250 0.767866 0.955241
O O9 0.366369 0.202417 0.036256
O O10 0.691495 0.181401 0.918574
O O11 0.563067 0.132740 0.111421
O O12 0.500000 0.000000 0.000000
O O13 0.294747 0.080461 0.911932
O O14 0.118500 0.855245 0.588370
O O15 0.000000 0.000000 0.500000
#
# Coordination Sequence:
#
# PCOD8126187 Si02
#       7
#     4   4   4   4   4   4   4
#     4  10  23  39  64  94 127 169 212 259 324 386
#     4  11  23  42  62  95 130 168 212 269 328 375
#     4   9  19  36  61  88 121 163 208 262 310 374
#     4  10  21  38  66  91 122 172 217 262 312 381
#     4  10  21  40  57  92 132 159 213 267 317 385
#     4  12  24  43  66  94 133 174 215 267 326 394
#     4  10  23  43  63  91 132 169 216 269 322 385
#
# _framework density 20.151049
#
# number of rings (size 3 to 8) (size 9 to 14) (size 15 to 20)
#    0.000    1.714    2.857    0.857    8.000    1.143 
#    2.571    1.429    0.000    0.000    0.000    0.000 
#    0.000    0.000    0.000    0.000    0.000    0.000 
#
# Total GULP energy -346946.218990 kJ/mol
# GULP energy per Si atom -12390.936393 kJ/mol
# Density = 2.010518 g / cm^3
# Si number density = 20.151049 Si / 1000 Ang^3
#
#
#
# Elastic Constant Matrix: (Units=GPa)
#
#
# Indices 1 2 3 4 5 6 
#
# 1 77.3162 25.8891 42.3050 0.0000 1.3160 0.0000
# 2 25.8891 86.3338 38.1970 0.0000 5.2493 0.0000
# 3 42.3050 38.1970 97.3042 0.0000 17.4026 0.0000
# 4 0.0000 0.0000 0.0000 28.7676 0.0000 -2.1559
# 5 1.3160 5.2493 17.4026 0.0000 35.0201 0.0000
# 6 0.0000 0.0000 0.0000 -2.1559 0.0000 33.0059
#
#
#
# Elastic Compliance Matrix: (Units=1/GPa)
#
#
# Indices 1 2 3 4 5 6 
#
# 1 0.017677 -0.002226 -0.007411 0.000000 0.003352 0.000000
# 2 -0.002226 0.014313 -0.004700 0.000000 0.000274 0.000000
# 3 -0.007411 -0.004700 0.016648 0.000000 -0.007290 0.000000
# 4 0.000000 0.000000 0.000000 0.034932 0.000000 0.002282
# 5 0.003352 0.000274 -0.007290 0.000000 0.032011 0.000000
# 6 0.000000 0.000000 0.000000 0.002282 0.000000 0.030447
#
#
# Mechanical properties :
#
#
# Convention : Reuss Voigt Hill
#
# Bulk Modulus (GPa) = 50.08907 52.63737 51.36322
# Shear Modulus (GPa) = 27.56988 29.66293 28.61640
#
# Velocity S-wave (km/s) = 3.70288 3.84087 3.77250
# Velocity P-wave (km/s) = 6.57210 6.77110 6.67234
#
# Compressibility (1/GPa) = 0.01996443
#
# Stress axis : x y z
#
# Youngs Moduli (GPa) = 56.56923 69.86584 60.06688
#
# Poissons Ratio (x) = 0.15550 0.44519
# Poissons Ratio (y) = 0.12591 0.28231
# Poissons Ratio (z) = 0.41926 0.32837
#
# Static dielectric constant tensor:
#      x y z
#    x 4.039930 0.000000 0.326010 
#    y 0.000000 3.759830 0.000000 
#    z 0.326010 0.000000 3.646020 
# 
# 
# High freq. dielectric constant tensor:
#      x y z
#    x 1.790280 0.000000 0.008230 
#    y 0.000000 1.793100 0.000000 
#    z 0.008230 0.000000 1.774380 
# 
# From -- ./inp_files/39924.got.cif
#   From: 2010.03.12/outbox.cif.g09.slc.cpg/sg14_20_cif.got.tgz:39924.got - 2010.03.31 13:35:05.
