data_PCOD8126038
_publ_section_title
;
Structure prediction by ZEFSAII (Michael W. Deem and Ramdas Pophale) SiO2 
 PCOD8126038
Probable space group: P 21/C
;
_chemical_formula_sum "Si O2"
_cell_formula_units_Z 32
_cell_length_a 8.258616
_cell_length_b 17.311547
_cell_length_c 11.169928
_cell_angle_alpha 90.000000
_cell_angle_beta 98.327494
_cell_angle_gamma 90.000000
_cell_volume 1580.120436
_symmetry_space_group_name_H-M "P 21/C"
_symmetry_group_IT_number 14
_symmetry_cell_setting 'monoclinic'
loop_
_space_group_symop_operation_xyz
x,y,z
-x,1/2+y,1/2-z
-x,-y,-z
x,1/2-y,1/2+z
loop_
_atom_site_type_symbol
_atom_site_label
_atom_site_fract_x
_atom_site_fract_y
_atom_site_fract_z
Si Si1 0.557201 0.086800 0.768763
Si Si2 0.633247 0.452142 0.646943
Si Si3 0.107467 0.522365 0.691182
Si Si4 0.801394 0.425966 0.896160
Si Si5 0.181507 0.428850 0.477350
Si Si6 0.493842 0.354736 0.998269
Si Si7 0.456069 0.174912 0.983720
Si Si8 0.158716 0.066313 0.437963
O O1 0.750393 0.085042 0.810549
O O2 0.512602 0.107857 0.629276
O O3 0.483541 0.151228 0.848659
O O4 0.496099 0.999128 0.785584
O O5 0.784587 0.430219 0.749976
O O6 0.681506 0.506245 0.539829
O O7 0.566228 0.372432 0.588553
O O8 0.105113 0.450768 0.596962
O O9 0.117346 0.490814 0.825062
O O10 0.946115 0.572472 0.646054
O O11 0.648891 0.377508 0.932944
O O12 0.983713 0.389478 0.943874
O O13 0.794456 0.513409 0.944346
O O14 0.266592 0.345018 0.494138
O O15 0.494087 0.263272 0.008661
O O16 0.315641 0.379789 0.925503
#
# Coordination Sequence:
#
# PCOD8126038 Si02
#       8
#     4   4   4   4   4   4   4   4
#     4  11  21  41  66  90 122 168 222 261 311 384
#     4  11  19  41  64  90 121 168 218 265 307 373
#     4  11  19  37  67  94 119 155 222 273 307 363
#     4  11  23  39  67  94 125 161 216 267 309 377
#     4  10  21  37  63  96 120 162 218 266 310 376
#     4  12  26  42  62  96 133 174 205 265 337 389
#     4  11  25  40  61  91 133 172 206 264 334 384
#     4  11  23  41  67  97 121 166 217 266 317 374
#
# _framework density 20.251621
#
# number of rings (size 3 to 8) (size 9 to 14) (size 15 to 20)
#    0.000    1.000    6.250    1.875    1.750    0.000 
#    2.250    0.000    0.000    0.000    0.000    0.000 
#    0.000    0.000    0.000    0.000    0.000    0.000 
#
# Total GULP energy -396682.294025 kJ/mol
# GULP energy per Si atom -12396.321688 kJ/mol
# Density = 2.020553 g / cm^3
# Si number density = 20.251621 Si / 1000 Ang^3
#
#
#
# Elastic Constant Matrix: (Units=GPa)
#
#
# Indices 1 2 3 4 5 6 
#
# 1 119.7330 33.3940 2.6328 0.0000 19.2759 0.0000
# 2 33.3940 80.6950 3.2857 0.0000 10.8235 0.0000
# 3 2.6328 3.2857 78.7990 0.0000 4.9183 0.0000
# 4 0.0000 0.0000 0.0000 19.9014 0.0000 0.9946
# 5 19.2759 10.8235 4.9183 0.0000 35.6579 0.0000
# 6 0.0000 0.0000 0.0000 0.9946 0.0000 20.6106
#
#
#
# Elastic Compliance Matrix: (Units=1/GPa)
#
#
# Indices 1 2 3 4 5 6 
#
# 1 0.010050 -0.003578 0.000085 0.000000 -0.004358 0.000000
# 2 -0.003578 0.014199 -0.000327 0.000000 -0.002331 0.000000
# 3 0.000085 -0.000327 0.012808 0.000000 -0.001714 0.000000
# 4 0.000000 0.000000 0.000000 0.050369 0.000000 -0.002431
# 5 -0.004358 -0.002331 -0.001714 0.000000 0.031344 0.000000
# 6 0.000000 0.000000 0.000000 -0.002431 0.000000 0.048636
#
#
# Mechanical properties :
#
#
# Convention : Reuss Voigt Hill
#
# Bulk Modulus (GPa) = 33.99275 39.76131 36.87703
# Shear Modulus (GPa) = 27.04888 31.22829 29.13858
#
# Velocity S-wave (km/s) = 3.65861 3.93111 3.79730
# Velocity P-wave (km/s) = 5.88802 6.34674 6.12168
#
# Compressibility (1/GPa) = 0.02941804
#
# Stress axis : x y z
#
# Youngs Moduli (GPa) = 99.50716 70.42837 78.07466
#
# Poissons Ratio (x) = 0.25197 -0.00667
# Poissons Ratio (y) = 0.35601 0.02553
# Poissons Ratio (z) = -0.00850 0.02303
#
# Static dielectric constant tensor:
#      x y z
#    x 4.122060 0.000000 0.117050 
#    y 0.000000 3.257680 0.000000 
#    z 0.117050 0.000000 3.775090 
# 
# 
# High freq. dielectric constant tensor:
#      x y z
#    x 1.809830 0.000000 0.008800 
#    y 0.000000 1.736090 0.000000 
#    z 0.008800 0.000000 1.810810 
# 
# From -- ./inp_files/25553.got.cif
#   From: 2010.03.12/outbox.cif.g09.slc.cpg/sg14_13_cif.got.tgz:25553.got - 2010.03.31 13:35:05.
