data_PCOD8126363
_publ_section_title
;
Structure prediction by ZEFSAII (Michael W. Deem and Ramdas Pophale) SiO2 
 PCOD8126363
Probable space group: P 21/C
;
_chemical_formula_sum "Si O2"
_cell_formula_units_Z 28
_cell_length_a 9.367200
_cell_length_b 10.858572
_cell_length_c 13.929334
_cell_angle_alpha 90.000000
_cell_angle_beta 115.243323
_cell_angle_gamma 90.000000
_cell_volume 1281.515196
_symmetry_space_group_name_H-M "P 21/C"
_symmetry_group_IT_number 14
_symmetry_cell_setting 'monoclinic'
loop_
_space_group_symop_operation_xyz
x,y,z
-x,1/2+y,1/2-z
-x,-y,-z
x,1/2-y,1/2+z
loop_
_atom_site_type_symbol
_atom_site_label
_atom_site_fract_x
_atom_site_fract_y
_atom_site_fract_z
Si Si1 0.428368 0.539974 0.631913
Si Si2 0.960228 0.566301 0.301720
Si Si3 0.369536 0.837699 0.475106
Si Si4 0.393744 0.460218 0.823251
Si Si5 0.038950 0.281468 0.341712
Si Si6 0.619940 0.846351 0.028720
Si Si7 0.135592 0.696238 0.514944
O O1 0.484700 0.511806 0.756070
O O2 0.339139 0.429577 0.551150
O O3 0.582738 0.575570 0.614509
O O4 0.298895 0.646088 0.604487
O O5 0.773873 0.591428 0.260915
O O6 0.023956 0.668054 0.242766
O O7 0.997505 0.420567 0.290146
O O8 0.040211 0.595031 0.426699
O O9 0.487031 0.862081 0.598603
O O10 0.460535 0.724965 0.450448
O O11 0.192615 0.807901 0.461564
O O12 0.351188 0.944079 0.393870
O O13 0.227826 0.262941 0.405029
O O14 0.966557 0.256471 0.425596
#
# Coordination Sequence:
#
# PCOD8126363 Si02
#       7
#     4   4   4   4   4   4   4
#     4  10  21  39  68  92 129 176 233 272 332 403
#     4  12  24  43  69 102 135 181 225 284 341 409
#     4  10  24  43  64  98 136 174 226 282 333 407
#     4  11  22  43  66  93 139 182 219 280 351 391
#     4  12  24  43  68  99 138 178 224 284 344 400
#     4  10  21  40  62 100 130 170 232 280 321 411
#     4  11  23  42  69  99 131 179 232 278 335 411
#
# _framework density 21.849133999999999
#
# number of rings (size 3 to 8) (size 9 to 14) (size 15 to 20)
#    0.000    1.143    4.286    2.143    0.000    3.429 
#    2.571    2.857    0.000    0.000    0.000    0.000 
#    0.000    0.000    0.000    0.000    0.000    0.000 
#
# Total GULP energy -347001.305533 kJ/mol
# GULP energy per Si atom -12392.903769 kJ/mol
# Density = 2.179940 g / cm^3
# Si number density = 21.849134 Si / 1000 Ang^3
#
#
#
# Elastic Constant Matrix: (Units=GPa)
#
#
# Indices 1 2 3 4 5 6 
#
# 1 100.4499 21.9487 38.8483 0.0000 -2.8054 0.0000
# 2 21.9487 83.7459 15.7701 0.0000 -7.9426 0.0000
# 3 38.8483 15.7701 80.5563 0.0000 -9.2489 0.0000
# 4 0.0000 0.0000 0.0000 23.5618 0.0000 2.3429
# 5 -2.8054 -7.9426 -9.2489 0.0000 26.5588 0.0000
# 6 0.0000 0.0000 0.0000 2.3429 0.0000 21.4838
#
#
#
# Elastic Compliance Matrix: (Units=1/GPa)
#
#
# Indices 1 2 3 4 5 6 
#
# 1 0.012680 -0.002361 -0.005813 0.000000 -0.001391 0.000000
# 2 -0.002361 0.013068 -0.001041 0.000000 0.003296 0.000000
# 3 -0.005813 -0.001041 0.015952 0.000000 0.004630 0.000000
# 4 0.000000 0.000000 0.000000 0.042907 0.000000 -0.004679
# 5 -0.001391 0.003296 0.004630 0.000000 0.040103 0.000000
# 6 0.000000 0.000000 0.000000 -0.004679 0.000000 0.047057
#
#
# Mechanical properties :
#
#
# Convention : Reuss Voigt Hill
#
# Bulk Modulus (GPa) = 42.97127 46.43182 44.70154
# Shear Modulus (GPa) = 25.25834 26.86654 26.06244
#
# Velocity S-wave (km/s) = 3.40374 3.51042 3.45749
# Velocity P-wave (km/s) = 5.92935 6.14231 6.03677
#
# Compressibility (1/GPa) = 0.02327136
#
# Stress axis : x y z
#
# Youngs Moduli (GPa) = 78.86345 76.52106 62.68716
#
# Poissons Ratio (x) = 0.18064 0.36437
# Poissons Ratio (y) = 0.18617 0.06529
# Poissons Ratio (z) = 0.45840 0.07969
#
# Static dielectric constant tensor:
#      x y z
#    x 4.014010 0.000000 -0.036550 
#    y 0.000000 4.058950 0.000000 
#    z -0.036550 0.000000 3.897430 
# 
# 
# High freq. dielectric constant tensor:
#      x y z
#    x 1.861340 0.000000 -0.001820 
#    y 0.000000 1.850380 0.000000 
#    z -0.001820 0.000000 1.855850 
# 
# From -- ./inp_files/40121.got.cif
#   From: 2010.03.12/outbox.cif.g09.slc.cpg/sg14_21_cif.got.tgz:40121.got - 2010.03.31 13:35:05.
