data_PCOD8126310
_publ_section_title
;
Structure prediction by ZEFSAII (Michael W. Deem and Ramdas Pophale) SiO2 
 PCOD8126310
Probable space group: P 21/C
;
_chemical_formula_sum "Si O2"
_cell_formula_units_Z 32
_cell_length_a 8.838521
_cell_length_b 30.094493
_cell_length_c 5.282021
_cell_angle_alpha 90.000000
_cell_angle_beta 80.779094
_cell_angle_gamma 90.000000
_cell_volume 1386.813832
_symmetry_space_group_name_H-M "P 21/C"
_symmetry_group_IT_number 14
_symmetry_cell_setting 'monoclinic'
loop_
_space_group_symop_operation_xyz
x,y,z
-x,1/2+y,1/2-z
-x,-y,-z
x,1/2-y,1/2+z
loop_
_atom_site_type_symbol
_atom_site_label
_atom_site_fract_x
_atom_site_fract_y
_atom_site_fract_z
Si Si1 0.271648 0.867695 0.847710
Si Si2 0.316764 0.768187 0.693764
Si Si3 0.036969 0.051844 0.708365
Si Si4 0.972669 0.769242 0.648807
Si Si5 0.594984 0.090169 0.684416
Si Si6 0.718092 0.582892 0.496853
Si Si7 0.038563 0.370349 0.821497
Si Si8 0.248957 0.998370 0.296214
O O1 0.324569 0.817328 0.802797
O O2 0.363955 0.893326 0.604510
O O3 0.088536 0.872881 0.868940
O O4 0.313068 0.885402 0.115468
O O5 0.396537 0.762303 0.394072
O O6 0.144879 0.751994 0.664525
O O7 0.988683 0.091698 0.532965
O O8 0.160204 0.017029 0.563398
O O9 0.117145 0.072166 0.928198
O O10 0.882548 0.026223 0.837147
O O11 0.891666 0.741075 0.442885
O O12 0.968568 0.820718 0.564623
O O13 0.621713 0.037267 0.669614
O O14 0.413643 0.098835 0.778597
O O15 0.780951 0.622407 0.299957
O O16 0.662865 0.538859 0.363915
#
# Coordination Sequence:
#
# PCOD8126310 Si02
#       8
#     4   4   4   4   4   4   4   4
#     4  11  24  41  65  96 126 166 211 259 319 381
#     4   9  17  34  61  91 122 152 201 262 313 366
#     4  10  21  39  64  92 122 166 219 264 318 371
#     4   9  19  33  58  94 123 153 198 258 315 370
#     4  12  26  41  63  93 131 169 212 263 318 375
#     4  11  25  39  63  90 128 174 210 267 314 380
#     4  10  22  39  65  93 125 165 210 262 317 374
#     4  10  22  40  61  92 121 168 220 265 316 370
#
# _framework density 23.074472
#
# number of rings (size 3 to 8) (size 9 to 14) (size 15 to 20)
#    0.000    1.750    1.250    2.250    7.000    2.500 
#    0.000    0.000    0.000    4.500    0.000    0.000 
#    0.000    0.000    0.000    0.000    0.000    0.000 
#
# Total GULP energy -396496.336305 kJ/mol
# GULP energy per Si atom -12390.510510 kJ/mol
# Density = 2.302195 g / cm^3
# Si number density = 23.074472 Si / 1000 Ang^3
#
#
#
# Elastic Constant Matrix: (Units=GPa)
#
#
# Indices 1 2 3 4 5 6 
#
# 1 47.0560 9.2827 -4.5483 0.0000 -21.1327 0.0000
# 2 9.2827 93.7061 12.9834 0.0000 -0.7586 0.0000
# 3 -4.5483 12.9834 82.6421 0.0000 1.4136 0.0000
# 4 0.0000 0.0000 0.0000 18.4886 0.0000 -0.8205
# 5 -21.1327 -0.7586 1.4136 0.0000 20.7789 0.0000
# 6 0.0000 0.0000 0.0000 -0.8205 0.0000 11.3782
#
#
#
# Elastic Compliance Matrix: (Units=1/GPa)
#
#
# Indices 1 2 3 4 5 6 
#
# 1 0.040714 -0.004000 0.002166 0.000000 0.041114 0.000000
# 2 -0.004000 0.011308 -0.001936 0.000000 -0.003524 0.000000
# 3 0.002166 -0.001936 0.012502 0.000000 0.001282 0.000000
# 4 0.000000 0.000000 0.000000 0.054261 0.000000 0.003913
# 5 0.041114 -0.003524 0.001282 0.000000 0.089724 0.000000
# 6 0.000000 0.000000 0.000000 0.003913 0.000000 0.088170
#
#
# Mechanical properties :
#
#
# Convention : Reuss Voigt Hill
#
# Bulk Modulus (GPa) = 17.54943 28.75996 23.15470
# Shear Modulus (GPa) = 15.46961 23.84155 19.65558
#
# Velocity S-wave (km/s) = 2.59206 3.21790 2.92178
# Velocity P-wave (km/s) = 4.07191 5.12811 4.63022
#
# Compressibility (1/GPa) = 0.05698191
#
# Stress axis : x y z
#
# Youngs Moduli (GPa) = 24.56153 88.43518 79.98805
#
# Poissons Ratio (x) = 0.35378 -0.17325
# Poissons Ratio (y) = 0.09826 0.15489
# Poissons Ratio (z) = -0.05320 0.17124
#
# Static dielectric constant tensor:
#      x y z
#    x 3.734030 0.000000 -0.011160 
#    y 0.000000 4.183030 0.000000 
#    z -0.011160 0.000000 4.309040 
# 
# 
# High freq. dielectric constant tensor:
#      x y z
#    x 1.868680 0.000000 -0.003030 
#    y 0.000000 1.917960 0.000000 
#    z -0.003030 0.000000 1.915770 
# 
# From -- ./inp_files/2230.got.cif
#   From: 2010.03.12/outbox.cif.g09.slc.cpg/sg14_2_cif.got.tgz:2230.got - 2010.03.31 13:35:05.
