data_PCOD8126703
_publ_section_title
;
Structure prediction by ZEFSAII (Michael W. Deem and Ramdas Pophale) SiO2 
 PCOD8126703
Probable space group: P 21/C
;
_chemical_formula_sum "Si O2"
_cell_formula_units_Z 32
_cell_length_a 8.009513
_cell_length_b 17.590459
_cell_length_c 19.749832
_cell_angle_alpha 90.000000
_cell_angle_beta 31.164097
_cell_angle_gamma 90.000000
_cell_volume 1439.956650
_symmetry_space_group_name_H-M "P 21/C"
_symmetry_group_IT_number 14
_symmetry_cell_setting 'monoclinic'
loop_
_space_group_symop_operation_xyz
x,y,z
-x,1/2+y,1/2-z
-x,-y,-z
x,1/2-y,1/2+z
loop_
_atom_site_type_symbol
_atom_site_label
_atom_site_fract_x
_atom_site_fract_y
_atom_site_fract_z
Si Si1 0.192949 0.568620 0.749213
Si Si2 0.706703 0.482323 0.649484
Si Si3 0.693315 0.194818 0.161623
Si Si4 0.743393 0.548410 0.778991
Si Si5 0.615524 0.719081 0.846843
Si Si6 0.455620 0.066898 0.463719
Si Si7 0.708872 0.280517 0.902589
Si Si8 0.406501 0.217068 0.886631
O O1 0.369187 0.500379 0.728326
O O2 0.464028 0.632295 0.649486
O O3 0.056031 0.544932 0.721553
O O4 0.902627 0.599892 0.898133
O O5 0.678261 0.394601 0.680868
O O6 0.807930 0.536722 0.677480
O O7 0.000000 0.500000 0.500000
O O8 0.428549 0.225371 0.201255
O O9 0.611786 0.236167 0.260381
O O10 0.023650 0.216017 0.007678
O O11 0.565223 0.629668 0.849282
O O12 0.506862 0.475609 0.874594
O O13 0.990753 0.733984 0.732707
O O14 0.381361 0.742777 0.989541
O O15 0.733678 0.128484 0.384075
O O16 0.500000 0.000000 0.500000
O O17 0.416057 0.258034 0.955645
#
# Coordination Sequence:
#
# PCOD8126703 Si02
#       8
#     4   4   4   4   4   4   4   4
#     4  11  23  47  74 103 145 190 238 311 357 434
#     4  12  28  47  69 104 148 189 247 293 364 438
#     4  12  28  45  71 107 147 196 237 308 366 439
#     4  11  25  48  74 107 142 193 241 302 365 434
#     4  12  26  43  75 107 147 189 244 301 369 437
#     4  10  21  41  71 103 138 176 244 293 355 431
#     4  12  23  44  72 109 141 187 244 301 362 438
#     4  12  24  47  70 104 148 188 248 298 371 433
#
# _framework density 22.222892000000002
#
# number of rings (size 3 to 8) (size 9 to 14) (size 15 to 20)
#    0.000    0.500    5.000    3.750    5.250    2.000 
#    0.000    0.000    0.000    0.000    0.000    0.000 
#    0.000    0.000    0.000    0.000    0.000    0.000 
#
# Total GULP energy -396505.382349 kJ/mol
# GULP energy per Si atom -12390.793198 kJ/mol
# Density = 2.217231 g / cm^3
# Si number density = 22.222892 Si / 1000 Ang^3
#
#
#
# Elastic Constant Matrix: (Units=GPa)
#
#
# Indices 1 2 3 4 5 6 
#
# 1 102.2033 26.7891 26.5559 0.0000 11.3764 0.0000
# 2 26.7891 102.1019 25.1868 0.0000 11.9274 0.0000
# 3 26.5559 25.1868 105.6935 0.0000 12.3909 0.0000
# 4 0.0000 0.0000 0.0000 35.6955 0.0000 2.0901
# 5 11.3764 11.9274 12.3909 0.0000 35.6120 0.0000
# 6 0.0000 0.0000 0.0000 2.0901 0.0000 38.9117
#
#
#
# Elastic Compliance Matrix: (Units=1/GPa)
#
#
# Indices 1 2 3 4 5 6 
#
# 1 0.011116 -0.002169 -0.002028 0.000000 -0.002119 0.000000
# 2 -0.002169 0.011091 -0.001818 0.000000 -0.002389 0.000000
# 3 -0.002028 -0.001818 0.010693 0.000000 -0.002464 0.000000
# 4 0.000000 0.000000 0.000000 0.028103 0.000000 -0.001509
# 5 -0.002119 -0.002389 -0.002464 0.000000 0.030415 0.000000
# 6 0.000000 0.000000 0.000000 -0.001509 0.000000 0.025780
#
#
# Mechanical properties :
#
#
# Convention : Reuss Voigt Hill
#
# Bulk Modulus (GPa) = 47.91423 51.89580 49.90502
# Shear Modulus (GPa) = 36.71534 37.47495 37.09514
#
# Velocity S-wave (km/s) = 4.06906 4.11094 4.09005
# Velocity P-wave (km/s) = 6.60938 6.77763 6.69403
#
# Compressibility (1/GPa) = 0.02087063
#
# Stress axis : x y z
#
# Youngs Moduli (GPa) = 89.96372 90.16550 93.52062
#
# Poissons Ratio (x) = 0.19555 0.18962
# Poissons Ratio (y) = 0.19511 0.17001
# Poissons Ratio (z) = 0.18241 0.16391
#
# Static dielectric constant tensor:
#      x y z
#    x 4.044820 0.000000 -0.106590 
#    y 0.000000 3.968180 0.000000 
#    z -0.106590 0.000000 5.356330 
# 
# 
# High freq. dielectric constant tensor:
#      x y z
#    x 1.873950 0.000000 0.008030 
#    y 0.000000 1.888820 0.000000 
#    z 0.008030 0.000000 1.875640 
# 
# From -- ./inp_files/66029.got.cif
#   From: 2010.03.12/outbox.cif.g09.slc.cpg/sg14_34_cif.got.tgz:66029.got - 2010.03.31 13:35:05.
