data_PCOD8126996
_publ_section_title
;
Structure prediction by ZEFSAII (Michael W. Deem and Ramdas Pophale) SiO2 
 PCOD8126996
Probable space group: P 21/C
;
_chemical_formula_sum "Si O2"
_cell_formula_units_Z 24
_cell_length_a 8.541320
_cell_length_b 16.403493
_cell_length_c 8.613325
_cell_angle_alpha 90.000000
_cell_angle_beta 94.943690
_cell_angle_gamma 90.000000
_cell_volume 1202.301868
_symmetry_space_group_name_H-M "P 21/C"
_symmetry_group_IT_number 14
_symmetry_cell_setting 'monoclinic'
loop_
_space_group_symop_operation_xyz
x,y,z
-x,1/2+y,1/2-z
-x,-y,-z
x,1/2-y,1/2+z
loop_
_atom_site_type_symbol
_atom_site_label
_atom_site_fract_x
_atom_site_fract_y
_atom_site_fract_z
Si Si1 0.193744 0.320152 0.521595
Si Si2 0.090563 0.160555 0.358242
Si Si3 0.775529 0.082814 0.328796
Si Si4 0.740490 0.496742 0.135808
Si Si5 0.475947 0.068409 0.127783
Si Si6 0.974394 0.955152 0.158911
O O1 0.187039 0.227164 0.464846
O O2 0.105698 0.326945 0.676301
O O3 0.368719 0.357583 0.554423
O O4 0.102859 0.368089 0.378763
O O5 0.167143 0.076048 0.417014
O O6 0.901709 0.155514 0.372841
O O7 0.639501 0.109767 0.196424
O O8 0.691097 0.056107 0.482320
O O9 0.863782 0.006022 0.262615
O O10 0.593822 0.522487 0.228109
O O11 0.856753 0.441110 0.249034
O O12 0.500000 0.000000 0.000000
O O13 0.000000 0.000000 0.000000
#
# Coordination Sequence:
#
# PCOD8126996 Si02
#       6
#     4   4   4   4   4   4
#     4  11  23  38  61  89 124 164 204 250 318 359
#     4  10  23  38  59  89 125 161 206 250 303 376
#     4  11  21  38  63  93 121 154 213 255 303 361
#     4  10  22  37  63  94 121 158 210 257 303 359
#     4  11  21  39  64  91 120 159 203 262 312 365
#     4  11  17  37  62  88 114 160 212 250 284 365
#
# _framework density 19.961711000000001
#
# number of rings (size 3 to 8) (size 9 to 14) (size 15 to 20)
#    0.000    1.333    6.667    2.500    4.667    0.000 
#    0.000    3.333    3.667    0.000    0.000    0.000 
#    0.000    0.000    0.000    0.000    0.000    0.000 
#
# Total GULP energy -297499.981545 kJ/mol
# GULP energy per Si atom -12395.832564 kJ/mol
# Density = 1.991628 g / cm^3
# Si number density = 19.961711 Si / 1000 Ang^3
#
#
#
# Elastic Constant Matrix: (Units=GPa)
#
#
# Indices 1 2 3 4 5 6 
#
# 1 109.9099 35.0908 33.9344 0.0000 12.9488 0.0000
# 2 35.0908 77.7239 36.1235 0.0000 11.7696 0.0000
# 3 33.9344 36.1235 88.2407 0.0000 8.9083 0.0000
# 4 0.0000 0.0000 0.0000 35.3882 0.0000 12.3661
# 5 12.9488 11.7696 8.9083 0.0000 35.8438 0.0000
# 6 0.0000 0.0000 0.0000 12.3661 0.0000 25.6676
#
#
#
# Elastic Compliance Matrix: (Units=1/GPa)
#
#
# Indices 1 2 3 4 5 6 
#
# 1 0.011317 -0.003520 -0.002683 0.000000 -0.002266 0.000000
# 2 -0.003520 0.017475 -0.005487 0.000000 -0.003103 0.000000
# 3 -0.002683 -0.005487 0.014700 0.000000 -0.000882 0.000000
# 4 0.000000 0.000000 0.000000 0.033978 0.000000 -0.016370
# 5 -0.002266 -0.003103 -0.000882 0.000000 0.029956 0.000000
# 6 0.000000 0.000000 0.000000 -0.016370 0.000000 0.046846
#
#
# Mechanical properties :
#
#
# Convention : Reuss Voigt Hill
#
# Bulk Modulus (GPa) = 49.71807 54.01911 51.86859
# Shear Modulus (GPa) = 27.12149 30.76165 28.94157
#
# Velocity S-wave (km/s) = 3.69002 3.92986 3.81183
# Velocity P-wave (km/s) = 6.56626 6.90737 6.73898
#
# Compressibility (1/GPa) = 0.02011341
#
# Stress axis : x y z
#
# Youngs Moduli (GPa) = 88.36044 57.22400 68.02873
#
# Poissons Ratio (x) = 0.20140 0.18250
# Poissons Ratio (y) = 0.31099 0.37328
# Poissons Ratio (z) = 0.23704 0.31400
#
# Static dielectric constant tensor:
#      x y z
#    x 3.756110 0.000000 0.082060 
#    y 0.000000 37.154850 0.000000 
#    z 0.082060 0.000000 3.915300 
# 
# 
# High freq. dielectric constant tensor:
#      x y z
#    x 1.777540 0.000000 0.005340 
#    y 0.000000 1.743190 0.000000 
#    z 0.005340 0.000000 1.797470 
# 
# From -- ./inp_files/9110.got.cif
#   From: 2010.03.12/outbox.cif.g09.slc.cpg/sg14_5_cif.got.tgz:9110.got - 2010.03.31 13:35:05.
