data_PCOD8126423
_publ_section_title
;
Structure prediction by ZEFSAII (Michael W. Deem and Ramdas Pophale) SiO2 
 PCOD8126423
Probable space group: P 21/C
;
_chemical_formula_sum "Si O2"
_cell_formula_units_Z 24
_cell_length_a 15.501725
_cell_length_b 15.988197
_cell_length_c 5.058674
_cell_angle_alpha 90.000000
_cell_angle_beta 108.623281
_cell_angle_gamma 90.000000
_cell_volume 1188.116462
_symmetry_space_group_name_H-M "P 21/C"
_symmetry_group_IT_number 14
_symmetry_cell_setting 'monoclinic'
loop_
_space_group_symop_operation_xyz
x,y,z
-x,1/2+y,1/2-z
-x,-y,-z
x,1/2-y,1/2+z
loop_
_atom_site_type_symbol
_atom_site_label
_atom_site_fract_x
_atom_site_fract_y
_atom_site_fract_z
Si Si1 0.258854 0.462628 0.547099
Si Si2 0.229041 0.929723 0.517763
Si Si3 0.606808 0.195008 0.316319
Si Si4 0.074017 0.695749 0.788130
Si Si5 0.530858 0.552042 0.279450
Si Si6 0.863826 0.803775 0.079471
O O1 0.236792 0.536755 0.322359
O O2 0.361971 0.432608 0.615272
O O3 0.195193 0.384821 0.420360
O O4 0.240707 0.494279 0.825374
O O5 0.306136 0.861538 0.539117
O O6 0.130523 0.888638 0.384167
O O7 0.608695 0.272608 0.518353
O O8 0.514925 0.142842 0.268624
O O9 0.099194 0.735210 0.531259
O O10 0.968963 0.669355 0.705509
O O11 0.500000 0.500000 0.500000
O O12 0.500000 0.500000 0.000000
O O13 0.840492 0.732525 0.269725
#
# Coordination Sequence:
#
# PCOD8126423 Si02
#       6
#     4   4   4   4   4   4
#     4  12  24  40  66  91 122 168 204 257 317 363
#     4  12  23  39  63  94 128 160 203 254 313 378
#     4  12  24  39  63  92 118 159 208 253 298 367
#     4  10  21  40  62  90 128 168 199 252 313 359
#     4  12  23  44  62  85 127 167 201 253 317 364
#     4  10  23  42  64  90 125 162 211 257 300 369
#
# _framework density 20.200039
#
# number of rings (size 3 to 8) (size 9 to 14) (size 15 to 20)
#    0.000    0.667    3.333    5.000    0.000    2.667 
#    0.000    0.000    0.000    0.000    0.000    0.000 
#    0.000    0.000    0.000    0.000    0.000    0.000 
#
# Total GULP energy -297822.003722 kJ/mol
# GULP energy per Si atom -12409.250155 kJ/mol
# Density = 2.015406 g / cm^3
# Si number density = 20.200039 Si / 1000 Ang^3
#
#
#
# Elastic Constant Matrix: (Units=GPa)
#
#
# Indices 1 2 3 4 5 6 
#
# 1 104.7013 49.3187 34.1025 0.0000 16.1710 0.0000
# 2 49.3187 87.8271 24.2962 0.0000 19.2954 0.0000
# 3 34.1025 24.2962 91.1788 0.0000 -1.2321 0.0000
# 4 0.0000 0.0000 0.0000 36.6756 0.0000 1.3912
# 5 16.1710 19.2954 -1.2321 0.0000 36.6889 0.0000
# 6 0.0000 0.0000 0.0000 1.3912 0.0000 47.5262
#
#
#
# Elastic Compliance Matrix: (Units=1/GPa)
#
#
# Indices 1 2 3 4 5 6 
#
# 1 0.014175 -0.006268 -0.003673 0.000000 -0.003074 0.000000
# 2 -0.006268 0.016886 -0.002239 0.000000 -0.006193 0.000000
# 3 -0.003673 -0.002239 0.012981 0.000000 0.003232 0.000000
# 4 0.000000 0.000000 0.000000 0.027296 0.000000 -0.000799
# 5 -0.003074 -0.006193 0.003232 0.000000 0.031977 0.000000
# 6 0.000000 0.000000 0.000000 -0.000799 0.000000 0.021064
#
#
# Mechanical properties :
#
#
# Convention : Reuss Voigt Hill
#
# Bulk Modulus (GPa) = 50.80735 55.46024 53.13379
# Shear Modulus (GPa) = 32.19576 35.91079 34.05327
#
# Velocity S-wave (km/s) = 3.99663 4.22092 4.11031
# Velocity P-wave (km/s) = 6.81939 7.16031 6.99193
#
# Compressibility (1/GPa) = 0.01968219
#
# Stress axis : x y z
#
# Youngs Moduli (GPa) = 70.54818 59.22143 77.03319
#
# Poissons Ratio (x) = 0.37121 0.28293
# Poissons Ratio (y) = 0.44221 0.17246
# Poissons Ratio (z) = 0.25911 0.13258
#
# Static dielectric constant tensor:
#      x y z
#    x 3.842250 0.000000 0.016140 
#    y 0.000000 3.535840 0.000000 
#    z 0.016140 0.000000 3.874160 
# 
# 
# High freq. dielectric constant tensor:
#      x y z
#    x 1.800170 0.000000 -0.003900 
#    y 0.000000 1.784850 0.000000 
#    z -0.003900 0.000000 1.809220 
# 
# From -- ./inp_files/3587.got.cif
#   From: 2010.03.12/outbox.cif.g09.slc.cpg/sg14_2_cif.got.tgz:3587.got - 2010.03.31 13:35:05.
