data_PCOD8126490
_publ_section_title
;
Structure prediction by ZEFSAII (Michael W. Deem and Ramdas Pophale) SiO2 
 PCOD8126490
Probable space group: P 21/C
;
_chemical_formula_sum "Si O2"
_cell_formula_units_Z 24
_cell_length_a 9.158097
_cell_length_b 7.749997
_cell_length_c 16.460714
_cell_angle_alpha 90.000000
_cell_angle_beta 68.871378
_cell_angle_gamma 90.000000
_cell_volume 1089.762052
_symmetry_space_group_name_H-M "P 21/C"
_symmetry_group_IT_number 14
_symmetry_cell_setting 'monoclinic'
loop_
_space_group_symop_operation_xyz
x,y,z
-x,1/2+y,1/2-z
-x,-y,-z
x,1/2-y,1/2+z
loop_
_atom_site_type_symbol
_atom_site_label
_atom_site_fract_x
_atom_site_fract_y
_atom_site_fract_z
Si Si1 0.004969 0.496801 0.869446
Si Si2 0.080247 0.746335 0.485013
Si Si3 0.743764 0.555686 0.799666
Si Si4 0.327021 0.098518 0.235716
Si Si5 0.231956 0.065338 0.898675
Si Si6 0.530567 0.243019 0.331501
O O1 0.914432 0.524760 0.803398
O O2 0.045602 0.678667 0.902474
O O3 0.166970 0.394466 0.820744
O O4 0.888904 0.395734 0.954992
O O5 0.231058 0.621612 0.444123
O O6 0.932211 0.646362 0.548115
O O7 0.689792 0.753313 0.830962
O O8 0.751016 0.537129 0.701042
O O9 0.621718 0.411636 0.859665
O O10 0.477851 0.157039 0.257052
O O11 0.349970 0.904439 0.199718
O O12 0.374224 0.181913 0.906290
#
# Coordination Sequence:
#
# PCOD8126490 Si02
#       6
#     4   4   4   4   4   4
#     4  11  24  41  64  99 125 168 212 265 319 376
#     4  10  22  40  64  90 137 168 202 257 332 392
#     4  11  24  41  66  98 122 161 225 267 299 373
#     4  11  22  38  66  95 125 164 213 265 317 364
#     4  10  21  40  65  93 123 171 211 257 321 380
#     4  11  21  40  64  96 125 165 214 266 315 368
#
# _framework density 22.023154999999999
#
# number of rings (size 3 to 8) (size 9 to 14) (size 15 to 20)
#    0.000    1.333    6.667    1.000    4.667    0.000 
#    3.000    1.667    0.000    0.000    0.000    0.000 
#    0.000    0.000    0.000    0.000    0.000    0.000 
#
# Total GULP energy -297319.002524 kJ/mol
# GULP energy per Si atom -12388.291772 kJ/mol
# Density = 2.197303 g / cm^3
# Si number density = 22.023155 Si / 1000 Ang^3
#
#
#
# Elastic Constant Matrix: (Units=GPa)
#
#
# Indices 1 2 3 4 5 6 
#
# 1 95.3999 49.1955 28.6954 0.0000 -6.9081 0.0000
# 2 49.1955 -33.5296 -8.2131 0.0000 41.9047 0.0000
# 3 28.6954 -8.2131 36.5405 0.0000 -1.4863 0.0000
# 4 0.0000 0.0000 0.0000 24.7317 0.0000 -12.4893
# 5 -6.9081 41.9047 -1.4863 0.0000 3.7495 0.0000
# 6 0.0000 0.0000 0.0000 -12.4893 0.0000 29.3428
#
#
#
# Elastic Compliance Matrix: (Units=1/GPa)
#
#
# Indices 1 2 3 4 5 6 
#
# 1 0.010791 0.002577 -0.008393 0.000000 -0.012251 0.000000
# 2 0.002577 -0.001369 -0.001541 0.000000 0.019440 0.000000
# 3 -0.008393 -0.001541 0.034235 0.000000 0.015330 0.000000
# 4 0.000000 0.000000 0.000000 0.051504 0.000000 0.021922
# 5 -0.012251 0.019440 0.015330 0.000000 0.032942 0.000000
# 6 0.000000 0.000000 0.000000 0.021922 0.000000 0.043411
#
#
# Mechanical properties :
#
#
# Convention : Reuss Voigt Hill
#
# Bulk Modulus (GPa) = 34.55036 26.41850 30.48443
# Shear Modulus (GPa) = 25.52666 13.48031 19.50349
#
# Velocity S-wave (km/s) = 3.40822 2.47674 2.97911
# Velocity P-wave (km/s) = 5.58661 4.49453 5.07006
#
# Compressibility (1/GPa) = 0.02894326
#
# Stress axis : x y z
#
# Youngs Moduli (GPa) = 92.67396 -730.34416 29.20987
#
# Poissons Ratio (x) = 1.88233 0.24515
# Poissons Ratio (y) = -0.23885 0.04501
# Poissons Ratio (z) = 0.77780 -1.12546
#
# Static dielectric constant tensor:
#      x y z
#    x 3.838170 0.000000 -0.375450 
#    y 0.000000 4.706280 0.000000 
#    z -0.375450 0.000000 3.819940 
# 
# 
# High freq. dielectric constant tensor:
#      x y z
#    x 1.849770 0.000000 -0.024350 
#    y 0.000000 1.900880 0.000000 
#    z -0.024350 0.000000 1.819670 
# 
# From -- ./inp_files/54512.got.cif
#   From: 2010.03.12/outbox.cif.g09.slc.cpg/sg14_28_cif.got.tgz:54512.got - 2010.03.31 13:35:05.
