data_PCOD8126759
_publ_section_title
;
Structure prediction by ZEFSAII (Michael W. Deem and Ramdas Pophale) SiO2 
 PCOD8126759
Probable space group: P 21/C
;
_chemical_formula_sum "Si O2"
_cell_formula_units_Z 32
_cell_length_a 13.757823
_cell_length_b 12.312050
_cell_length_c 16.221865
_cell_angle_alpha 90.000000
_cell_angle_beta 147.097129
_cell_angle_gamma 90.000000
_cell_volume 1492.635757
_symmetry_space_group_name_H-M "P 21/C"
_symmetry_group_IT_number 14
_symmetry_cell_setting 'monoclinic'
loop_
_space_group_symop_operation_xyz
x,y,z
-x,1/2+y,1/2-z
-x,-y,-z
x,1/2-y,1/2+z
loop_
_atom_site_type_symbol
_atom_site_label
_atom_site_fract_x
_atom_site_fract_y
_atom_site_fract_z
Si Si1 0.369044 0.760094 0.555153
Si Si2 0.417917 0.885914 0.427132
Si Si3 0.987951 0.156686 0.161038
Si Si4 0.978478 0.267742 0.977978
Si Si5 0.387800 0.867773 0.738587
Si Si6 0.949024 0.442574 0.381467
Si Si7 0.314670 0.284073 0.999947
Si Si8 0.315437 0.114268 0.673573
O O1 0.342335 0.830473 0.455110
O O2 0.351392 0.843989 0.617343
O O3 0.558729 0.699602 0.689604
O O4 0.213278 0.670056 0.450080
O O5 0.256008 0.910229 0.250784
O O6 0.566972 0.813140 0.493624
O O7 0.500000 0.000000 0.500000
O O8 0.016990 0.215817 0.094709
O O9 0.113747 0.213783 0.320111
O O10 0.017363 0.024388 0.171825
O O11 0.111526 0.368474 0.058501
O O12 0.771343 0.307948 0.822382
O O13 0.037811 0.179121 0.947915
O O14 0.591529 0.830097 0.906436
O O15 0.377385 0.995668 0.744918
O O16 0.000000 0.500000 0.500000
O O17 0.331686 0.370083 0.086520
#
# Coordination Sequence:
#
# PCOD8126759 Si02
#       8
#     4   4   4   4   4   4   4   4
#     4  10  25  42  61  92 135 160 214 268 318 381
#     4  12  22  41  66  94 126 167 215 266 318 379
#     4  10  22  42  62  98 128 160 209 275 323 380
#     4  10  21  42  65  91 129 166 212 259 325 391
#     4  10  22  43  62  90 128 173 209 266 321 384
#     4  10  22  37  69  96 123 160 210 265 325 376
#     4  11  23  39  65  93 126 163 222 266 313 384
#     4  11  24  41  63  91 126 177 211 260 326 383
#
# _framework density 21.438586000000001
#
# number of rings (size 3 to 8) (size 9 to 14) (size 15 to 20)
#    0.000    1.500    2.500    1.875    5.250    2.000 
#    0.000    2.500    0.000    0.000    0.000    0.000 
#    0.000    0.000    0.000    0.000    0.000    0.000 
#
# Total GULP energy -396475.584840 kJ/mol
# GULP energy per Si atom -12389.862026 kJ/mol
# Density = 2.138979 g / cm^3
# Si number density = 21.438586 Si / 1000 Ang^3
#
#
#
# Elastic Constant Matrix: (Units=GPa)
#
#
# Indices 1 2 3 4 5 6 
#
# 1 74.1988 22.7124 10.2909 0.0000 1.6461 0.0000
# 2 22.7124 112.3303 18.5130 0.0000 -5.3427 0.0000
# 3 10.2909 18.5130 107.8779 0.0000 -1.0411 0.0000
# 4 0.0000 0.0000 0.0000 31.3143 0.0000 1.3030
# 5 1.6461 -5.3427 -1.0411 0.0000 27.2238 0.0000
# 6 0.0000 0.0000 0.0000 1.3030 0.0000 30.0259
#
#
#
# Elastic Compliance Matrix: (Units=1/GPa)
#
#
# Indices 1 2 3 4 5 6 
#
# 1 0.014510 -0.002854 -0.000909 0.000000 -0.001472 0.000000
# 2 -0.002854 0.009806 -0.001391 0.000000 0.002044 0.000000
# 3 -0.000909 -0.001391 0.009597 0.000000 0.000149 0.000000
# 4 0.000000 0.000000 0.000000 0.031992 0.000000 -0.001388
# 5 -0.001472 0.002044 0.000149 0.000000 0.037228 0.000000
# 6 0.000000 0.000000 0.000000 -0.001388 0.000000 0.033365
#
#
# Mechanical properties :
#
#
# Convention : Reuss Voigt Hill
#
# Bulk Modulus (GPa) = 42.36358 44.15995 43.26176
# Shear Modulus (GPa) = 32.32641 33.90551 33.11596
#
# Velocity S-wave (km/s) = 3.88733 3.98114 3.93452
# Velocity P-wave (km/s) = 6.32074 6.46342 6.39248
#
# Compressibility (1/GPa) = 0.02360518
#
# Stress axis : x y z
#
# Youngs Moduli (GPa) = 68.91987 101.98046 104.20437
#
# Poissons Ratio (x) = 0.29105 0.09467
# Poissons Ratio (y) = 0.19670 0.14493
# Poissons Ratio (z) = 0.06262 0.14183
#
# Static dielectric constant tensor:
#      x y z
#    x 4.283780 0.000000 0.289410 
#    y 0.000000 3.963100 0.000000 
#    z 0.289410 0.000000 4.050260 
# 
# 
# High freq. dielectric constant tensor:
#      x y z
#    x 1.828020 0.000000 0.006130 
#    y 0.000000 1.838560 0.000000 
#    z 0.006130 0.000000 1.854140 
# 
# From -- ./inp_files/59508.got.cif
#   From: 2010.03.12/outbox.cif.g09.slc.cpg/sg14_30_cif.got.tgz:59508.got - 2010.03.31 13:35:05.
