data_PCOD8126139
_publ_section_title
;
Structure prediction by ZEFSAII (Michael W. Deem and Ramdas Pophale) SiO2 
 PCOD8126139
Probable space group: P 21/C
;
_chemical_formula_sum "Si O2"
_cell_formula_units_Z 32
_cell_length_a 5.032880
_cell_length_b 24.326358
_cell_length_c 12.122434
_cell_angle_alpha 90.000000
_cell_angle_beta 72.107299
_cell_angle_gamma 90.000000
_cell_volume 1412.385475
_symmetry_space_group_name_H-M "P 21/C"
_symmetry_group_IT_number 14
_symmetry_cell_setting 'monoclinic'
loop_
_space_group_symop_operation_xyz
x,y,z
-x,1/2+y,1/2-z
-x,-y,-z
x,1/2-y,1/2+z
loop_
_atom_site_type_symbol
_atom_site_label
_atom_site_fract_x
_atom_site_fract_y
_atom_site_fract_z
Si Si1 0.752910 0.541911 0.047628
Si Si2 0.679639 0.268615 0.781446
Si Si3 0.728401 0.788625 0.473369
Si Si4 0.587168 0.559180 0.839468
Si Si5 0.336318 0.428417 0.709486
Si Si6 0.691603 0.332122 0.145770
Si Si7 0.739415 0.690726 0.332873
Si Si8 0.895976 0.492173 0.636870
O O1 0.496678 0.502701 0.115394
O O2 0.779377 0.582211 0.150249
O O3 0.717453 0.579446 0.941314
O O4 0.000000 0.500000 0.000000
O O5 0.697706 0.201963 0.761380
O O6 0.555778 0.292510 0.683622
O O7 0.984103 0.292584 0.773038
O O8 0.468109 0.292029 0.897411
O O9 0.585548 0.815308 0.384759
O O10 0.776153 0.723538 0.443220
O O11 0.024638 0.818675 0.457253
O O12 0.343493 0.601773 0.832930
O O13 0.787490 0.549408 0.707842
O O14 0.276543 0.374194 0.645231
O O15 0.661825 0.444484 0.665863
O O16 0.161785 0.477037 0.676897
O O17 0.000000 0.500000 0.500000
#
# Coordination Sequence:
#
# PCOD8126139 Si02
#       8
#     4   4   4   4   4   4   4   4
#     4  10  21  38  62  91 131 164 208 272 312 380
#     4  10  21  40  59  89 123 159 201 260 311 372
#     4  10  22  40  59  90 126 159 208 263 315 378
#     4  10  23  40  60  95 128 165 214 262 320 387
#     4  11  23  41  64  95 123 170 217 257 330 378
#     4  10  23  38  62  90 119 164 209 251 320 382
#     4  10  22  39  62  90 122 158 212 259 305 384
#     4  11  24  43  64  92 132 169 215 265 314 386
#
# _framework density 22.656704999999999
#
# number of rings (size 3 to 8) (size 9 to 14) (size 15 to 20)
#    0.000    1.750    1.250    1.875    3.500    2.000 
#    0.000    3.750    0.000    0.000    0.000    0.000 
#    0.000    0.000    0.000    0.000    0.000    0.000 
#
# Total GULP energy -396476.501892 kJ/mol
# GULP energy per Si atom -12389.890684 kJ/mol
# Density = 2.260514 g / cm^3
# Si number density = 22.656705 Si / 1000 Ang^3
#
#
#
# Elastic Constant Matrix: (Units=GPa)
#
#
# Indices 1 2 3 4 5 6 
#
# 1 87.8878 10.2344 11.8333 0.0000 -4.8501 0.0000
# 2 10.2344 86.7767 12.3216 0.0000 2.1126 0.0000
# 3 11.8333 12.3216 106.3999 0.0000 -4.9833 0.0000
# 4 0.0000 0.0000 0.0000 14.4596 0.0000 -0.4529
# 5 -4.8501 2.1126 -4.9833 0.0000 28.0855 0.0000
# 6 0.0000 0.0000 0.0000 -0.4529 0.0000 36.9683
#
#
#
# Elastic Compliance Matrix: (Units=1/GPa)
#
#
# Indices 1 2 3 4 5 6 
#
# 1 0.011779 -0.001284 -0.001070 0.000000 0.001941 0.000000
# 2 -0.001284 0.011892 -0.001297 0.000000 -0.001347 0.000000
# 3 -0.001070 -0.001297 0.009745 0.000000 0.001642 0.000000
# 4 0.000000 0.000000 0.000000 0.069185 0.000000 0.000848
# 5 0.001941 -0.001347 0.001642 0.000000 0.036333 0.000000
# 6 0.000000 0.000000 0.000000 0.000848 0.000000 0.027061
#
#
# Mechanical properties :
#
#
# Convention : Reuss Voigt Hill
#
# Bulk Modulus (GPa) = 38.29731 38.87145 38.58438
# Shear Modulus (GPa) = 27.47211 32.34771 29.90991
#
# Velocity S-wave (km/s) = 3.48593 3.78263 3.63731
# Velocity P-wave (km/s) = 5.75693 6.02260 5.89126
#
# Compressibility (1/GPa) = 0.02611150
#
# Stress axis : x y z
#
# Youngs Moduli (GPa) = 84.89738 84.08788 102.62009
#
# Poissons Ratio (x) = 0.10801 0.10984
# Poissons Ratio (y) = 0.10905 0.13314
# Poissons Ratio (z) = 0.09087 0.10910
#
# Static dielectric constant tensor:
#      x y z
#    x 4.083380 0.000000 0.270760 
#    y 0.000000 3.812810 0.000000 
#    z 0.270760 0.000000 3.757830 
# 
# 
# High freq. dielectric constant tensor:
#      x y z
#    x 1.904510 0.000000 -0.006020 
#    y 0.000000 1.886550 0.000000 
#    z -0.006020 0.000000 1.872020 
# 
# From -- ./inp_files/22168.got.cif
#   From: 2010.03.12/outbox.cif.g09.slc.cpg/sg14_12_cif.got.tgz:22168.got - 2010.03.31 13:35:05.
