data_PCOD8126866
_publ_section_title
;
Structure prediction by ZEFSAII (Michael W. Deem and Ramdas Pophale) SiO2 
 PCOD8126866
Probable space group: P 21/C
;
_chemical_formula_sum "Si O2"
_cell_formula_units_Z 28
_cell_length_a 9.678052
_cell_length_b 25.710180
_cell_length_c 9.473457
_cell_angle_alpha 90.000000
_cell_angle_beta 34.014960
_cell_angle_gamma 90.000000
_cell_volume 1318.655272
_symmetry_space_group_name_H-M "P 21/C"
_symmetry_group_IT_number 14
_symmetry_cell_setting 'monoclinic'
loop_
_space_group_symop_operation_xyz
x,y,z
-x,1/2+y,1/2-z
-x,-y,-z
x,1/2-y,1/2+z
loop_
_atom_site_type_symbol
_atom_site_label
_atom_site_fract_x
_atom_site_fract_y
_atom_site_fract_z
Si Si1 0.051286 0.051393 0.542650
Si Si2 0.499999 0.394339 0.750002
Si Si3 0.233826 0.347988 0.229528
Si Si4 0.499999 0.294578 0.250001
Si Si5 0.051289 0.551394 0.542645
Si Si6 0.000001 0.731933 0.749998
Si Si7 0.766173 0.347988 0.270474
O O1 0.890404 0.098429 0.613745
O O2 0.335823 0.068336 0.288944
O O3 0.999990 0.041133 0.750009
O O4 0.000000 0.000000 0.500000
O O5 0.664175 0.431662 0.711064
O O6 0.652701 0.356481 0.521253
O O7 0.347295 0.356481 0.978751
O O8 0.434841 0.331183 0.173246
O O9 0.109600 0.401571 0.386251
O O10 0.038080 0.302044 0.361475
O O11 0.565158 0.331183 0.326754
O O12 0.252352 0.264005 0.506269
O O13 0.747645 0.264004 0.993735
O O14 0.000000 0.500000 0.500000
O O15 0.038082 0.697956 0.861471
#
# Coordination Sequence:
#
# PCOD8126866 Si02
#       7
#     4   4   4   4   4   4   4
#     4  10  23  41  68  97 130 179 227 282 351 414
#     4  10  21  43  70  86 144 178 217 281 358 404
#     4  11  24  44  67 100 136 181 225 291 344 409
#     4  12  29  39  74 106 138 182 243 285 332 414
#     4  10  23  41  68  97 130 179 227 282 351 414
#     4  12  24  46  68 102 140 190 230 282 352 404
#     4  11  24  44  67 100 136 181 225 291 344 409
#
# _framework density 21.233753
#
# number of rings (size 3 to 8) (size 9 to 14) (size 15 to 20)
#    0.000    1.143    4.286    2.571    4.000    8.000 
#    0.000    0.000    0.000    0.000    0.000    0.000 
#    0.000    0.000    0.000    0.000    0.000    0.000 
#
# Total GULP energy -347046.943018 kJ/mol
# GULP energy per Si atom -12394.533679 kJ/mol
# Density = 2.118542 g / cm^3
# Si number density = 21.233753 Si / 1000 Ang^3
#
#
#
# Elastic Constant Matrix: (Units=GPa)
#
#
# Indices 1 2 3 4 5 6 
#
# 1 162.3891 91.3599 32.5441 0.0000 -21.9848 0.0000
# 2 91.3599 164.4795 54.6611 0.0000 -16.8832 0.0000
# 3 32.5441 54.6611 86.9537 0.0000 -29.9127 0.0000
# 4 0.0000 0.0000 0.0000 15.6246 0.0000 8.3590
# 5 -21.9848 -16.8832 -29.9127 0.0000 28.6530 0.0000
# 6 0.0000 0.0000 0.0000 8.3590 0.0000 58.9511
#
#
#
# Elastic Compliance Matrix: (Units=1/GPa)
#
#
# Indices 1 2 3 4 5 6 
#
# 1 0.009622 -0.005335 0.001889 0.000000 0.006211 0.000000
# 2 -0.005335 0.010655 -0.006163 0.000000 -0.004249 0.000000
# 3 0.001889 -0.006163 0.021716 0.000000 0.020489 0.000000
# 4 0.000000 0.000000 0.000000 0.069256 0.000000 -0.009820
# 5 0.006211 -0.004249 0.020489 0.000000 0.058552 0.000000
# 6 0.000000 0.000000 0.000000 -0.009820 0.000000 0.018356
#
#
# Mechanical properties :
#
#
# Convention : Reuss Voigt Hill
#
# Bulk Modulus (GPa) = 43.90712 85.66139 64.78425
# Shear Modulus (GPa) = 23.25972 36.32953 29.79463
#
# Velocity S-wave (km/s) = 3.31329 4.14083 3.74996
# Velocity P-wave (km/s) = 5.94643 7.95560 7.02324
#
# Compressibility (1/GPa) = 0.02277535
#
# Stress axis : x y z
#
# Youngs Moduli (GPa) = 103.93329 93.85419 46.04956
#
# Poissons Ratio (x) = 0.50067 -0.08699
# Poissons Ratio (y) = 0.55443 0.28380
# Poissons Ratio (z) = -0.19634 0.57842
#
# Static dielectric constant tensor:
#      x y z
#    x 4.066650 0.000000 -0.405210 
#    y 0.000000 3.872760 0.000000 
#    z -0.405210 0.000000 3.950660 
# 
# 
# High freq. dielectric constant tensor:
#      x y z
#    x 1.842790 0.000000 -0.019890 
#    y 0.000000 1.838040 0.000000 
#    z -0.019890 0.000000 1.826280 
# 
# From -- ./inp_files/11158.got.cif
#   From: 2010.03.12/outbox.cif.g09.slc.cpg/sg14_6_cif.got.tgz:11158.got - 2010.03.31 13:35:05.
