data_PCOD8126941
_publ_section_title
;
Structure prediction by ZEFSAII (Michael W. Deem and Ramdas Pophale) SiO2 
 PCOD8126941
Probable space group: P 21/C
;
_chemical_formula_sum "Si O2"
_cell_formula_units_Z 28
_cell_length_a 12.267320
_cell_length_b 7.983488
_cell_length_c 13.877952
_cell_angle_alpha 90.000000
_cell_angle_beta 62.759202
_cell_angle_gamma 90.000000
_cell_volume 1208.408589
_symmetry_space_group_name_H-M "P 21/C"
_symmetry_group_IT_number 14
_symmetry_cell_setting 'monoclinic'
loop_
_space_group_symop_operation_xyz
x,y,z
-x,1/2+y,1/2-z
-x,-y,-z
x,1/2-y,1/2+z
loop_
_atom_site_type_symbol
_atom_site_label
_atom_site_fract_x
_atom_site_fract_y
_atom_site_fract_z
Si Si1 0.503389 0.154296 0.925982
Si Si2 0.394583 0.499176 0.805498
Si Si3 0.641671 0.430421 0.812739
Si Si4 0.767369 0.732548 0.255919
Si Si5 0.234186 0.117538 0.038378
Si Si6 0.960570 0.810192 0.027124
Si Si7 0.227467 0.715224 0.419064
O O1 0.604414 0.299737 0.914821
O O2 0.549109 0.100441 0.804320
O O3 0.362744 0.215351 0.971572
O O4 0.500000 0.000000 0.000000
O O5 0.507597 0.431123 0.818986
O O6 0.312490 0.350003 0.795847
O O7 0.314687 0.626523 0.903565
O O8 0.690356 0.608909 0.829846
O O9 0.743915 0.365994 0.696607
O O10 0.795000 0.610868 0.335152
O O11 0.896489 0.783215 0.156399
O O12 0.131909 0.228185 0.024046
O O13 0.242829 0.927041 0.995040
O O14 0.088470 0.708294 0.971552
O O15 0.000000 0.000000 0.000000
#
# Coordination Sequence:
#
# PCOD8126941 Si02
#       7
#     4   4   4   4   4   4   4
#     4  11  22  41  63  99 142 174 225 290 338 418
#     4  11  22  40  70 102 132 178 232 277 359 421
#     4  11  22  40  72  98 136 186 222 282 364 410
#     4  12  23  41  73 105 133 184 241 285 339 428
#     4  11  22  42  68  99 142 182 231 293 340 410
#     4  10  21  46  69  92 142 184 225 285 356 405
#     4  10  22  44  72  93 136 189 220 286 354 417
#
# _framework density 23.170971999999999
#
# number of rings (size 3 to 8) (size 9 to 14) (size 15 to 20)
#    0.000    1.143    5.714    2.571    0.000    1.143 
#    5.143    1.429    0.000    0.000    0.000    0.000 
#    0.000    0.000    0.000    0.000    0.000    0.000 
#
# Total GULP energy -346930.002756 kJ/mol
# GULP energy per Si atom -12390.357241 kJ/mol
# Density = 2.311823 g / cm^3
# Si number density = 23.170972 Si / 1000 Ang^3
#
#
#
# Elastic Constant Matrix: (Units=GPa)
#
#
# Indices 1 2 3 4 5 6 
#
# 1 93.1868 22.2465 73.0484 0.0000 -25.1561 0.0000
# 2 22.2465 95.5317 53.8732 0.0000 -8.5826 0.0000
# 3 73.0484 53.8732 130.1547 0.0000 -23.8196 0.0000
# 4 0.0000 0.0000 0.0000 45.1643 0.0000 -1.1158
# 5 -25.1561 -8.5826 -23.8196 0.0000 41.5878 0.0000
# 6 0.0000 0.0000 0.0000 -1.1158 0.0000 25.7071
#
#
#
# Elastic Compliance Matrix: (Units=1/GPa)
#
#
# Indices 1 2 3 4 5 6 
#
# 1 0.020977 0.002174 -0.011471 0.000000 0.006567 0.000000
# 2 0.002174 0.013889 -0.006930 0.000000 0.000212 0.000000
# 3 -0.011471 -0.006930 0.017268 0.000000 0.001521 0.000000
# 4 0.000000 0.000000 0.000000 0.022165 0.000000 0.000962
# 5 0.006567 0.000212 0.001521 0.000000 0.028933 0.000000
# 6 0.000000 0.000000 0.000000 0.000962 0.000000 0.038941
#
#
# Mechanical properties :
#
#
# Convention : Reuss Voigt Hill
#
# Bulk Modulus (GPa) = 50.81450 68.57883 59.69666
# Shear Modulus (GPa) = 27.59556 33.80553 30.70055
#
# Velocity S-wave (km/s) = 3.45476 3.82378 3.64395
# Velocity P-wave (km/s) = 6.15562 7.01115 6.59727
#
# Compressibility (1/GPa) = 0.01967942
#
# Stress axis : x y z
#
# Youngs Moduli (GPa) = 47.67062 72.00148 57.90957
#
# Poissons Ratio (x) = -0.15654 0.66430
# Poissons Ratio (y) = -0.10364 0.40132
# Poissons Ratio (z) = 0.54685 0.49898
#
# Static dielectric constant tensor:
#      x y z
#    x 5.170630 0.000000 -0.711220 
#    y 0.000000 4.606630 0.000000 
#    z -0.711220 0.000000 4.372710 
# 
# 
# High freq. dielectric constant tensor:
#      x y z
#    x 1.906470 0.000000 -0.022510 
#    y 0.000000 1.912130 0.000000 
#    z -0.022510 0.000000 1.919950 
# 
# From -- ./inp_files/43285.got.cif
#   From: 2010.03.12/outbox.cif.g09.slc.cpg/sg14_22_cif.got.tgz:43285.got - 2010.03.31 13:35:05.
