data_PCOD8126617
_publ_section_title
;
Structure prediction by ZEFSAII (Michael W. Deem and Ramdas Pophale) SiO2 
 PCOD8126617
Probable space group: P 21/C
;
_chemical_formula_sum "Si O2"
_cell_formula_units_Z 24
_cell_length_a 14.182922
_cell_length_b 11.691661
_cell_length_c 13.539473
_cell_angle_alpha 90.000000
_cell_angle_beta 32.078454
_cell_angle_gamma 90.000000
_cell_volume 1192.349632
_symmetry_space_group_name_H-M "P 21/C"
_symmetry_group_IT_number 14
_symmetry_cell_setting 'monoclinic'
loop_
_space_group_symop_operation_xyz
x,y,z
-x,1/2+y,1/2-z
-x,-y,-z
x,1/2-y,1/2+z
loop_
_atom_site_type_symbol
_atom_site_label
_atom_site_fract_x
_atom_site_fract_y
_atom_site_fract_z
Si Si1 0.304099 0.862923 0.533616
Si Si2 0.461143 0.401745 0.458097
Si Si3 0.523326 0.944490 0.733337
Si Si4 0.986815 0.370157 0.541409
Si Si5 0.657005 0.762274 0.769591
Si Si6 0.726513 0.232431 0.131523
O O1 0.484522 0.818592 0.424246
O O2 0.236277 0.775996 0.510978
O O3 0.147675 0.864949 0.749512
O O4 0.334925 0.987805 0.459162
O O5 0.500000 0.500000 0.500000
O O6 0.405756 0.463985 0.403984
O O7 0.320810 0.319287 0.639883
O O8 0.636535 0.328650 0.279497
O O9 0.633809 0.858255 0.705290
O O10 0.397267 0.879581 0.768557
O O11 0.174253 0.315351 0.405629
O O12 0.000000 0.500000 0.500000
O O13 0.912847 0.299096 0.514576
#
# Coordination Sequence:
#
# PCOD8126617 Si02
#       6
#     4   4   4   4   4   4
#     4  10  22  43  62  89 132 160 212 261 303 379
#     4   9  18  38  66  89 117 165 210 249 311 371
#     4   9  20  38  68  90 118 175 207 254 322 364
#     4  12  26  39  61  98 126 168 211 254 319 372
#     4  10  21  41  66  87 126 168 207 259 315 367
#     4  10  21  41  64  90 128 164 206 264 311 364
#
# _framework density 20.128323999999999
#
# number of rings (size 3 to 8) (size 9 to 14) (size 15 to 20)
#    0.000    2.000    1.667    1.000    2.333    2.667 
#    9.000    7.500    0.000    0.000    0.000    0.000 
#    0.000    0.000    0.000    0.000    0.000    0.000 
#
# Total GULP energy -297447.190156 kJ/mol
# GULP energy per Si atom -12393.632923 kJ/mol
# Density = 2.008251 g / cm^3
# Si number density = 20.128324 Si / 1000 Ang^3
#
#
#
# Elastic Constant Matrix: (Units=GPa)
#
#
# Indices 1 2 3 4 5 6 
#
# 1 69.0970 33.9683 53.7817 0.0000 12.1269 0.0000
# 2 33.9683 117.7855 62.8469 0.0000 3.9259 0.0000
# 3 53.7817 62.8469 147.9498 0.0000 8.4065 0.0000
# 4 0.0000 0.0000 0.0000 29.4494 0.0000 5.1553
# 5 12.1269 3.9259 8.4065 0.0000 15.5193 0.0000
# 6 0.0000 0.0000 0.0000 5.1553 0.0000 27.1762
#
#
#
# Elastic Compliance Matrix: (Units=1/GPa)
#
#
# Indices 1 2 3 4 5 6 
#
# 1 0.023381 -0.002800 -0.006512 0.000000 -0.014034 0.000000
# 2 -0.002800 0.011315 -0.003869 0.000000 0.001422 0.000000
# 3 -0.006512 -0.003869 0.010756 0.000000 0.000241 0.000000
# 4 0.000000 0.000000 0.000000 0.035123 0.000000 -0.006663
# 5 -0.014034 0.001422 0.000241 0.000000 0.074912 0.000000
# 6 0.000000 0.000000 0.000000 -0.006663 0.000000 0.038061
#
#
# Mechanical properties :
#
#
# Convention : Reuss Voigt Hill
#
# Bulk Modulus (GPa) = 52.38814 70.66956 61.52885
# Shear Modulus (GPa) = 22.09712 26.71135 24.40423
#
# Velocity S-wave (km/s) = 3.31692 3.64683 3.48578
# Velocity P-wave (km/s) = 6.38380 7.27449 6.84365
#
# Compressibility (1/GPa) = 0.01908829
#
# Stress axis : x y z
#
# Youngs Moduli (GPa) = 42.76977 88.38084 92.96942
#
# Poissons Ratio (x) = 0.24749 0.60545
# Poissons Ratio (y) = 0.11977 0.35971
# Poissons Ratio (z) = 0.27853 0.34196
#
# Static dielectric constant tensor:
#      x y z
#    x 2.685600 0.000000 0.159110 
#    y 0.000000 4.143830 0.000000 
#    z 0.159110 0.000000 3.512200 
# 
# 
# High freq. dielectric constant tensor:
#      x y z
#    x 1.781320 0.000000 0.031070 
#    y 0.000000 1.809900 0.000000 
#    z 0.031070 0.000000 1.765350 
# 
# From -- ./inp_files/46879.got.cif
#   From: 2010.03.12/outbox.cif.g09.slc.cpg/sg14_24_cif.got.tgz:46879.got - 2010.03.31 13:35:05.
