data_PCOD8126015
_publ_section_title
;
Structure prediction by ZEFSAII (Michael W. Deem and Ramdas Pophale) SiO2 
 PCOD8126015
Probable space group: P 21/C
;
_chemical_formula_sum "Si O2"
_cell_formula_units_Z 24
_cell_length_a 6.037901
_cell_length_b 27.011307
_cell_length_c 7.444754
_cell_angle_alpha 90.000000
_cell_angle_beta 44.543543
_cell_angle_gamma 90.000000
_cell_volume 851.685680
_symmetry_space_group_name_H-M "P 21/C"
_symmetry_group_IT_number 14
_symmetry_cell_setting 'monoclinic'
loop_
_space_group_symop_operation_xyz
x,y,z
-x,1/2+y,1/2-z
-x,-y,-z
x,1/2-y,1/2+z
loop_
_atom_site_type_symbol
_atom_site_label
_atom_site_fract_x
_atom_site_fract_y
_atom_site_fract_z
Si Si1 0.825887 0.949283 0.062225
Si Si2 0.899170 0.050931 0.473254
Si Si3 0.654949 0.802883 0.865289
Si Si4 0.155679 0.655402 0.857679
Si Si5 0.624821 0.197859 0.358044
Si Si6 0.126795 0.344295 0.351430
O O1 0.474452 0.953513 0.344929
O O2 0.984339 0.901009 0.061550
O O3 0.866755 0.940477 0.827806
O O4 0.000000 0.000000 0.000000
O O5 0.957469 0.098864 0.562965
O O6 0.000000 0.000000 0.500000
O O7 0.033676 0.808516 0.596035
O O8 0.514815 0.820354 0.753378
O O9 0.515242 0.750414 0.004457
O O10 0.537953 0.841204 0.093449
O O11 0.017503 0.678000 0.750872
O O12 0.508505 0.159616 0.585408
O O13 0.004121 0.192260 0.089146
#
# Coordination Sequence:
#
# PCOD8126015 Si02
#       6
#     4   4   4   4   4   4
#     4  12  26  44  68  98 129 169 215 268 327 390
#     4  12  26  44  68  98 129 169 215 268 327 390
#     4  10  21  37  60  89 124 165 209 261 315 370
#     4  10  22  41  62  89 126 166 210 263 318 374
#     4  10  21  37  60  89 124 165 209 261 315 370
#     4  10  22  41  62  89 126 166 210 263 318 374
#
# _framework density 28.179411999999999
#
# number of rings (size 3 to 8) (size 9 to 14) (size 15 to 20)
#    0.000    1.333    0.000    5.000    0.000    8.000 
#    0.000    0.000    0.000    0.000    0.000    0.000 
#    0.000    0.000    0.000    0.000    0.000    0.000 
#
# Total GULP energy -297470.273001 kJ/mol
# GULP energy per Si atom -12394.594708 kJ/mol
# Density = 2.811527 g / cm^3
# Si number density = 28.179412 Si / 1000 Ang^3
#
#
#
# Elastic Constant Matrix: (Units=GPa)
#
#
# Indices 1 2 3 4 5 6 
#
# 1 58.6455 16.8223 73.6966 0.0000 -1.4048 0.0000
# 2 16.8223 216.8844 99.3437 0.0000 2.2934 0.0000
# 3 73.6966 99.3437 281.3831 0.0000 9.5715 0.0000
# 4 0.0000 0.0000 0.0000 62.2118 0.0000 1.7284
# 5 -1.4048 2.2934 9.5715 0.0000 60.5973 0.0000
# 6 0.0000 0.0000 0.0000 1.7284 0.0000 41.5924
#
#
#
# Elastic Compliance Matrix: (Units=1/GPa)
#
#
# Indices 1 2 3 4 5 6 
#
# 1 0.025895 0.001320 -0.007306 0.000000 0.001704 0.000000
# 2 0.001320 0.005568 -0.002318 0.000000 0.000186 0.000000
# 3 -0.007306 -0.002318 0.006323 0.000000 -0.001080 0.000000
# 4 0.000000 0.000000 0.000000 0.016093 0.000000 -0.000669
# 5 0.001704 0.000186 -0.001080 0.000000 0.016705 0.000000
# 6 0.000000 0.000000 0.000000 -0.000669 0.000000 0.024071
#
#
# Mechanical properties :
#
#
# Convention : Reuss Voigt Hill
#
# Bulk Modulus (GPa) = 47.21963 104.07091 75.64527
# Shear Modulus (GPa) = 42.25764 57.35031 49.80398
#
# Velocity S-wave (km/s) = 3.87666 4.51620 4.20859
# Velocity P-wave (km/s) = 6.06887 8.01289 7.10766
#
# Compressibility (1/GPa) = 0.02117763
#
# Stress axis : x y z
#
# Youngs Moduli (GPa) = 38.61742 179.59407 158.16495
#
# Poissons Ratio (x) = -0.23707 1.15558
# Poissons Ratio (y) = -0.05098 0.36661
# Poissons Ratio (z) = 0.28214 0.41628
#
# Static dielectric constant tensor:
#      x y z
#    x 6.123790 0.000000 -0.392840 
#    y 0.000000 5.305110 0.000000 
#    z -0.392840 0.000000 7.145400 
# 
# 
# High freq. dielectric constant tensor:
#      x y z
#    x 2.189660 0.000000 0.009620 
#    y 0.000000 2.117060 0.000000 
#    z 0.009620 0.000000 2.213270 
# 
# From -- ./inp_files/11303.got.cif
#   From: 2010.03.12/outbox.cif.g09.slc.cpg/sg14_6_cif.got.tgz:11303.got - 2010.03.31 13:35:05.
