data_PCOD8126113
_publ_section_title
;
Structure prediction by ZEFSAII (Michael W. Deem and Ramdas Pophale) SiO2 
 PCOD8126113
Probable space group: P 21/C
;
_chemical_formula_sum "Si O2"
_cell_formula_units_Z 28
_cell_length_a 8.698724
_cell_length_b 14.273673
_cell_length_c 13.702506
_cell_angle_alpha 90.000000
_cell_angle_beta 55.579656
_cell_angle_gamma 90.000000
_cell_volume 1403.457808
_symmetry_space_group_name_H-M "P 21/C"
_symmetry_group_IT_number 14
_symmetry_cell_setting 'monoclinic'
loop_
_space_group_symop_operation_xyz
x,y,z
-x,1/2+y,1/2-z
-x,-y,-z
x,1/2-y,1/2+z
loop_
_atom_site_type_symbol
_atom_site_label
_atom_site_fract_x
_atom_site_fract_y
_atom_site_fract_z
Si Si1 0.173834 0.079270 0.182341
Si Si2 0.920505 0.658694 0.856336
Si Si3 0.697394 0.812510 0.040932
Si Si4 0.773894 0.031116 0.367896
Si Si5 0.473075 0.911874 0.377602
Si Si6 0.686732 0.106054 0.767139
Si Si7 0.761591 0.766780 0.234293
O O1 0.241206 0.155781 0.239184
O O2 0.257491 0.977923 0.179428
O O3 0.232978 0.099877 0.049162
O O4 0.948468 0.083975 0.257439
O O5 0.857869 0.553619 0.901834
O O6 0.921745 0.681153 0.739744
O O7 0.132405 0.672403 0.817196
O O8 0.756343 0.720931 0.960611
O O9 0.475247 0.826760 0.132118
O O10 0.798248 0.796448 0.108945
O O11 0.629239 0.992207 0.339299
O O12 0.669751 0.097931 0.481674
O O13 0.373015 0.940609 0.313231
O O14 0.560865 0.808712 0.336741
#
# Coordination Sequence:
#
# PCOD8126113 Si02
#       7
#     4   4   4   4   4   4   4
#     4  10  21  38  61  87 116 159 197 242 293 348
#     4   9  20  38  57  89 114 156 197 245 292 349
#     4  10  21  40  57  86 125 151 195 245 294 352
#     4   9  19  37  61  84 118 147 205 243 289 347
#     4   9  19  37  58  89 115 153 193 250 291 343
#     4  10  21  38  63  86 117 157 199 242 295 349
#     4   9  20  39  55  83 125 151 195 242 292 352
#
# _framework density 19.950726
#
# number of rings (size 3 to 8) (size 9 to 14) (size 15 to 20)
#    0.000    2.571    0.000    0.429    4.000    1.143 
#   20.571   12.857    0.000    0.000    0.000    0.000 
#    0.000    0.000    0.000    0.000    0.000    0.000 
#
# Total GULP energy -346895.549922 kJ/mol
# GULP energy per Si atom -12389.126783 kJ/mol
# Density = 1.990532 g / cm^3
# Si number density = 19.950726 Si / 1000 Ang^3
#
#
#
# Elastic Constant Matrix: (Units=GPa)
#
#
# Indices 1 2 3 4 5 6 
#
# 1 126.4868 25.0207 65.5897 0.0000 -2.7152 0.0000
# 2 25.0207 65.8236 26.1814 0.0000 -4.5202 0.0000
# 3 65.5897 26.1814 104.3955 0.0000 -4.3136 0.0000
# 4 0.0000 0.0000 0.0000 25.2678 0.0000 -1.1558
# 5 -2.7152 -4.5202 -4.3136 0.0000 34.8122 0.0000
# 6 0.0000 0.0000 0.0000 -1.1558 0.0000 22.1173
#
#
#
# Elastic Compliance Matrix: (Units=1/GPa)
#
#
# Indices 1 2 3 4 5 6 
#
# 1 0.011900 -0.001731 -0.007050 0.000000 -0.000170 0.000000
# 2 -0.001731 0.017225 -0.003162 0.000000 0.001710 0.000000
# 3 -0.007050 -0.003162 0.014837 0.000000 0.000878 0.000000
# 4 0.000000 0.000000 0.000000 0.039671 0.000000 0.002073
# 5 -0.000170 0.001710 0.000878 0.000000 0.029043 0.000000
# 6 0.000000 0.000000 0.000000 0.002073 0.000000 0.045322
#
#
# Mechanical properties :
#
#
# Convention : Reuss Voigt Hill
#
# Bulk Modulus (GPa) = 49.80588 58.92105 54.36347
# Shear Modulus (GPa) = 26.51451 28.43373 27.47412
#
# Velocity S-wave (km/s) = 3.64950 3.77927 3.71495
# Velocity P-wave (km/s) = 6.54042 6.97433 6.76086
#
# Compressibility (1/GPa) = 0.02007795
#
# Stress axis : x y z
#
# Youngs Moduli (GPa) = 84.03126 58.05476 67.39788
#
# Poissons Ratio (x) = 0.10051 0.47513
# Poissons Ratio (y) = 0.14548 0.21308
# Poissons Ratio (z) = 0.59239 0.18354
#
# Static dielectric constant tensor:
#      x y z
#    x 3.911580 0.000000 0.042080 
#    y 0.000000 3.491850 0.000000 
#    z 0.042080 0.000000 3.756020 
# 
# 
# High freq. dielectric constant tensor:
#      x y z
#    x 1.782250 0.000000 -0.003170 
#    y 0.000000 1.764460 0.000000 
#    z -0.003170 0.000000 1.774460 
# 
# From -- ./inp_files/41129.got.cif
#   From: 2010.03.12/outbox.cif.g09.slc.cpg/sg14_21_cif.got.tgz:41129.got - 2010.03.31 13:35:05.
