data_PCOD8126847
_publ_section_title
;
Structure prediction by ZEFSAII (Michael W. Deem and Ramdas Pophale) SiO2 
 PCOD8126847
Probable space group: P 21/C
;
_chemical_formula_sum "Si O2"
_cell_formula_units_Z 32
_cell_length_a 8.661151
_cell_length_b 15.859776
_cell_length_c 9.935547
_cell_angle_alpha 90.000000
_cell_angle_beta 69.594412
_cell_angle_gamma 90.000000
_cell_volume 1279.142588
_symmetry_space_group_name_H-M "P 21/C"
_symmetry_group_IT_number 14
_symmetry_cell_setting 'monoclinic'
loop_
_space_group_symop_operation_xyz
x,y,z
-x,1/2+y,1/2-z
-x,-y,-z
x,1/2-y,1/2+z
loop_
_atom_site_type_symbol
_atom_site_label
_atom_site_fract_x
_atom_site_fract_y
_atom_site_fract_z
Si Si1 0.203130 0.509095 0.780837
Si Si2 0.135171 0.254857 0.122988
Si Si3 0.326962 0.087273 0.498735
Si Si4 0.637544 0.139430 0.271030
Si Si5 0.399389 0.374987 0.599054
Si Si6 0.023427 0.661983 0.569496
Si Si7 0.314617 0.674527 0.647814
Si Si8 0.874250 0.994194 0.223374
O O1 0.234175 0.468865 0.915699
O O2 0.336106 0.471360 0.632034
O O3 0.232801 0.609939 0.780165
O O4 0.017640 0.489145 0.788822
O O5 0.236252 0.180396 0.160713
O O6 0.033157 0.299924 0.269984
O O7 0.257257 0.318164 0.009382
O O8 0.013300 0.217534 0.047976
O O9 0.525948 0.093402 0.421307
O O10 0.283180 0.049741 0.657831
O O11 0.515012 0.151744 0.185889
O O12 0.701528 0.230119 0.298714
O O13 0.802283 0.082977 0.187365
O O14 0.495492 0.354809 0.431418
O O15 0.941345 0.567899 0.583738
O O16 0.221383 0.660897 0.531089
#
# Coordination Sequence:
#
# PCOD8126847 Si02
#       8
#     4   4   4   4   4   4   4   4
#     4  10  23  43  67  99 136 186 228 285 346 414
#     4  11  23  45  70 101 134 181 231 289 341 418
#     4  10  21  43  66  99 134 182 235 283 348 402
#     4  11  24  42  65 102 136 180 232 289 346 410
#     4  11  25  43  67  94 141 175 229 278 353 411
#     4  10  25  43  70 100 137 183 230 285 349 409
#     4  11  25  43  65 102 136 180 227 284 351 409
#     4  10  23  42  68  99 139 179 237 282 345 413
#
# _framework density 25.016757999999999
#
# number of rings (size 3 to 8) (size 9 to 14) (size 15 to 20)
#    0.000    1.500    1.250    2.625    5.250    4.000 
#    4.500    2.500    0.000    0.000    0.000    0.000 
#    0.000    0.000    0.000    0.000    0.000    0.000 
#
# Total GULP energy -396788.640429 kJ/mol
# GULP energy per Si atom -12399.645013 kJ/mol
# Density = 2.495982 g / cm^3
# Si number density = 25.016758 Si / 1000 Ang^3
#
#
#
# Elastic Constant Matrix: (Units=GPa)
#
#
# Indices 1 2 3 4 5 6 
#
# 1 72.8890 30.8075 11.4922 0.0000 -3.3715 0.0000
# 2 30.8075 134.0043 8.1849 0.0000 6.8999 0.0000
# 3 11.4922 8.1849 28.5618 0.0000 -6.2694 0.0000
# 4 0.0000 0.0000 0.0000 30.6866 0.0000 -3.1513
# 5 -3.3715 6.8999 -6.2694 0.0000 37.0543 0.0000
# 6 0.0000 0.0000 0.0000 -3.1513 0.0000 45.9181
#
#
#
# Elastic Compliance Matrix: (Units=1/GPa)
#
#
# Indices 1 2 3 4 5 6 
#
# 1 0.016048 -0.003434 -0.005205 0.000000 0.001219 0.000000
# 2 -0.003434 0.008455 -0.001511 0.000000 -0.002143 0.000000
# 3 -0.005205 -0.001511 0.038943 0.000000 0.006397 0.000000
# 4 0.000000 0.000000 0.000000 0.032819 0.000000 0.002252
# 5 0.001219 -0.002143 0.006397 0.000000 0.028580 0.000000
# 6 0.000000 0.000000 0.000000 0.002252 0.000000 0.021932
#
#
# Mechanical properties :
#
#
# Convention : Reuss Voigt Hill
#
# Bulk Modulus (GPa) = 23.17809 37.38049 30.27929
# Shear Modulus (GPa) = 27.55421 35.06318 31.30870
#
# Velocity S-wave (km/s) = 3.32238 3.74784 3.54151
# Velocity P-wave (km/s) = 4.89926 5.80543 5.37149
#
# Compressibility (1/GPa) = 0.04314420
#
# Stress axis : x y z
#
# Youngs Moduli (GPa) = 62.31250 118.27866 25.67825
#
# Poissons Ratio (x) = 0.40620 0.13367
# Poissons Ratio (y) = 0.21400 0.03881
# Poissons Ratio (z) = 0.32436 0.17875
#
# Static dielectric constant tensor:
#      x y z
#    x 4.566060 0.000000 -0.475680 
#    y 0.000000 4.653430 0.000000 
#    z -0.475680 0.000000 4.407720 
# 
# 
# High freq. dielectric constant tensor:
#      x y z
#    x 2.002300 0.000000 -0.025370 
#    y 0.000000 2.009900 0.000000 
#    z -0.025370 0.000000 1.994290 
# 
# From -- ./inp_files/25490.got.cif
#   From: 2010.03.12/outbox.cif.g09.slc.cpg/sg14_13_cif.got.tgz:25490.got - 2010.03.31 13:35:05.
