data_PCOD8126974
_publ_section_title
;
Structure prediction by ZEFSAII (Michael W. Deem and Ramdas Pophale) SiO2 
 PCOD8126974
Probable space group: P 21/C
;
_chemical_formula_sum "Si O2"
_cell_formula_units_Z 32
_cell_length_a 10.065872
_cell_length_b 8.750307
_cell_length_c 28.028375
_cell_angle_alpha 90.000000
_cell_angle_beta 151.196251
_cell_angle_gamma 90.000000
_cell_volume 1189.458612
_symmetry_space_group_name_H-M "P 21/C"
_symmetry_group_IT_number 14
_symmetry_cell_setting 'monoclinic'
loop_
_space_group_symop_operation_xyz
x,y,z
-x,1/2+y,1/2-z
-x,-y,-z
x,1/2-y,1/2+z
loop_
_atom_site_type_symbol
_atom_site_label
_atom_site_fract_x
_atom_site_fract_y
_atom_site_fract_z
Si Si1 0.075233 0.342464 0.129802
Si Si2 0.235156 0.131876 0.466830
Si Si3 0.436141 0.827473 0.765054
Si Si4 0.210430 0.889670 0.122551
Si Si5 0.936150 0.827466 0.265057
Si Si6 0.575218 0.342468 0.629797
Si Si7 0.289575 0.110324 0.377450
Si Si8 0.735160 0.368119 0.466829
O O1 0.296708 0.272144 0.163976
O O2 0.048166 0.528772 0.118530
O O3 0.132131 0.290378 0.201747
O O4 0.776999 0.269071 0.018253
O O5 0.270400 0.188647 0.423413
O O6 0.276983 0.269074 0.518248
O O7 0.469960 0.008956 0.552030
O O8 0.189549 0.748001 0.655367
O O9 0.367875 0.790386 0.798256
O O10 0.503661 0.009600 0.778812
O O11 0.229639 0.811334 0.076600
O O12 0.969974 0.008960 0.052023
O O13 0.203308 0.727852 0.336030
O O14 0.003667 0.009593 0.278815
O O15 0.689564 0.748003 0.155369
O O16 0.548155 0.528775 0.618525
#
# Coordination Sequence:
#
# PCOD8126974 Si02
#       8
#     4   4   4   4   4   4   4   4
#     4  10  22  38  56  84 112 144 186 226 272 328
#     4   9  20  37  56  80 114 146 180 226 276 324
#     4  10  22  37  56  83 112 142 186 228 272 327
#     4   9  20  38  56  81 114 146 180 227 276 324
#     4  10  22  37  56  83 112 142 186 228 272 327
#     4  10  22  38  56  84 112 144 186 226 272 328
#     4   9  20  38  56  81 114 146 180 227 276 324
#     4   9  20  37  56  80 114 146 180 226 276 324
#
# _framework density 26.902996000000002
#
# number of rings (size 3 to 8) (size 9 to 14) (size 15 to 20)
#    0.000    2.500    0.000    1.500    0.000   15.000 
#    0.000    0.000    0.000    0.000    0.000    0.000 
#    0.000    0.000    0.000    0.000    0.000    0.000 
#
# Total GULP energy -396813.962395 kJ/mol
# GULP energy per Si atom -12400.436325 kJ/mol
# Density = 2.684176 g / cm^3
# Si number density = 26.902996 Si / 1000 Ang^3
#
#
#
# Elastic Constant Matrix: (Units=GPa)
#
#
# Indices 1 2 3 4 5 6 
#
# 1 79.1381 56.3569 35.6610 0.0000 -13.7406 0.0000
# 2 56.3569 132.1262 51.7170 0.0000 -38.5064 0.0000
# 3 35.6610 51.7170 126.3693 0.0000 -35.4579 0.0000
# 4 0.0000 0.0000 0.0000 40.1567 0.0000 -2.4588
# 5 -13.7406 -38.5064 -35.4579 0.0000 37.5538 0.0000
# 6 0.0000 0.0000 0.0000 -2.4588 0.0000 44.2277
#
#
#
# Elastic Compliance Matrix: (Units=1/GPa)
#
#
# Indices 1 2 3 4 5 6 
#
# 1 0.019192 -0.008204 -0.003331 0.000000 -0.004535 0.000000
# 2 -0.008204 0.014605 -0.000411 0.000000 0.011586 0.000000
# 3 -0.003331 -0.000411 0.011647 0.000000 0.009356 0.000000
# 4 0.000000 0.000000 0.000000 0.024988 0.000000 0.001389
# 5 -0.004535 0.011586 0.009356 0.000000 0.045683 0.000000
# 6 0.000000 0.000000 0.000000 0.001389 0.000000 0.022687
#
#
# Mechanical properties :
#
#
# Convention : Reuss Voigt Hill
#
# Bulk Modulus (GPa) = 46.39953 69.45593 57.92773
# Shear Modulus (GPa) = 29.43276 37.31422 33.37349
#
# Velocity S-wave (km/s) = 3.31121 3.72827 3.52591
# Velocity P-wave (km/s) = 5.64829 6.66383 6.17696
#
# Compressibility (1/GPa) = 0.02155194
#
# Stress axis : x y z
#
# Youngs Moduli (GPa) = 52.10485 68.46806 85.85959
#
# Poissons Ratio (x) = 0.56171 0.28599
# Poissons Ratio (y) = 0.42747 0.03531
# Poissons Ratio (z) = 0.17355 0.02816
#
# Static dielectric constant tensor:
#      x y z
#    x 4.667490 0.000000 0.709770 
#    y 0.000000 5.553510 0.000000 
#    z 0.709770 0.000000 6.500770 
# 
# 
# High freq. dielectric constant tensor:
#      x y z
#    x 2.070820 0.000000 0.048300 
#    y 0.000000 2.112740 0.000000 
#    z 0.048300 0.000000 2.152230 
# 
# From -- ./inp_files/80015.got.cif
#   From: 2010.03.12/outbox.cif.g09.slc.cpg/sg14_41_cif.got.tgz:80015.got - 2010.03.31 13:35:05.
