data_PCOD8126227
_publ_section_title
;
Structure prediction by ZEFSAII (Michael W. Deem and Ramdas Pophale) SiO2 
 PCOD8126227
Probable space group: P 21/C
;
_chemical_formula_sum "Si O2"
_cell_formula_units_Z 24
_cell_length_a 6.268522
_cell_length_b 14.880498
_cell_length_c 14.868293
_cell_angle_alpha 90.000000
_cell_angle_beta 55.331056
_cell_angle_gamma 90.000000
_cell_volume 1140.655632
_symmetry_space_group_name_H-M "P 21/C"
_symmetry_group_IT_number 14
_symmetry_cell_setting 'monoclinic'
loop_
_space_group_symop_operation_xyz
x,y,z
-x,1/2+y,1/2-z
-x,-y,-z
x,1/2-y,1/2+z
loop_
_atom_site_type_symbol
_atom_site_label
_atom_site_fract_x
_atom_site_fract_y
_atom_site_fract_z
Si Si1 0.037239 0.601402 0.921082
Si Si2 0.629897 0.149693 0.811425
Si Si3 0.500148 0.347054 0.861700
Si Si4 0.242680 0.944077 0.048436
Si Si5 0.256254 0.936466 0.544229
Si Si6 0.294824 0.974833 0.839335
O O1 0.124402 0.658124 0.814147
O O2 0.004434 0.497730 0.894306
O O3 0.261392 0.609343 0.944136
O O4 0.770003 0.637018 0.024538
O O5 0.484417 0.243929 0.835852
O O6 0.735546 0.139657 0.888270
O O7 0.447036 0.067242 0.824642
O O8 0.735803 0.363809 0.876950
O O9 0.540652 0.412913 0.767315
O O10 0.236578 0.917131 0.944339
O O11 0.984322 0.000364 0.136445
O O12 0.500000 0.000000 0.000000
O O13 0.500000 0.000000 0.500000
#
# Coordination Sequence:
#
# PCOD8126227 Si02
#       6
#     4   4   4   4   4   4
#     4  10  21  39  60  87 123 156 197 253 308 358
#     4  11  23  38  61  91 122 161 207 250 299 362
#     4  11  24  38  61  92 122 162 206 250 303 361
#     4   9  21  41  64  86 117 160 203 248 304 362
#     4   9  18  36  60  85 114 152 197 246 303 357
#     4  10  21  41  63  88 124 161 201 252 305 358
#
# _framework density 21.040531000000001
#
# number of rings (size 3 to 8) (size 9 to 14) (size 15 to 20)
#    0.000    2.000    0.000    4.000    0.000    9.333 
#    0.000    0.000    0.000    0.000    0.000    0.000 
#    0.000    0.000    0.000    0.000    0.000    0.000 
#
# Total GULP energy -297373.319241 kJ/mol
# GULP energy per Si atom -12390.554968 kJ/mol
# Density = 2.099264 g / cm^3
# Si number density = 21.040531 Si / 1000 Ang^3
#
#
#
# Elastic Constant Matrix: (Units=GPa)
#
#
# Indices 1 2 3 4 5 6 
#
# 1 106.6938 39.2830 44.5377 0.0000 8.5953 0.0000
# 2 39.2830 120.6390 62.7048 0.0000 9.2561 0.0000
# 3 44.5377 62.7048 147.6521 0.0000 -1.7386 0.0000
# 4 0.0000 0.0000 0.0000 21.0127 0.0000 2.7231
# 5 8.5953 9.2561 -1.7386 0.0000 36.7625 0.0000
# 6 0.0000 0.0000 0.0000 2.7231 0.0000 21.9773
#
#
#
# Elastic Compliance Matrix: (Units=1/GPa)
#
#
# Indices 1 2 3 4 5 6 
#
# 1 0.011430 -0.002240 -0.002523 0.000000 -0.002228 0.000000
# 2 -0.002240 0.011393 -0.004193 0.000000 -0.002543 0.000000
# 3 -0.002523 -0.004193 0.009339 0.000000 0.002087 0.000000
# 4 0.000000 0.000000 0.000000 0.048367 0.000000 -0.005993
# 5 -0.002228 -0.002543 0.002087 0.000000 0.028462 0.000000
# 6 0.000000 0.000000 0.000000 -0.005993 0.000000 0.046244
#
#
# Mechanical properties :
#
#
# Convention : Reuss Voigt Hill
#
# Bulk Modulus (GPa) = 70.16949 74.22620 72.19784
# Shear Modulus (GPa) = 28.10657 31.18114 29.64385
#
# Velocity S-wave (km/s) = 3.65887 3.85379 3.75759
# Velocity P-wave (km/s) = 7.16043 7.42675 7.29481
#
# Compressibility (1/GPa) = 0.01425121
#
# Stress axis : x y z
#
# Youngs Moduli (GPa) = 87.49075 87.77453 107.08042
#
# Poissons Ratio (x) = 0.19658 0.27014
# Poissons Ratio (y) = 0.19595 0.44895
# Poissons Ratio (z) = 0.22072 0.36801
#
# Static dielectric constant tensor:
#      x y z
#    x 4.388810 0.000000 0.464830 
#    y 0.000000 3.796470 0.000000 
#    z 0.464830 0.000000 4.138710 
# 
# 
# High freq. dielectric constant tensor:
#      x y z
#    x 1.834110 0.000000 0.010410 
#    y 0.000000 1.788980 0.000000 
#    z 0.010410 0.000000 1.835150 
# 
# From -- ./inp_files/37259.got.cif
#   From: 2010.03.12/outbox.cif.g09.slc.cpg/sg14_19_cif.got.tgz:37259.got - 2010.03.31 13:35:05.
