data_PCOD8126659
_publ_section_title
;
Structure prediction by ZEFSAII (Michael W. Deem and Ramdas Pophale) SiO2 
 PCOD8126659
Probable space group: P 21/C
;
_chemical_formula_sum "Si O2"
_cell_formula_units_Z 32
_cell_length_a 9.728702
_cell_length_b 15.073261
_cell_length_c 10.212425
_cell_angle_alpha 90.000000
_cell_angle_beta 75.711181
_cell_angle_gamma 90.000000
_cell_volume 1451.253972
_symmetry_space_group_name_H-M "P 21/C"
_symmetry_group_IT_number 14
_symmetry_cell_setting 'monoclinic'
loop_
_space_group_symop_operation_xyz
x,y,z
-x,1/2+y,1/2-z
-x,-y,-z
x,1/2-y,1/2+z
loop_
_atom_site_type_symbol
_atom_site_label
_atom_site_fract_x
_atom_site_fract_y
_atom_site_fract_z
Si Si1 0.565606 0.819141 0.177095
Si Si2 0.137379 0.685629 0.429629
Si Si3 0.990013 0.365434 0.105423
Si Si4 0.122434 0.371927 0.342081
Si Si5 0.509484 0.980042 0.753192
Si Si6 0.189547 0.486290 0.930716
Si Si7 0.219041 0.948032 0.709407
Si Si8 0.547337 0.314723 0.575742
O O1 0.736615 0.818767 0.147126
O O2 0.502354 0.917915 0.203202
O O3 0.496980 0.756416 0.303314
O O4 0.520361 0.782774 0.045161
O O5 0.107451 0.788922 0.427047
O O6 0.160532 0.644626 0.279399
O O7 0.281986 0.677845 0.479459
O O8 0.003526 0.636430 0.524660
O O9 0.888366 0.451146 0.157952
O O10 0.069228 0.332341 0.216761
O O11 0.107089 0.393380 0.969067
O O12 0.157517 0.475274 0.317733
O O13 0.653557 0.962109 0.643331
O O14 0.389030 0.950987 0.679364
O O15 0.508362 0.913880 0.877840
O O16 0.176716 0.541134 0.069568
#
# Coordination Sequence:
#
# PCOD8126659 Si02
#       8
#     4   4   4   4   4   4   4   4
#     4  11  26  48  67 105 135 183 230 290 339 411
#     4  11  24  39  68  95 134 168 224 275 339 401
#     4  10  24  40  62 100 127 179 215 281 332 406
#     4  10  24  43  66  90 141 170 227 268 341 405
#     4  10  22  43  72  94 138 181 225 283 338 408
#     4  10  21  41  66  97 138 169 231 269 345 398
#     4   9  21  42  63 102 125 181 216 279 338 400
#     4  11  27  44  72 102 137 179 235 278 350 404
#
# _framework density 22.049897999999999
#
# number of rings (size 3 to 8) (size 9 to 14) (size 15 to 20)
#    0.000    1.750    0.000    1.875    8.750    5.000 
#    6.750    0.000    0.000    0.000    0.000    0.000 
#    0.000    0.000    0.000    0.000    0.000    0.000 
#
# Total GULP energy -396810.052122 kJ/mol
# GULP energy per Si atom -12400.314129 kJ/mol
# Density = 2.199971 g / cm^3
# Si number density = 22.049898 Si / 1000 Ang^3
#
#
#
# Elastic Constant Matrix: (Units=GPa)
#
#
# Indices 1 2 3 4 5 6 
#
# 1 134.8103 27.6810 51.1163 0.0000 -27.3915 0.0000
# 2 27.6810 95.8612 30.6964 0.0000 -12.3923 0.0000
# 3 51.1163 30.6964 66.5122 0.0000 -13.2570 0.0000
# 4 0.0000 0.0000 0.0000 24.3349 0.0000 -3.4876
# 5 -27.3915 -12.3923 -13.2570 0.0000 49.8780 0.0000
# 6 0.0000 0.0000 0.0000 -3.4876 0.0000 30.0760
#
#
#
# Elastic Compliance Matrix: (Units=1/GPa)
#
#
# Indices 1 2 3 4 5 6 
#
# 1 0.011208 -0.000250 -0.007691 0.000000 0.004049 0.000000
# 2 -0.000250 0.012372 -0.005208 0.000000 0.001552 0.000000
# 3 -0.007691 -0.005208 0.023494 0.000000 0.000727 0.000000
# 4 0.000000 0.000000 0.000000 0.041788 0.000000 0.004846
# 5 0.004049 0.001552 0.000727 0.000000 0.022851 0.000000
# 6 0.000000 0.000000 0.000000 0.004846 0.000000 0.033811
#
#
# Mechanical properties :
#
#
# Convention : Reuss Voigt Hill
#
# Bulk Modulus (GPa) = 48.13428 57.35234 52.74331
# Shear Modulus (GPa) = 27.97204 33.37044 30.67124
#
# Velocity S-wave (km/s) = 3.56558 3.89447 3.73365
# Velocity P-wave (km/s) = 6.23123 6.80362 6.52371
#
# Compressibility (1/GPa) = 0.02077522
#
# Stress axis : x y z
#
# Youngs Moduli (GPa) = 89.22044 80.82454 42.56332
#
# Poissons Ratio (x) = 0.02022 0.32737
# Poissons Ratio (y) = 0.02232 0.22169
# Poissons Ratio (z) = 0.68622 0.42097
#
# Static dielectric constant tensor:
#      x y z
#    x 4.186630 0.000000 -0.068770 
#    y 0.000000 3.946420 0.000000 
#    z -0.068770 0.000000 3.719670 
# 
# 
# High freq. dielectric constant tensor:
#      x y z
#    x 1.887850 0.000000 -0.007470 
#    y 0.000000 1.868940 0.000000 
#    z -0.007470 0.000000 1.850160 
# 
# From -- ./inp_files/25477.got.cif
#   From: 2010.03.12/outbox.cif.g09.slc.cpg/sg14_13_cif.got.tgz:25477.got - 2010.03.31 13:35:05.
