data_PCOD8126608
_publ_section_title
;
Structure prediction by ZEFSAII (Michael W. Deem and Ramdas Pophale) SiO2 
 PCOD8126608
Probable space group: P 21/C
;
_chemical_formula_sum "Si O2"
_cell_formula_units_Z 24
_cell_length_a 11.043386
_cell_length_b 14.868272
_cell_length_c 14.570552
_cell_angle_alpha 90.000000
_cell_angle_beta 29.898101
_cell_angle_gamma 90.000000
_cell_volume 1192.526952
_symmetry_space_group_name_H-M "P 21/C"
_symmetry_group_IT_number 14
_symmetry_cell_setting 'monoclinic'
loop_
_space_group_symop_operation_xyz
x,y,z
-x,1/2+y,1/2-z
-x,-y,-z
x,1/2-y,1/2+z
loop_
_atom_site_type_symbol
_atom_site_label
_atom_site_fract_x
_atom_site_fract_y
_atom_site_fract_z
Si Si1 0.306808 0.806506 0.694129
Si Si2 0.557030 0.069919 0.542776
Si Si3 0.232776 0.893519 0.207452
Si Si4 0.133115 0.413635 0.451229
Si Si5 0.681676 0.909495 0.571184
Si Si6 0.575123 0.016503 0.095184
O O1 0.290669 0.849411 0.602331
O O2 0.356438 0.701411 0.649558
O O3 0.541971 0.844823 0.592334
O O4 0.055817 0.831848 0.910823
O O5 0.325006 0.114146 0.746521
O O6 0.500000 0.000000 0.500000
O O7 0.706269 0.012936 0.519830
O O8 0.950712 0.875001 0.412533
O O9 0.345384 0.968393 0.199446
O O10 0.268283 0.925555 0.079579
O O11 0.257360 0.441259 0.466036
O O12 0.000000 0.500000 0.500000
O O13 0.527868 0.910543 0.765736
#
# Coordination Sequence:
#
# PCOD8126608 Si02
#       6
#     4   4   4   4   4   4
#     4  11  23  37  60  98 120 153 212 262 296 354
#     4   9  18  35  62  88 116 154 203 246 304 352
#     4  11  25  40  61  90 130 161 201 252 308 376
#     4  11  19  38  67  89 117 162 207 255 299 365
#     4  10  21  41  64  84 122 164 202 247 304 369
#     4  10  23  44  63  85 125 174 198 239 324 372
#
# _framework density 20.125330999999999
#
# number of rings (size 3 to 8) (size 9 to 14) (size 15 to 20)
#    0.000    1.667    5.000    1.500    4.667    1.333 
#    3.000    0.000    0.000    0.000    0.000    0.000 
#    0.000    0.000    0.000    0.000    0.000    0.000 
#
# Total GULP energy -297529.012064 kJ/mol
# GULP energy per Si atom -12397.042169 kJ/mol
# Density = 2.007952 g / cm^3
# Si number density = 20.125331 Si / 1000 Ang^3
#
#
#
# Elastic Constant Matrix: (Units=GPa)
#
#
# Indices 1 2 3 4 5 6 
#
# 1 79.2133 8.8771 22.2824 0.0000 -2.6606 0.0000
# 2 8.8771 71.8877 21.2412 0.0000 3.1443 0.0000
# 3 22.2824 21.2412 84.3797 0.0000 1.1691 0.0000
# 4 0.0000 0.0000 0.0000 20.8618 0.0000 -7.0372
# 5 -2.6606 3.1443 1.1691 0.0000 37.1324 0.0000
# 6 0.0000 0.0000 0.0000 -7.0372 0.0000 16.3725
#
#
#
# Elastic Compliance Matrix: (Units=1/GPa)
#
#
# Indices 1 2 3 4 5 6 
#
# 1 0.013716 -0.000723 -0.003456 0.000000 0.001153 0.000000
# 2 -0.000723 0.015116 -0.003597 0.000000 -0.001219 0.000000
# 3 -0.003456 -0.003597 0.013675 0.000000 -0.000374 0.000000
# 4 0.000000 0.000000 0.000000 0.056063 0.000000 0.024097
# 5 0.001153 -0.001219 -0.000374 0.000000 0.027128 0.000000
# 6 0.000000 0.000000 0.000000 0.024097 0.000000 0.071435
#
#
# Mechanical properties :
#
#
# Convention : Reuss Voigt Hill
#
# Bulk Modulus (GPa) = 37.10035 37.80912 37.45474
# Shear Modulus (GPa) = 22.55595 27.07866 24.81731
#
# Velocity S-wave (km/s) = 3.35143 3.67209 3.51542
# Velocity P-wave (km/s) = 5.78366 6.06684 5.92695
#
# Compressibility (1/GPa) = 0.02695392
#
# Stress axis : x y z
#
# Youngs Moduli (GPa) = 72.90724 66.15449 73.12828
#
# Poissons Ratio (x) = 0.04783 0.25273
# Poissons Ratio (y) = 0.05271 0.26307
# Poissons Ratio (z) = 0.25197 0.23799
#
# Static dielectric constant tensor:
#      x y z
#    x 3.789850 0.000000 -0.105520 
#    y 0.000000 3.466750 0.000000 
#    z -0.105520 0.000000 2.876500 
# 
# 
# High freq. dielectric constant tensor:
#      x y z
#    x 1.784740 0.000000 0.009070 
#    y 0.000000 1.760280 0.000000 
#    z 0.009070 0.000000 1.795760 
# 
# From -- ./inp_files/45031.got.cif
#   From: 2010.03.12/outbox.cif.g09.slc.cpg/sg14_23_cif.got.tgz:45031.got - 2010.03.31 13:35:05.
