data_PCOD8126671
_publ_section_title
;
Structure prediction by ZEFSAII (Michael W. Deem and Ramdas Pophale) SiO2 
 PCOD8126671
Probable space group: P 21/C
;
_chemical_formula_sum "Si O2"
_cell_formula_units_Z 24
_cell_length_a 19.184222
_cell_length_b 12.068896
_cell_length_c 13.961907
_cell_angle_alpha 90.000000
_cell_angle_beta 160.408554
_cell_angle_gamma 90.000000
_cell_volume 1083.937336
_symmetry_space_group_name_H-M "P 21/C"
_symmetry_group_IT_number 14
_symmetry_cell_setting 'monoclinic'
loop_
_space_group_symop_operation_xyz
x,y,z
-x,1/2+y,1/2-z
-x,-y,-z
x,1/2-y,1/2+z
loop_
_atom_site_type_symbol
_atom_site_label
_atom_site_fract_x
_atom_site_fract_y
_atom_site_fract_z
Si Si1 0.720089 0.799730 0.181415
Si Si2 0.584548 0.426231 0.023068
Si Si3 0.763544 0.462803 0.697261
Si Si4 0.097891 0.762175 0.528657
Si Si5 0.750820 0.747394 0.941504
Si Si6 0.550069 0.615625 0.844569
O O1 0.764028 0.785442 0.349237
O O2 0.930623 0.767344 0.398215
O O3 0.637996 0.925383 0.060687
O O4 0.541017 0.717443 0.909218
O O5 0.779071 0.353344 0.309614
O O6 0.500000 0.500000 0.000000
O O7 0.402750 0.350736 0.743058
O O8 0.658300 0.509939 0.035056
O O9 0.684001 0.415912 0.491783
O O10 0.739917 0.364315 0.745691
O O11 0.000000 0.500000 0.000000
O O12 0.981865 0.779117 0.277193
O O13 0.677045 0.645052 0.912607
#
# Coordination Sequence:
#
# PCOD8126671 Si02
#       6
#     4   4   4   4   4   4
#     4  10  23  44  67 101 142 178 237 284 356 419
#     4  12  24  45  72 101 141 189 235 283 357 418
#     4  10  21  41  67  97 135 183 230 288 351 412
#     4  10  24  44  68 101 142 181 232 291 352 417
#     4  11  24  46  66 106 139 182 237 290 353 424
#     4  11  22  42  70  94 142 178 232 293 344 421
#
# _framework density 22.141500000000001
#
# number of rings (size 3 to 8) (size 9 to 14) (size 15 to 20)
#    0.000    1.333    3.333    3.000    0.000    7.333 
#    3.000    0.000    0.000    0.000    0.000    0.000 
#    0.000    0.000    0.000    0.000    0.000    0.000 
#
# Total GULP energy -297484.187420 kJ/mol
# GULP energy per Si atom -12395.174476 kJ/mol
# Density = 2.209111 g / cm^3
# Si number density = 22.141500 Si / 1000 Ang^3
#
#
#
# Elastic Constant Matrix: (Units=GPa)
#
#
# Indices 1 2 3 4 5 6 
#
# 1 120.5853 61.0492 43.1763 0.0000 -38.6369 0.0000
# 2 61.0492 182.1281 76.9272 0.0000 -25.2656 0.0000
# 3 43.1763 76.9272 135.6350 0.0000 -41.5348 0.0000
# 4 0.0000 0.0000 0.0000 42.4091 0.0000 -10.2546
# 5 -38.6369 -25.2656 -41.5348 0.0000 41.0110 0.0000
# 6 0.0000 0.0000 0.0000 -10.2546 0.0000 35.2622
#
#
#
# Elastic Compliance Matrix: (Units=1/GPa)
#
#
# Indices 1 2 3 4 5 6 
#
# 1 0.013308 -0.003368 0.001273 0.000000 0.011751 0.000000
# 2 -0.003368 0.008078 -0.004287 0.000000 -0.002538 0.000000
# 3 0.001273 -0.004287 0.012984 0.000000 0.011708 0.000000
# 4 0.000000 0.000000 0.000000 0.025363 0.000000 0.007376
# 5 0.011751 -0.002538 0.011708 0.000000 0.045749 0.000000
# 6 0.000000 0.000000 0.000000 0.007376 0.000000 0.030504
#
#
# Mechanical properties :
#
#
# Convention : Reuss Voigt Hill
#
# Bulk Modulus (GPa) = 46.28430 88.96155 67.62293
# Shear Modulus (GPa) = 32.06119 40.88283 36.47201
#
# Velocity S-wave (km/s) = 3.80941 4.30168 4.06300
# Velocity P-wave (km/s) = 6.34807 8.05844 7.25384
#
# Compressibility (1/GPa) = 0.02160560
#
# Stress axis : x y z
#
# Youngs Moduli (GPa) = 75.14522 123.79102 77.01718
#
# Poissons Ratio (x) = 0.41693 -0.09801
# Poissons Ratio (y) = 0.25309 0.33014
# Poissons Ratio (z) = -0.09562 0.53064
#
# Static dielectric constant tensor:
#      x y z
#    x 3.761720 0.000000 -0.361890 
#    y 0.000000 5.129360 0.000000 
#    z -0.361890 0.000000 4.266090 
# 
# 
# High freq. dielectric constant tensor:
#      x y z
#    x 1.847590 0.000000 -0.031730 
#    y 0.000000 1.893570 0.000000 
#    z -0.031730 0.000000 1.873740 
# 
# From -- ./inp_files/50473.got.cif
#   From: 2010.03.12/outbox.cif.g09.slc.cpg/sg14_26_cif.got.tgz:50473.got - 2010.03.31 13:35:05.
