data_PCOD8126005
_publ_section_title
;
Structure prediction by ZEFSAII (Michael W. Deem and Ramdas Pophale) SiO2 
 PCOD8126005
Probable space group: P 21/C
;
_chemical_formula_sum "Si O2"
_cell_formula_units_Z 32
_cell_length_a 11.809346
_cell_length_b 9.124602
_cell_length_c 20.077164
_cell_angle_alpha 90.000000
_cell_angle_beta 134.290835
_cell_angle_gamma 90.000000
_cell_volume 1548.590296
_symmetry_space_group_name_H-M "P 21/C"
_symmetry_group_IT_number 14
_symmetry_cell_setting 'monoclinic'
loop_
_space_group_symop_operation_xyz
x,y,z
-x,1/2+y,1/2-z
-x,-y,-z
x,1/2-y,1/2+z
loop_
_atom_site_type_symbol
_atom_site_label
_atom_site_fract_x
_atom_site_fract_y
_atom_site_fract_z
Si Si1 0.638719 0.430947 0.666241
Si Si2 0.235839 0.443222 0.147999
Si Si3 0.263804 0.756826 0.595661
Si Si4 0.257814 0.452862 0.788618
Si Si5 0.457677 0.834143 0.294511
Si Si6 0.004601 0.214301 0.105736
Si Si7 0.776664 0.287989 0.128686
Si Si8 0.503607 0.726981 0.580770
O O1 0.728357 0.508964 0.762666
O O2 0.523208 0.305288 0.648619
O O3 0.771724 0.355559 0.673979
O O4 0.534336 0.552366 0.584316
O O5 0.200216 0.577980 0.083638
O O6 0.381009 0.350423 0.178624
O O7 0.088499 0.336163 0.094837
O O8 0.307308 0.685802 0.683844
O O9 0.423786 0.760341 0.618732
O O10 0.133292 0.659942 0.501756
O O11 0.412258 0.522337 0.817176
O O12 0.121550 0.413836 0.678582
O O13 0.190815 0.565162 0.815774
O O14 0.324627 0.306266 0.851170
O O15 0.920603 0.281011 0.136434
O O16 0.605464 0.290795 0.022706
#
# Coordination Sequence:
#
# PCOD8126005 Si02
#       8
#     4   4   4   4   4   4   4   4
#     4  10  21  37  63  89 119 158 205 254 303 357
#     4  11  20  38  65  87 124 161 205 246 317 367
#     4  10  21  37  59  95 125 150 201 256 309 374
#     4  11  22  40  63  86 118 164 201 254 310 360
#     4  10  21  38  63  92 120 156 205 254 300 374
#     4  11  24  37  62  86 125 166 194 251 314 372
#     4  10  25  40  58  89 126 156 212 250 300 370
#     4  11  19  39  65  90 117 159 207 260 300 355
#
# _framework density 20.663955999999999
#
# number of rings (size 3 to 8) (size 9 to 14) (size 15 to 20)
#    0.000    1.500    3.750    1.125    3.500    0.500 
#    0.000    1.250    0.000    0.000    0.000    0.000 
#    0.000    0.000    0.000    0.000    0.000    0.000 
#
# Total GULP energy -396672.043472 kJ/mol
# GULP energy per Si atom -12396.001358 kJ/mol
# Density = 2.061692 g / cm^3
# Si number density = 20.663956 Si / 1000 Ang^3
#
#
#
# Elastic Constant Matrix: (Units=GPa)
#
#
# Indices 1 2 3 4 5 6 
#
# 1 108.7663 33.8306 14.7534 0.0000 1.0924 0.0000
# 2 33.8306 103.3310 36.0000 0.0000 1.6904 0.0000
# 3 14.7534 36.0000 57.5931 0.0000 7.0834 0.0000
# 4 0.0000 0.0000 0.0000 31.6993 0.0000 -6.5532
# 5 1.0924 1.6904 7.0834 0.0000 24.0825 0.0000
# 6 0.0000 0.0000 0.0000 -6.5532 0.0000 23.8263
#
#
#
# Elastic Compliance Matrix: (Units=1/GPa)
#
#
# Indices 1 2 3 4 5 6 
#
# 1 0.010257 -0.003124 -0.000668 0.000000 -0.000049 0.000000
# 2 -0.003124 0.013373 -0.007741 0.000000 0.001480 0.000000
# 3 -0.000668 -0.007741 0.023140 0.000000 -0.006232 0.000000
# 4 0.000000 0.000000 0.000000 0.033448 0.000000 0.009200
# 5 -0.000049 0.001480 -0.006232 0.000000 0.043255 0.000000
# 6 0.000000 0.000000 0.000000 0.009200 0.000000 0.044501
#
#
# Mechanical properties :
#
#
# Convention : Reuss Voigt Hill
#
# Bulk Modulus (GPa) = 42.18999 48.76205 45.47602
# Shear Modulus (GPa) = 25.13289 28.26206 26.69747
#
# Velocity S-wave (km/s) = 3.49129 3.70225 3.59832
# Velocity P-wave (km/s) = 6.05918 6.47491 6.27049
#
# Compressibility (1/GPa) = 0.02370230
#
# Stress axis : x y z
#
# Youngs Moduli (GPa) = 97.49415 74.77591 43.21592
#
# Poissons Ratio (x) = 0.23364 0.02888
# Poissons Ratio (y) = 0.30462 0.33453
# Poissons Ratio (z) = 0.06516 0.57884
#
# Static dielectric constant tensor:
#      x y z
#    x 3.668180 0.000000 -0.188940 
#    y 0.000000 3.755240 0.000000 
#    z -0.188940 0.000000 3.644320 
# 
# 
# High freq. dielectric constant tensor:
#      x y z
#    x 1.804700 0.000000 -0.012230 
#    y 0.000000 1.804470 0.000000 
#    z -0.012230 0.000000 1.804330 
# 
# From -- ./inp_files/67053.got.cif
#   From: 2010.03.12/outbox.cif.g09.slc.cpg/sg14_34_cif.got.tgz:67053.got - 2010.03.31 13:35:05.
