data_PCOD8126153
_publ_section_title
;
Structure prediction by ZEFSAII (Michael W. Deem and Ramdas Pophale) SiO2 
 PCOD8126153
Probable space group: P 21/C
;
_chemical_formula_sum "Si O2"
_cell_formula_units_Z 24
_cell_length_a 8.875980
_cell_length_b 13.534884
_cell_length_c 13.494840
_cell_angle_alpha 90.000000
_cell_angle_beta 45.552449
_cell_angle_gamma 90.000000
_cell_volume 1157.366658
_symmetry_space_group_name_H-M "P 21/C"
_symmetry_group_IT_number 14
_symmetry_cell_setting 'monoclinic'
loop_
_space_group_symop_operation_xyz
x,y,z
-x,1/2+y,1/2-z
-x,-y,-z
x,1/2-y,1/2+z
loop_
_atom_site_type_symbol
_atom_site_label
_atom_site_fract_x
_atom_site_fract_y
_atom_site_fract_z
Si Si1 0.369551 0.904921 0.591044
Si Si2 0.310623 0.224894 0.053031
Si Si3 0.703750 0.713969 0.665400
Si Si4 0.575781 0.144469 0.093801
Si Si5 0.945160 0.228711 0.362580
Si Si6 0.234705 0.997585 0.849906
O O1 0.533870 0.816741 0.525291
O O2 0.190197 0.871756 0.593731
O O3 0.250980 0.923630 0.749502
O O4 0.500000 0.000000 0.500000
O O5 0.407791 0.139159 0.080372
O O6 0.085552 0.255477 0.201647
O O7 0.275827 0.186610 0.958903
O O8 0.494027 0.771954 0.793707
O O9 0.697228 0.606129 0.719842
O O10 0.903074 0.780057 0.610907
O O11 0.605563 0.040825 0.136994
O O12 0.798893 0.176448 0.945914
O O13 0.000000 0.000000 0.000000
#
# Coordination Sequence:
#
# PCOD8126153 Si02
#       6
#     4   4   4   4   4   4
#     4  11  23  42  65  95 128 176 221 267 325 393
#     4  10  22  41  64  90 135 172 211 272 335 375
#     4  11  22  41  65  92 130 172 213 276 331 380
#     4  10  22  39  61  95 127 171 220 268 323 392
#     4  10  21  38  63  92 128 168 214 266 322 391
#     4  12  22  38  68  95 127 173 225 263 327 394
#
# _framework density 20.736729
#
# number of rings (size 3 to 8) (size 9 to 14) (size 15 to 20)
#    0.000    1.333    3.333    4.000    0.000    0.667 
#    0.000    0.833    3.667    0.000    0.000    0.000 
#    0.000    0.000    0.000    0.000    0.000    0.000 
#
# Total GULP energy -297481.545319 kJ/mol
# GULP energy per Si atom -12395.064388 kJ/mol
# Density = 2.068953 g / cm^3
# Si number density = 20.736729 Si / 1000 Ang^3
#
#
#
# Elastic Constant Matrix: (Units=GPa)
#
#
# Indices 1 2 3 4 5 6 
#
# 1 115.6388 49.1047 39.7034 0.0000 14.2693 0.0000
# 2 49.1047 94.0951 18.3040 0.0000 -8.9595 0.0000
# 3 39.7034 18.3040 105.0660 0.0000 -5.5190 0.0000
# 4 0.0000 0.0000 0.0000 31.2961 0.0000 -4.4860
# 5 14.2693 -8.9595 -5.5190 0.0000 39.9747 0.0000
# 6 0.0000 0.0000 0.0000 -4.4860 0.0000 33.5780
#
#
#
# Elastic Compliance Matrix: (Units=1/GPa)
#
#
# Indices 1 2 3 4 5 6 
#
# 1 0.014139 -0.007202 -0.004471 0.000000 -0.007278 0.000000
# 2 -0.007202 0.014867 0.000445 0.000000 0.005964 0.000000
# 3 -0.004471 0.000445 0.011301 0.000000 0.003256 0.000000
# 4 0.000000 0.000000 0.000000 0.032577 0.000000 0.004352
# 5 -0.007278 0.005964 0.003256 0.000000 0.029400 0.000000
# 6 0.000000 0.000000 0.000000 0.004352 0.000000 0.030363
#
#
# Mechanical properties :
#
#
# Convention : Reuss Voigt Hill
#
# Bulk Modulus (GPa) = 56.01792 58.78046 57.39919
# Shear Modulus (GPa) = 31.04573 34.81561 32.93067
#
# Velocity S-wave (km/s) = 3.87348 4.10193 3.98934
# Velocity P-wave (km/s) = 6.86132 7.13036 6.99713
#
# Compressibility (1/GPa) = 0.01785143
#
# Stress axis : x y z
#
# Youngs Moduli (GPa) = 70.72693 67.26142 88.48960
#
# Poissons Ratio (x) = 0.48441 0.39560
# Poissons Ratio (y) = 0.50937 -0.03935
# Poissons Ratio (z) = 0.31619 -0.02991
#
# Static dielectric constant tensor:
#      x y z
#    x 3.990170 0.000000 0.018050 
#    y 0.000000 3.682160 0.000000 
#    z 0.018050 0.000000 3.954000 
# 
# 
# High freq. dielectric constant tensor:
#      x y z
#    x 1.808820 0.000000 -0.001310 
#    y 0.000000 1.789420 0.000000 
#    z -0.001310 0.000000 1.830400 
# 
# From -- ./inp_files/40583.got.cif
#   From: 2010.03.12/outbox.cif.g09.slc.cpg/sg14_21_cif.got.tgz:40583.got - 2010.03.31 13:35:05.
