data_PCOD8126519
_publ_section_title
;
Structure prediction by ZEFSAII (Michael W. Deem and Ramdas Pophale) SiO2 
 PCOD8126519
Probable space group: P 21/C
;
_chemical_formula_sum "Si O2"
_cell_formula_units_Z 32
_cell_length_a 5.818408
_cell_length_b 21.216874
_cell_length_c 11.584789
_cell_angle_alpha 90.000000
_cell_angle_beta 87.809535
_cell_angle_gamma 90.000000
_cell_volume 1429.079003
_symmetry_space_group_name_H-M "P 21/C"
_symmetry_group_IT_number 14
_symmetry_cell_setting 'monoclinic'
loop_
_space_group_symop_operation_xyz
x,y,z
-x,1/2+y,1/2-z
-x,-y,-z
x,1/2-y,1/2+z
loop_
_atom_site_type_symbol
_atom_site_label
_atom_site_fract_x
_atom_site_fract_y
_atom_site_fract_z
Si Si1 0.603688 0.778101 0.862097
Si Si2 0.673883 0.919990 0.303844
Si Si3 0.291480 0.889349 0.893595
Si Si4 0.074094 0.591218 0.629761
Si Si5 0.703099 0.181827 0.718007
Si Si6 0.099093 0.171946 0.540481
Si Si7 0.383031 0.479508 0.725035
Si Si8 0.928207 0.633949 0.216590
O O1 0.436217 0.827628 0.929985
O O2 0.453131 0.744042 0.763828
O O3 0.700604 0.724920 0.948413
O O4 0.812215 0.813291 0.797696
O O5 0.456609 0.875703 0.311664
O O6 0.812925 0.916730 0.178799
O O7 0.835598 0.897120 0.406096
O O8 0.566243 0.990392 0.313643
O O9 0.473572 0.946149 0.879862
O O10 0.172352 0.881131 0.770891
O O11 0.093491 0.906579 0.990554
O O12 0.159205 0.660442 0.670851
O O13 0.226838 0.533730 0.673010
O O14 0.874718 0.196928 0.609570
O O15 0.032882 0.163045 0.409476
O O16 0.226216 0.428662 0.793676
#
# Coordination Sequence:
#
# PCOD8126519 Si02
#       8
#     4   4   4   4   4   4   4   4
#     4  10  23  43  61  94 124 168 213 258 326 381
#     4   9  20  40  66  94 122 170 213 260 316 376
#     4  11  24  40  62  99 130 168 212 264 324 374
#     4  10  21  40  67  92 128 169 215 259 312 387
#     4   9  20  41  64  92 122 164 215 262 315 375
#     4  10  22  44  66  90 127 165 217 264 317 387
#     4  10  22  41  63  94 131 166 214 263 319 376
#     4  11  25  41  62  95 131 163 209 268 322 379
#
# _framework density 22.392045
#
# number of rings (size 3 to 8) (size 9 to 14) (size 15 to 20)
#    0.000    2.000    0.000    1.875    1.750   10.500 
#   13.500    8.750    0.000    0.000    0.000    0.000 
#    0.000    0.000    0.000    0.000    0.000    0.000 
#
# Total GULP energy -396565.278099 kJ/mol
# GULP energy per Si atom -12392.664941 kJ/mol
# Density = 2.234108 g / cm^3
# Si number density = 22.392045 Si / 1000 Ang^3
#
#
#
# Elastic Constant Matrix: (Units=GPa)
#
#
# Indices 1 2 3 4 5 6 
#
# 1 88.2760 25.8830 17.7102 0.0000 -1.8716 0.0000
# 2 25.8830 105.9114 21.0616 0.0000 4.1195 0.0000
# 3 17.7102 21.0616 85.0157 0.0000 2.6112 0.0000
# 4 0.0000 0.0000 0.0000 15.2023 0.0000 6.2244
# 5 -1.8716 4.1195 2.6112 0.0000 22.2340 0.0000
# 6 0.0000 0.0000 0.0000 6.2244 0.0000 31.7330
#
#
#
# Elastic Compliance Matrix: (Units=1/GPa)
#
#
# Indices 1 2 3 4 5 6 
#
# 1 0.012571 -0.002746 -0.001994 0.000000 0.001801 0.000000
# 2 -0.002746 0.010585 -0.001990 0.000000 -0.001959 0.000000
# 3 -0.001994 -0.001990 0.012711 0.000000 -0.001292 0.000000
# 4 0.000000 0.000000 0.000000 0.071524 0.000000 -0.014029
# 5 0.001801 -0.001959 -0.001292 0.000000 0.045642 0.000000
# 6 0.000000 0.000000 0.000000 -0.014029 0.000000 0.034265
#
#
# Mechanical properties :
#
#
# Convention : Reuss Voigt Hill
#
# Bulk Modulus (GPa) = 44.62854 45.39030 45.00942
# Shear Modulus (GPa) = 24.01230 28.13706 26.07468
#
# Velocity S-wave (km/s) = 3.27824 3.54865 3.41612
# Velocity P-wave (km/s) = 5.85687 6.09141 5.97529
#
# Compressibility (1/GPa) = 0.02240718
#
# Stress axis : x y z
#
# Youngs Moduli (GPa) = 79.54561 94.47498 78.67446
#
# Poissons Ratio (x) = 0.25941 0.15687
# Poissons Ratio (y) = 0.21841 0.15657
# Poissons Ratio (z) = 0.15861 0.18802
#
# Static dielectric constant tensor:
#      x y z
#    x 4.221330 0.000000 0.004060 
#    y 0.000000 4.524320 0.000000 
#    z 0.004060 0.000000 3.610820 
# 
# 
# High freq. dielectric constant tensor:
#      x y z
#    x 1.898640 0.000000 -0.005140 
#    y 0.000000 1.896580 0.000000 
#    z -0.005140 0.000000 1.838040 
# 
# From -- ./inp_files/21812.got.cif
#   From: 2010.03.12/outbox.cif.g09.slc.cpg/sg14_11_cif.got.tgz:21812.got - 2010.03.31 13:35:05.
