data_PCOD8126913
_publ_section_title
;
Structure prediction by ZEFSAII (Michael W. Deem and Ramdas Pophale) SiO2 
 PCOD8126913
Probable space group: P 21/C
;
_chemical_formula_sum "Si O2"
_cell_formula_units_Z 16
_cell_length_a 5.148579
_cell_length_b 5.076471
_cell_length_c 32.888684
_cell_angle_alpha 90.000000
_cell_angle_beta 137.481448
_cell_angle_gamma 90.000000
_cell_volume 580.941691
_symmetry_space_group_name_H-M "P 21/C"
_symmetry_group_IT_number 14
_symmetry_cell_setting 'monoclinic'
loop_
_space_group_symop_operation_xyz
x,y,z
-x,1/2+y,1/2-z
-x,-y,-z
x,1/2-y,1/2+z
loop_
_atom_site_type_symbol
_atom_site_label
_atom_site_fract_x
_atom_site_fract_y
_atom_site_fract_z
Si Si1 0.211532 0.749021 0.007717
Si Si2 0.146885 0.096108 0.864291
Si Si3 0.122321 0.087672 0.287494
Si Si4 0.754347 0.733410 0.381072
O O1 0.649266 0.750577 0.074268
O O2 0.000000 0.500000 0.000000
O O3 0.162257 0.738544 0.952557
O O4 0.000000 0.000000 0.000000
O O5 0.448673 0.919904 0.873819
O O6 0.816049 0.915534 0.845534
O O7 0.951670 0.303997 0.810627
O O8 0.089121 0.315709 0.249587
O O9 0.573669 0.018355 0.348157
#
# Coordination Sequence:
#
# PCOD8126913 Si02
#       4
#     4   4   4   4
#     4  10  21  44  76 115 155 195 250 322 398 476
#     4  11  25  50  77 114 154 203 258 326 399 472
#     4  12  26  53  74 113 154 214 270 330 390 474
#     4  11  25  50  77 114 154 203 258 326 399 472
#
# _framework density 27.541488999999999
#
# number of rings (size 3 to 8) (size 9 to 14) (size 15 to 20)
#    0.000    1.000    5.000    0.750    0.000    2.000 
#    9.000    5.000    0.000    0.000    0.000    0.000 
#    0.000    0.000    0.000    0.250    0.000    0.000 
#
# Total GULP energy -198344.615315 kJ/mol
# GULP energy per Si atom -12396.538457 kJ/mol
# Density = 2.747880 g / cm^3
# Si number density = 27.541489 Si / 1000 Ang^3
#
#
#
# Elastic Constant Matrix: (Units=GPa)
#
#
# Indices 1 2 3 4 5 6 
#
# 1 91.4009 26.2677 15.7276 0.0225 -33.5786 0.0226
# 2 26.2677 164.7503 57.9307 0.0202 -25.1607 0.0130
# 3 15.7276 57.9307 200.4892 0.0106 -27.4538 -0.1055
# 4 0.0225 0.0202 0.0106 48.3175 -0.0075 -1.6284
# 5 -33.5786 -25.1607 -27.4538 -0.0075 28.8646 0.0035
# 6 0.0226 0.0130 -0.1055 -1.6284 0.0035 37.2923
#
#
#
# Elastic Compliance Matrix: (Units=1/GPa)
#
#
# Indices 1 2 3 4 5 6 
#
# 1 0.019673 -0.000023 0.001833 -0.000006 0.024609 -0.000009
# 2 -0.000023 0.007343 -0.001434 -0.000002 0.005010 -0.000007
# 3 0.001833 -0.001434 0.006185 0.000000 0.006765 0.000016
# 4 -0.000006 -0.000002 0.000000 0.020727 -0.000004 0.000905
# 5 0.024609 0.005010 0.006765 -0.000004 0.074075 -0.000005
# 6 -0.000009 -0.000007 0.000016 0.000905 -0.000005 0.026855
#
#
# Mechanical properties :
#
#
# Convention : Reuss Voigt Hill
#
# Bulk Modulus (GPa) = 29.45220 72.94360 51.19790
# Shear Modulus (GPa) = 30.22584 46.67585 38.45084
#
# Velocity S-wave (km/s) = 3.31640 4.12120 3.74050
# Velocity P-wave (km/s) = 5.03802 7.01343 6.10614
#
# Compressibility (1/GPa) = 0.03395332
#
# Stress axis : x y z
#
# Youngs Moduli (GPa) = 50.83147 136.18843 161.69000
#
# Poissons Ratio (x) = 0.00312 -0.29641
# Poissons Ratio (y) = 0.00116 0.23183
# Poissons Ratio (z) = -0.09318 0.19527
#
# Static dielectric constant tensor:
#      x y z
#    x 4.321910 0.000170 -0.068260 
#    y 0.000170 5.315620 -0.000470 
#    z -0.068260 -0.000470 6.582030 
# 
# 
# High freq. dielectric constant tensor:
#      x y z
#    x 2.069580 0.000000 -0.009940 
#    y 0.000000 2.127070 -0.000010 
#    z -0.009940 -0.000010 2.141680 
# 
# From -- ./inp_files/78496.got.cif
#   From: 2010.03.12/outbox.cif.g09.slc.cpg/sg14_40_cif.got.tgz:78496.got - 2010.03.31 13:35:05.
