data_PCOD8126199
_publ_section_title
;
Structure prediction by ZEFSAII (Michael W. Deem and Ramdas Pophale) SiO2 
 PCOD8126199
Probable space group: P 21/C
;
_chemical_formula_sum "Si O2"
_cell_formula_units_Z 32
_cell_length_a 14.106614
_cell_length_b 16.622383
_cell_length_c 19.538911
_cell_angle_alpha 90.000000
_cell_angle_beta 19.649768
_cell_angle_gamma 90.000000
_cell_volume 1540.650737
_symmetry_space_group_name_H-M "P 21/C"
_symmetry_group_IT_number 14
_symmetry_cell_setting 'monoclinic'
loop_
_space_group_symop_operation_xyz
x,y,z
-x,1/2+y,1/2-z
-x,-y,-z
x,1/2-y,1/2+z
loop_
_atom_site_type_symbol
_atom_site_label
_atom_site_fract_x
_atom_site_fract_y
_atom_site_fract_z
Si Si1 0.498357 0.202303 0.816343
Si Si2 0.347572 0.502457 0.904345
Si Si3 0.368489 0.400545 0.535731
Si Si4 0.669779 0.657973 0.714120
Si Si5 0.040207 0.384068 0.896960
Si Si6 0.849749 0.429350 0.305655
Si Si7 0.576401 0.178832 0.090412
Si Si8 0.725181 0.359176 0.635618
O O1 0.295908 0.182443 0.889359
O O2 0.520202 0.298218 0.817730
O O3 0.819628 0.180622 0.575841
O O4 0.371647 0.158256 0.968516
O O5 0.460741 0.582441 0.864735
O O6 0.608312 0.449039 0.702515
O O7 0.130728 0.530726 0.991124
O O8 0.180031 0.444163 0.069743
O O9 0.163391 0.366707 0.735946
O O10 0.688115 0.410634 0.344704
O O11 0.271737 0.489074 0.577019
O O12 0.537906 0.731394 0.847878
O O13 0.970784 0.632629 0.537950
O O14 0.308015 0.383035 0.766339
O O15 0.815739 0.350563 0.375487
O O16 0.733147 0.180468 0.055652
#
# Coordination Sequence:
#
# PCOD8126199 Si02
#       8
#     4   4   4   4   4   4   4   4
#     4  10  21  38  68  89 122 173 213 261 324 373
#     4  10  22  39  61  90 129 164 204 270 313 380
#     4   9  19  37  64  97 130 150 202 281 318 377
#     4  10  22  42  61  89 128 174 214 251 324 391
#     4   9  19  39  65  95 123 157 216 265 330 356
#     4   9  20  39  59 100 125 151 214 265 325 371
#     4  10  21  39  67  91 121 168 214 269 316 382
#     4  11  23  39  62  91 128 168 220 256 309 399
#
# _framework density 20.770444999999999
#
# number of rings (size 3 to 8) (size 9 to 14) (size 15 to 20)
#    0.000    2.250    1.250    1.125    5.250    0.500 
#    9.000    0.625    5.500    0.000    0.000    0.000 
#    0.000    0.000    0.000    0.000    0.000    0.000 
#
# Total GULP energy -396431.378279 kJ/mol
# GULP energy per Si atom -12388.480571 kJ/mol
# Density = 2.072317 g / cm^3
# Si number density = 20.770445 Si / 1000 Ang^3
#
#
#
# Elastic Constant Matrix: (Units=GPa)
#
#
# Indices 1 2 3 4 5 6 
#
# 1 63.3022 7.1028 19.2771 0.0000 -11.3132 0.0000
# 2 7.1028 89.0194 16.0501 0.0000 3.5434 0.0000
# 3 19.2771 16.0501 56.1614 0.0000 -10.3513 0.0000
# 4 0.0000 0.0000 0.0000 34.4136 0.0000 10.8599
# 5 -11.3132 3.5434 -10.3513 0.0000 34.5342 0.0000
# 6 0.0000 0.0000 0.0000 10.8599 0.0000 25.6772
#
#
#
# Elastic Compliance Matrix: (Units=1/GPa)
#
#
# Indices 1 2 3 4 5 6 
#
# 1 0.018275 -0.000690 -0.005249 0.000000 0.004484 0.000000
# 2 -0.000690 0.012054 -0.003681 0.000000 -0.002566 0.000000
# 3 -0.005249 -0.003681 0.021606 0.000000 0.005134 0.000000
# 4 0.000000 0.000000 0.000000 0.033534 0.000000 -0.014183
# 5 0.004484 -0.002566 0.005134 0.000000 0.032228 0.000000
# 6 0.000000 0.000000 0.000000 -0.014183 0.000000 0.044944
#
#
# Mechanical properties :
#
#
# Convention : Reuss Voigt Hill
#
# Bulk Modulus (GPa) = 30.58628 32.59364 31.58996
# Shear Modulus (GPa) = 25.93649 29.99521 27.96585
#
# Velocity S-wave (km/s) = 3.53756 3.80429 3.67335
# Velocity P-wave (km/s) = 5.60746 5.91804 5.76484
#
# Compressibility (1/GPa) = 0.03269440
#
# Stress axis : x y z
#
# Youngs Moduli (GPa) = 54.72105 82.95719 46.28391
#
# Poissons Ratio (x) = 0.05726 0.24294
# Poissons Ratio (y) = 0.03777 0.17037
# Poissons Ratio (z) = 0.28722 0.30537
#
# Static dielectric constant tensor:
#      x y z
#    x 3.556360 0.000000 -0.173980 
#    y 0.000000 3.987080 0.000000 
#    z -0.173980 0.000000 3.621080 
# 
# 
# High freq. dielectric constant tensor:
#      x y z
#    x 1.787230 0.000000 -0.016850 
#    y 0.000000 1.821580 0.000000 
#    z -0.016850 0.000000 1.799090 
# 
# From -- ./inp_files/68701.got.cif
#   From: 2010.03.12/outbox.cif.g09.slc.cpg/sg14_35_cif.got.tgz:68701.got - 2010.03.31 13:35:05.
