data_PCOD8126360
_publ_section_title
;
Structure prediction by ZEFSAII (Michael W. Deem and Ramdas Pophale) SiO2 
 PCOD8126360
Probable space group: P 21/C
;
_chemical_formula_sum "Si O2"
_cell_formula_units_Z 28
_cell_length_a 10.111967
_cell_length_b 17.150804
_cell_length_c 8.415400
_cell_angle_alpha 90.000000
_cell_angle_beta 62.085271
_cell_angle_gamma 90.000000
_cell_volume 1289.652986
_symmetry_space_group_name_H-M "P 21/C"
_symmetry_group_IT_number 14
_symmetry_cell_setting 'monoclinic'
loop_
_space_group_symop_operation_xyz
x,y,z
-x,1/2+y,1/2-z
-x,-y,-z
x,1/2-y,1/2+z
loop_
_atom_site_type_symbol
_atom_site_label
_atom_site_fract_x
_atom_site_fract_y
_atom_site_fract_z
Si Si1 0.900424 0.149095 0.564026
Si Si2 0.258632 0.301316 0.550945
Si Si3 0.574696 0.542897 0.609772
Si Si4 0.768866 0.651236 0.085783
Si Si5 0.923653 0.307255 0.686228
Si Si6 0.837586 0.033584 0.135745
Si Si7 0.294459 0.516913 0.939479
O O1 0.842227 0.224973 0.693166
O O2 0.902275 0.172771 0.380263
O O3 0.800173 0.071157 0.630214
O O4 0.059857 0.128720 0.553302
O O5 0.380229 0.366913 0.441216
O O6 0.313241 0.212188 0.487099
O O7 0.226338 0.303554 0.752981
O O8 0.101053 0.308838 0.543397
O O9 0.500000 0.500000 0.500000
O O10 0.723936 0.495192 0.566279
O O11 0.534939 0.452826 0.174020
O O12 0.684442 0.569736 0.143232
O O13 0.845117 0.372927 0.622378
O O14 0.776741 0.010469 0.345718
O O15 0.000000 0.000000 0.000000
#
# Coordination Sequence:
#
# PCOD8126360 Si02
#       7
#     4   4   4   4   4   4   4
#     4   9  20  37  62  96 133 171 223 282 333 400
#     4  10  21  40  64  95 129 177 224 277 335 404
#     4  12  25  44  65  96 141 175 222 283 346 410
#     4  10  21  39  67  96 132 176 231 275 334 410
#     4   9  19  39  64  94 127 170 232 276 326 400
#     4  11  24  43  72  96 132 185 233 278 339 409
#     4  11  24  42  65 101 135 178 221 288 350 408
#
# _framework density 21.711265999999998
#
# number of rings (size 3 to 8) (size 9 to 14) (size 15 to 20)
#    0.000    1.714    2.857    0.857    2.000    4.571 
#    2.571    1.429    0.000    0.000    0.000    0.000 
#    0.000    0.000    0.000    0.000    0.000    0.000 
#
# Total GULP energy -346919.201114 kJ/mol
# GULP energy per Si atom -12389.971468 kJ/mol
# Density = 2.166185 g / cm^3
# Si number density = 21.711266 Si / 1000 Ang^3
#
#
#
# Elastic Constant Matrix: (Units=GPa)
#
#
# Indices 1 2 3 4 5 6 
#
# 1 96.0726 44.8489 32.6096 0.0000 -4.5125 0.0000
# 2 44.8489 170.5974 26.4691 0.0000 3.7793 0.0000
# 3 32.6096 26.4691 68.8421 0.0000 -15.4633 0.0000
# 4 0.0000 0.0000 0.0000 31.8120 0.0000 3.6288
# 5 -4.5125 3.7793 -15.4633 0.0000 28.3208 0.0000
# 6 0.0000 0.0000 0.0000 3.6288 0.0000 38.6139
#
#
#
# Elastic Compliance Matrix: (Units=1/GPa)
#
#
# Indices 1 2 3 4 5 6 
#
# 1 0.013497 -0.002690 -0.005466 0.000000 -0.000475 0.000000
# 2 -0.002690 0.006921 -0.001927 0.000000 -0.002404 0.000000
# 3 -0.005466 -0.001927 0.020195 0.000000 0.010413 0.000000
# 4 0.000000 0.000000 0.000000 0.031775 0.000000 -0.002986
# 5 -0.000475 -0.002404 0.010413 0.000000 0.041240 0.000000
# 6 0.000000 0.000000 0.000000 -0.002986 0.000000 0.026178
#
#
# Mechanical properties :
#
#
# Convention : Reuss Voigt Hill
#
# Bulk Modulus (GPa) = 48.90487 60.37415 54.63951
# Shear Modulus (GPa) = 29.97797 35.18831 32.58314
#
# Velocity S-wave (km/s) = 3.71988 4.03021 3.87815
# Velocity P-wave (km/s) = 6.40500 7.03739 6.72863
#
# Compressibility (1/GPa) = 0.02044786
#
# Stress axis : x y z
#
# Youngs Moduli (GPa) = 74.08797 144.48488 49.51710
#
# Poissons Ratio (x) = 0.38863 0.27066
# Poissons Ratio (y) = 0.19928 0.09542
# Poissons Ratio (z) = 0.40497 0.27843
#
# Static dielectric constant tensor:
#      x y z
#    x 3.863660 0.000000 -0.088140 
#    y 0.000000 4.229760 0.000000 
#    z -0.088140 0.000000 3.831280 
# 
# 
# High freq. dielectric constant tensor:
#      x y z
#    x 1.828410 0.000000 -0.000400 
#    y 0.000000 1.870730 0.000000 
#    z -0.000400 0.000000 1.847140 
# 
# From -- ./inp_files/9399.got.cif
#   From: 2010.03.12/outbox.cif.g09.slc.cpg/sg14_5_cif.got.tgz:9399.got - 2010.03.31 13:35:05.
