data_PCOD8126647
_publ_section_title
;
Structure prediction by ZEFSAII (Michael W. Deem and Ramdas Pophale) SiO2 
 PCOD8126647
Probable space group: P 21/C
;
_chemical_formula_sum "Si O2"
_cell_formula_units_Z 32
_cell_length_a 9.528000
_cell_length_b 17.694886
_cell_length_c 11.199688
_cell_angle_alpha 90.000000
_cell_angle_beta 120.858857
_cell_angle_gamma 90.000000
_cell_volume 1620.921837
_symmetry_space_group_name_H-M "P 21/C"
_symmetry_group_IT_number 14
_symmetry_cell_setting 'monoclinic'
loop_
_space_group_symop_operation_xyz
x,y,z
-x,1/2+y,1/2-z
-x,-y,-z
x,1/2-y,1/2+z
loop_
_atom_site_type_symbol
_atom_site_label
_atom_site_fract_x
_atom_site_fract_y
_atom_site_fract_z
Si Si1 0.004302 0.657974 0.501009
Si Si2 0.648317 0.344127 0.723917
Si Si3 0.722880 0.185064 0.691962
Si Si4 0.663698 0.477492 0.132008
Si Si5 0.207836 0.555972 0.410180
Si Si6 0.986875 0.030110 0.626669
Si Si7 0.319674 0.430144 0.627570
Si Si8 0.099565 0.685064 0.964268
O O1 0.107341 0.671444 0.664980
O O2 0.087056 0.596450 0.450355
O O3 0.989833 0.740434 0.434608
O O4 0.826779 0.628315 0.462338
O O5 0.614103 0.254153 0.694533
O O6 0.685910 0.381093 0.611426
O O7 0.489943 0.385127 0.707852
O O8 0.806634 0.349103 0.878779
O O9 0.626317 0.106873 0.664234
O O10 0.761957 0.204944 0.572133
O O11 0.803365 0.480439 0.093594
O O12 0.713425 0.533485 0.258802
O O13 0.500000 0.500000 0.000000
O O14 0.323840 0.496683 0.530551
O O15 0.111875 0.509047 0.269205
O O16 0.022715 0.120137 0.636805
O O17 0.000000 0.000000 0.500000
#
# Coordination Sequence:
#
# PCOD8126647 Si02
#       8
#     4   4   4   4   4   4   4   4
#     4  11  22  41  67  89 121 166 214 256 308 376
#     4  11  24  41  62  91 130 163 204 263 323 372
#     4  10  21  42  65  87 118 172 211 246 317 390
#     4  11  23  40  63  90 126 165 205 259 317 371
#     4  12  22  42  64  91 126 169 210 255 315 379
#     4  11  22  40  63  95 123 161 212 255 307 381
#     4  12  23  41  62  97 124 161 211 269 306 369
#     4  10  21  41  66  88 123 168 209 251 319 380
#
# _framework density 19.741852000000002
#
# number of rings (size 3 to 8) (size 9 to 14) (size 15 to 20)
#    0.000    1.000    5.000    3.750    0.000    0.000 
#    2.250    3.750    0.000    0.000    0.000    0.000 
#    0.000    0.000    0.000    0.000    0.000    0.000 
#
# Total GULP energy -396717.092274 kJ/mol
# GULP energy per Si atom -12397.409134 kJ/mol
# Density = 1.969692 g / cm^3
# Si number density = 19.741852 Si / 1000 Ang^3
#
#
#
# Elastic Constant Matrix: (Units=GPa)
#
#
# Indices 1 2 3 4 5 6 
#
# 1 63.8815 43.4779 17.8600 0.0000 -4.5581 0.0000
# 2 43.4779 143.4146 40.7093 0.0000 9.1418 0.0000
# 3 17.8600 40.7093 82.3386 0.0000 -4.6020 0.0000
# 4 0.0000 0.0000 0.0000 36.1426 0.0000 -3.4915
# 5 -4.5581 9.1418 -4.6020 0.0000 29.1001 0.0000
# 6 0.0000 0.0000 0.0000 -3.4915 0.0000 32.3554
#
#
#
# Elastic Compliance Matrix: (Units=1/GPa)
#
#
# Indices 1 2 3 4 5 6 
#
# 1 0.020567 -0.006244 -0.001094 0.000000 0.005010 0.000000
# 2 -0.006244 0.010315 -0.004017 0.000000 -0.004854 0.000000
# 3 -0.001094 -0.004017 0.014558 0.000000 0.003393 0.000000
# 4 0.000000 0.000000 0.000000 0.027960 0.000000 0.003017
# 5 0.005010 -0.004854 0.003393 0.000000 0.037210 0.000000
# 6 0.000000 0.000000 0.000000 0.003017 0.000000 0.031232
#
#
# Mechanical properties :
#
#
# Convention : Reuss Voigt Hill
#
# Bulk Modulus (GPa) = 43.99401 54.85879 49.42640
# Shear Modulus (GPa) = 29.04791 32.02543 30.53667
#
# Velocity S-wave (km/s) = 3.84003 4.03204 3.93720
# Velocity P-wave (km/s) = 6.48029 7.03739 6.76457
#
# Compressibility (1/GPa) = 0.02273037
#
# Stress axis : x y z
#
# Youngs Moduli (GPa) = 48.62162 96.94272 68.69093
#
# Poissons Ratio (x) = 0.60530 0.07515
# Poissons Ratio (y) = 0.30359 0.27593
# Poissons Ratio (z) = 0.05319 0.38942
#
# Static dielectric constant tensor:
#      x y z
#    x 3.606120 0.000000 -0.614460 
#    y 0.000000 4.007550 0.000000 
#    z -0.614460 0.000000 4.087900 
# 
# 
# High freq. dielectric constant tensor:
#      x y z
#    x 1.744340 0.000000 -0.023040 
#    y 0.000000 1.792990 0.000000 
#    z -0.023040 0.000000 1.775740 
# 
# From -- ./inp_files/26296.got.cif
#   From: 2010.03.12/outbox.cif.g09.slc.cpg/sg14_14_cif.got.tgz:26296.got - 2010.03.31 13:35:05.
