data_PCOD8126753
_publ_section_title
;
Structure prediction by ZEFSAII (Michael W. Deem and Ramdas Pophale) SiO2 
 PCOD8126753
Probable space group: P 21/C
;
_chemical_formula_sum "Si O2"
_cell_formula_units_Z 32
_cell_length_a 9.231849
_cell_length_b 17.683153
_cell_length_c 12.150589
_cell_angle_alpha 90.000000
_cell_angle_beta 127.155737
_cell_angle_gamma 90.000000
_cell_volume 1580.892287
_symmetry_space_group_name_H-M "P 21/C"
_symmetry_group_IT_number 14
_symmetry_cell_setting 'monoclinic'
loop_
_space_group_symop_operation_xyz
x,y,z
-x,1/2+y,1/2-z
-x,-y,-z
x,1/2-y,1/2+z
loop_
_atom_site_type_symbol
_atom_site_label
_atom_site_fract_x
_atom_site_fract_y
_atom_site_fract_z
Si Si1 0.219729 0.447707 0.830985
Si Si2 0.451044 0.067235 0.855175
Si Si3 0.626537 0.588270 0.443775
Si Si4 0.101124 0.532874 0.148270
Si Si5 0.041139 0.086907 0.029808
Si Si6 0.321375 0.672915 0.681273
Si Si7 0.403160 0.895091 0.436600
Si Si8 0.661334 0.347329 0.846147
O O1 0.163224 0.402818 0.695366
O O2 0.309195 0.529114 0.845789
O O3 0.035888 0.456755 0.814861
O O4 0.376865 0.400363 0.965670
O O5 0.503467 0.128630 0.787361
O O6 0.605968 0.002926 0.926699
O O7 0.258690 0.026702 0.748795
O O8 0.442490 0.112865 0.967134
O O9 0.837284 0.609633 0.520911
O O10 0.523408 0.630948 0.299011
O O11 0.177410 0.615085 0.150438
O O12 0.000000 0.500000 0.000000
O O13 0.863077 0.137726 0.950932
O O14 0.000000 0.000000 0.000000
O O15 0.339781 0.669950 0.822410
O O16 0.318191 0.758141 0.639376
O O17 0.333847 0.879265 0.527618
#
# Coordination Sequence:
#
# PCOD8126753 Si02
#       8
#     4   4   4   4   4   4   4   4
#     4  11  22  40  71  98 128 170 230 275 311 390
#     4  10  22  39  67  94 126 172 215 270 324 383
#     4  10  21  42  64  93 128 170 219 267 321 385
#     4  11  22  41  66  98 128 171 225 271 321 389
#     4  12  21  39  68 102 125 168 224 274 317 381
#     4  12  27  42  67  99 137 172 218 273 337 398
#     4  11  23  44  68  94 131 180 217 267 337 393
#     4  11  26  44  64  94 139 176 212 272 341 396
#
# _framework density 20.241733
#
# number of rings (size 3 to 8) (size 9 to 14) (size 15 to 20)
#    0.000    1.000    5.000    1.500    8.750    0.000 
#    4.500    0.000    0.000    0.000    0.000    0.000 
#    0.000    0.000    0.000    0.000    0.000    0.000 
#
# Total GULP energy -396760.789972 kJ/mol
# GULP energy per Si atom -12398.774687 kJ/mol
# Density = 2.019566 g / cm^3
# Si number density = 20.241733 Si / 1000 Ang^3
#
#
#
# Elastic Constant Matrix: (Units=GPa)
#
#
# Indices 1 2 3 4 5 6 
#
# 1 131.2848 33.8096 38.0098 0.0000 8.3728 0.0000
# 2 33.8096 87.6819 30.1396 0.0000 5.5867 0.0000
# 3 38.0098 30.1396 113.5150 0.0000 -5.5614 0.0000
# 4 0.0000 0.0000 0.0000 19.2194 0.0000 -3.7318
# 5 8.3728 5.5867 -5.5614 0.0000 30.6579 0.0000
# 6 0.0000 0.0000 0.0000 -3.7318 0.0000 16.8460
#
#
#
# Elastic Compliance Matrix: (Units=1/GPa)
#
#
# Indices 1 2 3 4 5 6 
#
# 1 0.009151 -0.002502 -0.002522 0.000000 -0.002501 0.000000
# 2 -0.002502 0.013499 -0.002859 0.000000 -0.002295 0.000000
# 3 -0.002522 -0.002859 0.010566 0.000000 0.003127 0.000000
# 4 0.000000 0.000000 0.000000 0.054369 0.000000 0.012044
# 5 -0.002501 -0.002295 0.003127 0.000000 0.034286 0.000000
# 6 0.000000 0.000000 0.000000 0.012044 0.000000 0.062029
#
#
# Mechanical properties :
#
#
# Convention : Reuss Voigt Hill
#
# Bulk Modulus (GPa) = 57.30836 59.60000 58.45418
# Shear Modulus (GPa) = 24.33279 28.71283 26.52281
#
# Velocity S-wave (km/s) = 3.47091 3.77038 3.62374
# Velocity P-wave (km/s) = 6.66606 6.96149 6.81538
#
# Compressibility (1/GPa) = 0.01744946
#
# Stress axis : x y z
#
# Youngs Moduli (GPa) = 109.27527 74.08199 94.64167
#
# Poissons Ratio (x) = 0.18537 0.23872
# Poissons Ratio (y) = 0.27344 0.27054
# Poissons Ratio (z) = 0.27563 0.21177
#
# Static dielectric constant tensor:
#      x y z
#    x 4.131810 0.000000 0.128000 
#    y 0.000000 3.455210 0.000000 
#    z 0.128000 0.000000 4.090520 
# 
# 
# High freq. dielectric constant tensor:
#      x y z
#    x 1.806570 0.000000 -0.002040 
#    y 0.000000 1.752840 0.000000 
#    z -0.002040 0.000000 1.805480 
# 
# From -- ./inp_files/26289.got.cif
#   From: 2010.03.12/outbox.cif.g09.slc.cpg/sg14_14_cif.got.tgz:26289.got - 2010.03.31 13:35:05.
