data_PCOD8126147
_publ_section_title
;
Structure prediction by ZEFSAII (Michael W. Deem and Ramdas Pophale) SiO2 
 PCOD8126147
Probable space group: P 21/C
;
_chemical_formula_sum "Si O2"
_cell_formula_units_Z 28
_cell_length_a 6.976845
_cell_length_b 10.997093
_cell_length_c 20.561719
_cell_angle_alpha 90.000000
_cell_angle_beta 64.239878
_cell_angle_gamma 90.000000
_cell_volume 1420.818786
_symmetry_space_group_name_H-M "P 21/C"
_symmetry_group_IT_number 14
_symmetry_cell_setting 'monoclinic'
loop_
_space_group_symop_operation_xyz
x,y,z
-x,1/2+y,1/2-z
-x,-y,-z
x,1/2-y,1/2+z
loop_
_atom_site_type_symbol
_atom_site_label
_atom_site_fract_x
_atom_site_fract_y
_atom_site_fract_z
Si Si1 0.311143 0.061168 0.435978
Si Si2 0.664540 0.025240 0.825834
Si Si3 0.329419 0.818741 0.869877
Si Si4 0.473279 0.575418 0.794290
Si Si5 0.127568 0.583970 0.273000
Si Si6 0.288239 0.777971 0.624687
Si Si7 0.131193 0.824176 0.512750
O O1 0.514775 0.138738 0.426443
O O2 0.107603 0.146318 0.472805
O O3 0.335963 0.016649 0.358272
O O4 0.282846 0.943046 0.485766
O O5 0.475243 0.931853 0.867861
O O6 0.888149 0.961317 0.805566
O O7 0.650510 0.075238 0.755014
O O8 0.633389 0.140300 0.877310
O O9 0.481492 0.710227 0.822581
O O10 0.164280 0.848843 0.836340
O O11 0.204769 0.781596 0.953078
O O12 0.716802 0.532198 0.753662
O O13 0.170289 0.674314 0.206510
O O14 0.128327 0.777439 0.587176
#
# Coordination Sequence:
#
# PCOD8126147 Si02
#       7
#     4   4   4   4   4   4   4
#     4   9  20  39  62  86 116 151 198 242 291 340
#     4  11  23  36  58  88 119 154 197 239 297 346
#     4  10  22  39  57  86 120 151 193 241 295 350
#     4   9  19  38  60  83 115 152 194 248 287 346
#     4  10  22  38  59  85 115 155 196 238 295 345
#     4  11  22  38  59  90 116 150 199 243 284 348
#     4  10  21  38  63  87 115 156 193 241 294 342
#
# _framework density 19.706947
#
# number of rings (size 3 to 8) (size 9 to 14) (size 15 to 20)
#    0.000    2.000    1.429    1.286    2.000    4.000 
#    0.000    1.429    0.000    0.000    0.000    0.000 
#    0.000    0.000    0.000    0.000    0.000    0.000 
#
# Total GULP energy -347244.325819 kJ/mol
# GULP energy per Si atom -12401.583065 kJ/mol
# Density = 1.966209 g / cm^3
# Si number density = 19.706947 Si / 1000 Ang^3
#
#
#
# Elastic Constant Matrix: (Units=GPa)
#
#
# Indices 1 2 3 4 5 6 
#
# 1 73.7389 19.1743 42.0617 0.0000 14.0244 0.0000
# 2 19.1743 76.3310 32.4323 0.0000 14.3796 0.0000
# 3 42.0617 32.4323 79.1545 0.0000 19.0537 0.0000
# 4 0.0000 0.0000 0.0000 22.3619 0.0000 2.7819
# 5 14.0244 14.3796 19.0537 0.0000 30.9647 0.0000
# 6 0.0000 0.0000 0.0000 2.7819 0.0000 25.8113
#
#
#
# Elastic Compliance Matrix: (Units=1/GPa)
#
#
# Indices 1 2 3 4 5 6 
#
# 1 0.019687 -0.000311 -0.009652 0.000000 -0.002833 0.000000
# 2 -0.000311 0.016290 -0.005544 0.000000 -0.004013 0.000000
# 3 -0.009652 -0.005544 0.021555 0.000000 -0.006317 0.000000
# 4 0.000000 0.000000 0.000000 0.045327 0.000000 -0.004885
# 5 -0.002833 -0.004013 -0.006317 0.000000 0.039329 0.000000
# 6 0.000000 0.000000 0.000000 -0.004885 0.000000 0.039269
#
#
# Mechanical properties :
#
#
# Convention : Reuss Voigt Hill
#
# Bulk Modulus (GPa) = 37.70876 46.28457 41.99666
# Shear Modulus (GPa) = 22.59292 24.86467 23.72879
#
# Velocity S-wave (km/s) = 3.38959 3.55592 3.47375
# Velocity P-wave (km/s) = 5.87328 6.35585 6.11933
#
# Compressibility (1/GPa) = 0.02651904
#
# Stress axis : x y z
#
# Youngs Moduli (GPa) = 50.79611 61.38617 46.39378
#
# Poissons Ratio (x) = 0.01906 0.44779
# Poissons Ratio (y) = 0.01577 0.25719
# Poissons Ratio (z) = 0.49029 0.34031
#
# Static dielectric constant tensor:
#      x y z
#    x 3.402660 0.000000 0.080390 
#    y 0.000000 3.674120 0.000000 
#    z 0.080390 0.000000 3.533390 
# 
# 
# High freq. dielectric constant tensor:
#      x y z
#    x 1.764380 0.000000 0.008030 
#    y 0.000000 1.772960 0.000000 
#    z 0.008030 0.000000 1.764740 
# 
# From -- ./inp_files/61312.got.cif
#   From: 2010.03.12/outbox.cif.g09.slc.cpg/sg14_31_cif.got.tgz:61312.got - 2010.03.31 13:35:05.
