data_PCOD8126750
_publ_section_title
;
Structure prediction by ZEFSAII (Michael W. Deem and Ramdas Pophale) SiO2 
 PCOD8126750
Probable space group: P 21/C
;
_chemical_formula_sum "Si O2"
_cell_formula_units_Z 32
_cell_length_a 7.421823
_cell_length_b 18.605486
_cell_length_c 18.587630
_cell_angle_alpha 90.000000
_cell_angle_beta 34.012261
_cell_angle_gamma 90.000000
_cell_volume 1435.737469
_symmetry_space_group_name_H-M "P 21/C"
_symmetry_group_IT_number 14
_symmetry_cell_setting 'monoclinic'
loop_
_space_group_symop_operation_xyz
x,y,z
-x,1/2+y,1/2-z
-x,-y,-z
x,1/2-y,1/2+z
loop_
_atom_site_type_symbol
_atom_site_label
_atom_site_fract_x
_atom_site_fract_y
_atom_site_fract_z
Si Si1 0.739378 0.856219 0.081152
Si Si2 0.403209 0.904502 0.805291
Si Si3 0.106032 0.103247 0.233128
Si Si4 0.795492 0.990928 0.249492
Si Si5 0.184176 0.200994 0.416249
Si Si6 0.547557 0.358604 0.168211
Si Si7 0.605580 0.390970 0.441390
Si Si8 0.985659 0.753105 0.177099
O O1 0.693544 0.770702 0.080687
O O2 0.608330 0.876015 0.202803
O O3 0.541587 0.902786 0.089142
O O4 0.118127 0.874788 0.949996
O O5 0.704451 0.921765 0.757973
O O6 0.293209 0.973872 0.797801
O O7 0.509373 0.845073 0.711004
O O8 0.968568 0.183842 0.287059
O O9 0.815538 0.047608 0.309566
O O10 0.321244 0.101414 0.091360
O O11 0.526552 0.929693 0.355675
O O12 0.138408 0.952211 0.126509
O O13 0.975187 0.228032 0.417743
O O14 0.931255 0.153905 0.546967
O O15 0.369979 0.288335 0.194092
O O16 0.743544 0.310854 0.396471
#
# Coordination Sequence:
#
# PCOD8126750 Si02
#       8
#     4   4   4   4   4   4   4   4
#     4  11  22  37  68  98 122 165 220 262 316 367
#     4  11  24  41  67  91 129 169 207 267 316 378
#     4  11  22  40  66  92 129 162 215 261 323 367
#     4  11  25  41  61  95 131 165 214 256 323 376
#     4  10  21  42  64  92 126 168 215 257 322 376
#     4  10  22  41  65  90 130 168 208 263 316 378
#     4  11  23  37  64  95 130 163 213 268 316 372
#     4   9  20  39  63  91 123 166 210 269 316 368
#
# _framework density 22.288197
#
# number of rings (size 3 to 8) (size 9 to 14) (size 15 to 20)
#    0.000    1.500    1.250    5.625    3.500    2.500 
#    0.000    2.500    0.000    0.000    0.000    0.000 
#    0.000    0.000    0.000    0.000    0.000    0.000 
#
# Total GULP energy -396746.436021 kJ/mol
# GULP energy per Si atom -12398.326126 kJ/mol
# Density = 2.223747 g / cm^3
# Si number density = 22.288197 Si / 1000 Ang^3
#
#
#
# Elastic Constant Matrix: (Units=GPa)
#
#
# Indices 1 2 3 4 5 6 
#
# 1 81.9153 44.4945 2.9222 0.0000 2.4197 0.0000
# 2 44.4945 133.9840 24.1585 0.0000 2.9241 0.0000
# 3 2.9222 24.1585 65.5440 0.0000 -0.9310 0.0000
# 4 0.0000 0.0000 0.0000 17.8001 0.0000 -0.8442
# 5 2.4197 2.9241 -0.9310 0.0000 18.2979 0.0000
# 6 0.0000 0.0000 0.0000 -0.8442 0.0000 45.9676
#
#
#
# Elastic Compliance Matrix: (Units=1/GPa)
#
#
# Indices 1 2 3 4 5 6 
#
# 1 0.015011 -0.005182 0.001225 0.000000 -0.001095 0.000000
# 2 -0.005182 0.009821 -0.003404 0.000000 -0.001057 0.000000
# 3 0.001225 -0.003404 0.016474 0.000000 0.001220 0.000000
# 4 0.000000 0.000000 0.000000 0.056228 0.000000 0.001033
# 5 -0.001095 -0.001057 0.001220 0.000000 0.055027 0.000000
# 6 0.000000 0.000000 0.000000 0.001033 0.000000 0.021773
#
#
# Mechanical properties :
#
#
# Convention : Reuss Voigt Hill
#
# Bulk Modulus (GPa) = 37.61502 47.17709 42.39605
# Shear Modulus (GPa) = 25.26290 30.40434 27.83362
#
# Velocity S-wave (km/s) = 3.37035 3.69744 3.53768
# Velocity P-wave (km/s) = 5.66206 6.28020 5.97912
#
# Compressibility (1/GPa) = 0.02658512
#
# Stress axis : x y z
#
# Youngs Moduli (GPa) = 66.61732 101.81939 60.70068
#
# Poissons Ratio (x) = 0.52763 -0.07437
# Poissons Ratio (y) = 0.34521 0.20662
# Poissons Ratio (z) = -0.08162 0.34659
#
# Static dielectric constant tensor:
#      x y z
#    x 3.947210 0.000000 -0.039610 
#    y 0.000000 4.488460 0.000000 
#    z -0.039610 0.000000 3.675790 
# 
# 
# High freq. dielectric constant tensor:
#      x y z
#    x 1.869650 0.000000 -0.003440 
#    y 0.000000 1.894720 0.000000 
#    z -0.003440 0.000000 1.851910 
# 
# From -- ./inp_files/66030.got.cif
#   From: 2010.03.12/outbox.cif.g09.slc.cpg/sg14_34_cif.got.tgz:66030.got - 2010.03.31 13:35:05.
