data_PCOD8126131
_publ_section_title
;
Structure prediction by ZEFSAII (Michael W. Deem and Ramdas Pophale) SiO2 
 PCOD8126131
Probable space group: P 21/C
;
_chemical_formula_sum "Si O2"
_cell_formula_units_Z 28
_cell_length_a 11.571758
_cell_length_b 11.698655
_cell_length_c 17.055351
_cell_angle_alpha 90.000000
_cell_angle_beta 40.835991
_cell_angle_gamma 90.000000
_cell_volume 1509.748518
_symmetry_space_group_name_H-M "P 21/C"
_symmetry_group_IT_number 14
_symmetry_cell_setting 'monoclinic'
loop_
_space_group_symop_operation_xyz
x,y,z
-x,1/2+y,1/2-z
-x,-y,-z
x,1/2-y,1/2+z
loop_
_atom_site_type_symbol
_atom_site_label
_atom_site_fract_x
_atom_site_fract_y
_atom_site_fract_z
Si Si1 0.908380 0.304008 0.297276
Si Si2 0.700834 0.754298 0.420874
Si Si3 0.841279 0.147308 0.197226
Si Si4 0.355250 0.866714 0.851978
Si Si5 0.603687 0.308894 0.042615
Si Si6 0.812205 0.522236 0.432255
Si Si7 0.469643 0.432323 0.886138
O O1 0.876531 0.268206 0.222833
O O2 0.797031 0.219858 0.410173
O O3 0.850889 0.434374 0.341300
O O4 0.112710 0.284848 0.214999
O O5 0.548555 0.761626 0.435205
O O6 0.699263 0.626089 0.455626
O O7 0.668681 0.841198 0.509084
O O8 0.810188 0.167072 0.120133
O O9 0.663728 0.089567 0.325439
O O10 0.003446 0.062340 0.125854
O O11 0.421729 0.752738 0.860719
O O12 0.515028 0.915938 0.716061
O O13 0.300558 0.963195 0.941837
O O14 0.595213 0.443252 0.058235
#
# Coordination Sequence:
#
# PCOD8126131 Si02
#       7
#     4   4   4   4   4   4   4
#     4  10  22  37  61  89 117 154 199 251 290 343
#     4  11  23  37  64  89 115 156 202 247 295 345
#     4   9  19  39  59  90 116 155 197 242 297 355
#     4   9  22  36  60  89 116 161 188 243 296 356
#     4  11  21  41  59  89 119 152 206 242 296 352
#     4  10  21  38  62  89 120 154 201 243 295 361
#     4  10  22  36  64  82 119 156 198 242 292 353
#
# _framework density 18.546135
#
# number of rings (size 3 to 8) (size 9 to 14) (size 15 to 20)
#    0.857    1.143    1.429    1.714    6.000    2.286 
#    2.571    0.000    0.000    4.286    0.000    0.000 
#    0.000    0.000    0.000    0.000    0.000    0.000 
#
# Total GULP energy -347113.258865 kJ/mol
# GULP energy per Si atom -12396.902102 kJ/mol
# Density = 1.850392 g / cm^3
# Si number density = 18.546135 Si / 1000 Ang^3
#
#
#
# Elastic Constant Matrix: (Units=GPa)
#
#
# Indices 1 2 3 4 5 6 
#
# 1 67.1956 66.0569 49.3095 0.0000 12.1967 0.0000
# 2 66.0569 149.9441 51.8163 0.0000 9.8819 0.0000
# 3 49.3095 51.8163 102.6799 0.0000 -6.6084 0.0000
# 4 0.0000 0.0000 0.0000 24.4728 0.0000 4.5522
# 5 12.1967 9.8819 -6.6084 0.0000 28.8814 0.0000
# 6 0.0000 0.0000 0.0000 4.5522 0.0000 23.5665
#
#
#
# Elastic Compliance Matrix: (Units=1/GPa)
#
#
# Indices 1 2 3 4 5 6 
#
# 1 0.039419 -0.011403 -0.014205 0.000000 -0.015996 0.000000
# 2 -0.011403 0.011798 -0.000434 0.000000 0.000679 0.000000
# 3 -0.014205 -0.000434 0.017432 0.000000 0.010136 0.000000
# 4 0.000000 0.000000 0.000000 0.042385 0.000000 -0.008187
# 5 -0.015996 0.000679 0.010136 0.000000 0.043466 0.000000
# 6 0.000000 0.000000 0.000000 -0.008187 0.000000 0.044014
#
#
# Mechanical properties :
#
#
# Convention : Reuss Voigt Hill
#
# Bulk Modulus (GPa) = 60.36854 72.68724 66.52789
# Shear Modulus (GPa) = 19.52219 25.55993 22.54106
#
# Velocity S-wave (km/s) = 3.24794 3.71641 3.49005
# Velocity P-wave (km/s) = 6.83276 7.59562 7.22427
#
# Compressibility (1/GPa) = 0.01656492
#
# Stress axis : x y z
#
# Youngs Moduli (GPa) = 25.36867 84.76214 57.36568
#
# Poissons Ratio (x) = 0.96651 0.81489
# Poissons Ratio (y) = 0.28927 0.02490
# Poissons Ratio (z) = 0.36036 0.03679
#
# Static dielectric constant tensor:
#      x y z
#    x 3.343690 0.000000 0.021810 
#    y 0.000000 3.402580 0.000000 
#    z 0.021810 0.000000 3.465950 
# 
# 
# High freq. dielectric constant tensor:
#      x y z
#    x 1.707520 0.000000 0.000230 
#    y 0.000000 1.721790 0.000000 
#    z 0.000230 0.000000 1.724530 
# 
# From -- ./inp_files/57523.got.cif
#   From: 2010.03.12/outbox.cif.g09.slc.cpg/sg14_29_cif.got.tgz:57523.got - 2010.03.31 13:35:05.
