data_PCOD8126786
_publ_section_title
;
Structure prediction by ZEFSAII (Michael W. Deem and Ramdas Pophale) SiO2 
 PCOD8126786
Probable space group: P 21/C
;
_chemical_formula_sum "Si O2"
_cell_formula_units_Z 20
_cell_length_a 8.970127
_cell_length_b 8.111807
_cell_length_c 12.200348
_cell_angle_alpha 90.000000
_cell_angle_beta 90.388237
_cell_angle_gamma 90.000000
_cell_volume 887.724997
_symmetry_space_group_name_H-M "P 21/C"
_symmetry_group_IT_number 14
_symmetry_cell_setting 'monoclinic'
loop_
_space_group_symop_operation_xyz
x,y,z
-x,1/2+y,1/2-z
-x,-y,-z
x,1/2-y,1/2+z
loop_
_atom_site_type_symbol
_atom_site_label
_atom_site_fract_x
_atom_site_fract_y
_atom_site_fract_z
Si Si1 0.916592 0.001796 0.613121
Si Si2 0.142029 0.296440 0.250559
Si Si3 0.421209 0.350675 0.363386
Si Si4 0.604330 0.838189 0.875996
Si Si5 0.425394 0.978622 0.382891
O O1 0.922444 0.815910 0.653967
O O2 0.747860 0.068010 0.601058
O O3 0.000000 0.000000 0.500000
O O4 0.003135 0.110116 0.701283
O O5 0.265067 0.415164 0.309887
O O6 0.223332 0.186700 0.156097
O O7 0.410394 0.340651 0.493929
O O8 0.549677 0.482016 0.330028
O O9 0.441663 0.157863 0.320050
O O10 0.509732 0.678363 0.826593
O O11 0.500000 0.000000 0.500000
#
# Coordination Sequence:
#
# PCOD8126786 Si02
#       5
#     4   4   4   4   4
#     4  11  25  47  65  99 145 180 225 283 349 414
#     4  11  24  42  67  98 133 181 230 271 354 416
#     4   9  21  39  64  98 127 165 222 285 333 407
#     4  10  21  42  67  95 131 167 232 284 338 401
#     4   9  19  40  68  94 125 181 216 280 343 387
#
# _framework density 22.529499999999999
#
# number of rings (size 3 to 8) (size 9 to 14) (size 15 to 20)
#    0.000    2.000    0.000    3.600    8.400    0.000 
#   14.400    2.000    0.000    0.000    0.000    0.000 
#    0.000    0.000    0.000    0.000    0.000    0.000 
#
# Total GULP energy -247954.929138 kJ/mol
# GULP energy per Si atom -12397.746457 kJ/mol
# Density = 2.247822 g / cm^3
# Si number density = 22.529500 Si / 1000 Ang^3
#
#
#
# Elastic Constant Matrix: (Units=GPa)
#
#
# Indices 1 2 3 4 5 6 
#
# 1 152.7710 51.7640 31.5766 0.0000 20.3650 0.0000
# 2 51.7640 90.3624 43.0696 0.0000 -1.0828 0.0000
# 3 31.5766 43.0696 48.5856 0.0000 4.2883 0.0000
# 4 0.0000 0.0000 0.0000 42.8847 0.0000 1.5521
# 5 20.3650 -1.0828 4.2883 0.0000 47.4122 0.0000
# 6 0.0000 0.0000 0.0000 1.5521 0.0000 42.3890
#
#
#
# Elastic Compliance Matrix: (Units=1/GPa)
#
#
# Indices 1 2 3 4 5 6 
#
# 1 0.008850 -0.004384 -0.001533 0.000000 -0.003763 0.000000
# 2 -0.004384 0.021523 -0.016572 0.000000 0.003873 0.000000
# 3 -0.001533 -0.016572 0.036537 0.000000 -0.003024 0.000000
# 4 0.000000 0.000000 0.000000 0.023349 0.000000 -0.000855
# 5 -0.003763 0.003873 -0.003024 0.000000 0.023070 0.000000
# 6 0.000000 0.000000 0.000000 -0.000855 0.000000 0.023622
#
#
# Mechanical properties :
#
#
# Convention : Reuss Voigt Hill
#
# Bulk Modulus (GPa) = 45.59881 60.50438 53.05159
# Shear Modulus (GPa) = 26.42152 37.55777 31.98964
#
# Velocity S-wave (km/s) = 3.42826 4.08738 3.77224
# Velocity P-wave (km/s) = 5.99618 7.01352 6.52471
#
# Compressibility (1/GPa) = 0.02193039
#
# Stress axis : x y z
#
# Youngs Moduli (GPa) = 112.99933 46.46174 27.36982
#
# Poissons Ratio (x) = 0.20368 0.04197
# Poissons Ratio (y) = 0.49536 0.45358
# Poissons Ratio (z) = 0.17327 0.76998
#
# Static dielectric constant tensor:
#      x y z
#    x 4.179220 0.000000 0.128350 
#    y 0.000000 4.682800 0.000000 
#    z 0.128350 0.000000 4.528210 
# 
# 
# High freq. dielectric constant tensor:
#      x y z
#    x 1.873750 0.000000 0.004250 
#    y 0.000000 1.888480 0.000000 
#    z 0.004250 0.000000 1.947520 
# 
# From -- ./inp_files/38806.got.cif
#   From: 2010.03.12/outbox.cif.g09.slc.cpg/sg14_20_cif.got.tgz:38806.got - 2010.03.31 13:35:05.
