data_PCOD8126762
_publ_section_title
;
Structure prediction by ZEFSAII (Michael W. Deem and Ramdas Pophale) SiO2 
 PCOD8126762
Probable space group: P 21/C
;
_chemical_formula_sum "Si O2"
_cell_formula_units_Z 24
_cell_length_a 13.725868
_cell_length_b 13.394398
_cell_length_c 11.055609
_cell_angle_alpha 90.000000
_cell_angle_beta 146.774826
_cell_angle_gamma 90.000000
_cell_volume 1113.708199
_symmetry_space_group_name_H-M "P 21/C"
_symmetry_group_IT_number 14
_symmetry_cell_setting 'monoclinic'
loop_
_space_group_symop_operation_xyz
x,y,z
-x,1/2+y,1/2-z
-x,-y,-z
x,1/2-y,1/2+z
loop_
_atom_site_type_symbol
_atom_site_label
_atom_site_fract_x
_atom_site_fract_y
_atom_site_fract_z
Si Si1 0.563111 0.336332 0.282605
Si Si2 0.683096 0.833251 0.241043
Si Si3 0.536259 0.119516 0.210589
Si Si4 0.859906 0.527455 0.083095
Si Si5 0.256679 0.121494 0.301962
Si Si6 0.228513 0.026098 0.026209
O O1 0.432493 0.318504 0.258791
O O2 0.634987 0.226002 0.326397
O O3 0.721815 0.414133 0.467739
O O4 0.459125 0.382025 0.059167
O O5 0.773035 0.733429 0.280402
O O6 0.850802 0.902821 0.454003
O O7 0.549653 0.889726 0.011260
O O8 0.677703 0.035580 0.390547
O O9 0.367954 0.108603 0.125656
O O10 0.870693 0.594572 0.216984
O O11 0.033968 0.456944 0.263814
O O12 0.219965 0.038303 0.161989
#
# Coordination Sequence:
#
# PCOD8126762 Si02
#       6
#     4   4   4   4   4   4
#     4  10  22  40  66  93 124 173 207 260 311 371
#     4  10  21  42  65  92 128 168 208 255 321 366
#     4  11  23  42  65  89 132 166 208 265 308 372
#     4  11  25  40  66  96 128 164 210 261 312 375
#     4  10  21  42  67  89 129 167 208 262 305 373
#     4  12  23  40  67  94 126 163 217 249 321 367
#
# _framework density 21.549628999999999
#
# number of rings (size 3 to 8) (size 9 to 14) (size 15 to 20)
#    0.000    1.333    5.000    1.500    0.000    2.000 
#    0.000    1.667    0.000    0.000    0.000    0.000 
#    0.000    0.000    0.000    0.000    0.000    0.000 
#
# Total GULP energy -297426.603195 kJ/mol
# GULP energy per Si atom -12392.775133 kJ/mol
# Density = 2.150058 g / cm^3
# Si number density = 21.549629 Si / 1000 Ang^3
#
#
#
# Elastic Constant Matrix: (Units=GPa)
#
#
# Indices 1 2 3 4 5 6 
#
# 1 39.5573 29.1586 39.0942 0.0000 -9.3730 0.0000
# 2 29.1586 99.9367 39.8812 0.0000 -6.8471 0.0000
# 3 39.0942 39.8812 108.2361 0.0000 -3.1585 0.0000
# 4 0.0000 0.0000 0.0000 26.2028 0.0000 -16.3703
# 5 -9.3730 -6.8471 -3.1585 0.0000 33.3517 0.0000
# 6 0.0000 0.0000 0.0000 -16.3703 0.0000 27.0602
#
#
#
# Elastic Compliance Matrix: (Units=1/GPa)
#
#
# Indices 1 2 3 4 5 6 
#
# 1 0.046981 -0.007441 -0.013925 0.000000 0.010357 0.000000
# 2 -0.007441 0.013045 -0.002108 0.000000 0.000387 0.000000
# 3 -0.013925 -0.002108 0.014960 0.000000 -0.002929 0.000000
# 4 0.000000 0.000000 0.000000 0.061352 0.000000 0.037115
# 5 0.010357 0.000387 -0.002929 0.000000 0.032696 0.000000
# 6 0.000000 0.000000 0.000000 0.037115 0.000000 0.059408
#
#
# Mechanical properties :
#
#
# Convention : Reuss Voigt Hill
#
# Bulk Modulus (GPa) = 35.66584 51.55535 43.61060
# Shear Modulus (GPa) = 17.56012 26.62933 22.09473
#
# Velocity S-wave (km/s) = 2.85769 3.51910 3.20550
# Velocity P-wave (km/s) = 5.24166 6.36302 5.82936
#
# Compressibility (1/GPa) = 0.02803803
#
# Stress axis : x y z
#
# Youngs Moduli (GPa) = 21.28520 76.65745 66.84524
#
# Poissons Ratio (x) = 0.57041 0.93084
# Poissons Ratio (y) = 0.15838 0.14089
# Poissons Ratio (z) = 0.29640 0.16157
#
# Static dielectric constant tensor:
#      x y z
#    x 3.762460 0.000000 -0.390100 
#    y 0.000000 3.945410 0.000000 
#    z -0.390100 0.000000 3.994430 
# 
# 
# High freq. dielectric constant tensor:
#      x y z
#    x 1.831190 0.000000 -0.025570 
#    y 0.000000 1.850610 0.000000 
#    z -0.025570 0.000000 1.838500 
# 
# From -- ./inp_files/32810.got.cif
#   From: 2010.03.12/outbox.cif.g09.slc.cpg/sg14_17_cif.got.tgz:32810.got - 2010.03.31 13:35:05.
