data_PCOD8126397
_publ_section_title
;
Structure prediction by ZEFSAII (Michael W. Deem and Ramdas Pophale) SiO2 
 PCOD8126397
Probable space group: P 21/C
;
_chemical_formula_sum "Si O2"
_cell_formula_units_Z 28
_cell_length_a 16.076276
_cell_length_b 11.273688
_cell_length_c 18.362647
_cell_angle_alpha 90.000000
_cell_angle_beta 24.319158
_cell_angle_gamma 90.000000
_cell_volume 1370.544738
_symmetry_space_group_name_H-M "P 21/C"
_symmetry_group_IT_number 14
_symmetry_cell_setting 'monoclinic'
loop_
_space_group_symop_operation_xyz
x,y,z
-x,1/2+y,1/2-z
-x,-y,-z
x,1/2-y,1/2+z
loop_
_atom_site_type_symbol
_atom_site_label
_atom_site_fract_x
_atom_site_fract_y
_atom_site_fract_z
Si Si1 0.947405 0.241073 0.817669
Si Si2 0.587261 0.737566 0.381776
Si Si3 0.599546 0.387160 0.245236
Si Si4 0.613599 0.819740 0.524169
Si Si5 0.283037 0.550095 0.579344
Si Si6 0.606799 0.090623 0.569350
Si Si7 0.966097 0.618839 0.118282
O O1 0.178671 0.231954 0.606410
O O2 0.949941 0.268598 0.901854
O O3 0.834612 0.117171 0.891725
O O4 0.826131 0.350475 0.876404
O O5 0.602948 0.800577 0.446589
O O6 0.401704 0.645274 0.533912
O O7 0.563218 0.833060 0.336839
O O8 0.795019 0.665238 0.199462
O O9 0.566503 0.248504 0.291004
O O10 0.443095 0.460666 0.417767
O O11 0.558401 0.408136 0.193231
O O12 0.829517 0.427302 0.084638
O O13 0.598097 0.958570 0.547802
O O14 0.123411 0.481054 0.756547
#
# Coordination Sequence:
#
# PCOD8126397 Si02
#       7
#     4   4   4   4   4   4   4
#     4   9  19  37  63  89 121 164 205 251 316 363
#     4  10  22  42  64  89 131 168 207 253 324 373
#     4  11  24  38  66  95 122 165 217 258 309 366
#     4  11  22  41  65  91 130 166 209 256 321 371
#     4  11  21  41  65  92 124 166 210 265 307 374
#     4  10  23  39  63  95 126 164 212 264 308 373
#     4  10  21  40  60  93 129 164 203 263 310 371
#
# _framework density 20.429832000000001
#
# number of rings (size 3 to 8) (size 9 to 14) (size 15 to 20)
#    0.000    1.714    2.857    2.571    6.000    0.571 
#    0.000    2.143    0.000    0.000    0.000    0.000 
#    0.000    0.000    0.000    0.000    0.000    0.000 
#
# Total GULP energy -347050.582471 kJ/mol
# GULP energy per Si atom -12394.663660 kJ/mol
# Density = 2.038333 g / cm^3
# Si number density = 20.429832 Si / 1000 Ang^3
#
#
#
# Elastic Constant Matrix: (Units=GPa)
#
#
# Indices 1 2 3 4 5 6 
#
# 1 51.0758 16.9074 10.6037 0.0000 -13.6556 0.0000
# 2 16.9074 114.5024 42.1222 0.0000 -3.4718 0.0000
# 3 10.6037 42.1222 115.6066 0.0000 -9.1700 0.0000
# 4 0.0000 0.0000 0.0000 19.6165 0.0000 -1.7154
# 5 -13.6556 -3.4718 -9.1700 0.0000 25.2565 0.0000
# 6 0.0000 0.0000 0.0000 -1.7154 0.0000 28.3820
#
#
#
# Elastic Compliance Matrix: (Units=1/GPa)
#
#
# Indices 1 2 3 4 5 6 
#
# 1 0.023975 -0.003137 -0.000064 0.000000 0.012508 0.000000
# 2 -0.003137 0.010496 -0.003662 0.000000 -0.001583 0.000000
# 3 -0.000064 -0.003662 0.010242 0.000000 0.003181 0.000000
# 4 0.000000 0.000000 0.000000 0.051248 0.000000 0.003097
# 5 0.012508 -0.001583 0.003181 0.000000 0.047294 0.000000
# 6 0.000000 0.000000 0.000000 0.003097 0.000000 0.035421
#
#
# Mechanical properties :
#
#
# Convention : Reuss Voigt Hill
#
# Bulk Modulus (GPa) = 32.27190 46.71681 39.49435
# Shear Modulus (GPa) = 24.66315 28.75442 26.70879
#
# Velocity S-wave (km/s) = 3.47827 3.75570 3.61964
# Velocity P-wave (km/s) = 5.65348 6.45938 6.06982
#
# Compressibility (1/GPa) = 0.03098671
#
# Stress axis : x y z
#
# Youngs Moduli (GPa) = 41.71064 95.27553 97.63255
#
# Poissons Ratio (x) = 0.29892 0.00622
# Poissons Ratio (y) = 0.13086 0.35754
# Poissons Ratio (z) = 0.00266 0.34890
#
# Static dielectric constant tensor:
#      x y z
#    x 3.765870 0.000000 -0.388240 
#    y 0.000000 3.869820 0.000000 
#    z -0.388240 0.000000 3.973260 
# 
# 
# High freq. dielectric constant tensor:
#      x y z
#    x 1.792650 0.000000 -0.025520 
#    y 0.000000 1.805480 0.000000 
#    z -0.025520 0.000000 1.794390 
# 
# From -- ./inp_files/69254.got.cif
#   From: 2010.03.12/outbox.cif.g09.slc.cpg/sg14_35_cif.got.tgz:69254.got - 2010.03.31 13:35:05.
