data_PCOD8126534
_publ_section_title
;
Structure prediction by ZEFSAII (Michael W. Deem and Ramdas Pophale) SiO2 
 PCOD8126534
Probable space group: P 21/C
;
_chemical_formula_sum "Si O2"
_cell_formula_units_Z 32
_cell_length_a 22.944612
_cell_length_b 12.945064
_cell_length_c 15.905351
_cell_angle_alpha 90.000000
_cell_angle_beta 17.320899
_cell_angle_gamma 90.000000
_cell_volume 1406.503197
_symmetry_space_group_name_H-M "P 21/C"
_symmetry_group_IT_number 14
_symmetry_cell_setting 'monoclinic'
loop_
_space_group_symop_operation_xyz
x,y,z
-x,1/2+y,1/2-z
-x,-y,-z
x,1/2-y,1/2+z
loop_
_atom_site_type_symbol
_atom_site_label
_atom_site_fract_x
_atom_site_fract_y
_atom_site_fract_z
Si Si1 0.600072 0.457182 0.145222
Si Si2 0.860378 0.094395 0.587478
Si Si3 0.186328 0.383512 0.756536
Si Si4 0.441280 0.335002 0.699661
Si Si5 0.905991 0.693013 0.940076
Si Si6 0.502311 0.104535 0.609235
Si Si7 0.050018 0.912709 0.724277
Si Si8 0.236983 0.932421 0.902750
O O1 0.411163 0.384167 0.419155
O O2 0.580247 0.579102 0.196722
O O3 0.645267 0.444890 0.983587
O O4 0.764278 0.398423 0.972397
O O5 0.893196 0.054181 0.448527
O O6 0.047491 0.154863 0.369939
O O7 0.847299 0.999519 0.667758
O O8 0.660526 0.159600 0.860397
O O9 0.139683 0.308698 0.898376
O O10 0.416931 0.214923 0.759551
O O11 0.272918 0.362072 0.863279
O O12 0.914148 0.812593 0.905304
O O13 0.121593 0.648979 0.619995
O O14 0.611672 0.122353 0.369074
O O15 0.334002 0.018173 0.830080
O O16 0.920059 0.006905 0.939153
#
# Coordination Sequence:
#
# PCOD8126534 Si02
#       8
#     4   4   4   4   4   4   4   4
#     4  11  25  44  70 102 139 177 231 292 333 411
#     4  10  21  40  68  95 135 173 224 283 341 395
#     4  10  22  39  68  99 128 171 227 289 333 401
#     4  11  23  43  69 100 135 188 225 285 338 410
#     4  12  24  42  70 102 135 182 237 277 351 407
#     4  11  26  46  67  99 145 185 231 274 358 406
#     4  12  23  42  67 101 139 179 227 281 350 409
#     4  11  24  46  69  94 139 188 223 291 340 415
#
# _framework density 22.751459000000001
#
# number of rings (size 3 to 8) (size 9 to 14) (size 15 to 20)
#    0.000    1.000    3.750    2.250    5.250    2.500 
#    2.250    0.000    0.000    0.000    0.000    0.000 
#    0.000    0.000    0.000    0.000    0.000    0.000 
#
# Total GULP energy -396573.684428 kJ/mol
# GULP energy per Si atom -12392.927638 kJ/mol
# Density = 2.269968 g / cm^3
# Si number density = 22.751459 Si / 1000 Ang^3
#
#
#
# Elastic Constant Matrix: (Units=GPa)
#
#
# Indices 1 2 3 4 5 6 
#
# 1 120.6926 12.7188 25.4486 0.0000 -18.1502 0.0000
# 2 12.7188 80.7405 7.9387 0.0000 5.9554 0.0000
# 3 25.4486 7.9387 65.6442 0.0000 -21.1838 0.0000
# 4 0.0000 0.0000 0.0000 15.8059 0.0000 -11.2937
# 5 -18.1502 5.9554 -21.1838 0.0000 35.7974 0.0000
# 6 0.0000 0.0000 0.0000 -11.2937 0.0000 23.6783
#
#
#
# Elastic Compliance Matrix: (Units=1/GPa)
#
#
# Indices 1 2 3 4 5 6 
#
# 1 0.009490 -0.001543 -0.002295 0.000000 0.003710 0.000000
# 2 -0.001543 0.013192 -0.002420 0.000000 -0.004409 0.000000
# 3 -0.002295 -0.002420 0.019987 0.000000 0.011067 0.000000
# 4 0.000000 0.000000 0.000000 0.095977 0.000000 0.045777
# 5 0.003710 -0.004409 0.011067 0.000000 0.037099 0.000000
# 6 0.000000 0.000000 0.000000 0.045777 0.000000 0.064067
#
#
# Mechanical properties :
#
#
# Convention : Reuss Voigt Hill
#
# Bulk Modulus (GPa) = 33.16432 39.92104 36.54268
# Shear Modulus (GPa) = 19.05647 29.78772 24.42209
#
# Velocity S-wave (km/s) = 2.89726 3.62230 3.27988
# Velocity P-wave (km/s) = 5.07943 5.92279 5.51725
#
# Compressibility (1/GPa) = 0.03015288
#
# Stress axis : x y z
#
# Youngs Moduli (GPa) = 105.37410 75.80608 50.03152
#
# Poissons Ratio (x) = 0.11696 0.11483
# Poissons Ratio (y) = 0.16258 0.12107
# Poissons Ratio (z) = 0.24185 0.18345
#
# Static dielectric constant tensor:
#      x y z
#    x 4.025340 0.000000 -0.182330 
#    y 0.000000 3.881110 0.000000 
#    z -0.182330 0.000000 4.261630 
# 
# 
# High freq. dielectric constant tensor:
#      x y z
#    x 1.892880 0.000000 -0.014230 
#    y 0.000000 1.889110 0.000000 
#    z -0.014230 0.000000 1.902970 
# 
# From -- ./inp_files/50610.got.cif
#   From: 2010.03.12/outbox.cif.g09.slc.cpg/sg14_26_cif.got.tgz:50610.got - 2010.03.31 13:35:05.
