data_PCOD8126103
_publ_section_title
;
Structure prediction by ZEFSAII (Michael W. Deem and Ramdas Pophale) SiO2 
 PCOD8126103
Probable space group: P 21/C
;
_chemical_formula_sum "Si O2"
_cell_formula_units_Z 24
_cell_length_a 12.295161
_cell_length_b 7.950128
_cell_length_c 13.176204
_cell_angle_alpha 90.000000
_cell_angle_beta 61.983663
_cell_angle_gamma 90.000000
_cell_volume 1137.018976
_symmetry_space_group_name_H-M "P 21/C"
_symmetry_group_IT_number 14
_symmetry_cell_setting 'monoclinic'
loop_
_space_group_symop_operation_xyz
x,y,z
-x,1/2+y,1/2-z
-x,-y,-z
x,1/2-y,1/2+z
loop_
_atom_site_type_symbol
_atom_site_label
_atom_site_fract_x
_atom_site_fract_y
_atom_site_fract_z
Si Si1 0.344452 0.275228 0.816531
Si Si2 0.225937 0.803344 0.207464
Si Si3 0.476321 0.558008 0.625971
Si Si4 0.856556 0.025946 0.564331
Si Si5 0.883327 0.141184 0.948754
Si Si6 0.846039 0.959701 0.171710
O O1 0.436705 0.399246 0.714807
O O2 0.411640 0.155283 0.868874
O O3 0.235636 0.374177 0.925989
O O4 0.273192 0.159592 0.764663
O O5 0.371402 0.799376 0.164518
O O6 0.166859 0.933391 0.309563
O O7 0.196456 0.895985 0.115099
O O8 0.168052 0.617601 0.246414
O O9 0.500000 0.500000 0.500000
O O10 0.828456 0.178717 0.502610
O O11 0.000000 0.000000 0.500000
O O12 0.028674 0.140381 0.856689
O O13 0.853910 0.009766 0.049742
#
# Coordination Sequence:
#
# PCOD8126103 Si02
#       6
#     4   4   4   4   4   4
#     4  11  23  43  68  88 132 167 215 272 315 377
#     4  10  23  38  61  91 127 162 211 256 315 381
#     4  11  25  44  65  93 127 175 224 262 316 380
#     4  10  21  40  61  96 125 162 206 260 330 382
#     4  10  21  38  60  92 131 160 201 260 320 393
#     4  10  21  38  62  91 123 167 203 259 326 373
#
# _framework density 21.107828000000001
#
# number of rings (size 3 to 8) (size 9 to 14) (size 15 to 20)
#    0.000    1.667    1.667    2.000    2.333    4.000 
#    0.000    2.500    0.000    0.000    0.000    0.000 
#    0.000    0.000    0.000    0.000    0.000    0.000 
#
# Total GULP energy -297389.464528 kJ/mol
# GULP energy per Si atom -12391.227689 kJ/mol
# Density = 2.105979 g / cm^3
# Si number density = 21.107828 Si / 1000 Ang^3
#
#
#
# Elastic Constant Matrix: (Units=GPa)
#
#
# Indices 1 2 3 4 5 6 
#
# 1 106.9262 44.8095 28.0027 0.0000 -1.9263 0.0000
# 2 44.8095 95.7083 26.3508 0.0000 -1.2053 0.0000
# 3 28.0027 26.3508 75.5949 0.0000 -1.6850 0.0000
# 4 0.0000 0.0000 0.0000 9.3109 0.0000 -13.1354
# 5 -1.9263 -1.2053 -1.6850 0.0000 32.1678 0.0000
# 6 0.0000 0.0000 0.0000 -13.1354 0.0000 47.3782
#
#
#
# Elastic Compliance Matrix: (Units=1/GPa)
#
#
# Indices 1 2 3 4 5 6 
#
# 1 0.012147 -0.004918 -0.002777 0.000000 0.000398 0.000000
# 2 -0.004918 0.013550 -0.002900 0.000000 0.000061 0.000000
# 3 -0.002777 -0.002900 0.015280 0.000000 0.000525 0.000000
# 4 0.000000 0.000000 0.000000 0.176392 0.000000 0.048904
# 5 0.000398 0.000061 0.000525 0.000000 0.031141 0.000000
# 6 0.000000 0.000000 0.000000 0.048904 0.000000 0.034665
#
#
# Mechanical properties :
#
#
# Convention : Reuss Voigt Hill
#
# Bulk Modulus (GPa) = 50.53612 52.95060 51.74336
# Shear Modulus (GPa) = 16.07919 29.70913 22.89416
#
# Velocity S-wave (km/s) = 2.76300 3.75573 3.29694
# Velocity P-wave (km/s) = 5.84575 6.62929 6.24981
#
# Compressibility (1/GPa) = 0.01978783
#
# Stress axis : x y z
#
# Youngs Moduli (GPa) = 82.32147 73.79988 65.44653
#
# Poissons Ratio (x) = 0.36293 0.18172
# Poissons Ratio (y) = 0.40484 0.18981
# Poissons Ratio (z) = 0.22858 0.21404
#
# Static dielectric constant tensor:
#      x y z
#    x 3.806190 0.000000 -0.092800 
#    y 0.000000 2.705020 0.000000 
#    z -0.092800 0.000000 3.720660 
# 
# 
# High freq. dielectric constant tensor:
#      x y z
#    x 1.838190 0.000000 -0.008040 
#    y 0.000000 1.830690 0.000000 
#    z -0.008040 0.000000 1.816640 
# 
# From -- ./inp_files/28034.got.cif
#   From: 2010.03.12/outbox.cif.g09.slc.cpg/sg14_15_cif.got.tgz:28034.got - 2010.03.31 13:35:05.
