data_PCOD8126242
_publ_section_title
;
Structure prediction by ZEFSAII (Michael W. Deem and Ramdas Pophale) SiO2 
 PCOD8126242
Probable space group: P 21/C
;
_chemical_formula_sum "Si O2"
_cell_formula_units_Z 24
_cell_length_a 8.888411
_cell_length_b 8.593046
_cell_length_c 31.767731
_cell_angle_alpha 90.000000
_cell_angle_beta 153.801531
_cell_angle_gamma 90.000000
_cell_volume 1071.199452
_symmetry_space_group_name_H-M "P 21/C"
_symmetry_group_IT_number 14
_symmetry_cell_setting 'monoclinic'
loop_
_space_group_symop_operation_xyz
x,y,z
-x,1/2+y,1/2-z
-x,-y,-z
x,1/2-y,1/2+z
loop_
_atom_site_type_symbol
_atom_site_label
_atom_site_fract_x
_atom_site_fract_y
_atom_site_fract_z
Si Si1 0.075577 0.186886 0.648444
Si Si2 0.048937 0.145573 0.968057
Si Si3 0.167926 0.827579 0.248498
Si Si4 0.836873 0.344366 0.669483
Si Si5 0.181304 0.824360 0.668384
Si Si6 0.911906 0.801797 0.932387
O O1 0.424297 0.283769 0.737728
O O2 0.878097 0.236457 0.555334
O O3 0.854392 0.232590 0.633288
O O4 0.144562 0.006004 0.665416
O O5 0.015483 0.269555 0.922723
O O6 0.445199 0.102616 0.075970
O O7 0.903588 0.217384 0.975824
O O8 0.844112 0.986597 0.906956
O O9 0.026294 0.748405 0.255362
O O10 0.008056 0.754579 0.165844
O O11 0.571438 0.801442 0.347589
O O12 0.083084 0.009010 0.226697
#
# Coordination Sequence:
#
# PCOD8126242 Si02
#       6
#     4   4   4   4   4   4
#     4  11  22  38  62  87 118 162 205 242 294 364
#     4  10  22  40  62  89 122 155 197 254 304 345
#     4  10  21  39  61  86 120 160 200 239 297 366
#     4  11  23  40  64  92 120 155 201 253 300 348
#     4  11  22  39  61  86 121 162 203 245 295 362
#     4   9  20  40  60  84 119 159 198 238 300 366
#
# _framework density 22.404789999999998
#
# number of rings (size 3 to 8) (size 9 to 14) (size 15 to 20)
#    0.000    1.667    0.000    6.000    0.000    6.667 
#    0.000    3.333    0.000    0.000    0.000    0.000 
#    0.000    0.000    0.000    0.000    0.000    0.000 
#
# Total GULP energy -297612.400434 kJ/mol
# GULP energy per Si atom -12400.516685 kJ/mol
# Density = 2.235380 g / cm^3
# Si number density = 22.404790 Si / 1000 Ang^3
#
#
#
# Elastic Constant Matrix: (Units=GPa)
#
#
# Indices 1 2 3 4 5 6 
#
# 1 149.5116 48.7606 35.2561 -0.3789 -56.3898 -0.2807
# 2 48.7606 113.9548 19.1082 -1.8477 -24.6739 -2.2785
# 3 35.2561 19.1082 54.5042 -1.8628 -23.3619 -1.3864
# 4 -0.3789 -1.8477 -1.8628 32.2432 -0.1387 -6.8345
# 5 -56.3898 -24.6739 -23.3619 -0.1387 52.7657 -0.1721
# 6 -0.2807 -2.2785 -1.3864 -6.8345 -0.1721 40.9598
#
#
#
# Elastic Compliance Matrix: (Units=1/GPa)
#
#
# Indices 1 2 3 4 5 6 
#
# 1 0.012094 -0.002459 -0.002371 -0.000113 0.010724 -0.000108
# 2 -0.002459 0.010433 -0.001312 0.000634 0.001673 0.000632
# 3 -0.002371 -0.001312 0.023538 0.001498 0.007282 0.000988
# 4 -0.000113 0.000634 0.001498 0.032301 0.000942 0.005479
# 5 0.010724 0.001673 0.007282 0.000942 0.034424 0.000715
# 6 -0.000108 0.000632 0.000988 0.005479 0.000715 0.025399
#
#
# Mechanical properties :
#
#
# Convention : Reuss Voigt Hill
#
# Bulk Modulus (GPa) = 29.60228 58.24671 43.92450
# Shear Modulus (GPa) = 30.91524 39.51680 35.21602
#
# Velocity S-wave (km/s) = 3.71866 4.20428 3.96890
# Velocity P-wave (km/s) = 5.62842 7.04427 6.37577
#
# Compressibility (1/GPa) = 0.03378118
#
# Stress axis : x y z
#
# Youngs Moduli (GPa) = 82.68738 95.85047 42.48454
#
# Poissons Ratio (x) = 0.23572 0.10071
# Poissons Ratio (y) = 0.20335 0.05573
# Poissons Ratio (z) = 0.19602 0.12574
#
# Static dielectric constant tensor:
#      x y z
#    x 4.974960 -0.000130 -0.627700 
#    y -0.000130 3.834500 0.000400 
#    z -0.627700 0.000400 3.941340 
# 
# 
# High freq. dielectric constant tensor:
#      x y z
#    x 1.905620 -0.000010 -0.034190 
#    y -0.000010 1.882250 -0.000020 
#    z -0.034190 -0.000020 1.857170 
# 
# From -- ./inp_files/54485.got.cif
#   From: 2010.03.12/outbox.cif.g09.slc.cpg/sg14_28_cif.got.tgz:54485.got - 2010.03.31 13:35:05.
