data_PCOD8126032
_publ_section_title
;
Structure prediction by ZEFSAII (Michael W. Deem and Ramdas Pophale) SiO2 
 PCOD8126032
Probable space group: P 21/C
;
_chemical_formula_sum "Si O2"
_cell_formula_units_Z 28
_cell_length_a 10.570602
_cell_length_b 9.787203
_cell_length_c 14.787714
_cell_angle_alpha 90.000000
_cell_angle_beta 71.997238
_cell_angle_gamma 90.000000
_cell_volume 1454.986228
_symmetry_space_group_name_H-M "P 21/C"
_symmetry_group_IT_number 14
_symmetry_cell_setting 'monoclinic'
loop_
_space_group_symop_operation_xyz
x,y,z
-x,1/2+y,1/2-z
-x,-y,-z
x,1/2-y,1/2+z
loop_
_atom_site_type_symbol
_atom_site_label
_atom_site_fract_x
_atom_site_fract_y
_atom_site_fract_z
Si Si1 0.142263 0.359652 0.249092
Si Si2 0.462859 0.616366 0.219418
Si Si3 0.495977 0.709923 0.535662
Si Si4 0.280413 0.498149 0.541434
Si Si5 0.435048 0.320890 0.165217
Si Si6 0.968598 0.598551 0.297514
Si Si7 0.191479 0.569158 0.371025
O O1 0.282612 0.344376 0.166260
O O2 0.055798 0.222237 0.266195
O O3 0.176905 0.408128 0.344148
O O4 0.051600 0.481422 0.225360
O O5 0.478085 0.680050 0.117524
O O6 0.495295 0.454456 0.202633
O O7 0.562101 0.690497 0.267740
O O8 0.315266 0.637885 0.291659
O O9 0.378774 0.600246 0.570990
O O10 0.637300 0.632317 0.513351
O O11 0.481972 0.787632 0.443002
O O12 0.173090 0.455281 0.638435
O O13 0.207645 0.575462 0.474680
O O14 0.056996 0.646130 0.365972
#
# Coordination Sequence:
#
# PCOD8126032 Si02
#       7
#     4   4   4   4   4   4   4
#     4   9  21  37  60  86 118 160 206 253 303 359
#     4  11  23  39  64  89 129 160 203 261 311 374
#     4  11  23  36  64  93 124 165 210 251 325 364
#     4  11  21  39  62  93 121 165 212 256 303 383
#     4  11  22  43  60  93 130 157 209 257 311 375
#     4  10  21  37  63  84 121 161 208 254 305 360
#     4   9  21  38  60  87 121 158 207 249 309 362
#
# _framework density 19.244167999999998
#
# number of rings (size 3 to 8) (size 9 to 14) (size 15 to 20)
#    0.857    0.857    2.857    2.571    4.000    0.000 
#    0.000    0.000    0.000    0.857    0.000    0.000 
#    0.000    0.000    0.000    0.000    0.000    0.000 
#
# Total GULP energy -346956.378277 kJ/mol
# GULP energy per Si atom -12391.299224 kJ/mol
# Density = 1.920037 g / cm^3
# Si number density = 19.244168 Si / 1000 Ang^3
#
#
#
# Elastic Constant Matrix: (Units=GPa)
#
#
# Indices 1 2 3 4 5 6 
#
# 1 86.5300 41.9936 18.4467 0.0000 -8.4391 0.0000
# 2 41.9936 104.2648 29.9194 0.0000 -3.5903 0.0000
# 3 18.4467 29.9194 59.7731 0.0000 11.7244 0.0000
# 4 0.0000 0.0000 0.0000 29.5778 0.0000 2.9964
# 5 -8.4391 -3.5903 11.7244 0.0000 21.9062 0.0000
# 6 0.0000 0.0000 0.0000 2.9964 0.0000 34.5708
#
#
#
# Elastic Compliance Matrix: (Units=1/GPa)
#
#
# Indices 1 2 3 4 5 6 
#
# 1 0.015419 -0.004903 -0.003700 0.000000 0.007117 0.000000
# 2 -0.004903 0.013362 -0.005848 0.000000 0.003431 0.000000
# 3 -0.003700 -0.005848 0.023761 0.000000 -0.015101 0.000000
# 4 0.000000 0.000000 0.000000 0.034109 0.000000 -0.002956
# 5 0.007117 0.003431 -0.015101 0.000000 0.057036 0.000000
# 6 0.000000 0.000000 0.000000 -0.002956 0.000000 0.029182
#
#
# Mechanical properties :
#
#
# Convention : Reuss Voigt Hill
#
# Bulk Modulus (GPa) = 42.30254 47.92080 45.11167
# Shear Modulus (GPa) = 23.84901 27.89149 25.87025
#
# Velocity S-wave (km/s) = 3.52417 3.81116 3.67047
# Velocity P-wave (km/s) = 6.21204 6.65749 6.43861
#
# Compressibility (1/GPa) = 0.02363924
#
# Stress axis : x y z
#
# Youngs Moduli (GPa) = 64.85410 74.83821 42.08543
#
# Poissons Ratio (x) = 0.36696 0.15572
# Poissons Ratio (y) = 0.31801 0.24612
# Poissons Ratio (z) = 0.23997 0.43767
#
# Static dielectric constant tensor:
#      x y z
#    x 3.629600 0.000000 -0.084260 
#    y 0.000000 3.528800 0.000000 
#    z -0.084260 0.000000 3.222050 
# 
# 
# High freq. dielectric constant tensor:
#      x y z
#    x 1.753930 0.000000 -0.006600 
#    y 0.000000 1.739960 0.000000 
#    z -0.006600 0.000000 1.724640 
# 
# From -- ./inp_files/56781.got.cif
#   From: 2010.03.12/outbox.cif.g09.slc.cpg/sg14_29_cif.got.tgz:56781.got - 2010.03.31 13:35:05.
