data_PCOD8126082
_publ_section_title
;
Structure prediction by ZEFSAII (Michael W. Deem and Ramdas Pophale) SiO2 
 PCOD8126082
Probable space group: P 21/C
;
_chemical_formula_sum "Si O2"
_cell_formula_units_Z 32
_cell_length_a 12.401919
_cell_length_b 14.221205
_cell_length_c 9.812211
_cell_angle_alpha 90.000000
_cell_angle_beta 83.572265
_cell_angle_gamma 90.000000
_cell_volume 1719.703228
_symmetry_space_group_name_H-M "P 21/C"
_symmetry_group_IT_number 14
_symmetry_cell_setting 'monoclinic'
loop_
_space_group_symop_operation_xyz
x,y,z
-x,1/2+y,1/2-z
-x,-y,-z
x,1/2-y,1/2+z
loop_
_atom_site_type_symbol
_atom_site_label
_atom_site_fract_x
_atom_site_fract_y
_atom_site_fract_z
Si Si1 0.498573 0.908508 0.914739
Si Si2 0.754310 0.836146 0.611632
Si Si3 0.725495 0.147079 0.649433
Si Si4 0.272832 0.825075 0.036082
Si Si5 0.729110 0.833065 0.920177
Si Si6 0.891770 0.491192 0.426998
Si Si7 0.093246 0.496715 0.879926
Si Si8 0.571186 0.516723 0.121243
O O1 0.601931 0.852575 0.959555
O O2 0.504539 0.936354 0.754597
O O3 0.388506 0.853984 0.958955
O O4 0.500000 0.000000 0.000000
O O5 0.732727 0.796963 0.765127
O O6 0.769488 0.749523 0.509979
O O7 0.866444 0.890862 0.606430
O O8 0.664011 0.908649 0.570125
O O9 0.747358 0.226550 0.534473
O O10 0.726665 0.190375 0.801138
O O11 0.817928 0.073869 0.599355
O O12 0.614593 0.086918 0.655718
O O13 0.177518 0.900013 0.015974
O O14 0.805689 0.922766 0.941118
O O15 0.942880 0.483192 0.269559
O O16 0.000000 0.500000 0.500000
O O17 0.000000 0.500000 0.000000
O O18 0.500000 0.500000 0.000000
#
# Coordination Sequence:
#
# PCOD8126082 Si02
#       8
#     4   4   4   4   4   4   4   4
#     4  11  20  39  62  80 121 163 189 234 291 348
#     4   9  21  38  57  85 116 149 192 238 288 344
#     4  10  23  39  59  86 123 153 197 248 290 356
#     4  11  23  40  60  90 120 159 199 239 301 351
#     4  10  21  38  59  85 117 152 192 238 289 346
#     4  10  22  41  60  84 117 151 195 245 292 353
#     4   9  20  42  62  79 115 156 192 244 298 342
#     4  10  22  39  55  86 123 156 194 240 287 344
#
# _framework density 18.607862999999998
#
# number of rings (size 3 to 8) (size 9 to 14) (size 15 to 20)
#    0.000    2.000    2.500    1.500    3.500    5.000 
#    2.250    5.000    0.000    0.000    0.000    0.000 
#    0.000    0.000    0.000    0.000    0.000    0.000 
#
# Total GULP energy -396509.336691 kJ/mol
# GULP energy per Si atom -12390.916772 kJ/mol
# Density = 1.856551 g / cm^3
# Si number density = 18.607863 Si / 1000 Ang^3
#
#
#
# Elastic Constant Matrix: (Units=GPa)
#
#
# Indices 1 2 3 4 5 6 
#
# 1 104.8528 23.5582 52.7139 0.0000 0.6656 0.0000
# 2 23.5582 102.3381 53.4674 0.0000 5.6533 0.0000
# 3 52.7139 53.4674 96.4131 0.0000 3.6484 0.0000
# 4 0.0000 0.0000 0.0000 40.8769 0.0000 1.1468
# 5 0.6656 5.6533 3.6484 0.0000 37.2843 0.0000
# 6 0.0000 0.0000 0.0000 1.1468 0.0000 10.9084
#
#
#
# Elastic Compliance Matrix: (Units=1/GPa)
#
#
# Indices 1 2 3 4 5 6 
#
# 1 0.013235 0.001015 -0.007813 0.000000 0.000374 0.000000
# 2 0.001015 0.013903 -0.008215 0.000000 -0.001322 0.000000
# 3 -0.007813 -0.008215 0.019218 0.000000 -0.000496 0.000000
# 4 0.000000 0.000000 0.000000 0.024536 0.000000 -0.002579
# 5 0.000374 -0.001322 -0.000496 0.000000 0.027063 0.000000
# 6 0.000000 0.000000 0.000000 -0.002579 0.000000 0.091943
#
#
# Mechanical properties :
#
#
# Convention : Reuss Voigt Hill
#
# Bulk Modulus (GPa) = 61.23855 62.56478 61.90166
# Shear Modulus (GPa) = 22.18598 29.40491 25.79545
#
# Velocity S-wave (km/s) = 3.45670 3.97954 3.72730
# Velocity P-wave (km/s) = 6.99380 7.40347 7.20155
#
# Compressibility (1/GPa) = 0.01632958
#
# Stress axis : x y z
#
# Youngs Moduli (GPa) = 75.55886 71.92753 52.03419
#
# Poissons Ratio (x) = -0.07298 0.40654
# Poissons Ratio (y) = -0.07666 0.42745
# Poissons Ratio (z) = 0.59034 0.59087
#
# Static dielectric constant tensor:
#      x y z
#    x 3.507350 0.000000 -0.086840 
#    y 0.000000 3.372300 0.000000 
#    z -0.086840 0.000000 3.502110 
# 
# 
# High freq. dielectric constant tensor:
#      x y z
#    x 1.721250 0.000000 -0.002400 
#    y 0.000000 1.726630 0.000000 
#    z -0.002400 0.000000 1.730230 
# 
# From -- ./inp_files/13353.got.cif
#   From: 2010.03.12/outbox.cif.g09.slc.cpg/sg14_7_cif.got.tgz:13353.got - 2010.03.31 13:35:05.
