data_PCOD8126533
_publ_section_title
;
Structure prediction by ZEFSAII (Michael W. Deem and Ramdas Pophale) SiO2 
 PCOD8126533
Probable space group: P 21/C
;
_chemical_formula_sum "Si O2"
_cell_formula_units_Z 24
_cell_length_a 8.281468
_cell_length_b 13.956220
_cell_length_c 10.013107
_cell_angle_alpha 90.000000
_cell_angle_beta 85.460065
_cell_angle_gamma 90.000000
_cell_volume 1153.663653
_symmetry_space_group_name_H-M "P 21/C"
_symmetry_group_IT_number 14
_symmetry_cell_setting 'monoclinic'
loop_
_space_group_symop_operation_xyz
x,y,z
-x,1/2+y,1/2-z
-x,-y,-z
x,1/2-y,1/2+z
loop_
_atom_site_type_symbol
_atom_site_label
_atom_site_fract_x
_atom_site_fract_y
_atom_site_fract_z
Si Si1 0.606856 0.707256 0.138104
Si Si2 0.186720 0.297091 0.139141
Si Si3 0.511165 0.537786 0.314555
Si Si4 0.840429 0.962449 0.184811
Si Si5 0.031315 0.860383 0.950111
Si Si6 0.632184 0.138045 0.932785
O O1 0.728814 0.753048 0.235901
O O2 0.559996 0.599197 0.182712
O O3 0.443375 0.771062 0.139121
O O4 0.688870 0.696697 0.989521
O O5 0.118278 0.402360 0.184330
O O6 0.028037 0.236509 0.113960
O O7 0.351253 0.475712 0.302388
O O8 0.488699 0.612599 0.437415
O O9 0.647523 0.457429 0.338896
O O10 0.928798 0.065276 0.172771
O O11 0.887350 0.903111 0.049032
O O12 0.188550 0.836644 0.028725
#
# Coordination Sequence:
#
# PCOD8126533 Si02
#       6
#     4   4   4   4   4   4
#     4  12  24  41  72  95 132 174 224 274 326 386
#     4  12  23  45  66 101 130 177 215 276 332 390
#     4  10  21  40  68  95 127 172 224 264 323 393
#     4  10  22  43  67  93 133 172 220 259 330 393
#     4  10  23  40  72  94 131 181 218 262 330 405
#     4  10  21  41  66  98 124 175 223 263 320 403
#
# _framework density 20.803291999999999
#
# number of rings (size 3 to 8) (size 9 to 14) (size 15 to 20)
#    0.000    1.333    5.000    0.000    7.000    3.333 
#    0.000    0.833    0.000    0.000    0.000    0.000 
#    0.000    0.000    0.000    0.000    0.000    0.000 
#
# Total GULP energy -297599.937266 kJ/mol
# GULP energy per Si atom -12399.997386 kJ/mol
# Density = 2.075594 g / cm^3
# Si number density = 20.803292 Si / 1000 Ang^3
#
#
#
# Elastic Constant Matrix: (Units=GPa)
#
#
# Indices 1 2 3 4 5 6 
#
# 1 103.2843 62.7379 38.2794 0.0000 20.8624 0.0000
# 2 62.7379 117.4273 58.3189 0.0000 18.6213 0.0000
# 3 38.2794 58.3189 81.1770 0.0000 2.1004 0.0000
# 4 0.0000 0.0000 0.0000 53.8478 0.0000 5.5276
# 5 20.8624 18.6213 2.1004 0.0000 30.3225 0.0000
# 6 0.0000 0.0000 0.0000 5.5276 0.0000 35.7674
#
#
#
# Elastic Compliance Matrix: (Units=1/GPa)
#
#
# Indices 1 2 3 4 5 6 
#
# 1 0.015763 -0.005745 -0.003122 0.000000 -0.007101 0.000000
# 2 -0.005745 0.017279 -0.009549 0.000000 -0.005997 0.000000
# 3 -0.003122 -0.009549 0.020480 0.000000 0.006593 0.000000
# 4 0.000000 0.000000 0.000000 0.018870 0.000000 -0.002916
# 5 -0.007101 -0.005997 0.006593 0.000000 0.041090 0.000000
# 6 0.000000 0.000000 0.000000 -0.002916 0.000000 0.028409
#
#
# Mechanical properties :
#
#
# Convention : Reuss Voigt Hill
#
# Bulk Modulus (GPa) = 59.91608 68.95122 64.43365
# Shear Modulus (GPa) = 27.13143 33.49103 30.31123
#
# Velocity S-wave (km/s) = 3.61527 4.01670 3.82126
# Velocity P-wave (km/s) = 6.80373 7.39785 7.10700
#
# Compressibility (1/GPa) = 0.01669001
#
# Stress axis : x y z
#
# Youngs Moduli (GPa) = 63.43860 57.87437 48.82699
#
# Poissons Ratio (x) = 0.33251 0.15244
# Poissons Ratio (y) = 0.36447 0.46625
# Poissons Ratio (z) = 0.19805 0.55264
#
# Static dielectric constant tensor:
#      x y z
#    x 3.624930 0.000000 -0.001710 
#    y 0.000000 4.040770 0.000000 
#    z -0.001710 0.000000 3.740610 
# 
# 
# High freq. dielectric constant tensor:
#      x y z
#    x 1.810760 0.000000 0.002040 
#    y 0.000000 1.821290 0.000000 
#    z 0.002040 0.000000 1.794820 
# 
# From -- ./inp_files/8626.got.cif
#   From: 2010.03.12/outbox.cif.g09.slc.cpg/sg14_5_cif.got.tgz:8626.got - 2010.03.31 13:35:05.
