data_PCOD8126482
_publ_section_title
;
Structure prediction by ZEFSAII (Michael W. Deem and Ramdas Pophale) SiO2 
 PCOD8126482
Probable space group: P 21/C
;
_chemical_formula_sum "Si O2"
_cell_formula_units_Z 32
_cell_length_a 17.367121
_cell_length_b 12.331899
_cell_length_c 14.107399
_cell_angle_alpha 90.000000
_cell_angle_beta 32.162041
_cell_angle_gamma 90.000000
_cell_volume 1608.325288
_symmetry_space_group_name_H-M "P 21/C"
_symmetry_group_IT_number 14
_symmetry_cell_setting 'monoclinic'
loop_
_space_group_symop_operation_xyz
x,y,z
-x,1/2+y,1/2-z
-x,-y,-z
x,1/2-y,1/2+z
loop_
_atom_site_type_symbol
_atom_site_label
_atom_site_fract_x
_atom_site_fract_y
_atom_site_fract_z
Si Si1 0.867805 0.215743 0.978877
Si Si2 0.546834 0.252343 0.301436
Si Si3 0.927164 0.754306 0.906922
Si Si4 0.884716 0.522938 0.543506
Si Si5 0.915574 0.385252 0.097397
Si Si6 0.418467 0.603345 0.550356
Si Si7 0.591840 0.602762 0.917468
Si Si8 0.407370 0.255279 0.755966
O O1 0.711097 0.235309 0.095609
O O2 0.909737 0.307861 0.011543
O O3 0.992682 0.224738 0.772422
O O4 0.851381 0.091866 0.030567
O O5 0.554938 0.321053 0.387677
O O6 0.452807 0.148874 0.433153
O O7 0.457937 0.297089 0.303561
O O8 0.002183 0.686528 0.911381
O O9 0.934616 0.884563 0.916600
O O10 0.761965 0.715868 0.067138
O O11 0.758899 0.573067 0.739166
O O12 0.000000 0.500000 0.500000
O O13 0.750685 0.413690 0.297920
O O14 0.000000 0.500000 0.000000
O O15 0.500000 0.500000 0.500000
O O16 0.497037 0.639242 0.370438
O O17 0.550459 0.674656 0.870890
O O18 0.500000 0.500000 0.000000
#
# Coordination Sequence:
#
# PCOD8126482 Si02
#       8
#     4   4   4   4   4   4   4   4
#     4  11  24  42  66  95 129 169 216 262 323 383
#     4  10  22  41  64  92 125 165 207 261 319 375
#     4  11  25  41  64  96 130 165 216 265 320 389
#     4  11  23  42  66  95 129 170 213 266 322 379
#     4  11  24  43  66  93 130 172 211 266 322 382
#     4  10  22  42  64  88 126 166 210 258 312 382
#     4  10  21  40  65  91 124 160 212 262 314 375
#     4  10  23  39  61  94 125 163 207 260 315 375
#
# _framework density 19.896471999999999
#
# number of rings (size 3 to 8) (size 9 to 14) (size 15 to 20)
#    0.000    1.500    2.500    1.500    3.500    4.000 
#    2.250    0.000    0.000    0.000    0.000    0.000 
#    0.000    0.000    0.000    0.000    0.000    0.000 
#
# Total GULP energy -396418.507571 kJ/mol
# GULP energy per Si atom -12388.078362 kJ/mol
# Density = 1.985119 g / cm^3
# Si number density = 19.896472 Si / 1000 Ang^3
#
#
#
# Elastic Constant Matrix: (Units=GPa)
#
#
# Indices 1 2 3 4 5 6 
#
# 1 121.2870 20.4606 53.6085 0.0000 -22.3604 0.0000
# 2 20.4606 93.9666 41.1438 0.0000 -14.7401 0.0000
# 3 53.6085 41.1438 136.9725 0.0000 -7.0889 0.0000
# 4 0.0000 0.0000 0.0000 33.7703 0.0000 -5.6780
# 5 -22.3604 -14.7401 -7.0889 0.0000 31.4553 0.0000
# 6 0.0000 0.0000 0.0000 -5.6780 0.0000 24.4862
#
#
#
# Elastic Compliance Matrix: (Units=1/GPa)
#
#
# Indices 1 2 3 4 5 6 
#
# 1 0.011390 0.000534 -0.004236 0.000000 0.007392 0.000000
# 2 0.000534 0.013098 -0.003851 0.000000 0.005650 0.000000
# 3 -0.004236 -0.003851 0.009982 0.000000 -0.002566 0.000000
# 4 0.000000 0.000000 0.000000 0.030813 0.000000 0.007145
# 5 0.007392 0.005650 -0.002566 0.000000 0.039115 0.000000
# 6 0.000000 0.000000 0.000000 0.007145 0.000000 0.042496
#
#
# Mechanical properties :
#
#
# Convention : Reuss Voigt Hill
#
# Bulk Modulus (GPa) = 51.63864 64.73912 58.18888
# Shear Modulus (GPa) = 29.68144 33.74324 31.71234
#
# Velocity S-wave (km/s) = 3.86657 4.12265 3.99666
# Velocity P-wave (km/s) = 6.77818 7.43440 7.11386
#
# Compressibility (1/GPa) = 0.01936534
#
# Stress axis : x y z
#
# Youngs Moduli (GPa) = 87.79807 76.34607 100.17557
#
# Poissons Ratio (x) = -0.04078 0.42430
# Poissons Ratio (y) = -0.04690 0.38579
# Poissons Ratio (z) = 0.37188 0.29402
#
# Static dielectric constant tensor:
#      x y z
#    x 3.913410 0.000000 0.357780 
#    y 0.000000 3.641780 0.000000 
#    z 0.357780 0.000000 4.304490 
# 
# 
# High freq. dielectric constant tensor:
#      x y z
#    x 1.779370 0.000000 -0.008770 
#    y 0.000000 1.779530 0.000000 
#    z -0.008770 0.000000 1.794370 
# 
# From -- ./inp_files/48913.got.cif
#   From: 2010.03.12/outbox.cif.g09.slc.cpg/sg14_25_cif.got.tgz:48913.got - 2010.03.31 13:35:05.
