data_PCOD8126980
_publ_section_title
;
Structure prediction by ZEFSAII (Michael W. Deem and Ramdas Pophale) SiO2 
 PCOD8126980
Probable space group: P 21/C
;
_chemical_formula_sum "Si O2"
_cell_formula_units_Z 28
_cell_length_a 8.454734
_cell_length_b 11.867682
_cell_length_c 16.360017
_cell_angle_alpha 90.000000
_cell_angle_beta 58.532797
_cell_angle_gamma 90.000000
_cell_volume 1400.127640
_symmetry_space_group_name_H-M "P 21/C"
_symmetry_group_IT_number 14
_symmetry_cell_setting 'monoclinic'
loop_
_space_group_symop_operation_xyz
x,y,z
-x,1/2+y,1/2-z
-x,-y,-z
x,1/2-y,1/2+z
loop_
_atom_site_type_symbol
_atom_site_label
_atom_site_fract_x
_atom_site_fract_y
_atom_site_fract_z
Si Si1 0.392227 0.384244 0.824439
Si Si2 0.061079 0.239028 0.970524
Si Si3 0.208401 0.884380 0.072462
Si Si4 0.471893 0.321571 0.625532
Si Si5 0.719847 0.365866 0.127010
Si Si6 0.878284 0.865014 0.874447
Si Si7 0.742646 0.235979 0.283801
O O1 0.231757 0.292035 0.876322
O O2 0.449391 0.393140 0.714397
O O3 0.318528 0.503375 0.875727
O O4 0.567847 0.348273 0.831703
O O5 0.963742 0.149906 0.937587
O O6 0.136650 0.170089 0.027428
O O7 0.920796 0.337351 0.035898
O O8 0.239051 0.790882 0.133031
O O9 0.161766 0.003032 0.126059
O O10 0.395000 0.895078 0.968687
O O11 0.562606 0.200948 0.619823
O O12 0.275966 0.297355 0.635279
O O13 0.714151 0.332814 0.223807
O O14 0.078086 0.838872 0.783534
#
# Coordination Sequence:
#
# PCOD8126980 Si02
#       7
#     4   4   4   4   4   4   4
#     4  11  21  39  61  84 117 156 189 238 288 335
#     4  10  22  38  60  87 115 151 197 234 283 348
#     4  11  22  40  60  86 119 150 188 242 288 336
#     4  10  22  37  59  88 115 150 197 233 283 349
#     4   9  21  40  58  84 118 149 190 242 287 335
#     4  11  22  39  60  86 117 153 190 238 287 336
#     4  10  23  37  57  89 115 147 198 233 281 353
#
# _framework density 19.998179
#
# number of rings (size 3 to 8) (size 9 to 14) (size 15 to 20)
#    0.000    1.714    0.000    4.714    0.000    5.714 
#    0.000    9.286    0.000    0.000    0.000    0.000 
#    0.000    0.000    0.000    0.000    0.000    0.000 
#
# Total GULP energy -347381.975381 kJ/mol
# GULP energy per Si atom -12406.499121 kJ/mol
# Density = 1.995266 g / cm^3
# Si number density = 19.998179 Si / 1000 Ang^3
#
#
#
# Elastic Constant Matrix: (Units=GPa)
#
#
# Indices 1 2 3 4 5 6 
#
# 1 113.1156 31.7538 16.9127 0.0000 6.8951 0.0000
# 2 31.7538 74.2644 28.1850 0.0000 -3.4482 0.0000
# 3 16.9127 28.1850 87.0859 0.0000 2.2015 0.0000
# 4 0.0000 0.0000 0.0000 19.5065 0.0000 -0.6056
# 5 6.8951 -3.4482 2.2015 0.0000 42.2332 0.0000
# 6 0.0000 0.0000 0.0000 -0.6056 0.0000 24.7445
#
#
#
# Elastic Compliance Matrix: (Units=1/GPa)
#
#
# Indices 1 2 3 4 5 6 
#
# 1 0.010241 -0.004259 -0.000560 0.000000 -0.001990 0.000000
# 2 -0.004259 0.017219 -0.004805 0.000000 0.002352 0.000000
# 3 -0.000560 -0.004805 0.013172 0.000000 -0.000987 0.000000
# 4 0.000000 0.000000 0.000000 0.051304 0.000000 0.001256
# 5 -0.001990 0.002352 -0.000987 0.000000 0.024246 0.000000
# 6 0.000000 0.000000 0.000000 0.001256 0.000000 0.040444
#
#
# Mechanical properties :
#
#
# Convention : Reuss Voigt Hill
#
# Bulk Modulus (GPa) = 46.76453 47.57434 47.16943
# Shear Modulus (GPa) = 27.32196 30.47111 28.89654
#
# Velocity S-wave (km/s) = 3.70025 3.90769 3.80538
# Velocity P-wave (km/s) = 6.45686 6.64838 6.55332
#
# Compressibility (1/GPa) = 0.02138373
#
# Stress axis : x y z
#
# Youngs Moduli (GPa) = 97.64569 58.07464 75.91909
#
# Poissons Ratio (x) = 0.24732 0.04254
# Poissons Ratio (y) = 0.41584 0.36482
# Poissons Ratio (z) = 0.05471 0.27907
#
# Static dielectric constant tensor:
#      x y z
#    x 3.817220 0.000000 -0.025000 
#    y 0.000000 3.333640 0.000000 
#    z -0.025000 0.000000 3.682280 
# 
# 
# High freq. dielectric constant tensor:
#      x y z
#    x 1.798160 0.000000 -0.002720 
#    y 0.000000 1.767460 0.000000 
#    z -0.002720 0.000000 1.787190 
# 
# From -- ./inp_files/40242.got.cif
#   From: 2010.03.12/outbox.cif.g09.slc.cpg/sg14_21_cif.got.tgz:40242.got - 2010.03.31 13:35:05.
