data_PCOD8126878
_publ_section_title
;
Structure prediction by ZEFSAII (Michael W. Deem and Ramdas Pophale) SiO2 
 PCOD8126878
Probable space group: P 21/C
;
_chemical_formula_sum "Si O2"
_cell_formula_units_Z 28
_cell_length_a 9.440919
_cell_length_b 11.536325
_cell_length_c 15.827216
_cell_angle_alpha 90.000000
_cell_angle_beta 55.399795
_cell_angle_gamma 90.000000
_cell_volume 1418.917032
_symmetry_space_group_name_H-M "P 21/C"
_symmetry_group_IT_number 14
_symmetry_cell_setting 'monoclinic'
loop_
_space_group_symop_operation_xyz
x,y,z
-x,1/2+y,1/2-z
-x,-y,-z
x,1/2-y,1/2+z
loop_
_atom_site_type_symbol
_atom_site_label
_atom_site_fract_x
_atom_site_fract_y
_atom_site_fract_z
Si Si1 0.774036 0.866840 0.716048
Si Si2 0.184396 0.058229 0.932143
Si Si3 0.280859 0.190637 0.450966
Si Si4 0.545117 0.170057 0.506621
Si Si5 0.875374 0.006544 0.389091
Si Si6 0.469717 0.574789 0.428972
Si Si7 0.237721 0.385255 0.224522
O O1 0.680625 0.844715 0.658293
O O2 0.642403 0.940768 0.815918
O O3 0.816960 0.748941 0.752023
O O4 0.950433 0.933432 0.640923
O O5 0.192346 0.181876 0.978093
O O6 0.247892 0.064210 0.814254
O O7 0.308569 0.968828 0.933094
O O8 0.000000 0.000000 0.000000
O O9 0.458879 0.189398 0.443498
O O10 0.150855 0.100072 0.537839
O O11 0.720656 0.099027 0.442409
O O12 0.581248 0.294175 0.533943
O O13 0.418097 0.099973 0.612598
O O14 0.899863 0.955770 0.285760
O O15 0.500000 0.500000 0.500000
#
# Coordination Sequence:
#
# PCOD8126878 Si02
#       7
#     4   4   4   4   4   4   4
#     4  10  24  40  64  94 132 162 213 265 312 378
#     4  11  25  41  67  89 129 170 219 265 323 384
#     4  10  21  44  61  97 130 163 208 274 312 384
#     4  10  22  41  68  91 129 169 208 259 332 382
#     4  11  23  39  72  92 129 168 217 257 327 388
#     4  11  24  43  64  91 130 170 213 266 321 378
#     4   9  22  41  60  91 129 161 207 266 312 373
#
# _framework density 19.733360000000001
#
# number of rings (size 3 to 8) (size 9 to 14) (size 15 to 20)
#    0.000    1.714    1.429    2.143   10.000    0.000 
#    0.000    0.000    0.000    0.000    0.000    0.000 
#    0.000    0.000    0.000    0.000    0.000    0.000 
#
# Total GULP energy -347177.822669 kJ/mol
# GULP energy per Si atom -12399.207952 kJ/mol
# Density = 1.968845 g / cm^3
# Si number density = 19.733360 Si / 1000 Ang^3
#
#
#
# Elastic Constant Matrix: (Units=GPa)
#
#
# Indices 1 2 3 4 5 6 
#
# 1 116.7358 61.9141 68.4018 0.0000 -4.1893 0.0000
# 2 61.9141 100.6850 50.3583 0.0000 -4.3669 0.0000
# 3 68.4018 50.3583 108.3784 0.0000 8.6726 0.0000
# 4 0.0000 0.0000 0.0000 33.1654 0.0000 4.7850
# 5 -4.1893 -4.3669 8.6726 0.0000 31.1224 0.0000
# 6 0.0000 0.0000 0.0000 4.7850 0.0000 35.6997
#
#
#
# Elastic Compliance Matrix: (Units=1/GPa)
#
#
# Indices 1 2 3 4 5 6 
#
# 1 0.016547 -0.006062 -0.007913 0.000000 0.003582 0.000000
# 2 -0.006062 0.015560 -0.003593 0.000000 0.002369 0.000000
# 3 -0.007913 -0.003593 0.016382 0.000000 -0.006134 0.000000
# 4 0.000000 0.000000 0.000000 0.030747 0.000000 -0.004121
# 5 0.003582 0.002369 -0.006134 0.000000 0.034655 0.000000
# 6 0.000000 0.000000 0.000000 -0.004121 0.000000 0.028564
#
#
# Mechanical properties :
#
#
# Convention : Reuss Voigt Hill
#
# Bulk Modulus (GPa) = 74.90038 76.34972 75.62505
# Shear Modulus (GPa) = 27.46630 29.67251 28.56940
#
# Velocity S-wave (km/s) = 3.73483 3.88193 3.80909
# Velocity P-wave (km/s) = 7.52577 7.67249 7.59949
#
# Compressibility (1/GPa) = 0.01335107
#
# Stress axis : x y z
#
# Youngs Moduli (GPa) = 60.43470 64.26903 61.04294
#
# Poissons Ratio (x) = 0.38959 0.48305
# Poissons Ratio (y) = 0.36635 0.21936
# Poissons Ratio (z) = 0.47824 0.23095
#
# Static dielectric constant tensor:
#      x y z
#    x 3.776180 0.000000 0.126080 
#    y 0.000000 3.851570 0.000000 
#    z 0.126080 0.000000 3.665910 
# 
# 
# High freq. dielectric constant tensor:
#      x y z
#    x 1.766570 0.000000 0.018300 
#    y 0.000000 1.785160 0.000000 
#    z 0.018300 0.000000 1.771480 
# 
# From -- ./inp_files/40174.got.cif
#   From: 2010.03.12/outbox.cif.g09.slc.cpg/sg14_21_cif.got.tgz:40174.got - 2010.03.31 13:35:05.
