data_PCOD8126882
_publ_section_title
;
Structure prediction by ZEFSAII (Michael W. Deem and Ramdas Pophale) SiO2 
 PCOD8126882
Probable space group: P 21/C
;
_chemical_formula_sum "Si O2"
_cell_formula_units_Z 32
_cell_length_a 6.940822
_cell_length_b 22.846157
_cell_length_c 10.596761
_cell_angle_alpha 90.000000
_cell_angle_beta 115.929712
_cell_angle_gamma 90.000000
_cell_volume 1511.182226
_symmetry_space_group_name_H-M "P 21/C"
_symmetry_group_IT_number 14
_symmetry_cell_setting 'monoclinic'
loop_
_space_group_symop_operation_xyz
x,y,z
-x,1/2+y,1/2-z
-x,-y,-z
x,1/2-y,1/2+z
loop_
_atom_site_type_symbol
_atom_site_label
_atom_site_fract_x
_atom_site_fract_y
_atom_site_fract_z
Si Si1 0.655513 0.540075 0.874918
Si Si2 0.802936 0.487178 0.666164
Si Si3 0.376259 0.154360 0.248488
Si Si4 0.634989 0.839349 0.257272
Si Si5 0.726212 0.966023 0.676846
Si Si6 0.990102 0.753081 0.832313
Si Si7 0.574929 0.592931 0.487553
Si Si8 0.728512 0.246891 0.338571
O O1 0.801948 0.513433 0.806905
O O2 0.653415 0.610583 0.868642
O O3 0.414927 0.514528 0.790875
O O4 0.746108 0.519095 0.034708
O O5 0.725279 0.536246 0.545469
O O6 0.661843 0.428639 0.617547
O O7 0.040358 0.468418 0.694698
O O8 0.380857 0.097710 0.339296
O O9 0.183333 0.196073 0.232863
O O10 0.607596 0.185392 0.326992
O O11 0.330731 0.134425 0.092697
O O12 0.866093 0.808581 0.309463
O O13 0.559933 0.868864 0.107348
O O14 0.451948 0.794520 0.245733
O O15 0.124104 0.755344 0.742285
O O16 0.137762 0.762708 0.997684
#
# Coordination Sequence:
#
# PCOD8126882 Si02
#       8
#     4   4   4   4   4   4   4   4
#     4  10  23  43  61  97 131 168 216 269 320 391
#     4  10  22  41  65  93 130 170 214 261 323 388
#     4  11  25  41  66  98 131 166 220 269 321 398
#     4  10  24  43  67  94 131 166 223 269 319 398
#     4  11  24  39  65  95 132 173 213 262 333 388
#     4  11  26  44  68  98 126 178 216 271 338 385
#     4  10  21  44  63  95 132 166 214 272 318 383
#     4  11  26  45  69  96 134 169 221 275 327 382
#
# _framework density 21.175474000000001
#
# number of rings (size 3 to 8) (size 9 to 14) (size 15 to 20)
#    0.000    1.500    1.250    1.875    7.000    5.500 
#    4.500    0.000    0.000    0.000    0.000    0.000 
#    0.000    0.000    0.000    0.000    0.000    0.000 
#
# Total GULP energy -396916.514445 kJ/mol
# GULP energy per Si atom -12403.641076 kJ/mol
# Density = 2.112728 g / cm^3
# Si number density = 21.175474 Si / 1000 Ang^3
#
#
#
# Elastic Constant Matrix: (Units=GPa)
#
#
# Indices 1 2 3 4 5 6 
#
# 1 128.7627 44.7385 26.1128 0.0000 14.8315 0.0000
# 2 44.7385 93.6873 -4.0248 0.0000 11.6178 0.0000
# 3 26.1128 -4.0248 55.3192 0.0000 2.3650 0.0000
# 4 0.0000 0.0000 0.0000 27.1467 0.0000 -2.0271
# 5 14.8315 11.6178 2.3650 0.0000 30.2450 0.0000
# 6 0.0000 0.0000 0.0000 -2.0271 0.0000 24.9143
#
#
#
# Elastic Compliance Matrix: (Units=1/GPa)
#
#
# Indices 1 2 3 4 5 6 
#
# 1 0.010988 -0.005108 -0.005430 0.000000 -0.003002 0.000000
# 2 -0.005108 0.013638 0.003532 0.000000 -0.003010 0.000000
# 3 -0.005430 0.003532 0.020911 0.000000 -0.000329 0.000000
# 4 0.000000 0.000000 0.000000 0.037062 0.000000 0.003015
# 5 -0.003002 -0.003010 -0.000329 0.000000 0.035717 0.000000
# 6 0.000000 0.000000 0.000000 0.003015 0.000000 0.040383
#
#
# Mechanical properties :
#
#
# Convention : Reuss Voigt Hill
#
# Bulk Modulus (GPa) = 31.72068 45.71358 38.71713
# Shear Modulus (GPa) = 27.28962 30.52405 28.90684
#
# Velocity S-wave (km/s) = 3.59379 3.80080 3.69875
# Velocity P-wave (km/s) = 5.67740 6.39502 6.04687
#
# Compressibility (1/GPa) = 0.03152518
#
# Stress axis : x y z
#
# Youngs Moduli (GPa) = 91.00845 73.32387 47.82131
#
# Poissons Ratio (x) = 0.37455 0.25967
# Poissons Ratio (y) = 0.46489 -0.16891
# Poissons Ratio (z) = 0.49418 -0.25899
#
# Static dielectric constant tensor:
#      x y z
#    x 3.829110 0.000000 -0.017080 
#    y 0.000000 3.987500 0.000000 
#    z -0.017080 0.000000 3.739400 
# 
# 
# High freq. dielectric constant tensor:
#      x y z
#    x 1.835550 0.000000 -0.005070 
#    y 0.000000 1.839290 0.000000 
#    z -0.005070 0.000000 1.831010 
# 
# From -- ./inp_files/22201.got.cif
#   From: 2010.03.12/outbox.cif.g09.slc.cpg/sg14_12_cif.got.tgz:22201.got - 2010.03.31 13:35:05.
