data_PCOD8126940
_publ_section_title
;
Structure prediction by ZEFSAII (Michael W. Deem and Ramdas Pophale) SiO2 
 PCOD8126940
Probable space group: P 21/C
;
_chemical_formula_sum "Si O2"
_cell_formula_units_Z 20
_cell_length_a 19.468792
_cell_length_b 5.243353
_cell_length_c 10.332188
_cell_angle_alpha 90.000000
_cell_angle_beta 44.635714
_cell_angle_gamma 90.000000
_cell_volume 741.048331
_symmetry_space_group_name_H-M "P 21/C"
_symmetry_group_IT_number 14
_symmetry_cell_setting 'monoclinic'
loop_
_space_group_symop_operation_xyz
x,y,z
-x,1/2+y,1/2-z
-x,-y,-z
x,1/2-y,1/2+z
loop_
_atom_site_type_symbol
_atom_site_label
_atom_site_fract_x
_atom_site_fract_y
_atom_site_fract_z
Si Si1 0.155068 0.381731 0.263057
Si Si2 0.685431 0.184608 0.320699
Si Si3 0.007408 0.692090 0.322445
Si Si4 0.514934 0.603868 0.808940
Si Si5 0.722869 0.498821 0.516330
O O1 0.256189 0.441291 0.200302
O O2 0.109900 0.640046 0.260523
O O3 0.076484 0.245704 0.461156
O O4 0.181577 0.180327 0.112897
O O5 0.706176 0.415775 0.390019
O O6 0.568040 0.127870 0.466958
O O7 0.730490 0.227949 0.114935
O O8 0.021792 0.927491 0.208438
O O9 0.485455 0.814279 0.742518
O O10 0.627761 0.659336 0.697013
#
# Coordination Sequence:
#
# PCOD8126940 Si02
#       5
#     4   4   4   4   4
#     4  11  26  46  75 108 149 201 251 314 380 454
#     4  11  25  44  75 109 154 203 253 309 373 449
#     4  11  28  49  77 107 149 192 256 318 387 449
#     4  10  21  46  69 109 152 202 251 307 365 439
#     4  11  25  46  73 113 152 203 254 308 375 447
#
# _framework density 26.988793000000001
#
# number of rings (size 3 to 8) (size 9 to 14) (size 15 to 20)
#    0.000    1.200    2.000    1.800    8.400    3.200 
#    0.000    5.000    0.000    0.000    0.000    0.000 
#    0.000    0.000    0.000    0.000    0.000    0.000 
#
# Total GULP energy -247872.897961 kJ/mol
# GULP energy per Si atom -12393.644898 kJ/mol
# Density = 2.692737 g / cm^3
# Si number density = 26.988793 Si / 1000 Ang^3
#
#
#
# Elastic Constant Matrix: (Units=GPa)
#
#
# Indices 1 2 3 4 5 6 
#
# 1 83.5351 16.1493 43.4788 0.0000 -4.2368 0.0000
# 2 16.1493 87.2819 51.4874 0.0000 -0.2522 0.0000
# 3 43.4788 51.4874 198.1103 0.0000 -2.7276 0.0000
# 4 0.0000 0.0000 0.0000 35.4759 0.0000 5.7986
# 5 -4.2368 -0.2522 -2.7276 0.0000 35.4538 0.0000
# 6 0.0000 0.0000 0.0000 5.7986 0.0000 30.1474
#
#
#
# Elastic Compliance Matrix: (Units=1/GPa)
#
#
# Indices 1 2 3 4 5 6 
#
# 1 0.013644 -0.000904 -0.002740 0.000000 0.001413 0.000000
# 2 -0.000904 0.013593 -0.003338 0.000000 -0.000268 0.000000
# 3 -0.002740 -0.003338 0.006519 0.000000 0.000150 0.000000
# 4 0.000000 0.000000 0.000000 0.029103 0.000000 -0.005598
# 5 0.001413 -0.000268 0.000150 0.000000 0.028384 0.000000
# 6 0.000000 0.000000 0.000000 -0.005598 0.000000 0.034247
#
#
# Mechanical properties :
#
#
# Convention : Reuss Voigt Hill
#
# Bulk Modulus (GPa) = 50.52787 65.68425 58.10606
# Shear Modulus (GPa) = 34.23488 37.40289 35.81888
#
# Velocity S-wave (km/s) = 3.56544 3.72676 3.64700
# Velocity P-wave (km/s) = 5.97598 6.55048 6.26981
#
# Compressibility (1/GPa) = 0.01979106
#
# Stress axis : x y z
#
# Youngs Moduli (GPa) = 73.29471 73.56920 153.40762
#
# Poissons Ratio (x) = 0.06651 0.42032
# Poissons Ratio (y) = 0.06626 0.51206
# Poissons Ratio (z) = 0.20082 0.24557
#
# Static dielectric constant tensor:
#      x y z
#    x 4.978050 0.000000 -0.274290 
#    y 0.000000 4.320450 0.000000 
#    z -0.274290 0.000000 5.301420 
# 
# 
# High freq. dielectric constant tensor:
#      x y z
#    x 2.085190 0.000000 -0.013420 
#    y 0.000000 2.056540 0.000000 
#    z -0.013420 0.000000 2.116200 
# 
# From -- ./inp_files/18417.got.cif
#   From: 2010.03.12/outbox.cif.g09.slc.cpg/sg14_10_cif.got.tgz:18417.got - 2010.03.31 13:35:05.
