data_PCOD8126115
_publ_section_title
;
Structure prediction by ZEFSAII (Michael W. Deem and Ramdas Pophale) SiO2 
 PCOD8126115
Probable space group: P 21/C
;
_chemical_formula_sum "Si O2"
_cell_formula_units_Z 24
_cell_length_a 18.163822
_cell_length_b 8.431666
_cell_length_c 14.965296
_cell_angle_alpha 90.000000
_cell_angle_beta 29.191955
_cell_angle_gamma 90.000000
_cell_volume 1117.871084
_symmetry_space_group_name_H-M "P 21/C"
_symmetry_group_IT_number 14
_symmetry_cell_setting 'monoclinic'
loop_
_space_group_symop_operation_xyz
x,y,z
-x,1/2+y,1/2-z
-x,-y,-z
x,1/2-y,1/2+z
loop_
_atom_site_type_symbol
_atom_site_label
_atom_site_fract_x
_atom_site_fract_y
_atom_site_fract_z
Si Si1 0.846785 0.493145 0.811578
Si Si2 0.684177 0.174724 0.968758
Si Si3 0.950827 0.784514 0.616944
Si Si4 0.226309 0.978797 0.302222
Si Si5 0.341902 0.158395 0.343208
Si Si6 0.850554 0.934430 0.903954
O O1 0.787460 0.327086 0.835861
O O2 0.905971 0.597831 0.664082
O O3 0.988776 0.478608 0.726661
O O4 0.709150 0.569019 0.012872
O O5 0.678510 0.063720 0.886759
O O6 0.756436 0.092628 0.979928
O O7 0.512991 0.217758 0.174351
O O8 0.870660 0.845189 0.790319
O O9 0.129362 0.823476 0.433842
O O10 0.886269 0.873295 0.598101
O O11 0.332144 0.035741 0.270725
O O12 0.242175 0.316978 0.432310
#
# Coordination Sequence:
#
# PCOD8126115 Si02
#       6
#     4   4   4   4   4   4
#     4  11  22  39  64  92 118 162 215 253 305 368
#     4  11  23  39  61  91 127 162 199 257 321 366
#     4   9  20  37  60  88 116 158 203 261 295 361
#     4  10  21  39  61  88 126 161 205 251 316 364
#     4  11  22  40  62  88 124 163 206 257 309 369
#     4  10  21  38  61  89 116 158 209 253 298 365
#
# _framework density 21.469382
#
# number of rings (size 3 to 8) (size 9 to 14) (size 15 to 20)
#    0.000    1.667    1.667    3.500    4.667    0.667 
#    0.000    0.833    0.000    0.000    0.000    0.000 
#    0.000    0.000    0.000    0.000    0.000    0.000 
#
# Total GULP energy -297518.588837 kJ/mol
# GULP energy per Si atom -12396.607868 kJ/mol
# Density = 2.142052 g / cm^3
# Si number density = 21.469382 Si / 1000 Ang^3
#
#
#
# Elastic Constant Matrix: (Units=GPa)
#
#
# Indices 1 2 3 4 5 6 
#
# 1 54.1985 23.0361 29.7975 0.0000 -4.7844 0.0000
# 2 23.0361 103.3823 36.3607 0.0000 -1.0443 0.0000
# 3 29.7975 36.3607 95.0653 0.0000 -22.1505 0.0000
# 4 0.0000 0.0000 0.0000 38.0404 0.0000 2.0586
# 5 -4.7844 -1.0443 -22.1505 0.0000 30.4677 0.0000
# 6 0.0000 0.0000 0.0000 2.0586 0.0000 24.8131
#
#
#
# Elastic Compliance Matrix: (Units=1/GPa)
#
#
# Indices 1 2 3 4 5 6 
#
# 1 0.023102 -0.002913 -0.006387 0.000000 -0.001116 0.000000
# 2 -0.002913 0.011823 -0.004360 0.000000 -0.003222 0.000000
# 3 -0.006387 -0.004360 0.016759 0.000000 0.011032 0.000000
# 4 0.000000 0.000000 0.000000 0.026406 0.000000 -0.002191
# 5 -0.001116 -0.003222 0.011032 0.000000 0.040556 0.000000
# 6 0.000000 0.000000 0.000000 -0.002191 0.000000 0.040483
#
#
# Mechanical properties :
#
#
# Convention : Reuss Voigt Hill
#
# Bulk Modulus (GPa) = 41.04279 47.89274 44.46777
# Shear Modulus (GPa) = 25.69788 29.56104 27.62946
#
# Velocity S-wave (km/s) = 3.46346 3.71468 3.59126
# Velocity P-wave (km/s) = 5.92895 6.38391 6.16063
#
# Compressibility (1/GPa) = 0.02436481
#
# Stress axis : x y z
#
# Youngs Moduli (GPa) = 43.28713 84.58367 59.66976
#
# Poissons Ratio (x) = 0.24635 0.38111
# Poissons Ratio (y) = 0.12607 0.26014
# Poissons Ratio (z) = 0.27647 0.36876
#
# Static dielectric constant tensor:
#      x y z
#    x 3.589460 0.000000 0.049100 
#    y 0.000000 4.224750 0.000000 
#    z 0.049100 0.000000 3.726760 
# 
# 
# High freq. dielectric constant tensor:
#      x y z
#    x 1.820390 0.000000 -0.000030 
#    y 0.000000 1.844310 0.000000 
#    z -0.000030 0.000000 1.842190 
# 
# From -- ./inp_files/39007.got.cif
#   From: 2010.03.12/outbox.cif.g09.slc.cpg/sg14_20_cif.got.tgz:39007.got - 2010.03.31 13:35:05.
