data_PCOD8126164
_publ_section_title
;
Structure prediction by ZEFSAII (Michael W. Deem and Ramdas Pophale) SiO2 
 PCOD8126164
Probable space group: P 21/C
;
_chemical_formula_sum "Si O2"
_cell_formula_units_Z 28
_cell_length_a 10.327899
_cell_length_b 7.341988
_cell_length_c 18.435527
_cell_angle_alpha 90.000000
_cell_angle_beta 81.431332
_cell_angle_gamma 90.000000
_cell_volume 1382.312896
_symmetry_space_group_name_H-M "P 21/C"
_symmetry_group_IT_number 14
_symmetry_cell_setting 'monoclinic'
loop_
_space_group_symop_operation_xyz
x,y,z
-x,1/2+y,1/2-z
-x,-y,-z
x,1/2-y,1/2+z
loop_
_atom_site_type_symbol
_atom_site_label
_atom_site_fract_x
_atom_site_fract_y
_atom_site_fract_z
Si Si1 0.863798 0.091318 0.490189
Si Si2 0.050053 0.988855 0.665297
Si Si3 0.430966 0.336714 0.327963
Si Si4 0.884474 0.187676 0.118842
Si Si5 0.400814 0.757238 0.820359
Si Si6 0.588695 0.534985 0.061580
Si Si7 0.142400 0.340577 0.300523
O O1 0.858960 0.110208 0.403234
O O2 0.859371 0.284281 0.534113
O O3 0.741770 0.970931 0.527673
O O4 0.000000 0.000000 0.500000
O O5 0.937427 0.846700 0.697312
O O6 0.136154 0.042122 0.727128
O O7 0.996706 0.177804 0.637300
O O8 0.544540 0.277792 0.263986
O O9 0.447414 0.547480 0.346025
O O10 0.292140 0.288398 0.302288
O O11 0.443151 0.232788 0.403272
O O12 0.755501 0.243837 0.174601
O O13 0.915163 0.974317 0.131338
O O14 0.450679 0.609374 0.873385
O O15 0.500000 0.500000 0.000000
#
# Coordination Sequence:
#
# PCOD8126164 Si02
#       7
#     4   4   4   4   4   4   4
#     4   9  20  39  63  84 124 163 202 250 324 364
#     4  11  21  37  59  90 121 160 203 262 300 368
#     4  11  22  39  65  90 125 172 206 254 324 377
#     4   9  20  39  56  86 122 159 203 252 307 372
#     4  10  21  38  64  90 121 167 208 253 318 379
#     4  11  24  42  63  94 129 165 216 268 308 378
#     4  11  22  36  62  89 124 158 211 254 309 370
#
# _framework density 20.255904999999998
#
# number of rings (size 3 to 8) (size 9 to 14) (size 15 to 20)
#    0.000    1.714    2.857    2.571    2.000    1.143 
#    0.000    4.286    0.000    0.000    0.000    0.000 
#    0.000    0.000    0.000    0.000    0.000    0.000 
#
# Total GULP energy -347113.463686 kJ/mol
# GULP energy per Si atom -12396.909417 kJ/mol
# Density = 2.020980 g / cm^3
# Si number density = 20.255905 Si / 1000 Ang^3
#
#
#
# Elastic Constant Matrix: (Units=GPa)
#
#
# Indices 1 2 3 4 5 6 
#
# 1 64.4879 3.5567 25.5132 0.0000 -7.3138 0.0000
# 2 3.5567 61.9302 4.6264 0.0000 -1.4587 0.0000
# 3 25.5132 4.6264 102.0708 0.0000 -8.2123 0.0000
# 4 0.0000 0.0000 0.0000 34.8080 0.0000 5.5749
# 5 -7.3138 -1.4587 -8.2123 0.0000 30.3397 0.0000
# 6 0.0000 0.0000 0.0000 5.5749 0.0000 23.4025
#
#
#
# Elastic Compliance Matrix: (Units=1/GPa)
#
#
# Indices 1 2 3 4 5 6 
#
# 1 0.017513 -0.000627 -0.004101 0.000000 0.003082 0.000000
# 2 -0.000627 0.016235 -0.000540 0.000000 0.000483 0.000000
# 3 -0.004101 -0.000540 0.011005 0.000000 0.001964 0.000000
# 4 0.000000 0.000000 0.000000 0.029869 0.000000 -0.007115
# 5 0.003082 0.000483 0.001964 0.000000 0.034258 0.000000
# 6 0.000000 0.000000 0.000000 -0.007115 0.000000 0.044425
#
#
# Mechanical properties :
#
#
# Convention : Reuss Voigt Hill
#
# Bulk Modulus (GPa) = 29.22576 32.87572 31.05074
# Shear Modulus (GPa) = 28.53111 30.69620 29.61365
#
# Velocity S-wave (km/s) = 3.75711 3.89706 3.82773
# Velocity P-wave (km/s) = 5.76895 6.04275 5.90744
#
# Compressibility (1/GPa) = 0.03421638
#
# Stress axis : x y z
#
# Youngs Moduli (GPa) = 57.09910 61.59549 90.86974
#
# Poissons Ratio (x) = 0.03861 0.37268
# Poissons Ratio (y) = 0.03579 0.04910
# Poissons Ratio (z) = 0.23418 0.03328
#
# Static dielectric constant tensor:
#      x y z
#    x 3.549040 0.000000 -0.203340 
#    y 0.000000 3.864610 0.000000 
#    z -0.203340 0.000000 4.381840 
# 
# 
# High freq. dielectric constant tensor:
#      x y z
#    x 1.777840 0.000000 -0.008560 
#    y 0.000000 1.790240 0.000000 
#    z -0.008560 0.000000 1.795860 
# 
# From -- ./inp_files/54792.got.cif
#   From: 2010.03.12/outbox.cif.g09.slc.cpg/sg14_28_cif.got.tgz:54792.got - 2010.03.31 13:35:05.
