data_PCOD8126000
_publ_section_title
;
Structure prediction by ZEFSAII (Michael W. Deem and Ramdas Pophale) SiO2 
 PCOD8126000
Probable space group: P 21/C
;
_chemical_formula_sum "Si O2"
_cell_formula_units_Z 24
_cell_length_a 7.427141
_cell_length_b 18.817031
_cell_length_c 11.720641
_cell_angle_alpha 90.000000
_cell_angle_beta 50.677804
_cell_angle_gamma 90.000000
_cell_volume 1267.178121
_symmetry_space_group_name_H-M "P 21/C"
_symmetry_group_IT_number 14
_symmetry_cell_setting 'monoclinic'
loop_
_space_group_symop_operation_xyz
x,y,z
-x,1/2+y,1/2-z
-x,-y,-z
x,1/2-y,1/2+z
loop_
_atom_site_type_symbol
_atom_site_label
_atom_site_fract_x
_atom_site_fract_y
_atom_site_fract_z
Si Si1 0.614156 0.180200 0.672870
Si Si2 0.482830 0.164877 0.174182
Si Si3 0.831195 0.335123 0.325817
Si Si4 0.628028 0.080698 0.328500
Si Si5 0.959897 0.319800 0.827129
Si Si6 0.714971 0.919302 0.328501
O O1 0.511698 0.259359 0.724683
O O2 0.700270 0.153422 0.759868
O O3 0.407138 0.128654 0.717931
O O4 0.828555 0.176923 0.500000
O O5 0.548777 0.102810 0.234732
O O6 0.220006 0.153421 0.240132
O O7 0.643101 0.159443 1.000000
O O8 0.961064 0.259359 0.275317
O O9 0.018241 0.397190 0.265268
O O10 0.410216 0.090723 0.500000
O O11 0.843000 0.128654 0.282069
O O12 0.711016 1.000000 0.288983
#
# Coordination Sequence:
#
# PCOD8126000 Si02
#       6
#     4   4   4   4   4   4
#     4  10  21  37  59  86 114 151 196 237 286 347
#     4  11  22  36  60  89 117 151 192 243 292 342
#     4  11  22  36  60  89 117 151 192 243 292 342
#     4  10  22  41  62  85 118 157 196 239 288 347
#     4  10  21  37  59  86 114 151 196 237 286 347
#     4  10  22  41  62  85 118 157 196 239 288 347
#
# _framework density 18.939719
#
# number of rings (size 3 to 8) (size 9 to 14) (size 15 to 20)
#    0.000    1.667    3.333    1.000    0.000    4.667 
#    0.000    6.667    0.000    0.000    0.000    0.000 
#    0.000    0.000    0.000    0.000    0.000    0.000 
#
# Total GULP energy -297768.705608 kJ/mol
# GULP energy per Si atom -12407.029400 kJ/mol
# Density = 1.889661 g / cm^3
# Si number density = 18.939719 Si / 1000 Ang^3
#
#
#
# Elastic Constant Matrix: (Units=GPa)
#
#
# Indices 1 2 3 4 5 6 
#
# 1 86.6125 6.9228 31.3958 0.0000 -0.0001 0.0000
# 2 6.9228 66.1918 14.3276 0.0000 -0.0001 0.0000
# 3 31.3958 14.3276 46.0592 0.0000 -0.0001 0.0000
# 4 0.0000 0.0000 0.0000 25.5224 0.0000 0.0001
# 5 -0.0001 -0.0001 -0.0001 0.0000 38.3659 0.0000
# 6 0.0000 0.0000 0.0000 0.0001 0.0000 26.5296
#
#
#
# Elastic Compliance Matrix: (Units=1/GPa)
#
#
# Indices 1 2 3 4 5 6 
#
# 1 0.015365 0.000708 -0.010694 0.000000 0.000000 0.000000
# 2 0.000708 0.016231 -0.005531 0.000000 0.000000 0.000000
# 3 -0.010694 -0.005531 0.030721 0.000000 0.000000 0.000000
# 4 0.000000 0.000000 0.000000 0.039181 0.000000 0.000000
# 5 0.000000 0.000000 0.000000 0.000000 0.026065 0.000000
# 6 0.000000 0.000000 0.000000 0.000000 0.000000 0.037694
#
#
# Mechanical properties :
#
#
# Convention : Reuss Voigt Hill
#
# Bulk Modulus (GPa) = 31.96670 33.79511 32.88090
# Shear Modulus (GPa) = 24.18732 27.83142 26.00937
#
# Velocity S-wave (km/s) = 3.57749 3.83753 3.70979
# Velocity P-wave (km/s) = 5.82918 6.12517 5.97901
#
# Compressibility (1/GPa) = 0.03128256
#
# Stress axis : x y z
#
# Youngs Moduli (GPa) = 65.08090 61.61093 32.55083
#
# Poissons Ratio (x) = -0.04360 0.34809
# Poissons Ratio (y) = -0.04606 0.18005
# Poissons Ratio (z) = 0.69597 0.34079
#
# Static dielectric constant tensor:
#      x y z
#    x 3.454300 0.000000 0.000000 
#    y 0.000000 3.513570 0.000000 
#    z 0.000000 0.000000 3.349520 
# 
# 
# High freq. dielectric constant tensor:
#      x y z
#    x 1.748250 0.000000 0.000000 
#    y 0.000000 1.736190 0.000000 
#    z 0.000000 0.000000 1.732330 
# 
# From -- ./inp_files/21458.got.cif
#   From: 2010.03.12/outbox.cif.g09.slc.cpg/sg14_11_cif.got.tgz:21458.got - 2010.03.31 13:35:05.
