data_PCOD8126641
_publ_section_title
;
Structure prediction by ZEFSAII (Michael W. Deem and Ramdas Pophale) SiO2 
 PCOD8126641
Probable space group: P 21/C
;
_chemical_formula_sum "Si O2"
_cell_formula_units_Z 28
_cell_length_a 12.499410
_cell_length_b 11.346880
_cell_length_c 19.846651
_cell_angle_alpha 90.000000
_cell_angle_beta 151.463831
_cell_angle_gamma 90.000000
_cell_volume 1344.685319
_symmetry_space_group_name_H-M "P 21/C"
_symmetry_group_IT_number 14
_symmetry_cell_setting 'monoclinic'
loop_
_space_group_symop_operation_xyz
x,y,z
-x,1/2+y,1/2-z
-x,-y,-z
x,1/2-y,1/2+z
loop_
_atom_site_type_symbol
_atom_site_label
_atom_site_fract_x
_atom_site_fract_y
_atom_site_fract_z
Si Si1 0.559829 0.924158 0.834048
Si Si2 0.815181 0.061632 0.181037
Si Si3 0.355630 0.759358 0.314106
Si Si4 0.663805 0.954503 0.533399
Si Si5 0.444683 0.104699 0.870186
Si Si6 0.427398 0.374754 0.817020
Si Si7 0.954875 0.465327 0.398832
O O1 0.447891 0.810307 0.802250
O O2 0.561745 0.898859 0.756291
O O3 0.424943 0.039116 0.786449
O O4 0.805378 0.945653 0.002276
O O5 0.762204 0.177537 0.195666
O O6 0.075219 0.054655 0.303732
O O7 0.749690 0.943299 0.187021
O O8 0.678202 0.072467 0.035937
O O9 0.570722 0.825785 0.463612
O O10 0.175806 0.843840 0.180842
O O11 0.500000 0.000000 0.500000
O O12 0.640949 0.051992 0.461741
O O13 0.426643 0.242005 0.843067
O O14 0.195622 0.431105 0.717880
O O15 0.000000 0.500000 0.500000
#
# Coordination Sequence:
#
# PCOD8126641 Si02
#       7
#     4   4   4   4   4   4   4
#     4  10  22  40  66  91 132 170 210 264 321 390
#     4  10  23  45  65  95 133 167 222 264 326 393
#     4  10  21  41  65  94 126 173 216 262 328 379
#     4  11  24  42  65  98 127 169 217 269 321 382
#     4  10  23  43  66  96 130 175 211 268 327 380
#     4  10  23  40  63 100 128 164 218 264 319 392
#     4   9  20  37  60  93 128 165 211 257 318 378
#
# _framework density 20.822717000000001
#
# number of rings (size 3 to 8) (size 9 to 14) (size 15 to 20)
#    0.000    2.000    0.000    1.714   10.000    1.143 
#   15.429    1.429    0.000    0.000    0.000    0.000 
#    0.000    0.000    0.000    0.000    0.000    0.000 
#
# Total GULP energy -346901.577449 kJ/mol
# GULP energy per Si atom -12389.342052 kJ/mol
# Density = 2.077532 g / cm^3
# Si number density = 20.822717 Si / 1000 Ang^3
#
#
#
# Elastic Constant Matrix: (Units=GPa)
#
#
# Indices 1 2 3 4 5 6 
#
# 1 105.1571 55.0054 47.9570 0.0000 6.2240 0.0000
# 2 55.0054 146.0410 33.9398 0.0000 1.0549 0.0000
# 3 47.9570 33.9398 98.9479 0.0000 14.3514 0.0000
# 4 0.0000 0.0000 0.0000 27.5571 0.0000 -4.6763
# 5 6.2240 1.0549 14.3514 0.0000 30.3252 0.0000
# 6 0.0000 0.0000 0.0000 -4.6763 0.0000 4.2804
#
#
#
# Elastic Compliance Matrix: (Units=1/GPa)
#
#
# Indices 1 2 3 4 5 6 
#
# 1 0.014115 -0.004055 -0.005423 0.000000 -0.000190 0.000000
# 2 -0.004055 0.008635 -0.001153 0.000000 0.001077 0.000000
# 3 -0.005423 -0.001153 0.013918 0.000000 -0.005434 0.000000
# 4 0.000000 0.000000 0.000000 0.044547 0.000000 0.048667
# 5 -0.000190 0.001077 -0.005434 0.000000 0.035549 0.000000
# 6 0.000000 0.000000 0.000000 0.048667 0.000000 0.286794
#
#
# Mechanical properties :
#
#
# Convention : Reuss Voigt Hill
#
# Bulk Modulus (GPa) = 64.90516 69.32781 67.11648
# Shear Modulus (GPa) = 11.62917 26.64880 19.13898
#
# Velocity S-wave (km/s) = 2.36579 3.58130 3.03502
# Velocity P-wave (km/s) = 6.22099 7.10405 6.67713
#
# Compressibility (1/GPa) = 0.01540710
#
# Stress axis : x y z
#
# Youngs Moduli (GPa) = 70.84811 115.81205 71.84897
#
# Poissons Ratio (x) = 0.46957 0.38962
# Poissons Ratio (y) = 0.28726 0.08283
# Poissons Ratio (z) = 0.38419 0.13352
#
# Static dielectric constant tensor:
#      x y z
#    x 3.803870 0.000000 -0.009660 
#    y 0.000000 3.582510 0.000000 
#    z -0.009660 0.000000 4.293510 
# 
# 
# High freq. dielectric constant tensor:
#      x y z
#    x 1.822250 0.000000 -0.003340 
#    y 0.000000 1.825210 0.000000 
#    z -0.003340 0.000000 1.814340 
# 
# From -- ./inp_files/67358.got.cif
#   From: 2010.03.12/outbox.cif.g09.slc.cpg/sg14_34_cif.got.tgz:67358.got - 2010.03.31 13:35:05.
