data_PCOD8126658
_publ_section_title
;
Structure prediction by ZEFSAII (Michael W. Deem and Ramdas Pophale) SiO2 
 PCOD8126658
Probable space group: P 21/C
;
_chemical_formula_sum "Si O2"
_cell_formula_units_Z 32
_cell_length_a 6.556163
_cell_length_b 15.762460
_cell_length_c 14.581893
_cell_angle_alpha 90.000000
_cell_angle_beta 111.265445
_cell_angle_gamma 90.000000
_cell_volume 1404.305775
_symmetry_space_group_name_H-M "P 21/C"
_symmetry_group_IT_number 14
_symmetry_cell_setting 'monoclinic'
loop_
_space_group_symop_operation_xyz
x,y,z
-x,1/2+y,1/2-z
-x,-y,-z
x,1/2-y,1/2+z
loop_
_atom_site_type_symbol
_atom_site_label
_atom_site_fract_x
_atom_site_fract_y
_atom_site_fract_z
Si Si1 0.678855 0.926296 0.842959
Si Si2 0.963535 0.312887 0.019444
Si Si3 0.006648 0.198175 0.182451
Si Si4 0.381824 0.176270 0.803776
Si Si5 0.048615 0.054708 0.682193
Si Si6 0.806185 0.106110 0.817018
Si Si7 0.226768 0.625070 0.190249
Si Si8 0.756966 0.680532 0.525428
O O1 0.907052 0.893202 0.835951
O O2 0.474894 0.903330 0.744823
O O3 0.710387 0.026530 0.858427
O O4 0.640790 0.883367 0.935617
O O5 0.870308 0.244900 0.078934
O O6 0.019362 0.401073 0.078710
O O7 0.785838 0.331164 0.911427
O O8 0.184052 0.271198 0.011217
O O9 0.223589 0.253824 0.234469
O O10 0.853846 0.192456 0.246354
O O11 0.274538 0.084039 0.766902
O O12 0.619346 0.179305 0.793877
O O13 0.408227 0.193246 0.916859
O O14 0.848813 0.080626 0.717860
O O15 0.059622 0.954271 0.667752
O O16 0.020702 0.139368 0.900872
#
# Coordination Sequence:
#
# PCOD8126658 Si02
#       8
#     4   4   4   4   4   4   4   4
#     4  11  24  40  64  99 128 178 229 278 337 399
#     4  10  23  43  68  97 130 182 222 277 347 397
#     4  10  23  42  65  96 139 169 223 284 334 404
#     4  10  21  41  66  96 131 179 224 275 342 400
#     4  10  22  42  67  96 135 172 223 285 334 406
#     4  11  22  41  67  95 136 175 221 276 340 399
#     4  12  22  44  69  94 135 179 228 283 341 398
#     4  10  23  41  64  98 135 175 227 282 335 397
#
# _framework density 22.78706
#
# number of rings (size 3 to 8) (size 9 to 14) (size 15 to 20)
#    0.000    1.500    3.750    0.750    1.750    2.500 
#    0.000    5.625    0.000    0.000    0.000    0.000 
#    0.000    0.000    0.000    0.000    0.000    0.000 
#
# Total GULP energy -396799.792554 kJ/mol
# GULP energy per Si atom -12399.993517 kJ/mol
# Density = 2.273520 g / cm^3
# Si number density = 22.787060 Si / 1000 Ang^3
#
#
#
# Elastic Constant Matrix: (Units=GPa)
#
#
# Indices 1 2 3 4 5 6 
#
# 1 88.6675 29.4318 37.0129 0.0000 -10.9451 0.0000
# 2 29.4318 74.8661 33.1050 0.0000 -7.4404 0.0000
# 3 37.0129 33.1050 126.8763 0.0000 -25.7240 0.0000
# 4 0.0000 0.0000 0.0000 36.4425 0.0000 -1.1491
# 5 -10.9451 -7.4404 -25.7240 0.0000 31.0886 0.0000
# 6 0.0000 0.0000 0.0000 -1.1491 0.0000 30.5431
#
#
#
# Elastic Compliance Matrix: (Units=1/GPa)
#
#
# Indices 1 2 3 4 5 6 
#
# 1 0.013973 -0.004153 -0.002640 0.000000 0.001741 0.000000
# 2 -0.004153 0.016338 -0.003070 0.000000 -0.000092 0.000000
# 3 -0.002640 -0.003070 0.010953 0.000000 0.007399 0.000000
# 4 0.000000 0.000000 0.000000 0.027473 0.000000 0.001034
# 5 0.001741 -0.000092 0.007399 0.000000 0.038879 0.000000
# 6 0.000000 0.000000 0.000000 0.001034 0.000000 0.032780
#
#
# Mechanical properties :
#
#
# Convention : Reuss Voigt Hill
#
# Bulk Modulus (GPa) = 46.42786 54.38992 50.40889
# Shear Modulus (GPa) = 29.88608 32.33886 31.11247
#
# Velocity S-wave (km/s) = 3.62544 3.77128 3.69908
# Velocity P-wave (km/s) = 6.15987 6.54859 6.35720
#
# Compressibility (1/GPa) = 0.02153879
#
# Stress axis : x y z
#
# Youngs Moduli (GPa) = 71.56412 61.20591 91.29963
#
# Poissons Ratio (x) = 0.25419 0.24101
# Poissons Ratio (y) = 0.29721 0.28031
# Poissons Ratio (z) = 0.18891 0.18792
#
# Static dielectric constant tensor:
#      x y z
#    x 3.834680 0.000000 -0.214110 
#    y 0.000000 4.239480 0.000000 
#    z -0.214110 0.000000 4.197160 
# 
# 
# High freq. dielectric constant tensor:
#      x y z
#    x 1.878670 0.000000 -0.013830 
#    y 0.000000 1.909280 0.000000 
#    z -0.013830 0.000000 1.899360 
# 
# From -- ./inp_files/37879.got.cif
#   From: 2010.03.12/outbox.cif.g09.slc.cpg/sg14_19_cif.got.tgz:37879.got - 2010.03.31 13:35:05.
