data_PCOD8126954
_publ_section_title
;
Structure prediction by ZEFSAII (Michael W. Deem and Ramdas Pophale) SiO2 
 PCOD8126954
Probable space group: P 21/C
;
_chemical_formula_sum "Si O2"
_cell_formula_units_Z 32
_cell_length_a 5.402437
_cell_length_b 30.831959
_cell_length_c 9.263041
_cell_angle_alpha 90.000000
_cell_angle_beta 76.091876
_cell_angle_gamma 90.000000
_cell_volume 1497.688782
_symmetry_space_group_name_H-M "P 21/C"
_symmetry_group_IT_number 14
_symmetry_cell_setting 'monoclinic'
loop_
_space_group_symop_operation_xyz
x,y,z
-x,1/2+y,1/2-z
-x,-y,-z
x,1/2-y,1/2+z
loop_
_atom_site_type_symbol
_atom_site_label
_atom_site_fract_x
_atom_site_fract_y
_atom_site_fract_z
Si Si1 0.002642 0.317589 0.314807
Si Si2 0.080326 0.900710 0.335886
Si Si3 0.577842 0.550296 0.830674
Si Si4 0.911149 0.821889 0.870620
Si Si5 0.917788 0.904835 0.688762
Si Si6 0.386482 0.233741 0.590766
Si Si7 0.419946 0.953631 0.681436
Si Si8 0.694059 0.261771 0.787656
O O1 0.091025 0.333871 0.459807
O O2 0.232536 0.306891 0.173366
O O3 0.853018 0.355809 0.254588
O O4 0.850161 0.272749 0.363021
O O5 0.343055 0.927237 0.279426
O O6 0.843727 0.923385 0.285503
O O7 0.003994 0.893341 0.513762
O O8 0.625004 0.502687 0.756291
O O9 0.486369 0.545348 0.005519
O O10 0.825237 0.862677 0.789050
O O11 0.736699 0.780453 0.865339
O O12 0.184898 0.807852 0.768976
O O13 0.664773 0.934439 0.730343
O O14 0.155685 0.927051 0.739942
O O15 0.644915 0.235255 0.647587
O O16 0.441141 0.226064 0.414309
#
# Coordination Sequence:
#
# PCOD8126954 Si02
#       8
#     4   4   4   4   4   4   4   4
#     4  11  25  40  58  90 121 161 207 255 309 366
#     4  10  22  35  61  92 120 158 203 253 304 363
#     4   9  18  36  60  90 122 155 199 252 306 362
#     4  11  25  40  58  90 121 161 207 255 309 366
#     4  10  22  35  61  92 120 158 203 253 304 363
#     4  11  24  41  63  84 119 164 207 255 305 363
#     4   9  18  36  60  90 122 155 199 252 306 362
#     4  11  24  41  63  84 119 164 207 255 305 363
#
# _framework density 21.366254999999999
#
# number of rings (size 3 to 8) (size 9 to 14) (size 15 to 20)
#    0.000    1.750    2.500    0.750    7.000    4.000 
#    0.000    0.000    0.000    4.500    0.000    0.000 
#    0.000    0.000    0.000    0.000    0.000    0.000 
#
# Total GULP energy -396592.083191 kJ/mol
# GULP energy per Si atom -12393.502600 kJ/mol
# Density = 2.131762 g / cm^3
# Si number density = 21.366255 Si / 1000 Ang^3
#
#
#
# Elastic Constant Matrix: (Units=GPa)
#
#
# Indices 1 2 3 4 5 6 
#
# 1 118.7282 38.0627 19.9420 0.0000 -2.1067 0.0000
# 2 38.0627 117.6593 40.4801 0.0000 2.1172 0.0000
# 3 19.9420 40.4801 73.6443 0.0000 -4.4166 0.0000
# 4 0.0000 0.0000 0.0000 21.8910 0.0000 9.7247
# 5 -2.1067 2.1172 -4.4166 0.0000 24.8165 0.0000
# 6 0.0000 0.0000 0.0000 9.7247 0.0000 26.3269
#
#
#
# Elastic Compliance Matrix: (Units=1/GPa)
#
#
# Indices 1 2 3 4 5 6 
#
# 1 0.009485 -0.002735 -0.001014 0.000000 0.000858 0.000000
# 2 -0.002735 0.011363 -0.005638 0.000000 -0.002205 0.000000
# 3 -0.001014 -0.005638 0.017159 0.000000 0.003449 0.000000
# 4 0.000000 0.000000 0.000000 0.054648 0.000000 -0.020186
# 5 0.000858 -0.002205 0.003449 0.000000 0.041170 0.000000
# 6 0.000000 0.000000 0.000000 -0.020186 0.000000 0.045440
#
#
# Mechanical properties :
#
#
# Convention : Reuss Voigt Hill
#
# Bulk Modulus (GPa) = 51.98994 56.33350 54.16172
# Shear Modulus (GPa) = 24.45582 28.71000 26.58291
#
# Velocity S-wave (km/s) = 3.38686 3.66964 3.53108
# Velocity P-wave (km/s) = 6.29921 6.66167 6.48297
#
# Compressibility (1/GPa) = 0.01923449
#
# Stress axis : x y z
#
# Youngs Moduli (GPa) = 105.43076 88.00347 58.27883
#
# Poissons Ratio (x) = 0.24070 0.05907
# Poissons Ratio (y) = 0.28836 0.32855
# Poissons Ratio (z) = 0.10686 0.49613
#
# Static dielectric constant tensor:
#      x y z
#    x 4.014320 0.000000 0.007470 
#    y 0.000000 3.898250 0.000000 
#    z 0.007470 0.000000 3.532900 
# 
# 
# High freq. dielectric constant tensor:
#      x y z
#    x 1.845150 0.000000 0.002700 
#    y 0.000000 1.836220 0.000000 
#    z 0.002700 0.000000 1.812260 
# 
# From -- ./inp_files/6950.got.cif
#   From: 2010.03.12/outbox.cif.g09.slc.cpg/sg14_4_cif.got.tgz:6950.got - 2010.03.31 13:35:05.
