data_PCOD8126344
_publ_section_title
;
Structure prediction by ZEFSAII (Michael W. Deem and Ramdas Pophale) SiO2 
 PCOD8126344
Probable space group: P 21/C
;
_chemical_formula_sum "Si O2"
_cell_formula_units_Z 24
_cell_length_a 13.464314
_cell_length_b 4.845873
_cell_length_c 29.119151
_cell_angle_alpha 90.000000
_cell_angle_beta 27.708850
_cell_angle_gamma 90.000000
_cell_volume 883.421815
_symmetry_space_group_name_H-M "P 21/C"
_symmetry_group_IT_number 14
_symmetry_cell_setting 'monoclinic'
loop_
_space_group_symop_operation_xyz
x,y,z
-x,1/2+y,1/2-z
-x,-y,-z
x,1/2-y,1/2+z
loop_
_atom_site_type_symbol
_atom_site_label
_atom_site_fract_x
_atom_site_fract_y
_atom_site_fract_z
Si Si1 0.200438 0.577923 0.260601
Si Si2 0.826435 0.775664 0.093529
Si Si3 0.741672 0.160854 0.553957
Si Si4 0.095775 0.922050 0.609929
Si Si5 0.415862 0.498872 0.731721
Si Si6 0.139430 0.702754 0.189265
O O1 0.121674 0.268249 0.305724
O O2 0.284619 0.602300 0.173028
O O3 0.986344 0.765293 0.353041
O O4 0.378738 0.706447 0.221735
O O5 0.786948 0.573660 0.153886
O O6 0.072828 0.883739 0.002789
O O7 0.630170 0.992556 0.176505
O O8 0.808433 0.615522 0.052835
O O9 0.496625 0.263247 0.662054
O O10 0.750418 0.116940 0.496153
O O11 0.234005 0.844079 0.599122
O O12 0.919129 0.523478 0.280943
#
# Coordination Sequence:
#
# PCOD8126344 Si02
#       6
#     4   4   4   4   4   4
#     4  10  22  38  66  94 126 166 212 261 314 378
#     4  11  25  42  60  90 128 171 216 261 321 374
#     4  11  25  41  62  92 126 172 212 266 315 381
#     4  10  21  39  66  93 127 166 213 259 316 376
#     4  12  24  39  63  89 129 168 217 263 318 375
#     4   8  16  35  60  92 122 162 206 253 315 377
#
# _framework density 27.167088
#
# number of rings (size 3 to 8) (size 9 to 14) (size 15 to 20)
#    0.000    1.667    3.333    0.500    7.000    0.000 
#    0.000    0.833    0.000    1.000    0.000    0.000 
#    0.000    0.000    0.000    0.000    0.000    0.000 
#
# Total GULP energy -297423.632901 kJ/mol
# GULP energy per Si atom -12392.651371 kJ/mol
# Density = 2.710525 g / cm^3
# Si number density = 27.167088 Si / 1000 Ang^3
#
#
#
# Elastic Constant Matrix: (Units=GPa)
#
#
# Indices 1 2 3 4 5 6 
#
# 1 106.7518 -6.0944 47.2228 0.0000 44.1026 0.0000
# 2 -6.0944 65.4780 3.7911 0.0000 10.6987 0.0000
# 3 47.2228 3.7911 109.7130 0.0000 25.1712 0.0000
# 4 0.0000 0.0000 0.0000 12.4299 0.0000 3.2562
# 5 44.1026 10.6987 25.1712 0.0000 62.8692 0.0000
# 6 0.0000 0.0000 0.0000 3.2562 0.0000 33.5206
#
#
#
# Elastic Compliance Matrix: (Units=1/GPa)
#
#
# Indices 1 2 3 4 5 6 
#
# 1 0.015577 0.003292 -0.004606 0.000000 -0.009643 0.000000
# 2 0.003292 0.016406 -0.000896 0.000000 -0.004743 0.000000
# 3 -0.004606 -0.000896 0.011399 0.000000 -0.001180 0.000000
# 4 0.000000 0.000000 0.000000 0.082552 0.000000 -0.008019
# 5 -0.009643 -0.004743 -0.001180 0.000000 0.023950 0.000000
# 6 0.000000 0.000000 0.000000 -0.008019 0.000000 0.030611
#
#
# Mechanical properties :
#
#
# Convention : Reuss Voigt Hill
#
# Bulk Modulus (GPa) = 25.66595 41.30909 33.48752
# Shear Modulus (GPa) = 25.26507 37.56547 31.41527
#
# Velocity S-wave (km/s) = 3.05288 3.72258 3.40424
# Velocity P-wave (km/s) = 4.67918 5.80649 5.27305
#
# Compressibility (1/GPa) = 0.03896213
#
# Stress axis : x y z
#
# Youngs Moduli (GPa) = 64.19748 60.95513 87.72734
#
# Poissons Ratio (x) = -0.20067 0.40407
# Poissons Ratio (y) = -0.21135 0.07859
# Poissons Ratio (z) = 0.29569 0.05461
#
# Static dielectric constant tensor:
#      x y z
#    x 5.312030 0.000000 0.265770 
#    y 0.000000 4.964500 0.000000 
#    z 0.265770 0.000000 4.809570 
# 
# 
# High freq. dielectric constant tensor:
#      x y z
#    x 2.109370 0.000000 0.025810 
#    y 0.000000 2.102930 0.000000 
#    z 0.025810 0.000000 2.070290 
# 
# From -- ./inp_files/45667.got.cif
#   From: 2010.03.12/outbox.cif.g09.slc.cpg/sg14_23_cif.got.tgz:45667.got - 2010.03.31 13:35:05.
