data_PCOD8126611
_publ_section_title
;
Structure prediction by ZEFSAII (Michael W. Deem and Ramdas Pophale) SiO2 
 PCOD8126611
Probable space group: P 21/C
;
_chemical_formula_sum "Si O2"
_cell_formula_units_Z 28
_cell_length_a 9.335389
_cell_length_b 10.895790
_cell_length_c 15.957063
_cell_angle_alpha 90.000000
_cell_angle_beta 59.196759
_cell_angle_gamma 90.000000
_cell_volume 1394.127025
_symmetry_space_group_name_H-M "P 21/C"
_symmetry_group_IT_number 14
_symmetry_cell_setting 'monoclinic'
loop_
_space_group_symop_operation_xyz
x,y,z
-x,1/2+y,1/2-z
-x,-y,-z
x,1/2-y,1/2+z
loop_
_atom_site_type_symbol
_atom_site_label
_atom_site_fract_x
_atom_site_fract_y
_atom_site_fract_z
Si Si1 0.818159 0.813859 0.899008
Si Si2 0.827548 0.180889 0.121932
Si Si3 0.697082 0.919253 0.771321
Si Si4 0.485785 0.237348 0.306634
Si Si5 0.380345 0.411958 0.983731
Si Si6 0.830925 0.443789 0.080839
Si Si7 0.362100 0.473585 0.411395
O O1 0.819325 0.854366 0.801359
O O2 0.005779 0.834318 0.874175
O O3 0.757388 0.670179 0.923905
O O4 0.701651 0.906051 0.986804
O O5 0.674937 0.216295 0.226501
O O6 0.849113 0.299077 0.056200
O O7 0.785980 0.059721 0.080280
O O8 0.646289 0.825640 0.714372
O O9 0.791084 0.028824 0.692060
O O10 0.533316 0.952360 0.875983
O O11 0.483972 0.189571 0.402407
O O12 0.422174 0.377364 0.322272
O O13 0.309718 0.505029 0.936971
O O14 0.500000 0.500000 0.000000
O O15 0.000000 0.500000 0.000000
#
# Coordination Sequence:
#
# PCOD8126611 Si02
#       7
#     4   4   4   4   4   4   4
#     4  11  23  40  60  95 127 155 212 262 311 376
#     4  11  22  40  64  89 126 166 204 259 319 374
#     4  10  22  39  64  87 123 164 200 258 310 372
#     4   9  21  41  62  88 123 165 210 251 308 378
#     4  10  23  39  65  92 120 162 212 256 302 380
#     4  11  22  43  62  89 128 162 203 260 322 360
#     4  10  21  41  64  87 121 167 211 252 312 377
#
# _framework density 20.084254000000001
#
# number of rings (size 3 to 8) (size 9 to 14) (size 15 to 20)
#    0.000    1.714    2.857    0.857    4.000    1.143 
#    2.571    0.000    0.000    0.000    0.000    0.000 
#    0.000    0.000    0.000    0.000    0.000    0.000 
#
# Total GULP energy -346897.790511 kJ/mol
# GULP energy per Si atom -12389.206804 kJ/mol
# Density = 2.003854 g / cm^3
# Si number density = 20.084254 Si / 1000 Ang^3
#
#
#
# Elastic Constant Matrix: (Units=GPa)
#
#
# Indices 1 2 3 4 5 6 
#
# 1 112.3924 44.4921 41.6293 0.0000 7.7087 0.0000
# 2 44.4921 109.1515 22.6438 0.0000 16.0461 0.0000
# 3 41.6293 22.6438 70.6801 0.0000 8.4652 0.0000
# 4 0.0000 0.0000 0.0000 27.3687 0.0000 -4.8020
# 5 7.7087 16.0461 8.4652 0.0000 30.2692 0.0000
# 6 0.0000 0.0000 0.0000 -4.8020 0.0000 34.4786
#
#
#
# Elastic Compliance Matrix: (Units=1/GPa)
#
#
# Indices 1 2 3 4 5 6 
#
# 1 0.012774 -0.003988 -0.006322 0.000000 0.000629 0.000000
# 2 -0.003988 0.011681 -0.000800 0.000000 -0.004953 0.000000
# 3 -0.006322 -0.000800 0.018504 0.000000 -0.003141 0.000000
# 4 0.000000 0.000000 0.000000 0.037453 0.000000 0.005216
# 5 0.000629 -0.004953 -0.003141 0.000000 0.036381 0.000000
# 6 0.000000 0.000000 0.000000 0.005216 0.000000 0.029730
#
#
# Mechanical properties :
#
#
# Convention : Reuss Voigt Hill
#
# Bulk Modulus (GPa) = 48.21583 56.63939 52.42761
# Shear Modulus (GPa) = 28.46453 30.65387 29.55920
#
# Velocity S-wave (km/s) = 3.76873 3.91098 3.84051
# Velocity P-wave (km/s) = 6.55718 6.97542 6.76953
#
# Compressibility (1/GPa) = 0.02074007
#
# Stress axis : x y z
#
# Youngs Moduli (GPa) = 78.28105 85.60667 54.04213
#
# Poissons Ratio (x) = 0.34141 0.34163
# Poissons Ratio (y) = 0.31219 0.04325
# Poissons Ratio (z) = 0.49486 0.06851
#
# Static dielectric constant tensor:
#      x y z
#    x 3.372020 0.000000 -0.211140 
#    y 0.000000 3.951960 0.000000 
#    z -0.211140 0.000000 3.608080 
# 
# 
# High freq. dielectric constant tensor:
#      x y z
#    x 1.776480 0.000000 -0.011010 
#    y 0.000000 1.798890 0.000000 
#    z -0.011010 0.000000 1.776060 
# 
# From -- ./inp_files/40225.got.cif
#   From: 2010.03.12/outbox.cif.g09.slc.cpg/sg14_21_cif.got.tgz:40225.got - 2010.03.31 13:35:05.
