data_PCOD8126447
_publ_section_title
;
Structure prediction by ZEFSAII (Michael W. Deem and Ramdas Pophale) SiO2 
 PCOD8126447
Probable space group: P 21/C
;
_chemical_formula_sum "Si O2"
_cell_formula_units_Z 24
_cell_length_a 14.416956
_cell_length_b 5.365646
_cell_length_c 14.896699
_cell_angle_alpha 90.000000
_cell_angle_beta 63.550459
_cell_angle_gamma 90.000000
_cell_volume 1031.732947
_symmetry_space_group_name_H-M "P 21/C"
_symmetry_group_IT_number 14
_symmetry_cell_setting 'monoclinic'
loop_
_space_group_symop_operation_xyz
x,y,z
-x,1/2+y,1/2-z
-x,-y,-z
x,1/2-y,1/2+z
loop_
_atom_site_type_symbol
_atom_site_label
_atom_site_fract_x
_atom_site_fract_y
_atom_site_fract_z
Si Si1 0.936871 0.250642 0.547758
Si Si2 0.356657 0.110831 0.862765
Si Si3 0.604779 0.232706 0.503089
Si Si4 0.010524 0.336726 0.193213
Si Si5 0.450631 0.611563 0.160389
Si Si6 0.791342 0.968942 0.498640
O O1 0.000000 0.500000 0.500000
O O2 0.919239 0.242308 0.662861
O O3 0.831968 0.220328 0.533809
O O4 0.000000 0.000000 0.500000
O O5 0.461644 0.271703 0.814078
O O6 0.252994 0.279221 0.906630
O O7 0.358984 0.970656 0.957055
O O8 0.357088 0.950281 0.770365
O O9 0.590241 0.292117 0.402819
O O10 0.496665 0.132278 0.590717
O O11 0.697275 0.031720 0.472476
O O12 0.988281 0.620241 0.233194
O O13 0.120791 0.330536 0.095971
#
# Coordination Sequence:
#
# PCOD8126447 Si02
#       6
#     4   4   4   4   4   4
#     4  10  22  43  71  94 136 180 225 286 367 430
#     4  11  21  40  66  94 142 177 240 284 352 436
#     4  10  22  40  65  92 140 168 237 286 339 432
#     4  11  24  44  69  97 136 178 230 294 365 434
#     4  10  21  40  63  97 129 194 218 284 363 407
#     4  10  25  41  65 100 128 183 231 297 352 432
#
# _framework density 23.261834
#
# number of rings (size 3 to 8) (size 9 to 14) (size 15 to 20)
#    0.000    1.667    1.667    2.500    7.000    1.333 
#    3.000    0.000    0.000    0.000    0.000    0.000 
#    0.000    0.000    0.000    0.000    0.000    0.000 
#
# Total GULP energy -297412.736721 kJ/mol
# GULP energy per Si atom -12392.197363 kJ/mol
# Density = 2.320889 g / cm^3
# Si number density = 23.261834 Si / 1000 Ang^3
#
#
#
# Elastic Constant Matrix: (Units=GPa)
#
#
# Indices 1 2 3 4 5 6 
#
# 1 86.1819 15.5702 47.9011 0.0000 2.5313 0.0000
# 2 15.5702 111.3450 40.9742 0.0000 -3.5826 0.0000
# 3 47.9011 40.9742 137.4728 0.0000 3.7453 0.0000
# 4 0.0000 0.0000 0.0000 43.1060 0.0000 1.2072
# 5 2.5313 -3.5826 3.7453 0.0000 35.0334 0.0000
# 6 0.0000 0.0000 0.0000 1.2072 0.0000 36.3140
#
#
#
# Elastic Compliance Matrix: (Units=1/GPa)
#
#
# Indices 1 2 3 4 5 6 
#
# 1 0.014404 -0.000213 -0.004941 0.000000 -0.000534 0.000000
# 2 -0.000213 0.010155 -0.002990 0.000000 0.001374 0.000000
# 3 -0.004941 -0.002990 0.009914 0.000000 -0.001009 0.000000
# 4 0.000000 0.000000 0.000000 0.023220 0.000000 -0.000772
# 5 -0.000534 0.001374 -0.001009 0.000000 0.028831 0.000000
# 6 0.000000 0.000000 0.000000 -0.000772 0.000000 0.027563
#
#
# Mechanical properties :
#
#
# Convention : Reuss Voigt Hill
#
# Bulk Modulus (GPa) = 54.98847 60.43229 57.71038
# Shear Modulus (GPa) = 36.64676 38.26097 37.45387
#
# Velocity S-wave (km/s) = 3.97344 4.06001 4.01696
# Velocity P-wave (km/s) = 6.68889 6.92920 6.81010
#
# Compressibility (1/GPa) = 0.01818563
#
# Stress axis : x y z
#
# Youngs Moduli (GPa) = 69.42660 98.46980 100.86377
#
# Poissons Ratio (x) = 0.02100 0.49834
# Poissons Ratio (y) = 0.01480 0.30158
# Poissons Ratio (z) = 0.34302 0.29442
#
# Static dielectric constant tensor:
#      x y z
#    x 4.956900 0.000000 0.513110 
#    y 0.000000 60.319760 0.000000 
#    z 0.513110 0.000000 4.398500 
# 
# 
# High freq. dielectric constant tensor:
#      x y z
#    x 1.913740 0.000000 0.012220 
#    y 0.000000 1.919180 0.000000 
#    z 0.012220 0.000000 1.913440 
# 
# From -- ./inp_files/45791.got.cif
#   From: 2010.03.12/outbox.cif.g09.slc.cpg/sg14_23_cif.got.tgz:45791.got - 2010.03.31 13:35:05.
