data_PCOD8126200
_publ_section_title
;
Structure prediction by ZEFSAII (Michael W. Deem and Ramdas Pophale) SiO2 
 PCOD8126200
Probable space group: P 21/C
;
_chemical_formula_sum "Si O2"
_cell_formula_units_Z 28
_cell_length_a 5.610787
_cell_length_b 18.231797
_cell_length_c 13.432341
_cell_angle_alpha 90.000000
_cell_angle_beta 99.118548
_cell_angle_gamma 90.000000
_cell_volume 1356.693113
_symmetry_space_group_name_H-M "P 21/C"
_symmetry_group_IT_number 14
_symmetry_cell_setting 'monoclinic'
loop_
_space_group_symop_operation_xyz
x,y,z
-x,1/2+y,1/2-z
-x,-y,-z
x,1/2-y,1/2+z
loop_
_atom_site_type_symbol
_atom_site_label
_atom_site_fract_x
_atom_site_fract_y
_atom_site_fract_z
Si Si1 0.306765 0.956518 0.802926
Si Si2 0.189905 0.958932 0.190371
Si Si3 0.646194 0.717929 0.610022
Si Si4 0.977825 0.736478 0.977727
Si Si5 0.755334 0.381328 0.498120
Si Si6 0.294548 0.811821 0.682912
Si Si7 0.068220 0.683435 0.775058
O O1 0.286320 0.894795 0.717051
O O2 0.548254 0.001328 0.789995
O O3 0.355206 0.922867 0.914942
O O4 0.045279 0.996555 0.785294
O O5 0.123196 0.937834 0.071644
O O6 0.226987 0.889236 0.266763
O O7 0.712733 0.752707 0.506870
O O8 0.448675 0.655930 0.583090
O O9 0.565250 0.785902 0.674224
O O10 0.864355 0.676570 0.677324
O O11 0.063632 0.818231 0.953183
O O12 0.141903 0.697984 0.071923
O O13 0.965413 0.684695 0.880407
O O14 0.211529 0.758694 0.766814
#
# Coordination Sequence:
#
# PCOD8126200 Si02
#       7
#     4   4   4   4   4   4   4
#     4  12  28  42  70  99 146 180 216 277 353 403
#     4  12  26  44  64 103 143 179 216 279 346 414
#     4  10  21  38  68  98 129 168 232 287 322 396
#     4  10  22  39  70  97 127 170 239 282 328 385
#     4  11  22  41  64 104 134 174 217 283 349 402
#     4  10  23  42  65  96 132 173 239 270 326 409
#     4  11  22  42  69  92 134 178 230 276 334 396
#
# _framework density 20.638417
#
# number of rings (size 3 to 8) (size 9 to 14) (size 15 to 20)
#    0.000    1.143    5.714    1.714    8.000    0.000 
#    0.000    1.429    0.000    0.000    0.000    0.000 
#    0.000    0.000    0.000    0.000    0.000    0.000 
#
# Total GULP energy -347018.850881 kJ/mol
# GULP energy per Si atom -12393.530389 kJ/mol
# Density = 2.059144 g / cm^3
# Si number density = 20.638417 Si / 1000 Ang^3
#
#
#
# Elastic Constant Matrix: (Units=GPa)
#
#
# Indices 1 2 3 4 5 6 
#
# 1 101.4857 37.5889 22.2194 0.0000 -26.3685 0.0000
# 2 37.5889 93.2779 46.8453 0.0000 -8.8804 0.0000
# 3 22.2194 46.8453 108.9429 0.0000 -22.2514 0.0000
# 4 0.0000 0.0000 0.0000 41.7127 0.0000 -11.7718
# 5 -26.3685 -8.8804 -22.2514 0.0000 21.6834 0.0000
# 6 0.0000 0.0000 0.0000 -11.7718 0.0000 27.2066
#
#
#
# Elastic Compliance Matrix: (Units=1/GPa)
#
#
# Indices 1 2 3 4 5 6 
#
# 1 0.017327 -0.006852 0.003976 0.000000 0.022345 0.000000
# 2 -0.006852 0.016388 -0.007566 0.000000 -0.009385 0.000000
# 3 0.003976 -0.007566 0.015152 0.000000 0.017286 0.000000
# 4 0.000000 0.000000 0.000000 0.027308 0.000000 0.011816
# 5 0.022345 -0.009385 0.017286 0.000000 0.087186 0.000000
# 6 0.000000 0.000000 0.000000 0.011816 0.000000 0.041868
#
#
# Mechanical properties :
#
#
# Convention : Reuss Voigt Hill
#
# Bulk Modulus (GPa) = 35.73574 57.44595 46.59085
# Shear Modulus (GPa) = 21.23679 31.25741 26.24710
#
# Velocity S-wave (km/s) = 3.21127 3.89591 3.57004
# Velocity P-wave (km/s) = 5.57696 6.93775 6.29424
#
# Compressibility (1/GPa) = 0.02798319
#
# Stress axis : x y z
#
# Youngs Moduli (GPa) = 57.71498 61.01947 65.99678
#
# Poissons Ratio (x) = 0.41810 -0.26242
# Poissons Ratio (y) = 0.39546 0.49935
# Poissons Ratio (z) = -0.22949 0.46169
#
# Static dielectric constant tensor:
#      x y z
#    x 3.859880 0.000000 -0.407080 
#    y 0.000000 3.754330 0.000000 
#    z -0.407080 0.000000 3.678690 
# 
# 
# High freq. dielectric constant tensor:
#      x y z
#    x 1.808490 0.000000 -0.024400 
#    y 0.000000 1.800550 0.000000 
#    z -0.024400 0.000000 1.804390 
# 
# From -- ./inp_files/37524.got.cif
#   From: 2010.03.12/outbox.cif.g09.slc.cpg/sg14_19_cif.got.tgz:37524.got - 2010.03.31 13:35:05.
