data_PCOD8126342
_publ_section_title
;
Structure prediction by ZEFSAII (Michael W. Deem and Ramdas Pophale) SiO2 
 PCOD8126342
Probable space group: P 21/C
;
_chemical_formula_sum "Si O2"
_cell_formula_units_Z 32
_cell_length_a 18.074665
_cell_length_b 5.279705
_cell_length_c 15.212829
_cell_angle_alpha 90.000000
_cell_angle_beta 78.442188
_cell_angle_gamma 90.000000
_cell_volume 1422.306582
_symmetry_space_group_name_H-M "P 21/C"
_symmetry_group_IT_number 14
_symmetry_cell_setting 'monoclinic'
loop_
_space_group_symop_operation_xyz
x,y,z
-x,1/2+y,1/2-z
-x,-y,-z
x,1/2-y,1/2+z
loop_
_atom_site_type_symbol
_atom_site_label
_atom_site_fract_x
_atom_site_fract_y
_atom_site_fract_z
Si Si1 0.346439 0.189081 0.391207
Si Si2 0.264622 0.206773 0.581824
Si Si3 0.811061 0.316043 0.460079
Si Si4 0.974965 0.333632 0.367972
Si Si5 0.341331 0.004274 0.724537
Si Si6 0.501506 0.997250 0.697197
Si Si7 0.769862 0.183234 0.654081
Si Si8 0.060740 0.838160 0.327803
O O1 0.329755 0.269379 0.495000
O O2 0.362505 0.413217 0.319206
O O3 0.421870 0.014255 0.378763
O O4 0.269843 0.068036 0.371288
O O5 0.207496 0.442189 0.596358
O O6 0.303280 0.206357 0.668452
O O7 0.221837 0.942262 0.573939
O O8 0.901468 0.307406 0.446794
O O9 0.777903 0.364952 0.566083
O O10 0.948442 0.331839 0.274068
O O11 0.022881 0.586458 0.378801
O O12 0.023986 0.087235 0.378459
O O13 0.423025 0.920210 0.664653
O O14 0.281105 0.782675 0.753345
O O15 0.508725 0.790526 0.773218
O O16 0.851451 0.133473 0.673757
#
# Coordination Sequence:
#
# PCOD8126342 Si02
#       8
#     4   4   4   4   4   4   4   4
#     4  10  23  43  63  95 138 159 222 265 318 379
#     4  11  25  39  66  98 128 172 215 269 313 379
#     4  11  24  43  62  92 134 162 211 272 317 373
#     4  10  22  41  57  89 126 159 208 267 310 379
#     4  11  23  40  68  94 128 177 219 256 333 379
#     4  10  21  39  66  92 130 174 209 265 320 377
#     4  11  23  40  65  92 125 170 214 263 322 384
#     4  10  23  37  63  88 119 165 211 256 320 378
#
# _framework density 22.498666
#
# number of rings (size 3 to 8) (size 9 to 14) (size 15 to 20)
#    0.000    1.500    2.500    1.500    5.250    2.500 
#    0.000    0.000    0.000    6.000    0.000    0.000 
#    0.000    0.000    0.000    0.000    0.000    0.000 
#
# Total GULP energy -396556.599164 kJ/mol
# GULP energy per Si atom -12392.393724 kJ/mol
# Density = 2.244746 g / cm^3
# Si number density = 22.498666 Si / 1000 Ang^3
#
#
#
# Elastic Constant Matrix: (Units=GPa)
#
#
# Indices 1 2 3 4 5 6 
#
# 1 163.4411 39.7529 16.7064 0.0000 -21.6174 0.0000
# 2 39.7529 120.4143 12.8027 0.0000 -3.6316 0.0000
# 3 16.7064 12.8027 39.2443 0.0000 -0.0777 0.0000
# 4 0.0000 0.0000 0.0000 19.7734 0.0000 -1.8236
# 5 -21.6174 -3.6316 -0.0777 0.0000 21.9348 0.0000
# 6 0.0000 0.0000 0.0000 -1.8236 0.0000 30.7098
#
#
#
# Elastic Compliance Matrix: (Units=1/GPa)
#
#
# Indices 1 2 3 4 5 6 
#
# 1 0.007880 -0.002095 -0.002656 0.000000 0.007409 0.000000
# 2 -0.002095 0.009204 -0.002112 0.000000 -0.000549 0.000000
# 3 -0.002656 -0.002112 0.027295 0.000000 -0.002871 0.000000
# 4 0.000000 0.000000 0.000000 0.050852 0.000000 0.003020
# 5 0.007409 -0.000549 -0.002871 0.000000 0.052791 0.000000
# 6 0.000000 0.000000 0.000000 0.003020 0.000000 0.032742
#
#
# Mechanical properties :
#
#
# Convention : Reuss Voigt Hill
#
# Bulk Modulus (GPa) = 32.62363 51.29152 41.95758
# Shear Modulus (GPa) = 24.42504 31.40611 27.91558
#
# Velocity S-wave (km/s) = 3.29845 3.74024 3.52627
# Velocity P-wave (km/s) = 5.38870 6.44202 5.93876
#
# Compressibility (1/GPa) = 0.03065263
#
# Stress axis : x y z
#
# Youngs Moduli (GPa) = 126.91089 108.64338 36.63629
#
# Poissons Ratio (x) = 0.22766 0.09731
# Poissons Ratio (y) = 0.26594 0.07737
# Poissons Ratio (z) = 0.33709 0.22943
#
# Static dielectric constant tensor:
#      x y z
#    x 4.362190 0.000000 -0.351690 
#    y 0.000000 3.912980 0.000000 
#    z -0.351690 0.000000 4.125520 
# 
# 
# High freq. dielectric constant tensor:
#      x y z
#    x 1.902260 0.000000 -0.019780 
#    y 0.000000 1.879520 0.000000 
#    z -0.019780 0.000000 1.872270 
# 
# From -- ./inp_files/48135.got.cif
#   From: 2010.03.12/outbox.cif.g09.slc.cpg/sg14_25_cif.got.tgz:48135.got - 2010.03.31 13:35:05.
