data_PCOD8126188
_publ_section_title
;
Structure prediction by ZEFSAII (Michael W. Deem and Ramdas Pophale) SiO2 
 PCOD8126188
Probable space group: P 21/C
;
_chemical_formula_sum "Si O2"
_cell_formula_units_Z 32
_cell_length_a 9.278094
_cell_length_b 12.725527
_cell_length_c 15.393498
_cell_angle_alpha 90.000000
_cell_angle_beta 122.778389
_cell_angle_gamma 90.000000
_cell_volume 1528.092061
_symmetry_space_group_name_H-M "P 21/C"
_symmetry_group_IT_number 14
_symmetry_cell_setting 'monoclinic'
loop_
_space_group_symop_operation_xyz
x,y,z
-x,1/2+y,1/2-z
-x,-y,-z
x,1/2-y,1/2+z
loop_
_atom_site_type_symbol
_atom_site_label
_atom_site_fract_x
_atom_site_fract_y
_atom_site_fract_z
Si Si1 0.680519 0.330319 0.191467
Si Si2 0.780493 0.899303 0.960889
Si Si3 0.072989 0.325065 0.995751
Si Si4 0.076109 0.999921 0.157482
Si Si5 0.408289 0.601616 0.295831
Si Si6 0.954759 0.048806 0.295142
Si Si7 0.630432 0.981628 0.392280
Si Si8 0.835462 0.366119 0.067586
O O1 0.821308 0.391202 0.294889
O O2 0.622657 0.226906 0.224100
O O3 0.519392 0.406425 0.123377
O O4 0.760528 0.297140 0.123057
O O5 0.818749 0.777648 0.989130
O O6 0.578102 0.919090 0.908548
O O7 0.825194 0.925644 0.876229
O O8 0.886620 0.971788 0.060993
O O9 0.197988 0.415400 0.074528
O O10 0.918238 0.301239 0.013958
O O11 0.991870 0.360730 0.877646
O O12 0.057902 0.068544 0.239306
O O13 0.431710 0.549717 0.209364
O O14 0.247853 0.547847 0.291506
O O15 0.007686 0.935038 0.345906
O O16 0.678177 0.061307 0.484934
#
# Coordination Sequence:
#
# PCOD8126188 Si02
#       8
#     4   4   4   4   4   4   4   4
#     4  11  23  39  64  95 127 163 217 261 314 378
#     4  11  24  41  62  90 133 169 209 256 319 372
#     4  11  20  41  66  96 121 164 212 267 313 376
#     4  10  24  43  63  89 126 176 207 261 310 384
#     4  12  22  39  64  96 129 170 209 261 310 381
#     4  10  21  40  66  89 122 163 215 257 315 368
#     4  11  20  40  64  94 124 164 210 262 321 365
#     4  10  21  38  66  93 121 161 212 271 316 367
#
# _framework density 20.941146
#
# number of rings (size 3 to 8) (size 9 to 14) (size 15 to 20)
#    0.000    1.250    5.000    1.875    1.750    0.500 
#    0.000    0.000    2.750    0.000    0.000    0.000 
#    0.000    0.000    0.000    0.000    0.000    0.000 
#
# Total GULP energy -396753.782947 kJ/mol
# GULP energy per Si atom -12398.555717 kJ/mol
# Density = 2.089348 g / cm^3
# Si number density = 20.941146 Si / 1000 Ang^3
#
#
#
# Elastic Constant Matrix: (Units=GPa)
#
#
# Indices 1 2 3 4 5 6 
#
# 1 85.1303 14.4416 47.3488 0.0000 11.9343 0.0000
# 2 14.4416 51.1999 15.1581 0.0000 1.3132 0.0000
# 3 47.3488 15.1581 77.6271 0.0000 7.1896 0.0000
# 4 0.0000 0.0000 0.0000 17.3365 0.0000 4.6943
# 5 11.9343 1.3132 7.1896 0.0000 47.4082 0.0000
# 6 0.0000 0.0000 0.0000 4.6943 0.0000 23.7864
#
#
#
# Elastic Compliance Matrix: (Units=1/GPa)
#
#
# Indices 1 2 3 4 5 6 
#
# 1 0.018359 -0.001983 -0.010536 0.000000 -0.002969 0.000000
# 2 -0.001983 0.020944 -0.002914 0.000000 0.000361 0.000000
# 3 -0.010536 -0.002914 0.019904 0.000000 -0.000285 0.000000
# 4 0.000000 0.000000 0.000000 0.060938 0.000000 -0.012026
# 5 -0.002969 0.000361 -0.000285 0.000000 0.021874 0.000000
# 6 0.000000 0.000000 0.000000 -0.012026 0.000000 0.044414
#
#
# Mechanical properties :
#
#
# Convention : Reuss Voigt Hill
#
# Bulk Modulus (GPa) = 35.28349 40.87271 38.07810
# Shear Modulus (GPa) = 22.05104 26.84014 24.44559
#
# Velocity S-wave (km/s) = 3.24852 3.58396 3.42035
# Velocity P-wave (km/s) = 5.56381 6.05695 5.81561
#
# Compressibility (1/GPa) = 0.02834187
#
# Stress axis : x y z
#
# Youngs Moduli (GPa) = 54.46783 47.74643 50.24105
#
# Poissons Ratio (x) = 0.09468 0.52935
# Poissons Ratio (y) = 0.10801 0.14638
# Poissons Ratio (z) = 0.57388 0.13911
#
# Static dielectric constant tensor:
#      x y z
#    x 3.913010 0.000000 0.135660 
#    y 0.000000 3.494370 0.000000 
#    z 0.135660 0.000000 3.897710 
# 
# 
# High freq. dielectric constant tensor:
#      x y z
#    x 1.824560 0.000000 0.010650 
#    y 0.000000 1.799090 0.000000 
#    z 0.010650 0.000000 1.823350 
# 
# From -- ./inp_files/41227.got.cif
#   From: 2010.03.12/outbox.cif.g09.slc.cpg/sg14_21_cif.got.tgz:41227.got - 2010.03.31 13:35:05.
