data_PCOD8126414
_publ_section_title
;
Structure prediction by ZEFSAII (Michael W. Deem and Ramdas Pophale) SiO2 
 PCOD8126414
Probable space group: P 21/C
;
_chemical_formula_sum "Si O2"
_cell_formula_units_Z 24
_cell_length_a 11.488884
_cell_length_b 8.672269
_cell_length_c 13.882607
_cell_angle_alpha 90.000000
_cell_angle_beta 54.713340
_cell_angle_gamma 90.000000
_cell_volume 1129.058831
_symmetry_space_group_name_H-M "P 21/C"
_symmetry_group_IT_number 14
_symmetry_cell_setting 'monoclinic'
loop_
_space_group_symop_operation_xyz
x,y,z
-x,1/2+y,1/2-z
-x,-y,-z
x,1/2-y,1/2+z
loop_
_atom_site_type_symbol
_atom_site_label
_atom_site_fract_x
_atom_site_fract_y
_atom_site_fract_z
Si Si1 0.032868 0.244873 0.104459
Si Si2 0.894003 0.970679 0.757264
Si Si3 0.386421 0.835366 0.109462
Si Si4 0.481310 0.886429 0.861431
Si Si5 0.230561 0.254811 0.334712
Si Si6 0.253406 0.893940 0.810587
O O1 0.014129 0.410663 0.163357
O O2 0.894065 0.200049 0.107285
O O3 0.050534 0.110596 0.173719
O O4 0.171422 0.254648 0.971358
O O5 0.750068 0.060724 0.851022
O O6 0.869771 0.844590 0.686407
O O7 0.344729 0.675330 0.178752
O O8 0.487531 0.932792 0.133249
O O9 0.465677 0.798062 0.971198
O O10 0.608782 0.808979 0.740649
O O11 0.336364 0.873399 0.870985
O O12 0.226511 0.428910 0.298372
#
# Coordination Sequence:
#
# PCOD8126414 Si02
#       6
#     4   4   4   4   4   4
#     4  11  23  41  64  90 123 160 205 254 309 372
#     4  10  22  41  62  88 121 162 203 252 310 370
#     4   9  21  40  60  86 123 164 207 251 304 367
#     4  10  21  40  62  86 123 166 206 253 305 363
#     4  11  23  39  63  91 122 158 202 256 309 366
#     4  11  22  37  61  92 120 161 207 253 311 364
#
# _framework density 21.256641999999999
#
# number of rings (size 3 to 8) (size 9 to 14) (size 15 to 20)
#    0.000    1.667    0.000    4.000    0.000    6.000 
#    0.000    8.333    0.000    0.000    0.000    0.000 
#    0.000    0.000    0.000    0.000    0.000    0.000 
#
# Total GULP energy -297725.311483 kJ/mol
# GULP energy per Si atom -12405.221312 kJ/mol
# Density = 2.120826 g / cm^3
# Si number density = 21.256642 Si / 1000 Ang^3
#
#
#
# Elastic Constant Matrix: (Units=GPa)
#
#
# Indices 1 2 3 4 5 6 
#
# 1 76.4722 33.1657 55.7984 0.0000 11.7451 0.0000
# 2 33.1657 108.9948 88.3103 0.0000 -1.4116 0.0000
# 3 55.7984 88.3103 147.0590 0.0000 -8.0706 0.0000
# 4 0.0000 0.0000 0.0000 31.9966 0.0000 0.3206
# 5 11.7451 -1.4116 -8.0706 0.0000 23.8616 0.0000
# 6 0.0000 0.0000 0.0000 0.3206 0.0000 26.6691
#
#
#
# Elastic Compliance Matrix: (Units=1/GPa)
#
#
# Indices 1 2 3 4 5 6 
#
# 1 0.021822 0.000989 -0.009639 0.000000 -0.013943 0.000000
# 2 0.000989 0.018076 -0.011410 0.000000 -0.003277 0.000000
# 3 -0.009639 -0.011410 0.017864 0.000000 0.010112 0.000000
# 4 0.000000 0.000000 0.000000 0.031257 0.000000 -0.000376
# 5 -0.013943 -0.003277 0.010112 0.000000 0.051998 0.000000
# 6 0.000000 0.000000 0.000000 -0.000376 0.000000 0.037501
#
#
# Mechanical properties :
#
#
# Convention : Reuss Voigt Hill
#
# Bulk Modulus (GPa) = 56.68159 76.34164 66.51161
# Shear Modulus (GPa) = 22.26983 26.85557 24.56270
#
# Velocity S-wave (km/s) = 3.24028 3.55829 3.40300
# Velocity P-wave (km/s) = 6.38141 7.27146 6.84092
#
# Compressibility (1/GPa) = 0.01764241
#
# Stress axis : x y z
#
# Youngs Moduli (GPa) = 45.82435 55.32229 55.97845
#
# Poissons Ratio (x) = -0.05472 0.53959
# Poissons Ratio (y) = -0.04532 0.63871
# Poissons Ratio (z) = 0.44171 0.63122
#
# Static dielectric constant tensor:
#      x y z
#    x 3.813560 0.000000 -0.116540 
#    y 0.000000 3.923910 0.000000 
#    z -0.116540 0.000000 3.731340 
# 
# 
# High freq. dielectric constant tensor:
#      x y z
#    x 1.836630 0.000000 -0.002880 
#    y 0.000000 1.834650 0.000000 
#    z -0.002880 0.000000 1.834420 
# 
# From -- ./inp_files/28044.got.cif
#   From: 2010.03.12/outbox.cif.g09.slc.cpg/sg14_15_cif.got.tgz:28044.got - 2010.03.31 13:35:05.
