data_PCOD8126636
_publ_section_title
;
Structure prediction by ZEFSAII (Michael W. Deem and Ramdas Pophale) SiO2 
 PCOD8126636
Probable space group: P 21/C
;
_chemical_formula_sum "Si O2"
_cell_formula_units_Z 24
_cell_length_a 8.666901
_cell_length_b 13.875243
_cell_length_c 8.785770
_cell_angle_alpha 90.000000
_cell_angle_beta 90.195361
_cell_angle_gamma 90.000000
_cell_volume 1056.529770
_symmetry_space_group_name_H-M "P 21/C"
_symmetry_group_IT_number 14
_symmetry_cell_setting 'monoclinic'
loop_
_space_group_symop_operation_xyz
x,y,z
-x,1/2+y,1/2-z
-x,-y,-z
x,1/2-y,1/2+z
loop_
_atom_site_type_symbol
_atom_site_label
_atom_site_fract_x
_atom_site_fract_y
_atom_site_fract_z
Si Si1 0.306159 0.363583 0.821149
Si Si2 0.337021 0.861505 0.691915
Si Si3 0.160759 0.289430 0.519296
Si Si4 0.170446 0.778747 0.401632
Si Si5 0.816118 0.510821 0.624402
Si Si6 0.150253 0.960878 0.203300
O O1 0.486471 0.354253 0.854975
O O2 0.264635 0.312021 0.664264
O O3 0.213877 0.313427 0.956973
O O4 0.256993 0.475695 0.816070
O O5 0.231702 0.833772 0.549107
O O6 0.299935 0.791516 0.833650
O O7 0.300907 0.971160 0.747414
O O8 0.192328 0.373356 0.394581
O O9 0.980147 0.284339 0.559885
O O10 0.127577 0.855255 0.270434
O O11 0.774762 0.456677 0.465162
O O12 0.988104 0.483034 0.681393
#
# Coordination Sequence:
#
# PCOD8126636 Si02
#       6
#     4   4   4   4   4   4
#     4  11  25  41  61  94 129 165 204 259 322 372
#     4  12  25  40  63  94 129 164 206 261 320 373
#     4  11  23  42  67  90 123 167 214 257 307 373
#     4  12  24  42  68  94 123 167 217 260 305 372
#     4  10  21  41  65  91 123 164 211 259 310 370
#     4  10  22  40  64  91 123 162 212 259 310 370
#
# _framework density 22.715876000000002
#
# number of rings (size 3 to 8) (size 9 to 14) (size 15 to 20)
#    0.000    1.000    0.000    9.000    0.000    8.667 
#    0.000    0.000    0.000    0.000    0.000    0.000 
#    0.000    0.000    0.000    0.000    0.000    0.000 
#
# Total GULP energy -297694.495334 kJ/mol
# GULP energy per Si atom -12403.937306 kJ/mol
# Density = 2.266417 g / cm^3
# Si number density = 22.715876 Si / 1000 Ang^3
#
#
#
# Elastic Constant Matrix: (Units=GPa)
#
#
# Indices 1 2 3 4 5 6 
#
# 1 83.3332 18.1901 10.0126 0.0000 3.1858 0.0000
# 2 18.1901 96.4442 16.9660 0.0000 -0.3741 0.0000
# 3 10.0126 16.9660 32.4287 0.0000 8.4967 0.0000
# 4 0.0000 0.0000 0.0000 40.9141 0.0000 -7.6269
# 5 3.1858 -0.3741 8.4967 0.0000 31.3690 0.0000
# 6 0.0000 0.0000 0.0000 -7.6269 0.0000 31.6147
#
#
#
# Elastic Compliance Matrix: (Units=1/GPa)
#
#
# Indices 1 2 3 4 5 6 
#
# 1 0.012776 -0.001921 -0.002792 0.000000 -0.000564 0.000000
# 2 -0.001921 0.011813 -0.006109 0.000000 0.001991 0.000000
# 3 -0.002792 -0.006109 0.037501 0.000000 -0.009947 0.000000
# 4 0.000000 0.000000 0.000000 0.025592 0.000000 0.006174
# 5 -0.000564 0.001991 -0.009947 0.000000 0.034654 0.000000
# 6 0.000000 0.000000 0.000000 0.006174 0.000000 0.033120
#
#
# Mechanical properties :
#
#
# Convention : Reuss Voigt Hill
#
# Bulk Modulus (GPa) = 24.72349 33.61592 29.16971
# Shear Modulus (GPa) = 26.23519 31.91539 29.07529
#
# Velocity S-wave (km/s) = 3.40211 3.75237 3.58153
# Velocity P-wave (km/s) = 5.13224 5.79692 5.47468
#
# Compressibility (1/GPa) = 0.04044737
#
# Stress axis : x y z
#
# Youngs Moduli (GPa) = 78.26982 84.65004 26.66572
#
# Poissons Ratio (x) = 0.16259 0.07445
# Poissons Ratio (y) = 0.15034 0.16290
# Poissons Ratio (z) = 0.21853 0.51713
#
# Static dielectric constant tensor:
#      x y z
#    x 3.843680 0.000000 -0.014170 
#    y 0.000000 4.156040 0.000000 
#    z -0.014170 0.000000 4.073920 
# 
# 
# High freq. dielectric constant tensor:
#      x y z
#    x 1.876360 0.000000 0.005680 
#    y 0.000000 1.906580 0.000000 
#    z 0.005680 0.000000 1.901370 
# 
# From -- ./inp_files/8588.got.cif
#   From: 2010.03.12/outbox.cif.g09.slc.cpg/sg14_5_cif.got.tgz:8588.got - 2010.03.31 13:35:05.
