data_PCOD8126578
_publ_section_title
;
Structure prediction by ZEFSAII (Michael W. Deem and Ramdas Pophale) SiO2 
 PCOD8126578
Probable space group: P 21/C
;
_chemical_formula_sum "Si O2"
_cell_formula_units_Z 32
_cell_length_a 26.226309
_cell_length_b 10.557358
_cell_length_c 15.497476
_cell_angle_alpha 90.000000
_cell_angle_beta 158.366501
_cell_angle_gamma 90.000000
_cell_volume 1581.936169
_symmetry_space_group_name_H-M "P 21/C"
_symmetry_group_IT_number 14
_symmetry_cell_setting 'monoclinic'
loop_
_space_group_symop_operation_xyz
x,y,z
-x,1/2+y,1/2-z
-x,-y,-z
x,1/2-y,1/2+z
loop_
_atom_site_type_symbol
_atom_site_label
_atom_site_fract_x
_atom_site_fract_y
_atom_site_fract_z
Si Si1 0.540636 0.254300 0.707323
Si Si2 0.367666 0.245490 0.609100
Si Si3 0.899377 0.955886 0.155744
Si Si4 0.602944 0.513620 0.738595
Si Si5 0.602802 0.887458 0.670200
Si Si6 0.848160 0.203518 0.183923
Si Si7 0.057649 0.226040 0.154463
Si Si8 0.903922 0.021784 0.691734
O O1 0.444624 0.260954 0.639982
O O2 0.603721 0.392273 0.799349
O O3 0.449675 0.220432 0.479175
O O4 0.683815 0.174736 0.940904
O O5 0.393588 0.352835 0.722291
O O6 0.203548 0.231002 0.331607
O O7 0.439421 0.124333 0.764145
O O8 0.932327 0.820286 0.249298
O O9 0.013771 0.984942 0.266068
O O10 0.903277 0.076646 0.225070
O O11 0.752272 0.938893 0.876520
O O12 0.500000 0.500000 0.500000
O O13 0.754042 0.538456 0.936400
O O14 0.500000 0.000000 0.500000
O O15 0.888091 0.332288 0.195696
O O16 0.928052 0.218545 0.399002
O O17 0.026813 0.078741 0.131916
#
# Coordination Sequence:
#
# PCOD8126578 Si02
#       8
#     4   4   4   4   4   4   4   4
#     4  11  24  40  65  92 123 169 204 260 320 366
#     4  10  24  40  64  93 124 168 208 254 319 370
#     4  11  23  40  66  90 123 166 207 256 319 367
#     4  10  21  41  62  89 129 158 214 261 300 378
#     4  11  23  42  62  92 130 157 213 263 308 378
#     4  11  23  41  60  93 127 157 213 255 303 382
#     4  10  23  42  60  91 128 159 208 259 301 382
#     4  10  23  40  62  92 122 166 206 251 317 368
#
# _framework density 20.228376000000001
#
# number of rings (size 3 to 8) (size 9 to 14) (size 15 to 20)
#    0.000    1.500    2.500    1.500    3.500    3.000 
#    0.000    0.000    0.000    0.000    0.000    0.000 
#    0.000    0.000    0.000    0.000    0.000    0.000 
#
# Total GULP energy -396510.826572 kJ/mol
# GULP energy per Si atom -12390.963330 kJ/mol
# Density = 2.018234 g / cm^3
# Si number density = 20.228376 Si / 1000 Ang^3
#
#
#
# Elastic Constant Matrix: (Units=GPa)
#
#
# Indices 1 2 3 4 5 6 
#
# 1 125.6518 12.5303 18.4166 0.0000 14.7066 0.0000
# 2 12.5303 88.8818 -0.2675 0.0000 2.1591 0.0000
# 3 18.4166 -0.2675 86.8998 0.0000 -6.7762 0.0000
# 4 0.0000 0.0000 0.0000 33.1079 0.0000 -2.5261
# 5 14.7066 2.1591 -6.7762 0.0000 21.9065 0.0000
# 6 0.0000 0.0000 0.0000 -2.5261 0.0000 22.4384
#
#
#
# Elastic Compliance Matrix: (Units=1/GPa)
#
#
# Indices 1 2 3 4 5 6 
#
# 1 0.009242 -0.001144 -0.002497 0.000000 -0.006864 0.000000
# 2 -0.001144 0.011420 0.000256 0.000000 -0.000279 0.000000
# 3 -0.002497 0.000256 0.012467 0.000000 0.005508 0.000000
# 4 0.000000 0.000000 0.000000 0.030466 0.000000 0.003430
# 5 -0.006864 -0.000279 0.005508 0.000000 0.051988 0.000000
# 6 0.000000 0.000000 0.000000 0.003430 0.000000 0.044953
#
#
# Mechanical properties :
#
#
# Convention : Reuss Voigt Hill
#
# Bulk Modulus (GPa) = 37.93895 40.31023 39.12459
# Shear Modulus (GPa) = 28.39428 33.54082 30.96755
#
# Velocity S-wave (km/s) = 3.75064 4.07640 3.91691
# Velocity P-wave (km/s) = 6.12801 6.49053 6.31187
#
# Compressibility (1/GPa) = 0.02635813
#
# Stress axis : x y z
#
# Youngs Moduli (GPa) = 108.20153 87.56819 80.21147
#
# Poissons Ratio (x) = 0.10015 0.20032
# Poissons Ratio (y) = 0.12375 -0.02052
# Poissons Ratio (z) = 0.27023 -0.02240
#
# Static dielectric constant tensor:
#      x y z
#    x 3.481340 0.000000 0.101060 
#    y 0.000000 4.359470 0.000000 
#    z 0.101060 0.000000 4.294200 
# 
# 
# High freq. dielectric constant tensor:
#      x y z
#    x 1.775220 0.000000 0.008250 
#    y 0.000000 1.810330 0.000000 
#    z 0.008250 0.000000 1.799080 
# 
# From -- ./inp_files/35272.got.cif
#   From: 2010.03.12/outbox.cif.g09.slc.cpg/sg14_18_cif.got.tgz:35272.got - 2010.03.31 13:35:05.
