data_PCOD8126848
_publ_section_title
;
Structure prediction by ZEFSAII (Michael W. Deem and Ramdas Pophale) SiO2 
 PCOD8126848
Probable space group: P 21/C
;
_chemical_formula_sum "Si O2"
_cell_formula_units_Z 20
_cell_length_a 10.618463
_cell_length_b 11.345338
_cell_length_c 13.667243
_cell_angle_alpha 90.000000
_cell_angle_beta 148.996048
_cell_angle_gamma 90.000000
_cell_volume 848.104172
_symmetry_space_group_name_H-M "P 21/C"
_symmetry_group_IT_number 14
_symmetry_cell_setting 'monoclinic'
loop_
_space_group_symop_operation_xyz
x,y,z
-x,1/2+y,1/2-z
-x,-y,-z
x,1/2-y,1/2+z
loop_
_atom_site_type_symbol
_atom_site_label
_atom_site_fract_x
_atom_site_fract_y
_atom_site_fract_z
Si Si1 0.665071 0.942632 0.851950
Si Si2 0.205163 0.440487 0.004262
Si Si3 0.574886 0.733051 0.456210
Si Si4 0.111466 0.675041 0.551561
Si Si5 0.167245 0.122798 0.699850
O O1 0.587174 0.886853 0.902403
O O2 0.424686 0.967814 0.625121
O O3 0.802232 0.067794 0.959442
O O4 0.846755 0.852636 0.920289
O O5 0.218278 0.327825 0.940885
O O6 0.265082 0.400276 0.155953
O O7 0.937939 0.502119 0.820304
O O8 0.309504 0.794556 0.268468
O O9 0.621312 0.687502 0.597037
O O10 0.070755 0.791653 0.460325
#
# Coordination Sequence:
#
# PCOD8126848 Si02
#       5
#     4   4   4   4   4
#     4  10  21  43  67  89 135 176 218 278 329 389
#     4  10  23  45  66 100 137 173 225 276 334 397
#     4  11  23  42  68  98 130 180 220 270 339 395
#     4  10  22  44  63  96 133 172 226 277 325 398
#     4  11  23  42  69  98 137 173 224 276 330 404
#
# _framework density 23.58201
#
# number of rings (size 3 to 8) (size 9 to 14) (size 15 to 20)
#    0.000    1.600    4.000    0.000    2.800    0.800 
#   10.800    3.000    0.000    0.000    0.000    0.000 
#    0.000    0.000    0.000    0.000    0.000    0.000 
#
# Total GULP energy -247842.150613 kJ/mol
# GULP energy per Si atom -12392.107531 kJ/mol
# Density = 2.352834 g / cm^3
# Si number density = 23.582010 Si / 1000 Ang^3
#
#
#
# Elastic Constant Matrix: (Units=GPa)
#
#
# Indices 1 2 3 4 5 6 
#
# 1 56.4529 17.7398 22.0141 0.0000 3.9837 0.0000
# 2 17.7398 97.0330 35.6750 0.0000 -6.3456 0.0000
# 3 22.0141 35.6750 88.9489 0.0000 -5.7947 0.0000
# 4 0.0000 0.0000 0.0000 44.9009 0.0000 4.3326
# 5 3.9837 -6.3456 -5.7947 0.0000 27.6372 0.0000
# 6 0.0000 0.0000 0.0000 4.3326 0.0000 21.5955
#
#
#
# Elastic Compliance Matrix: (Units=1/GPa)
#
#
# Indices 1 2 3 4 5 6 
#
# 1 0.020500 -0.002424 -0.004390 0.000000 -0.004432 0.000000
# 2 -0.002424 0.012462 -0.004247 0.000000 0.002320 0.000000
# 3 -0.004390 -0.004247 0.014204 0.000000 0.002636 0.000000
# 4 0.000000 0.000000 0.000000 0.022711 0.000000 -0.004556
# 5 -0.004432 0.002320 0.002636 0.000000 0.037907 0.000000
# 6 0.000000 0.000000 0.000000 -0.004556 0.000000 0.047220
#
#
# Mechanical properties :
#
#
# Convention : Reuss Voigt Hill
#
# Bulk Modulus (GPa) = 39.92944 43.69919 41.81431
# Shear Modulus (GPa) = 26.95775 29.96042 28.45909
#
# Velocity S-wave (km/s) = 3.38472 3.56824 3.47769
# Velocity P-wave (km/s) = 5.67838 5.96217 5.82200
#
# Compressibility (1/GPa) = 0.02504418
#
# Stress axis : x y z
#
# Youngs Moduli (GPa) = 48.77983 80.24316 70.40195
#
# Poissons Ratio (x) = 0.19448 0.30909
# Poissons Ratio (y) = 0.11822 0.29901
# Poissons Ratio (z) = 0.21416 0.34081
#
# Static dielectric constant tensor:
#      x y z
#    x 3.842140 0.000000 0.303930 
#    y 0.000000 4.629100 0.000000 
#    z 0.303930 0.000000 3.958480 
# 
# 
# High freq. dielectric constant tensor:
#      x y z
#    x 1.899970 0.000000 0.030590 
#    y 0.000000 1.965540 0.000000 
#    z 0.030590 0.000000 1.909100 
# 
# From -- ./inp_files/44680.got.cif
#   From: 2010.03.12/outbox.cif.g09.slc.cpg/sg14_23_cif.got.tgz:44680.got - 2010.03.31 13:35:05.
