data_PCOD8126694
_publ_section_title
;
Structure prediction by ZEFSAII (Michael W. Deem and Ramdas Pophale) SiO2 
 PCOD8126694
Probable space group: P 21/C
;
_chemical_formula_sum "Si O2"
_cell_formula_units_Z 24
_cell_length_a 15.832200
_cell_length_b 7.584111
_cell_length_c 31.512296
_cell_angle_alpha 90.000000
_cell_angle_beta 161.865465
_cell_angle_gamma 90.000000
_cell_volume 1177.699181
_symmetry_space_group_name_H-M "P 21/C"
_symmetry_group_IT_number 14
_symmetry_cell_setting 'monoclinic'
loop_
_space_group_symop_operation_xyz
x,y,z
-x,1/2+y,1/2-z
-x,-y,-z
x,1/2-y,1/2+z
loop_
_atom_site_type_symbol
_atom_site_label
_atom_site_fract_x
_atom_site_fract_y
_atom_site_fract_z
Si Si1 0.163806 0.279109 0.177029
Si Si2 0.397365 0.672557 0.048416
Si Si3 0.260786 0.627321 0.397278
Si Si4 0.313291 0.553497 0.871802
Si Si5 0.753189 0.439588 0.853338
Si Si6 0.791036 0.031226 0.862960
O O1 0.376187 0.274239 0.316577
O O2 0.282876 0.423204 0.201821
O O3 0.122658 0.083940 0.136923
O O4 0.874270 0.352491 0.054341
O O5 0.521095 0.482198 0.092929
O O6 0.344068 0.777821 0.980160
O O7 0.500000 0.500000 0.500000
O O8 0.236320 0.744838 0.342955
O O9 0.967478 0.549283 0.264704
O O10 0.500000 0.500000 0.000000
O O11 0.782211 0.240525 0.848752
O O12 0.494925 0.449562 0.760282
O O13 0.000000 0.500000 0.000000
O O14 0.000000 0.000000 0.000000
#
# Coordination Sequence:
#
# PCOD8126694 Si02
#       6
#     4   4   4   4   4   4
#     4  12  24  43  67  95 149 172 223 299 339 392
#     4  11  24  44  62 102 139 175 215 285 348 378
#     4  11  23  44  72  96 130 177 227 267 327 415
#     4  10  21  41  69  95 129 175 223 260 328 406
#     4  12  23  43  71  97 130 182 232 278 338 412
#     4  12  23  43  70  99 128 181 236 275 336 414
#
# _framework density 20.378719
#
# number of rings (size 3 to 8) (size 9 to 14) (size 15 to 20)
#    0.000    0.667    5.000    4.000    2.333    0.000 
#    6.000    0.000    0.000    0.000    0.000    0.000 
#    0.000    0.000    0.000    0.000    0.000    0.000 
#
# Total GULP energy -297503.187470 kJ/mol
# GULP energy per Si atom -12395.966145 kJ/mol
# Density = 2.033234 g / cm^3
# Si number density = 20.378719 Si / 1000 Ang^3
#
#
#
# Elastic Constant Matrix: (Units=GPa)
#
#
# Indices 1 2 3 4 5 6 
#
# 1 101.7320 44.3213 40.4906 0.0000 10.3682 0.0001
# 2 44.3213 129.2098 20.5592 0.0002 -6.5106 0.0000
# 3 40.4906 20.5592 132.3424 0.0000 3.4487 -0.0006
# 4 0.0000 0.0002 0.0000 29.6281 0.0000 0.7614
# 5 10.3682 -6.5106 3.4487 0.0000 41.6132 0.0000
# 6 0.0001 0.0000 -0.0006 0.7614 0.0000 37.9627
#
#
#
# Elastic Compliance Matrix: (Units=1/GPa)
#
#
# Indices 1 2 3 4 5 6 
#
# 1 0.013390 -0.004249 -0.003339 0.000000 -0.003724 0.000000
# 2 -0.004249 0.009360 -0.000220 0.000000 0.002541 0.000000
# 3 -0.003339 -0.000220 0.008610 0.000000 0.000084 0.000000
# 4 0.000000 0.000000 0.000000 0.033769 0.000000 -0.000677
# 5 -0.003724 0.002541 0.000084 0.000000 0.025349 0.000000
# 6 0.000000 0.000000 0.000000 -0.000677 0.000000 0.026355
#
#
# Mechanical properties :
#
#
# Convention : Reuss Voigt Hill
#
# Bulk Modulus (GPa) = 63.52514 63.78070 63.65292
# Shear Modulus (GPa) = 36.31123 39.03501 37.67312
#
# Velocity S-wave (km/s) = 4.22574 4.38137 4.30426
# Velocity P-wave (km/s) = 7.41951 7.54724 7.48365
#
# Compressibility (1/GPa) = 0.01574180
#
# Stress axis : x y z
#
# Youngs Moduli (GPa) = 74.68431 106.83759 116.14535
#
# Poissons Ratio (x) = 0.45397 0.38786
# Poissons Ratio (y) = 0.31735 0.02558
# Poissons Ratio (z) = 0.24941 0.02353
#
# Static dielectric constant tensor:
#      x y z
#    x 4.121700 0.000000 0.142990 
#    y 0.000000 4.289640 0.000000 
#    z 0.142990 0.000000 3.949670 
# 
# 
# High freq. dielectric constant tensor:
#      x y z
#    x 1.795060 0.000000 0.006080 
#    y 0.000000 1.794270 0.000000 
#    z 0.006080 0.000000 1.823370 
# 
# From -- ./inp_files/80203.got.cif
#   From: 2010.03.12/outbox.cif.g09.slc.cpg/sg14_41_cif.got.tgz:80203.got - 2010.03.31 13:35:05.
