data_PCOD8126733
_publ_section_title
;
Structure prediction by ZEFSAII (Michael W. Deem and Ramdas Pophale) SiO2 
 PCOD8126733
Probable space group: P 21/C
;
_chemical_formula_sum "Si O2"
_cell_formula_units_Z 24
_cell_length_a 17.613071
_cell_length_b 13.608070
_cell_length_c 8.983345
_cell_angle_alpha 90.000000
_cell_angle_beta 149.559237
_cell_angle_gamma 90.000000
_cell_volume 1090.876048
_symmetry_space_group_name_H-M "P 21/C"
_symmetry_group_IT_number 14
_symmetry_cell_setting 'monoclinic'
loop_
_space_group_symop_operation_xyz
x,y,z
-x,1/2+y,1/2-z
-x,-y,-z
x,1/2-y,1/2+z
loop_
_atom_site_type_symbol
_atom_site_label
_atom_site_fract_x
_atom_site_fract_y
_atom_site_fract_z
Si Si1 0.986063 0.836823 0.638561
Si Si2 0.703629 0.542248 0.624689
Si Si3 0.954913 0.645281 0.430526
Si Si4 0.762056 0.027656 0.534393
Si Si5 0.322017 0.853030 0.099386
Si Si6 0.564184 0.168664 0.385931
O O1 0.879860 0.928700 0.415709
O O2 0.905526 0.739707 0.440161
O O3 0.008391 0.829658 0.853337
O O4 0.145654 0.841479 0.828396
O O5 0.654565 0.464336 0.416451
O O6 0.607713 0.642579 0.445199
O O7 0.673194 0.488936 0.730905
O O8 0.808415 0.577078 0.181888
O O9 0.089606 0.592086 0.746185
O O10 0.658781 0.079745 0.478733
O O11 0.381091 0.774288 0.079201
O O12 0.418652 0.832457 0.408379
#
# Coordination Sequence:
#
# PCOD8126733 Si02
#       6
#     4   4   4   4   4   4
#     4  11  22  42  65  98 127 169 216 263 317 377
#     4  11  27  41  67  98 128 167 217 267 318 378
#     4  10  22  37  66  96 129 167 215 265 314 375
#     4  10  21  42  62  95 128 169 214 258 323 371
#     4  12  24  44  67  93 129 171 214 263 319 386
#     4  12  25  44  66  95 130 173 211 262 328 378
#
# _framework density 22.000665999999999
#
# number of rings (size 3 to 8) (size 9 to 14) (size 15 to 20)
#    0.000    1.000    3.333    2.500    2.333    5.333 
#    0.000    0.000    0.000    0.000    0.000    0.000 
#    0.000    0.000    0.000    0.000    0.000    0.000 
#
# Total GULP energy -297665.093765 kJ/mol
# GULP energy per Si atom -12402.712240 kJ/mol
# Density = 2.195059 g / cm^3
# Si number density = 22.000666 Si / 1000 Ang^3
#
#
#
# Elastic Constant Matrix: (Units=GPa)
#
#
# Indices 1 2 3 4 5 6 
#
# 1 36.2543 33.4146 36.4715 0.0000 -5.6233 0.0000
# 2 33.4146 113.8322 30.1754 0.0000 -6.8036 0.0000
# 3 36.4715 30.1754 99.7254 0.0000 -17.6180 0.0000
# 4 0.0000 0.0000 0.0000 36.7285 0.0000 -1.7282
# 5 -5.6233 -6.8036 -17.6180 0.0000 30.7882 0.0000
# 6 0.0000 0.0000 0.0000 -1.7282 0.0000 41.0112
#
#
#
# Elastic Compliance Matrix: (Units=1/GPa)
#
#
# Indices 1 2 3 4 5 6 
#
# 1 0.055291 -0.011850 -0.017036 0.000000 -0.002269 0.000000
# 2 -0.011850 0.012098 0.000849 0.000000 0.000995 0.000000
# 3 -0.017036 0.000849 0.017226 0.000000 0.006933 0.000000
# 4 0.000000 0.000000 0.000000 0.027281 0.000000 0.001150
# 5 -0.002269 0.000995 0.006933 0.000000 0.036253 0.000000
# 6 0.000000 0.000000 0.000000 0.001150 0.000000 0.024432
#
#
# Mechanical properties :
#
#
# Convention : Reuss Voigt Hill
#
# Bulk Modulus (GPa) = 35.03804 49.99279 42.51542
# Shear Modulus (GPa) = 20.99358 31.68894 26.34126
#
# Velocity S-wave (km/s) = 3.09240 3.79933 3.46395
# Velocity P-wave (km/s) = 5.35827 6.48222 5.94686
#
# Compressibility (1/GPa) = 0.02854041
#
# Stress axis : x y z
#
# Youngs Moduli (GPa) = 18.08618 82.66021 58.05174
#
# Poissons Ratio (x) = 0.97950 0.98898
# Poissons Ratio (y) = 0.21432 -0.04928
# Poissons Ratio (z) = 0.30812 -0.07017
#
# Static dielectric constant tensor:
#      x y z
#    x 3.748960 0.000000 -0.058870 
#    y 0.000000 4.103930 0.000000 
#    z -0.058870 0.000000 4.069470 
# 
# 
# High freq. dielectric constant tensor:
#      x y z
#    x 1.851060 0.000000 -0.008480 
#    y 0.000000 1.873120 0.000000 
#    z -0.008480 0.000000 1.873900 
# 
# From -- ./inp_files/8460.got.cif
#   From: 2010.03.12/outbox.cif.g09.slc.cpg/sg14_5_cif.got.tgz:8460.got - 2010.03.31 13:35:05.
