data_PCOD8126055
_publ_section_title
;
Structure prediction by ZEFSAII (Michael W. Deem and Ramdas Pophale) SiO2 
 PCOD8126055
Probable space group: P 21/C
;
_chemical_formula_sum "Si O2"
_cell_formula_units_Z 32
_cell_length_a 11.525523
_cell_length_b 16.044642
_cell_length_c 8.447958
_cell_angle_alpha 90.000000
_cell_angle_beta 66.057716
_cell_angle_gamma 90.000000
_cell_volume 1427.799075
_symmetry_space_group_name_H-M "P 21/C"
_symmetry_group_IT_number 14
_symmetry_cell_setting 'monoclinic'
loop_
_space_group_symop_operation_xyz
x,y,z
-x,1/2+y,1/2-z
-x,-y,-z
x,1/2-y,1/2+z
loop_
_atom_site_type_symbol
_atom_site_label
_atom_site_fract_x
_atom_site_fract_y
_atom_site_fract_z
Si Si1 0.901709 0.305724 0.879826
Si Si2 0.117499 0.098884 0.420094
Si Si3 0.236990 0.982800 0.105396
Si Si4 0.776428 0.858919 0.083865
Si Si5 0.698863 0.783669 0.816847
Si Si6 0.581919 0.155818 0.017102
Si Si7 0.000974 0.125524 0.809997
Si Si8 0.274609 0.720213 0.280822
O O1 0.821253 0.336168 0.771438
O O2 0.995846 0.378595 0.879240
O O3 0.974620 0.221758 0.785044
O O4 0.806277 0.287009 0.075993
O O5 0.217444 0.174481 0.368086
O O6 0.075788 0.081099 0.623310
O O7 0.182200 0.018995 0.300866
O O8 0.133223 0.920119 0.086047
O O9 0.366815 0.933044 0.075577
O O10 0.275044 0.053506 0.955573
O O11 0.688720 0.814382 0.269740
O O12 0.916855 0.876432 0.074158
O O13 0.777570 0.794329 0.935771
O O14 0.568913 0.835257 0.901013
O O15 0.635896 0.161416 0.165050
O O16 0.632329 0.230788 0.885321
#
# Coordination Sequence:
#
# PCOD8126055 Si02
#       8
#     4   4   4   4   4   4   4   4
#     4  11  20  36  63  95 129 170 216 269 330 406
#     4  11  24  38  67  98 133 179 214 272 338 402
#     4  11  25  42  67 101 137 172 216 286 350 385
#     4  11  25  40  68 100 133 177 225 278 335 400
#     4  11  24  42  65  96 131 181 234 267 324 404
#     4  11  23  45  67  95 131 179 231 282 326 395
#     4  12  22  41  66  98 143 166 217 275 345 404
#     4  10  21  37  66  92 126 175 220 267 330 401
#
# _framework density 22.412118
#
# number of rings (size 3 to 8) (size 9 to 14) (size 15 to 20)
#    0.000    1.000    5.000    2.250    5.250    3.000 
#    0.000    1.250    0.000    6.000    0.000    0.000 
#    0.000    0.000    0.000    0.000    0.000    0.000 
#
# Total GULP energy -396618.183196 kJ/mol
# GULP energy per Si atom -12394.318225 kJ/mol
# Density = 2.236111 g / cm^3
# Si number density = 22.412118 Si / 1000 Ang^3
#
#
#
# Elastic Constant Matrix: (Units=GPa)
#
#
# Indices 1 2 3 4 5 6 
#
# 1 96.9357 23.4826 47.5080 0.0000 -7.7845 0.0000
# 2 23.4826 73.7443 23.4184 0.0000 0.4607 0.0000
# 3 47.5080 23.4184 81.1334 0.0000 6.3671 0.0000
# 4 0.0000 0.0000 0.0000 33.1884 0.0000 -6.4389
# 5 -7.7845 0.4607 6.3671 0.0000 31.3644 0.0000
# 6 0.0000 0.0000 0.0000 -6.4389 0.0000 24.5962
#
#
#
# Elastic Compliance Matrix: (Units=1/GPa)
#
#
# Indices 1 2 3 4 5 6 
#
# 1 0.015737 -0.002177 -0.009040 0.000000 0.005773 0.000000
# 2 -0.002177 0.015244 -0.003115 0.000000 -0.000132 0.000000
# 3 -0.009040 -0.003115 0.018993 0.000000 -0.006054 0.000000
# 4 0.000000 0.000000 0.000000 0.031743 0.000000 0.008310
# 5 0.005773 -0.000132 -0.006054 0.000000 0.034547 0.000000
# 6 0.000000 0.000000 0.000000 0.008310 0.000000 0.042832
#
#
# Mechanical properties :
#
#
# Convention : Reuss Voigt Hill
#
# Bulk Modulus (GPa) = 46.92470 48.95906 47.94188
# Shear Modulus (GPa) = 25.65904 28.32340 26.99122
#
# Velocity S-wave (km/s) = 3.38727 3.55879 3.47409
# Velocity P-wave (km/s) = 6.02335 6.22728 6.12616
#
# Compressibility (1/GPa) = 0.02131074
#
# Stress axis : x y z
#
# Youngs Moduli (GPa) = 63.54256 65.60159 52.65121
#
# Poissons Ratio (x) = 0.14279 0.47596
# Poissons Ratio (y) = 0.13831 0.16401
# Poissons Ratio (z) = 0.57442 0.20435
#
# Static dielectric constant tensor:
#      x y z
#    x 4.160910 0.000000 0.115410 
#    y 0.000000 3.912870 0.000000 
#    z 0.115410 0.000000 4.097510 
# 
# 
# High freq. dielectric constant tensor:
#      x y z
#    x 1.880720 0.000000 0.007860 
#    y 0.000000 1.864350 0.000000 
#    z 0.007860 0.000000 1.883160 
# 
# From -- ./inp_files/13867.got.cif
#   From: 2010.03.12/outbox.cif.g09.slc.cpg/sg14_7_cif.got.tgz:13867.got - 2010.03.31 13:35:05.
