data_PCOD8126353
_publ_section_title
;
Structure prediction by ZEFSAII (Michael W. Deem and Ramdas Pophale) SiO2 
 PCOD8126353
Probable space group: P 21/C
;
_chemical_formula_sum "Si O2"
_cell_formula_units_Z 16
_cell_length_a 7.984006
_cell_length_b 5.099157
_cell_length_c 18.665094
_cell_angle_alpha 90.000000
_cell_angle_beta 133.061495
_cell_angle_gamma 90.000000
_cell_volume 555.190145
_symmetry_space_group_name_H-M "P 21/C"
_symmetry_group_IT_number 14
_symmetry_cell_setting 'monoclinic'
loop_
_space_group_symop_operation_xyz
x,y,z
-x,1/2+y,1/2-z
-x,-y,-z
x,1/2-y,1/2+z
loop_
_atom_site_type_symbol
_atom_site_label
_atom_site_fract_x
_atom_site_fract_y
_atom_site_fract_z
Si Si1 0.645935 0.025216 0.287582
Si Si2 0.640964 0.427518 0.611159
Si Si3 0.188092 0.280259 0.538318
Si Si4 0.101811 0.097195 0.354048
O O1 0.481872 0.782079 0.222421
O O2 0.822323 0.945936 0.404120
O O3 0.819664 0.084549 0.270846
O O4 0.500000 0.500000 0.500000
O O5 0.451814 0.399489 0.621161
O O6 0.823695 0.665308 0.676315
O O7 0.781192 0.165403 0.637688
O O8 0.175954 0.159251 0.456628
O O9 0.000000 0.500000 0.500000
#
# Coordination Sequence:
#
# PCOD8126353 Si02
#       4
#     4   4   4   4
#     4  12  26  43  65  98 137 174 216 271 328 388
#     4  10  21  39  67 100 127 160 215 277 321 373
#     4  11  23  43  73 100 127 173 226 271 321 390
#     4  11  23  43  68  96 128 169 217 269 322 385
#
# _framework density 28.818957999999999
#
# number of rings (size 3 to 8) (size 9 to 14) (size 15 to 20)
#    0.000    1.000    0.000    9.750    0.000    8.000 
#    0.000    5.000    0.000    6.000    0.000    0.000 
#    0.000    0.000    0.000    0.000    0.000    0.000 
#
# Total GULP energy -198541.204544 kJ/mol
# GULP energy per Si atom -12408.825284 kJ/mol
# Density = 2.875337 g / cm^3
# Si number density = 28.818958 Si / 1000 Ang^3
#
#
#
# Elastic Constant Matrix: (Units=GPa)
#
#
# Indices 1 2 3 4 5 6 
#
# 1 193.6893 124.1757 71.2096 0.0000 36.0525 0.0000
# 2 124.1757 249.3505 46.9163 0.0000 29.0656 0.0000
# 3 71.2096 46.9163 115.9182 0.0000 22.1640 0.0000
# 4 0.0000 0.0000 0.0000 -72.5073 0.0000 27.6235
# 5 36.0525 29.0656 22.1640 0.0000 65.4652 0.0000
# 6 0.0000 0.0000 0.0000 27.6235 0.0000 70.6212
#
#
#
# Elastic Compliance Matrix: (Units=1/GPa)
#
#
# Indices 1 2 3 4 5 6 
#
# 1 0.009335 -0.003671 -0.003825 0.000000 -0.002216 0.000000
# 2 -0.003671 0.005912 -0.000024 0.000000 -0.000595 0.000000
# 3 -0.003825 -0.000024 0.011314 0.000000 -0.001713 0.000000
# 4 0.000000 0.000000 0.000000 -0.012003 0.000000 0.004695
# 5 -0.002216 -0.000595 -0.001713 0.000000 0.017340 0.000000
# 6 0.000000 0.000000 0.000000 0.004695 0.000000 0.012324
#
#
# Mechanical properties :
#
#
# Convention : Reuss Voigt Hill
#
# Bulk Modulus (GPa) = 86.79664 115.95124 101.37394
# Shear Modulus (GPa) = 79.23582 33.82625 56.53104
#
# Velocity S-wave (km/s) = 5.24919 3.42972 4.43379
# Velocity P-wave (km/s) = 8.18059 7.48369 7.83989
#
# Compressibility (1/GPa) = 0.01152118
#
# Stress axis : x y z
#
# Youngs Moduli (GPa) = 107.12235 169.13610 88.38642
#
# Poissons Ratio (x) = 0.62087 0.33810
# Poissons Ratio (y) = 0.39323 0.00213
# Poissons Ratio (z) = 0.40977 0.00408
#
# Static dielectric constant tensor:
#      x y z
#    x 6.623060 0.000000 0.183360 
#    y 0.000000 5.906250 0.000000 
#    z 0.183360 0.000000 6.965370 
# 
# 
# High freq. dielectric constant tensor:
#      x y z
#    x 2.204780 0.000000 -0.002040 
#    y 0.000000 2.173790 0.000000 
#    z -0.002040 0.000000 2.258150 
# 
# From -- ./inp_files/71498.got.cif
#   From: 2010.03.12/outbox.cif.g09.slc.cpg/sg14_36_cif.got.tgz:71498.got - 2010.03.31 13:35:05.
