data_PCOD8126350
_publ_section_title
;
Structure prediction by ZEFSAII (Michael W. Deem and Ramdas Pophale) SiO2 
 PCOD8126350
Probable space group: P 21/C
;
_chemical_formula_sum "Si O2"
_cell_formula_units_Z 24
_cell_length_a 9.534559
_cell_length_b 8.240986
_cell_length_c 13.643500
_cell_angle_alpha 90.000000
_cell_angle_beta 81.462530
_cell_angle_gamma 90.000000
_cell_volume 1060.147511
_symmetry_space_group_name_H-M "P 21/C"
_symmetry_group_IT_number 14
_symmetry_cell_setting 'monoclinic'
loop_
_space_group_symop_operation_xyz
x,y,z
-x,1/2+y,1/2-z
-x,-y,-z
x,1/2-y,1/2+z
loop_
_atom_site_type_symbol
_atom_site_label
_atom_site_fract_x
_atom_site_fract_y
_atom_site_fract_z
Si Si1 0.947622 0.909265 0.729378
Si Si2 0.147702 0.757154 0.331520
Si Si3 0.394933 0.970329 0.801068
Si Si4 0.225201 0.094653 0.001212
Si Si5 0.334600 0.227162 0.185425
Si Si6 0.935037 0.221411 0.952495
O O1 0.808273 0.798965 0.737651
O O2 0.031504 0.886704 0.823920
O O3 0.061022 0.853833 0.634653
O O4 0.902130 0.095513 0.731071
O O5 0.301953 0.690137 0.286639
O O6 0.138955 0.807330 0.445998
O O7 0.555670 0.912905 0.796045
O O8 0.389983 0.094410 0.709590
O O9 0.342904 0.050855 0.907770
O O10 0.299431 0.212648 0.073190
O O11 0.163648 0.934168 0.062848
O O12 0.097464 0.181965 0.959551
#
# Coordination Sequence:
#
# PCOD8126350 Si02
#       6
#     4   4   4   4   4   4
#     4  12  22  39  67  96 129 169 210 269 316 380
#     4  11  24  40  64  97 128 165 214 264 325 378
#     4  11  25  44  64  94 130 171 215 268 320 386
#     4  10  21  41  67  93 129 173 210 263 325 377
#     4  12  23  41  66  91 129 172 216 257 324 382
#     4  10  21  39  66  97 127 166 216 262 319 376
#
# _framework density 22.638361
#
# number of rings (size 3 to 8) (size 9 to 14) (size 15 to 20)
#    0.000    1.000    3.333    4.000    2.333    0.000 
#    0.000    0.833    0.000    0.000    0.000    0.000 
#    0.000    0.000    0.000    0.000    0.000    0.000 
#
# Total GULP energy -297583.224436 kJ/mol
# GULP energy per Si atom -12399.301018 kJ/mol
# Density = 2.258683 g / cm^3
# Si number density = 22.638361 Si / 1000 Ang^3
#
#
#
# Elastic Constant Matrix: (Units=GPa)
#
#
# Indices 1 2 3 4 5 6 
#
# 1 83.7556 -7.8723 15.6900 0.0000 12.0437 0.0000
# 2 -7.8723 48.0891 25.1125 0.0000 19.1188 0.0000
# 3 15.6900 25.1125 88.6175 0.0000 10.4827 0.0000
# 4 0.0000 0.0000 0.0000 35.6554 0.0000 4.5029
# 5 12.0437 19.1188 10.4827 0.0000 18.8339 0.0000
# 6 0.0000 0.0000 0.0000 4.5029 0.0000 40.2367
#
#
#
# Elastic Compliance Matrix: (Units=1/GPa)
#
#
# Indices 1 2 3 4 5 6 
#
# 1 0.017506 0.014506 -0.004436 0.000000 -0.023451 0.000000
# 2 0.014506 0.050258 -0.010360 0.000000 -0.054528 0.000000
# 3 -0.004436 -0.010360 0.014372 0.000000 0.005354 0.000000
# 4 0.000000 0.000000 0.000000 0.028448 0.000000 -0.003184
# 5 -0.023451 -0.054528 0.005354 0.000000 0.120465 0.000000
# 6 0.000000 0.000000 0.000000 -0.003184 0.000000 0.025209
#
#
# Mechanical properties :
#
#
# Convention : Reuss Voigt Hill
#
# Bulk Modulus (GPa) = 12.26164 31.81362 22.03763
# Shear Modulus (GPa) = 17.60404 31.44734 24.52569
#
# Velocity S-wave (km/s) = 2.79161 3.73113 3.29503
# Velocity P-wave (km/s) = 3.97729 5.71360 4.92261
#
# Compressibility (1/GPa) = 0.08155519
#
# Stress axis : x y z
#
# Youngs Moduli (GPa) = 57.12320 19.89718 69.57773
#
# Poissons Ratio (x) = -0.28862 0.30865
# Poissons Ratio (y) = -0.82861 0.72085
# Poissons Ratio (z) = 0.25340 0.20614
#
# Static dielectric constant tensor:
#      x y z
#    x 3.998580 0.000000 -0.000300 
#    y 0.000000 3.854680 0.000000 
#    z -0.000300 0.000000 4.023170 
# 
# 
# High freq. dielectric constant tensor:
#      x y z
#    x 1.887950 0.000000 0.002570 
#    y 0.000000 1.878380 0.000000 
#    z 0.002570 0.000000 1.901380 
# 
# From -- ./inp_files/38916.got.cif
#   From: 2010.03.12/outbox.cif.g09.slc.cpg/sg14_20_cif.got.tgz:38916.got - 2010.03.31 13:35:05.
