data_PCOD8126266
_publ_section_title
;
Structure prediction by ZEFSAII (Michael W. Deem and Ramdas Pophale) SiO2 
 PCOD8126266
Probable space group: P 21/C
;
_chemical_formula_sum "Si O2"
_cell_formula_units_Z 24
_cell_length_a 21.091702
_cell_length_b 8.780117
_cell_length_c 16.063595
_cell_angle_alpha 90.000000
_cell_angle_beta 160.943192
_cell_angle_gamma 90.000000
_cell_volume 971.281526
_symmetry_space_group_name_H-M "P 21/C"
_symmetry_group_IT_number 14
_symmetry_cell_setting 'monoclinic'
loop_
_space_group_symop_operation_xyz
x,y,z
-x,1/2+y,1/2-z
-x,-y,-z
x,1/2-y,1/2+z
loop_
_atom_site_type_symbol
_atom_site_label
_atom_site_fract_x
_atom_site_fract_y
_atom_site_fract_z
Si Si1 0.602099 0.141336 0.973347
Si Si2 0.088004 0.372338 0.308897
Si Si3 0.732900 0.598890 0.059427
Si Si4 0.933117 0.207447 0.783507
Si Si5 0.856520 0.951926 0.392810
Si Si6 0.477759 0.033374 0.375951
O O1 0.763002 0.174318 0.100960
O O2 0.651950 0.018160 0.107728
O O3 0.413634 0.065946 0.698563
O O4 0.564349 0.299629 0.970944
O O5 0.171330 0.264067 0.337746
O O6 0.257749 0.466148 0.567360
O O7 0.969077 0.275144 0.229545
O O8 0.928723 0.482218 0.070967
O O9 0.607488 0.592476 0.988281
O O10 0.895861 0.467052 0.262555
O O11 0.129316 0.267579 0.075787
O O12 0.000000 0.000000 0.500000
O O13 0.500000 0.000000 0.500000
#
# Coordination Sequence:
#
# PCOD8126266 Si02
#       6
#     4   4   4   4   4   4
#     4   9  21  40  64  95 127 167 216 264 320 382
#     4  11  23  41  64  93 128 168 213 264 320 377
#     4  10  22  42  65  91 128 169 212 265 320 380
#     4  10  21  40  63  90 123 162 210 260 316 378
#     4  10  21  39  62  90 123 161 206 258 313 376
#     4  10  22  40  63  95 131 171 216 263 321 385
#
# _framework density 24.709620999999999
#
# number of rings (size 3 to 8) (size 9 to 14) (size 15 to 20)
#    0.000    2.000    0.000    3.000    0.000    6.667 
#    0.000   16.667    0.000    0.000    0.000    0.000 
#    0.000    0.000    0.000    0.000    0.000    0.000 
#
# Total GULP energy -297365.184630 kJ/mol
# GULP energy per Si atom -12390.216026 kJ/mol
# Density = 2.465338 g / cm^3
# Si number density = 24.709621 Si / 1000 Ang^3
#
#
#
# Elastic Constant Matrix: (Units=GPa)
#
#
# Indices 1 2 3 4 5 6 
#
# 1 146.7869 35.0036 30.0129 0.0000 -8.4640 0.0000
# 2 35.0036 63.8215 34.1794 0.0000 -10.2247 0.0000
# 3 30.0129 34.1794 86.1996 0.0000 -13.1854 0.0000
# 4 0.0000 0.0000 0.0000 34.7319 0.0000 -13.8839
# 5 -8.4640 -10.2247 -13.1854 0.0000 30.1377 0.0000
# 6 0.0000 0.0000 0.0000 -13.8839 0.0000 36.8080
#
#
#
# Elastic Compliance Matrix: (Units=1/GPa)
#
#
# Indices 1 2 3 4 5 6 
#
# 1 0.007960 -0.003613 -0.001269 0.000000 0.000454 0.000000
# 2 -0.003613 0.021891 -0.006903 0.000000 0.003392 0.000000
# 3 -0.001269 -0.006903 0.015398 0.000000 0.004038 0.000000
# 4 0.000000 0.000000 0.000000 0.033904 0.000000 0.012789
# 5 0.000454 0.003392 0.004038 0.000000 0.036226 0.000000
# 6 0.000000 0.000000 0.000000 0.012789 0.000000 0.031992
#
#
# Mechanical properties :
#
#
# Convention : Reuss Voigt Hill
#
# Bulk Modulus (GPa) = 46.13125 55.02220 50.57672
# Shear Modulus (GPa) = 28.06347 33.50965 30.78656
#
# Velocity S-wave (km/s) = 3.37372 3.68657 3.53361
# Velocity P-wave (km/s) = 5.82115 6.35901 6.09601
#
# Compressibility (1/GPa) = 0.02167728
#
# Stress axis : x y z
#
# Youngs Moduli (GPa) = 125.62908 45.68141 64.94428
#
# Poissons Ratio (x) = 0.16505 0.08243
# Poissons Ratio (y) = 0.45392 0.44832
# Poissons Ratio (z) = 0.15946 0.31535
#
# Static dielectric constant tensor:
#      x y z
#    x 4.671570 0.000000 -0.212270 
#    y 0.000000 4.923030 0.000000 
#    z -0.212270 0.000000 5.141410 
# 
# 
# High freq. dielectric constant tensor:
#      x y z
#    x 1.990290 0.000000 -0.005560 
#    y 0.000000 1.980150 0.000000 
#    z -0.005560 0.000000 1.970930 
# 
# From -- ./inp_files/61741.got.cif
#   From: 2010.03.12/outbox.cif.g09.slc.cpg/sg14_31_cif.got.tgz:61741.got - 2010.03.31 13:35:05.
