data_PCOD8126306
_publ_section_title
;
Structure prediction by ZEFSAII (Michael W. Deem and Ramdas Pophale) SiO2 
 PCOD8126306
Probable space group: P 21/C
;
_chemical_formula_sum "Si O2"
_cell_formula_units_Z 24
_cell_length_a 6.625815
_cell_length_b 11.066404
_cell_length_c 16.101339
_cell_angle_alpha 90.000000
_cell_angle_beta 63.170016
_cell_angle_gamma 90.000000
_cell_volume 1053.520337
_symmetry_space_group_name_H-M "P 21/C"
_symmetry_group_IT_number 14
_symmetry_cell_setting 'monoclinic'
loop_
_space_group_symop_operation_xyz
x,y,z
-x,1/2+y,1/2-z
-x,-y,-z
x,1/2-y,1/2+z
loop_
_atom_site_type_symbol
_atom_site_label
_atom_site_fract_x
_atom_site_fract_y
_atom_site_fract_z
Si Si1 0.862628 0.783915 0.489996
Si Si2 0.742426 0.666287 0.824549
Si Si3 0.312713 0.806791 0.865539
Si Si4 0.774063 0.223870 0.802364
Si Si5 0.478160 0.562559 0.091685
Si Si6 0.413006 0.048876 0.928658
O O1 0.812618 0.827504 0.406528
O O2 0.726173 0.881652 0.573097
O O3 0.775191 0.649417 0.521142
O O4 0.134628 0.776957 0.451661
O O5 0.568897 0.771516 0.835978
O O6 0.620813 0.537394 0.826041
O O7 0.967055 0.685517 0.727343
O O8 0.255864 0.791518 0.779734
O O9 0.292702 0.945885 0.896271
O O10 0.693593 0.323409 0.884867
O O11 0.622756 0.103768 0.837475
O O12 0.500000 0.500000 0.000000
O O13 0.500000 0.000000 0.000000
#
# Coordination Sequence:
#
# PCOD8126306 Si02
#       6
#     4   4   4   4   4   4
#     4   9  20  42  61  96 124 163 216 261 309 395
#     4  10  21  39  64  90 129 169 206 262 328 376
#     4  11  23  39  65  93 128 165 213 263 324 382
#     4  10  25  41  61  97 130 164 221 265 320 394
#     4   9  20  41  65  86 128 167 210 266 315 377
#     4  11  22  43  68  92 130 172 215 271 326 381
#
# _framework density 22.780766
#
# number of rings (size 3 to 8) (size 9 to 14) (size 15 to 20)
#    0.000    2.000    1.667    0.500    4.667    0.667 
#    6.000    0.000    0.000    0.000    0.000    0.000 
#    0.000    0.000    0.000    0.000    0.000    0.000 
#
# Total GULP energy -297425.727636 kJ/mol
# GULP energy per Si atom -12392.738652 kJ/mol
# Density = 2.272892 g / cm^3
# Si number density = 22.780766 Si / 1000 Ang^3
#
#
#
# Elastic Constant Matrix: (Units=GPa)
#
#
# Indices 1 2 3 4 5 6 
#
# 1 89.5882 32.1046 43.5160 0.0000 -35.5606 0.0000
# 2 32.1046 128.8459 49.0312 0.0000 -17.7265 0.0000
# 3 43.5160 49.0312 84.7293 0.0000 -29.7783 0.0000
# 4 0.0000 0.0000 0.0000 42.3384 0.0000 -4.6872
# 5 -35.5606 -17.7265 -29.7783 0.0000 46.9689 0.0000
# 6 0.0000 0.0000 0.0000 -4.6872 0.0000 32.5507
#
#
#
# Elastic Compliance Matrix: (Units=1/GPa)
#
#
# Indices 1 2 3 4 5 6 
#
# 1 0.018003 -0.001191 -0.005049 0.000000 0.009979 0.000000
# 2 -0.001191 0.010032 -0.005378 0.000000 -0.000526 0.000000
# 3 -0.005049 -0.005378 0.019881 0.000000 0.006752 0.000000
# 4 0.000000 0.000000 0.000000 0.024002 0.000000 0.003456
# 5 0.009979 -0.000526 0.006752 0.000000 0.032928 0.000000
# 6 0.000000 0.000000 0.000000 0.003456 0.000000 0.031219
#
#
# Mechanical properties :
#
#
# Convention : Reuss Voigt Hill
#
# Bulk Modulus (GPa) = 40.52235 61.38523 50.95379
# Shear Modulus (GPa) = 29.84543 36.27236 33.05890
#
# Velocity S-wave (km/s) = 3.62348 3.99461 3.81356
# Velocity P-wave (km/s) = 5.94413 6.94842 6.46580
#
# Compressibility (1/GPa) = 0.02467774
#
# Stress axis : x y z
#
# Youngs Moduli (GPa) = 55.54669 99.67633 50.29946
#
# Poissons Ratio (x) = 0.11875 0.25399
# Poissons Ratio (y) = 0.06617 0.27053
# Poissons Ratio (z) = 0.28048 0.53611
#
# Static dielectric constant tensor:
#      x y z
#    x 4.163850 0.000000 -0.715560 
#    y 0.000000 4.026800 0.000000 
#    z -0.715560 0.000000 4.422050 
# 
# 
# High freq. dielectric constant tensor:
#      x y z
#    x 1.878420 0.000000 -0.034740 
#    y 0.000000 1.912050 0.000000 
#    z -0.034740 0.000000 1.896730 
# 
# From -- ./inp_files/52947.got.cif
#   From: 2010.03.12/outbox.cif.g09.slc.cpg/sg14_27_cif.got.tgz:52947.got - 2010.03.31 13:35:05.
