data_PCOD8126495
_publ_section_title
;
Structure prediction by ZEFSAII (Michael W. Deem and Ramdas Pophale) SiO2 
 PCOD8126495
Probable space group: P 21/C
;
_chemical_formula_sum "Si O2"
_cell_formula_units_Z 28
_cell_length_a 11.882604
_cell_length_b 9.815565
_cell_length_c 14.081041
_cell_angle_alpha 90.000000
_cell_angle_beta 55.018509
_cell_angle_gamma 90.000000
_cell_volume 1345.626131
_symmetry_space_group_name_H-M "P 21/C"
_symmetry_group_IT_number 14
_symmetry_cell_setting 'monoclinic'
loop_
_space_group_symop_operation_xyz
x,y,z
-x,1/2+y,1/2-z
-x,-y,-z
x,1/2-y,1/2+z
loop_
_atom_site_type_symbol
_atom_site_label
_atom_site_fract_x
_atom_site_fract_y
_atom_site_fract_z
Si Si1 0.779336 0.736236 0.205433
Si Si2 0.297375 0.039523 0.895518
Si Si3 0.405933 0.993601 0.269035
Si Si4 0.768586 0.747935 0.426709
Si Si5 0.025646 0.354975 0.034842
Si Si6 0.496361 0.612248 0.081977
Si Si7 0.255637 0.774823 0.808755
O O1 0.693899 0.863591 0.203644
O O2 0.696887 0.595089 0.234500
O O3 0.823626 0.747518 0.293302
O O4 0.921024 0.736860 0.078097
O O5 0.452901 0.020055 0.858473
O O6 0.232926 0.895139 0.896357
O O7 0.210260 0.106376 0.024349
O O8 0.338850 0.846630 0.317850
O O9 0.446435 0.051066 0.350097
O O10 0.855160 0.863749 0.441907
O O11 0.605173 0.772334 0.500440
O O12 0.893157 0.284597 0.147768
O O13 0.000000 0.500000 0.000000
O O14 0.342668 0.673089 0.174287
O O15 0.500000 0.500000 0.000000
#
# Coordination Sequence:
#
# PCOD8126495 Si02
#       7
#     4   4   4   4   4   4   4
#     4  11  23  42  67  91 136 175 215 280 340 399
#     4  10  21  40  65  96 129 168 219 283 331 402
#     4  11  19  42  64  92 134 171 215 277 342 398
#     4  11  22  42  65  95 132 176 220 280 346 394
#     4  11  23  47  65  93 138 180 220 276 342 411
#     4  11  22  40  68 101 131 175 228 284 343 405
#     4  11  22  41  68  95 129 177 223 273 343 410
#
# _framework density 20.808157000000001
#
# number of rings (size 3 to 8) (size 9 to 14) (size 15 to 20)
#    0.000    1.143    5.714    2.571    0.000    2.857 
#   12.857    0.000    0.000    0.000    0.000    0.000 
#    0.000    0.000    0.000    0.000    0.000    0.000 
#
# Total GULP energy -347001.940739 kJ/mol
# GULP energy per Si atom -12392.926455 kJ/mol
# Density = 2.076080 g / cm^3
# Si number density = 20.808157 Si / 1000 Ang^3
#
#
#
# Elastic Constant Matrix: (Units=GPa)
#
#
# Indices 1 2 3 4 5 6 
#
# 1 85.9629 30.3540 52.4859 0.0000 -5.3429 0.0000
# 2 30.3540 108.6380 19.5170 0.0000 -0.0487 0.0000
# 3 52.4859 19.5170 117.2393 0.0000 4.0059 0.0000
# 4 0.0000 0.0000 0.0000 24.1500 0.0000 -9.7355
# 5 -5.3429 -0.0487 4.0059 0.0000 42.3092 0.0000
# 6 0.0000 0.0000 0.0000 -9.7355 0.0000 29.0210
#
#
#
# Elastic Compliance Matrix: (Units=1/GPa)
#
#
# Indices 1 2 3 4 5 6 
#
# 1 0.017583 -0.003587 -0.007374 0.000000 0.002914 0.000000
# 2 -0.003587 0.010221 -0.000081 0.000000 -0.000433 0.000000
# 3 -0.007374 -0.000081 0.011915 0.000000 -0.002059 0.000000
# 4 0.000000 0.000000 0.000000 0.047883 0.000000 0.016063
# 5 0.002914 -0.000433 -0.002059 0.000000 0.024198 0.000000
# 6 0.000000 0.000000 0.000000 0.016063 0.000000 0.039847
#
#
# Mechanical properties :
#
#
# Convention : Reuss Voigt Hill
#
# Bulk Modulus (GPa) = 56.70430 57.39489 57.04959
# Shear Modulus (GPa) = 27.83826 33.06159 30.44992
#
# Velocity S-wave (km/s) = 3.66164 3.99040 3.82955
# Velocity P-wave (km/s) = 6.72212 6.99098 6.85787
#
# Compressibility (1/GPa) = 0.01763535
#
# Stress axis : x y z
#
# Youngs Moduli (GPa) = 56.87351 97.83403 83.93029
#
# Poissons Ratio (x) = 0.35090 0.61891
# Poissons Ratio (y) = 0.20399 0.00680
# Poissons Ratio (z) = 0.41939 0.00793
#
# Static dielectric constant tensor:
#      x y z
#    x 3.856990 0.000000 -0.339590 
#    y 0.000000 3.872070 0.000000 
#    z -0.339590 0.000000 4.076070 
# 
# 
# High freq. dielectric constant tensor:
#      x y z
#    x 1.802970 0.000000 -0.014610 
#    y 0.000000 1.819770 0.000000 
#    z -0.014610 0.000000 1.804350 
# 
# From -- ./inp_files/43305.got.cif
#   From: 2010.03.12/outbox.cif.g09.slc.cpg/sg14_22_cif.got.tgz:43305.got - 2010.03.31 13:35:05.
