data_PCOD8126375
_publ_section_title
;
Structure prediction by ZEFSAII (Michael W. Deem and Ramdas Pophale) SiO2 
 PCOD8126375
Probable space group: P 21/C
;
_chemical_formula_sum "Si O2"
_cell_formula_units_Z 32
_cell_length_a 14.063141
_cell_length_b 9.558170
_cell_length_c 22.965078
_cell_angle_alpha 90.000000
_cell_angle_beta 152.546312
_cell_angle_gamma 90.000000
_cell_volume 1423.166135
_symmetry_space_group_name_H-M "P 21/C"
_symmetry_group_IT_number 14
_symmetry_cell_setting 'monoclinic'
loop_
_space_group_symop_operation_xyz
x,y,z
-x,1/2+y,1/2-z
-x,-y,-z
x,1/2-y,1/2+z
loop_
_atom_site_type_symbol
_atom_site_label
_atom_site_fract_x
_atom_site_fract_y
_atom_site_fract_z
Si Si1 0.216942 0.280237 0.205141
Si Si2 0.284022 0.453607 0.138695
Si Si3 0.696424 0.331383 0.476250
Si Si4 0.893241 0.885322 0.114916
Si Si5 0.969690 0.126361 0.681248
Si Si6 0.751575 0.044650 0.774875
Si Si7 0.698130 0.275026 0.350932
Si Si8 0.271279 0.098284 0.506138
O O1 0.134279 0.374584 0.104639
O O2 0.456656 0.315846 0.338323
O O3 0.130886 0.329880 0.219605
O O4 0.190099 0.115332 0.178899
O O5 0.484448 0.357606 0.240022
O O6 0.337547 0.612948 0.186593
O O7 0.182006 0.457153 0.019409
O O8 0.747186 0.486947 0.521059
O O9 0.777105 0.232380 0.571697
O O10 0.808598 0.287280 0.474948
O O11 0.915479 0.863052 0.195562
O O12 0.119897 0.902495 0.210840
O O13 0.759803 0.762201 0.014958
O O14 0.874284 0.972032 0.621791
O O15 0.820865 0.142886 0.866861
O O16 0.510684 0.057810 0.627931
#
# Coordination Sequence:
#
# PCOD8126375 Si02
#       8
#     4   4   4   4   4   4   4   4
#     4  11  25  43  74  97 137 174 220 277 336 398
#     4  10  21  40  67 103 133 172 216 272 338 401
#     4  11  23  46  67  99 135 175 217 279 334 383
#     4  12  29  42  70  98 133 179 234 269 320 411
#     4  12  25  48  65  97 133 179 231 273 323 392
#     4  11  25  46  68 102 134 177 218 274 343 394
#     4  10  21  39  69  99 138 168 219 272 334 405
#     4  11  25  44  70  98 138 172 218 282 334 386
#
# _framework density 22.485078000000001
#
# number of rings (size 3 to 8) (size 9 to 14) (size 15 to 20)
#    0.000    1.000    3.750    3.000   10.500    4.000 
#    0.000    0.000    0.000    0.000    0.000    0.000 
#    0.000    0.000    0.000    0.000    0.000    0.000 
#
# Total GULP energy -396756.523460 kJ/mol
# GULP energy per Si atom -12398.641358 kJ/mol
# Density = 2.243390 g / cm^3
# Si number density = 22.485078 Si / 1000 Ang^3
#
#
#
# Elastic Constant Matrix: (Units=GPa)
#
#
# Indices 1 2 3 4 5 6 
#
# 1 111.9801 35.8740 20.5462 0.0000 -16.1189 0.0000
# 2 35.8740 175.3905 12.8236 0.0000 -11.0948 0.0000
# 3 20.5462 12.8236 47.5331 0.0000 -18.6820 0.0000
# 4 0.0000 0.0000 0.0000 28.6255 0.0000 -5.0996
# 5 -16.1189 -11.0948 -18.6820 0.0000 27.7067 0.0000
# 6 0.0000 0.0000 0.0000 -5.0996 0.0000 13.3573
#
#
#
# Elastic Compliance Matrix: (Units=1/GPa)
#
#
# Indices 1 2 3 4 5 6 
#
# 1 0.010489 -0.001723 -0.002642 0.000000 0.003631 0.000000
# 2 -0.001723 0.006161 -0.000465 0.000000 0.001151 0.000000
# 3 -0.002642 -0.000465 0.029427 0.000000 0.018118 0.000000
# 4 0.000000 0.000000 0.000000 0.037483 0.000000 0.014311
# 5 0.003631 0.001151 0.018118 0.000000 0.050882 0.000000
# 6 0.000000 0.000000 0.000000 0.014311 0.000000 0.080329
#
#
# Mechanical properties :
#
#
# Convention : Reuss Voigt Hill
#
# Bulk Modulus (GPa) = 27.45960 52.59903 40.02932
# Shear Modulus (GPa) = 21.13538 31.64856 26.39197
#
# Velocity S-wave (km/s) = 3.06923 3.75578 3.42973
# Velocity P-wave (km/s) = 4.97987 6.50012 5.79010
#
# Compressibility (1/GPa) = 0.03641713
#
# Stress axis : x y z
#
# Youngs Moduli (GPa) = 95.33349 162.31843 33.98296
#
# Poissons Ratio (x) = 0.27961 0.08979
# Poissons Ratio (y) = 0.16422 0.01580
# Poissons Ratio (z) = 0.25189 0.07547
#
# Static dielectric constant tensor:
#      x y z
#    x 4.382950 0.000000 -0.183800 
#    y 0.000000 5.301560 0.000000 
#    z -0.183800 0.000000 4.004380 
# 
# 
# High freq. dielectric constant tensor:
#      x y z
#    x 1.884340 0.000000 0.003000 
#    y 0.000000 1.908380 0.000000 
#    z 0.003000 0.000000 1.886780 
# 
# From -- ./inp_files/43787.got.cif
#   From: 2010.03.12/outbox.cif.g09.slc.cpg/sg14_22_cif.got.tgz:43787.got - 2010.03.31 13:35:05.
