data_PCOD8126502
_publ_section_title
;
Structure prediction by ZEFSAII (Michael W. Deem and Ramdas Pophale) SiO2 
 PCOD8126502
Probable space group: P 21/C
;
_chemical_formula_sum "Si O2"
_cell_formula_units_Z 24
_cell_length_a 11.702172
_cell_length_b 10.710035
_cell_length_c 26.722772
_cell_angle_alpha 90.000000
_cell_angle_beta 21.287660
_cell_angle_gamma 90.000000
_cell_volume 1215.922752
_symmetry_space_group_name_H-M "P 21/C"
_symmetry_group_IT_number 14
_symmetry_cell_setting 'monoclinic'
loop_
_space_group_symop_operation_xyz
x,y,z
-x,1/2+y,1/2-z
-x,-y,-z
x,1/2-y,1/2+z
loop_
_atom_site_type_symbol
_atom_site_label
_atom_site_fract_x
_atom_site_fract_y
_atom_site_fract_z
Si Si1 0.039596 0.131976 0.959087
Si Si2 0.833220 0.233068 0.946733
Si Si3 0.877822 0.759935 0.274739
Si Si4 0.750657 0.014799 0.531716
Si Si5 0.276559 0.520711 0.138278
Si Si6 0.717831 0.144684 0.646112
O O1 0.405552 0.171423 0.805765
O O2 0.891951 0.124905 0.963387
O O3 0.847530 0.226834 0.071655
O O4 0.000000 0.000000 0.000000
O O5 0.084739 0.223436 0.799865
O O6 0.483787 0.225382 0.066574
O O7 0.906563 0.363379 0.943839
O O8 0.089473 0.650196 0.210739
O O9 0.950055 0.897502 0.268712
O O10 0.635752 0.046616 0.634981
O O11 0.465110 0.968393 0.613420
O O12 0.020183 0.910276 0.423363
O O13 0.500000 0.500000 0.000000
#
# Coordination Sequence:
#
# PCOD8126502 Si02
#       6
#     4   4   4   4   4   4
#     4  11  24  38  64  96 125 162 222 255 318 381
#     4  10  21  40  66  88 121 178 206 254 318 387
#     4  11  22  42  68  91 128 171 213 257 324 382
#     4   9  20  41  68  82 130 166 208 257 322 368
#     4  11  22  43  64  98 125 166 211 268 316 375
#     4  10  23  41  62  92 127 168 205 264 316 376
#
# _framework density 19.738097
#
# number of rings (size 3 to 8) (size 9 to 14) (size 15 to 20)
#    0.000    1.667    3.333    3.000    9.333    0.667 
#    6.000    0.000    0.000    0.000    0.000    0.000 
#    0.000    0.000    0.000    0.000    0.000    0.000 
#
# Total GULP energy -297558.227846 kJ/mol
# GULP energy per Si atom -12398.259494 kJ/mol
# Density = 1.969317 g / cm^3
# Si number density = 19.738097 Si / 1000 Ang^3
#
#
#
# Elastic Constant Matrix: (Units=GPa)
#
#
# Indices 1 2 3 4 5 6 
#
# 1 84.9643 64.3769 11.7293 0.0000 -13.5546 0.0000
# 2 64.3769 135.7791 52.1412 0.0000 -5.4686 0.0000
# 3 11.7293 52.1412 96.1128 0.0000 -1.3037 0.0000
# 4 0.0000 0.0000 0.0000 35.6215 0.0000 -7.0780
# 5 -13.5546 -5.4686 -1.3037 0.0000 29.2357 0.0000
# 6 0.0000 0.0000 0.0000 -7.0780 0.0000 37.1695
#
#
#
# Elastic Compliance Matrix: (Units=1/GPa)
#
#
# Indices 1 2 3 4 5 6 
#
# 1 0.020754 -0.010858 0.003463 0.000000 0.007746 0.000000
# 2 -0.010858 0.015051 -0.006874 0.000000 -0.002525 0.000000
# 3 0.003463 -0.006874 0.013724 0.000000 0.000932 0.000000
# 4 0.000000 0.000000 0.000000 0.029177 0.000000 0.005556
# 5 0.007746 -0.002525 0.000932 0.000000 0.037365 0.000000
# 6 0.000000 0.000000 0.000000 0.005556 0.000000 0.027962
#
#
# Mechanical properties :
#
#
# Convention : Reuss Voigt Hill
#
# Bulk Modulus (GPa) = 47.64175 63.70566 55.67371
# Shear Modulus (GPa) = 27.84439 32.97928 30.41183
#
# Velocity S-wave (km/s) = 3.75999 4.09203 3.92952
# Velocity P-wave (km/s) = 6.56044 7.39404 6.98968
#
# Compressibility (1/GPa) = 0.02098999
#
# Stress axis : x y z
#
# Youngs Moduli (GPa) = 48.18260 66.43990 72.86569
#
# Poissons Ratio (x) = 0.72141 -0.25232
# Poissons Ratio (y) = 0.52317 0.50091
# Poissons Ratio (z) = -0.16684 0.45674
#
# Static dielectric constant tensor:
#      x y z
#    x 3.698210 0.000000 0.032090 
#    y 0.000000 3.695420 0.000000 
#    z 0.032090 0.000000 3.572930 
# 
# 
# High freq. dielectric constant tensor:
#      x y z
#    x 1.764270 0.000000 0.005620 
#    y 0.000000 1.766250 0.000000 
#    z 0.005620 0.000000 1.772110 
# 
# From -- ./inp_files/12430.got.cif
#   From: 2010.03.12/outbox.cif.g09.slc.cpg/sg14_7_cif.got.tgz:12430.got - 2010.03.31 13:35:05.
