data_PCOD8126685
_publ_section_title
;
Structure prediction by ZEFSAII (Michael W. Deem and Ramdas Pophale) SiO2 
 PCOD8126685
Probable space group: P 21/C
;
_chemical_formula_sum "Si O2"
_cell_formula_units_Z 28
_cell_length_a 9.660422
_cell_length_b 19.291257
_cell_length_c 15.298994
_cell_angle_alpha 90.000000
_cell_angle_beta 28.112285
_cell_angle_gamma 90.000000
_cell_volume 1343.463007
_symmetry_space_group_name_H-M "P 21/C"
_symmetry_group_IT_number 14
_symmetry_cell_setting 'monoclinic'
loop_
_space_group_symop_operation_xyz
x,y,z
-x,1/2+y,1/2-z
-x,-y,-z
x,1/2-y,1/2+z
loop_
_atom_site_type_symbol
_atom_site_label
_atom_site_fract_x
_atom_site_fract_y
_atom_site_fract_z
Si Si1 0.809879 0.967020 0.844746
Si Si2 0.654342 0.678819 0.369064
Si Si3 0.925619 0.313562 0.540969
Si Si4 0.743581 0.679084 0.119253
Si Si5 0.085999 0.545416 0.370134
Si Si6 0.240105 0.429562 0.032049
Si Si7 0.969688 0.681549 0.717717
O O1 0.785520 0.884724 0.850282
O O2 0.907317 0.985147 0.888530
O O3 0.038545 0.002119 0.650290
O O4 0.500000 0.000000 0.000000
O O5 0.760945 0.662933 0.211717
O O6 0.800059 0.746700 0.330498
O O7 0.302006 0.685433 0.568855
O O8 0.057064 0.245280 0.511985
O O9 0.046804 0.331226 0.376894
O O10 0.580407 0.301214 0.730434
O O11 0.011439 0.376146 0.556465
O O12 0.854124 0.612869 0.002484
O O13 0.430479 0.542373 0.157255
O O14 0.000000 0.500000 0.500000
O O15 0.200604 0.380460 0.139051
#
# Coordination Sequence:
#
# PCOD8126685 Si02
#       7
#     4   4   4   4   4   4   4
#     4  12  26  44  66 100 133 176 222 279 338 397
#     4  10  23  42  66  95 137 171 220 272 340 386
#     4   9  20  41  64  90 128 168 221 264 336 386
#     4   9  21  39  63  93 126 170 215 276 321 397
#     4  11  26  46  67  93 135 181 220 274 336 405
#     4  11  24  42  69  93 135 173 230 272 339 399
#     4  10  21  41  68  96 132 175 219 281 317 402
#
# _framework density 20.841660000000001
#
# number of rings (size 3 to 8) (size 9 to 14) (size 15 to 20)
#    0.000    1.714    1.429    1.286    8.000    2.857 
#    7.714    0.000    0.000    0.000    0.000    0.000 
#    0.000    0.000    0.000    0.000    0.000    0.000 
#
# Total GULP energy -347266.998267 kJ/mol
# GULP energy per Si atom -12402.392795 kJ/mol
# Density = 2.079422 g / cm^3
# Si number density = 20.841660 Si / 1000 Ang^3
#
#
#
# Elastic Constant Matrix: (Units=GPa)
#
#
# Indices 1 2 3 4 5 6 
#
# 1 89.3990 40.8208 47.6532 0.0000 -7.1847 0.0000
# 2 40.8208 97.6294 62.0823 0.0000 -18.9223 0.0000
# 3 47.6532 62.0823 127.5199 0.0000 -5.8652 0.0000
# 4 0.0000 0.0000 0.0000 47.3445 0.0000 2.0262
# 5 -7.1847 -18.9223 -5.8652 0.0000 17.2068 0.0000
# 6 0.0000 0.0000 0.0000 2.0262 0.0000 38.7058
#
#
#
# Elastic Compliance Matrix: (Units=1/GPa)
#
#
# Indices 1 2 3 4 5 6 
#
# 1 0.014939 -0.003690 -0.003745 0.000000 0.000903 0.000000
# 2 -0.003690 0.020082 -0.007572 0.000000 0.017962 0.000000
# 3 -0.003745 -0.007572 0.012671 0.000000 -0.005571 0.000000
# 4 0.000000 0.000000 0.000000 0.021169 0.000000 -0.001108
# 5 0.000903 0.017962 -0.005571 0.000000 0.076348 0.000000
# 6 0.000000 0.000000 0.000000 -0.001108 0.000000 0.025894
#
#
# Mechanical properties :
#
#
# Convention : Reuss Voigt Hill
#
# Bulk Modulus (GPa) = 56.56194 68.40676 62.48435
# Shear Modulus (GPa) = 24.15345 31.58423 27.86884
#
# Velocity S-wave (km/s) = 3.40796 3.89709 3.66070
# Velocity P-wave (km/s) = 6.53325 7.28993 6.92194
#
# Compressibility (1/GPa) = 0.01767973
#
# Stress axis : x y z
#
# Youngs Moduli (GPa) = 66.93683 49.79602 78.91900
#
# Poissons Ratio (x) = 0.18376 0.29553
# Poissons Ratio (y) = 0.24701 0.59754
# Poissons Ratio (z) = 0.25066 0.37704
#
# Static dielectric constant tensor:
#      x y z
#    x 4.028790 0.000000 0.156600 
#    y 0.000000 4.100380 0.000000 
#    z 0.156600 0.000000 3.904730 
# 
# 
# High freq. dielectric constant tensor:
#      x y z
#    x 1.813430 0.000000 0.004230 
#    y 0.000000 1.825420 0.000000 
#    z 0.004230 0.000000 1.822080 
# 
# From -- ./inp_files/42102.got.cif
#   From: 2010.03.12/outbox.cif.g09.slc.cpg/sg14_22_cif.got.tgz:42102.got - 2010.03.31 13:35:05.
