data_PCOD8126451
_publ_section_title
;
Structure prediction by ZEFSAII (Michael W. Deem and Ramdas Pophale) SiO2 
 PCOD8126451
Probable space group: P 21/C
;
_chemical_formula_sum "Si O2"
_cell_formula_units_Z 20
_cell_length_a 9.815677
_cell_length_b 17.503051
_cell_length_c 13.211148
_cell_angle_alpha 90.000000
_cell_angle_beta 27.437911
_cell_angle_gamma 90.000000
_cell_volume 1045.863272
_symmetry_space_group_name_H-M "P 21/C"
_symmetry_group_IT_number 14
_symmetry_cell_setting 'monoclinic'
loop_
_space_group_symop_operation_xyz
x,y,z
-x,1/2+y,1/2-z
-x,-y,-z
x,1/2-y,1/2+z
loop_
_atom_site_type_symbol
_atom_site_label
_atom_site_fract_x
_atom_site_fract_y
_atom_site_fract_z
Si Si1 0.761993 0.674819 0.746453
Si Si2 0.823859 0.042197 0.531497
Si Si3 0.933945 0.313698 0.844635
Si Si4 0.196939 0.104815 0.992537
Si Si5 0.195497 0.027849 0.662501
O O1 0.896601 0.637400 0.555837
O O2 0.831654 0.616153 0.790903
O O3 0.949350 0.747141 0.659761
O O4 0.413671 0.693986 0.957693
O O5 0.005460 0.110681 0.361501
O O6 0.784091 0.977923 0.471925
O O7 0.536771 0.081049 0.768647
O O8 0.000000 0.000000 0.500000
O O9 0.127695 0.325039 0.615002
O O10 0.039507 0.026275 0.127051
O O11 0.500000 0.000000 0.500000
#
# Coordination Sequence:
#
# PCOD8126451 Si02
#       5
#     4   4   4   4   4
#     4  11  23  39  61  91 122 165 204 256 311 370
#     4  10  23  40  61  93 123 158 207 253 308 367
#     4  10  24  40  57  92 127 156 210 250 310 374
#     4  10  21  40  64  82 124 159 203 256 301 361
#     4  11  20  40  65  90 113 161 217 247 293 380
#
# _framework density 19.122959000000002
#
# number of rings (size 3 to 8) (size 9 to 14) (size 15 to 20)
#    0.000    1.600    6.000    0.600    0.000   11.200 
#    0.000    0.000    0.000    0.000    0.000    0.000 
#    0.000    0.000    0.000    0.000    0.000    0.000 
#
# Total GULP energy -247772.982697 kJ/mol
# GULP energy per Si atom -12388.649135 kJ/mol
# Density = 1.907943 g / cm^3
# Si number density = 19.122959 Si / 1000 Ang^3
#
#
#
# Elastic Constant Matrix: (Units=GPa)
#
#
# Indices 1 2 3 4 5 6 
#
# 1 138.0164 55.0465 39.8023 0.0000 1.7099 0.0000
# 2 55.0465 81.3740 12.9010 0.0000 -11.9574 0.0000
# 3 39.8023 12.9010 84.2171 0.0000 10.1283 0.0000
# 4 0.0000 0.0000 0.0000 17.4786 0.0000 -5.3307
# 5 1.7099 -11.9574 10.1283 0.0000 15.3865 0.0000
# 6 0.0000 0.0000 0.0000 -5.3307 0.0000 53.6712
#
#
#
# Elastic Compliance Matrix: (Units=1/GPa)
#
#
# Indices 1 2 3 4 5 6 
#
# 1 0.011533 -0.007979 -0.003615 0.000000 -0.005103 0.000000
# 2 -0.007979 0.020553 -0.001526 0.000000 0.017864 0.000000
# 3 -0.003615 -0.001526 0.015107 0.000000 -0.010728 0.000000
# 4 0.000000 0.000000 0.000000 0.059000 0.000000 0.005860
# 5 -0.005103 0.017864 -0.010728 0.000000 0.086503 0.000000
# 6 0.000000 0.000000 0.000000 0.005860 0.000000 0.019214
#
#
# Mechanical properties :
#
#
# Convention : Reuss Voigt Hill
#
# Bulk Modulus (GPa) = 47.72407 57.67859 52.70133
# Shear Modulus (GPa) = 20.39699 30.36445 25.38072
#
# Velocity S-wave (km/s) = 3.26946 3.98911 3.64708
# Velocity P-wave (km/s) = 6.26603 7.17250 6.73453
#
# Compressibility (1/GPa) = 0.02095379
#
# Stress axis : x y z
#
# Youngs Moduli (GPa) = 86.70435 48.65464 66.19637
#
# Poissons Ratio (x) = 0.38820 0.23930
# Poissons Ratio (y) = 0.69178 0.10102
# Poissons Ratio (z) = 0.31344 0.07425
#
# Static dielectric constant tensor:
#      x y z
#    x 3.520240 0.000000 0.208000 
#    y 0.000000 3.473390 0.000000 
#    z 0.208000 0.000000 3.615170 
# 
# 
# High freq. dielectric constant tensor:
#      x y z
#    x 1.745270 0.000000 0.014380 
#    y 0.000000 1.744230 0.000000 
#    z 0.014380 0.000000 1.751730 
# 
# From -- ./inp_files/5457.got.cif
#   From: 2010.03.12/outbox.cif.g09.slc.cpg/sg14_3_cif.got.tgz:5457.got - 2010.03.31 13:35:05.
