data_PCOD8126546
_publ_section_title
;
Structure prediction by ZEFSAII (Michael W. Deem and Ramdas Pophale) SiO2 
 PCOD8126546
Probable space group: P 21/C
;
_chemical_formula_sum "Si O2"
_cell_formula_units_Z 28
_cell_length_a 19.646822
_cell_length_b 8.465092
_cell_length_c 13.301622
_cell_angle_alpha 90.000000
_cell_angle_beta 33.600840
_cell_angle_gamma 90.000000
_cell_volume 1224.251658
_symmetry_space_group_name_H-M "P 21/C"
_symmetry_group_IT_number 14
_symmetry_cell_setting 'monoclinic'
loop_
_space_group_symop_operation_xyz
x,y,z
-x,1/2+y,1/2-z
-x,-y,-z
x,1/2-y,1/2+z
loop_
_atom_site_type_symbol
_atom_site_label
_atom_site_fract_x
_atom_site_fract_y
_atom_site_fract_z
Si Si1 0.214047 0.427261 0.984128
Si Si2 0.747167 0.717184 0.847490
Si Si3 0.965658 0.861722 0.464050
Si Si4 0.777473 0.236300 0.415395
Si Si5 0.399371 0.576829 0.010638
Si Si6 0.466044 0.346060 0.601239
Si Si7 0.602573 0.003586 0.106507
O O1 0.205293 0.341461 0.102468
O O2 0.089746 0.427185 0.072384
O O3 0.242622 0.611865 0.969400
O O4 0.318126 0.337887 0.789567
O O5 0.869612 0.743104 0.633123
O O6 0.655184 0.597176 0.900393
O O7 0.665877 0.875144 0.955464
O O8 0.081555 0.760612 0.286952
O O9 0.000000 0.000000 0.500000
O O10 0.716461 0.173069 0.388558
O O11 0.712240 0.400331 0.527556
O O12 0.463261 0.682078 0.022804
O O13 0.514853 0.578218 0.793349
O O14 0.500000 0.500000 0.500000
O O15 0.517551 0.374361 0.650366
#
# Coordination Sequence:
#
# PCOD8126546 Si02
#       7
#     4   4   4   4   4   4   4
#     4  11  25  45  67 104 139 187 240 285 357 426
#     4  11  22  44  74 101 144 184 235 298 353 432
#     4  12  27  45  70 101 143 191 246 292 354 423
#     4  10  23  42  70 100 135 191 229 284 354 427
#     4  10  21  40  70 101 134 177 225 287 367 415
#     4  11  22  39  66 102 143 177 228 285 355 436
#     4  11  18  41  71  99 135 178 222 281 369 410
#
# _framework density 22.871113000000001
#
# number of rings (size 3 to 8) (size 9 to 14) (size 15 to 20)
#    0.000    1.143    5.714    1.714    4.000    2.286 
#    0.000    5.714    0.000    0.000    0.000    0.000 
#    0.000    0.000    0.000    0.000    0.000    0.000 
#
# Total GULP energy -346969.744185 kJ/mol
# GULP energy per Si atom -12391.776578 kJ/mol
# Density = 2.281906 g / cm^3
# Si number density = 22.871113 Si / 1000 Ang^3
#
#
#
# Elastic Constant Matrix: (Units=GPa)
#
#
# Indices 1 2 3 4 5 6 
#
# 1 86.1645 16.2463 28.3971 0.0000 -25.9786 0.0000
# 2 16.2463 131.1327 51.1634 0.0000 -19.2062 0.0000
# 3 28.3971 51.1634 126.2828 0.0000 -31.6997 0.0000
# 4 0.0000 0.0000 0.0000 43.7918 0.0000 -9.3343
# 5 -25.9786 -19.2062 -31.6997 0.0000 32.8147 0.0000
# 6 0.0000 0.0000 0.0000 -9.3343 0.0000 36.1166
#
#
#
# Elastic Compliance Matrix: (Units=1/GPa)
#
#
# Indices 1 2 3 4 5 6 
#
# 1 0.015271 0.000012 -0.000531 0.000000 0.011584 0.000000
# 2 0.000012 0.009193 -0.003134 0.000000 0.002362 0.000000
# 3 -0.000531 -0.003134 0.011540 0.000000 0.008893 0.000000
# 4 0.000000 0.000000 0.000000 0.024167 0.000000 0.006246
# 5 0.011584 0.002362 0.008893 0.000000 0.049618 0.000000
# 6 0.000000 0.000000 0.000000 0.006246 0.000000 0.029302
#
#
# Mechanical properties :
#
#
# Convention : Reuss Voigt Hill
#
# Bulk Modulus (GPa) = 34.84618 59.46596 47.15607
# Shear Modulus (GPa) = 32.05849 39.06284 35.56066
#
# Velocity S-wave (km/s) = 3.74799 4.13723 3.94741
# Velocity P-wave (km/s) = 5.83086 6.99136 6.43731
#
# Compressibility (1/GPa) = 0.02869755
#
# Stress axis : x y z
#
# Youngs Moduli (GPa) = 65.48397 108.77497 86.65174
#
# Poissons Ratio (x) = -0.00128 0.04601
# Poissons Ratio (y) = -0.00077 0.27159
# Poissons Ratio (z) = 0.03477 0.34094
#
# Static dielectric constant tensor:
#      x y z
#    x 4.275580 0.000000 -0.330940 
#    y 0.000000 4.669520 0.000000 
#    z -0.330940 0.000000 4.006100 
# 
# 
# High freq. dielectric constant tensor:
#      x y z
#    x 1.898680 0.000000 -0.021880 
#    y 0.000000 1.921870 0.000000 
#    z -0.021880 0.000000 1.893280 
# 
# From -- ./inp_files/50023.got.cif
#   From: 2010.03.12/outbox.cif.g09.slc.cpg/sg14_26_cif.got.tgz:50023.got - 2010.03.31 13:35:05.
