data_PCOD8126889
_publ_section_title
;
Structure prediction by ZEFSAII (Michael W. Deem and Ramdas Pophale) SiO2 
 PCOD8126889
Probable space group: P 21/C
;
_chemical_formula_sum "Si O2"
_cell_formula_units_Z 16
_cell_length_a 5.125269
_cell_length_b 11.263918
_cell_length_c 11.443582
_cell_angle_alpha 90.000000
_cell_angle_beta 97.589463
_cell_angle_gamma 90.000000
_cell_volume 654.857615
_symmetry_space_group_name_H-M "P 21/C"
_symmetry_group_IT_number 14
_symmetry_cell_setting 'monoclinic'
loop_
_space_group_symop_operation_xyz
x,y,z
-x,1/2+y,1/2-z
-x,-y,-z
x,1/2-y,1/2+z
loop_
_atom_site_type_symbol
_atom_site_label
_atom_site_fract_x
_atom_site_fract_y
_atom_site_fract_z
Si Si1 0.025950 0.635964 0.033171
Si Si2 0.434263 0.210887 0.328454
Si Si3 0.282475 0.050236 0.904118
Si Si4 0.941012 0.655560 0.388085
O O1 0.269904 0.666002 0.133502
O O2 0.750830 0.666342 0.078505
O O3 0.000000 0.500000 0.000000
O O4 0.059249 0.711095 0.912718
O O5 0.409527 0.355664 0.320753
O O6 0.334136 0.158922 0.198513
O O7 0.078664 0.117151 0.977448
O O8 0.133370 0.938673 0.833106
O O9 0.500000 0.000000 0.000000
#
# Coordination Sequence:
#
# PCOD8126889 Si02
#       4
#     4   4   4   4
#     4  11  25  45  62 100 138 166 220 281 327 394
#     4  11  25  41  69  98 126 183 219 265 346 391
#     4  10  21  44  66  92 137 172 228 279 322 402
#     4  10  24  41  67  97 131 179 224 276 333 400
#
# _framework density 24.432794000000001
#
# number of rings (size 3 to 8) (size 9 to 14) (size 15 to 20)
#    0.000    1.500    2.500    0.750    7.000    0.000 
#    0.000    0.000    0.000    0.000    0.000    0.000 
#    0.000    0.000    0.000    0.000    0.000    0.000 
#
# Total GULP energy -198254.972117 kJ/mol
# GULP energy per Si atom -12390.935757 kJ/mol
# Density = 2.437718 g / cm^3
# Si number density = 24.432794 Si / 1000 Ang^3
#
#
#
# Elastic Constant Matrix: (Units=GPa)
#
#
# Indices 1 2 3 4 5 6 
#
# 1 55.9349 17.1731 -3.5777 0.0000 23.0768 0.0000
# 2 17.1731 168.8477 26.6924 0.0000 15.9340 0.0000
# 3 -3.5777 26.6924 80.4900 0.0000 34.7370 0.0000
# 4 0.0000 0.0000 0.0000 32.7685 0.0000 13.6887
# 5 23.0768 15.9340 34.7370 0.0000 47.8489 0.0000
# 6 0.0000 0.0000 0.0000 13.6887 0.0000 33.4737
#
#
#
# Elastic Compliance Matrix: (Units=1/GPa)
#
#
# Indices 1 2 3 4 5 6 
#
# 1 0.027851 -0.002630 0.010964 0.000000 -0.020516 0.000000
# 2 -0.002630 0.006522 -0.002752 0.000000 0.001094 0.000000
# 3 0.010964 -0.002752 0.022878 0.000000 -0.020980 0.000000
# 4 0.000000 0.000000 0.000000 0.036804 0.000000 -0.015051
# 5 -0.020516 0.001094 -0.020980 0.000000 0.045660 0.000000
# 6 0.000000 0.000000 0.000000 -0.015051 0.000000 0.036029
#
#
# Mechanical properties :
#
#
# Convention : Reuss Voigt Hill
#
# Bulk Modulus (GPa) = 14.61660 42.87200 28.74430
# Shear Modulus (GPa) = 26.68301 40.48388 33.58344
#
# Velocity S-wave (km/s) = 3.30828 4.07498 3.71148
# Velocity P-wave (km/s) = 4.53743 6.30283 5.49153
#
# Compressibility (1/GPa) = 0.06841535
#
# Stress axis : x y z
#
# Youngs Moduli (GPa) = 35.90571 153.33333 43.70943
#
# Poissons Ratio (x) = 0.40324 -0.47923
# Poissons Ratio (y) = 0.09443 0.12029
# Poissons Ratio (z) = -0.39367 0.42197
#
# Static dielectric constant tensor:
#      x y z
#    x 2.667910 0.000000 1.147660 
#    y 0.000000 5.590470 0.000000 
#    z 1.147660 0.000000 3.473390 
# 
# 
# High freq. dielectric constant tensor:
#      x y z
#    x 1.956920 0.000000 0.020780 
#    y 0.000000 1.998910 0.000000 
#    z 0.020780 0.000000 1.949320 
# 
# From -- ./inp_files/20210.got.cif
#   From: 2010.03.12/outbox.cif.g09.slc.cpg/sg14_11_cif.got.tgz:20210.got - 2010.03.31 13:35:05.
