data_PCOD8126947
_publ_section_title
;
Structure prediction by ZEFSAII (Michael W. Deem and Ramdas Pophale) SiO2 
 PCOD8126947
Probable space group: P 21/C
;
_chemical_formula_sum "Si O2"
_cell_formula_units_Z 28
_cell_length_a 15.794206
_cell_length_b 20.276826
_cell_length_c 8.611784
_cell_angle_alpha 90.000000
_cell_angle_beta 35.127367
_cell_angle_gamma 90.000000
_cell_volume 1586.929807
_symmetry_space_group_name_H-M "P 21/C"
_symmetry_group_IT_number 14
_symmetry_cell_setting 'monoclinic'
loop_
_space_group_symop_operation_xyz
x,y,z
-x,1/2+y,1/2-z
-x,-y,-z
x,1/2-y,1/2+z
loop_
_atom_site_type_symbol
_atom_site_label
_atom_site_fract_x
_atom_site_fract_y
_atom_site_fract_z
Si Si1 0.607299 0.956707 0.234395
Si Si2 0.390650 0.842157 0.464113
Si Si3 0.833379 0.931956 0.159890
Si Si4 0.833381 0.431955 0.839969
Si Si5 0.607301 0.043293 0.943703
Si Si6 0.609348 0.842158 0.636067
Si Si7 0.500002 0.749999 0.042181
O O1 0.524116 0.892640 0.294334
O O2 0.746647 0.934750 0.127313
O O3 0.500000 0.000000 0.500000
O O4 0.663434 0.000000 0.004849
O O5 0.236601 0.879490 0.674892
O O6 0.416722 0.804913 0.264088
O O7 0.379764 0.787933 0.616187
O O8 0.763396 0.879493 0.384704
O O9 0.825315 0.000002 0.262021
O O10 0.999999 0.911168 0.872601
O O11 0.746650 0.434752 0.132740
O O12 0.524121 0.107362 0.133305
O O13 0.500000 0.000000 0.000000
O O14 0.583282 0.804914 0.514247
O O15 0.620238 0.787932 0.755475
#
# Coordination Sequence:
#
# PCOD8126947 Si02
#       7
#     4   4   4   4   4   4   4
#     4  12  19  34  63  89 112 149 196 241 292 347
#     4  11  19  37  57  86 111 149 196 242 274 349
#     4  11  23  38  58  88 121 149 185 248 309 345
#     4  11  23  38  58  88 121 149 185 248 309 345
#     4  12  19  34  63  89 112 149 196 241 292 347
#     4  11  19  37  57  86 111 149 196 242 274 349
#     4  10  22  32  62  86 106 148 210 234 272 332
#
# _framework density 17.644133
#
# number of rings (size 3 to 8) (size 9 to 14) (size 15 to 20)
#    0.000    0.857    8.571    0.000    0.000    0.571 
#    0.000    1.429    0.000    0.000    0.000    0.000 
#    0.000    0.000    0.000    0.000    0.000    0.000 
#
# Total GULP energy -347182.829746 kJ/mol
# GULP energy per Si atom -12399.386777 kJ/mol
# Density = 1.760397 g / cm^3
# Si number density = 17.644133 Si / 1000 Ang^3
#
#
#
# Elastic Constant Matrix: (Units=GPa)
#
#
# Indices 1 2 3 4 5 6 
#
# 1 113.0898 55.5641 60.6889 0.0000 -5.0948 0.0000
# 2 55.5641 109.2502 56.7429 0.0000 -1.9133 0.0000
# 3 60.6889 56.7429 122.0439 0.0000 -9.4366 0.0000
# 4 0.0000 0.0000 0.0000 16.6833 0.0000 14.3392
# 5 -5.0948 -1.9133 -9.4366 0.0000 34.8194 0.0000
# 6 0.0000 0.0000 0.0000 14.3392 0.0000 25.5166
#
#
#
# Elastic Compliance Matrix: (Units=1/GPa)
#
#
# Indices 1 2 3 4 5 6 
#
# 1 0.013542 -0.004484 -0.004612 0.000000 0.000485 0.000000
# 2 -0.004484 0.013578 -0.004164 0.000000 -0.001038 0.000000
# 3 -0.004612 -0.004164 0.012618 0.000000 0.002516 0.000000
# 4 0.000000 0.000000 0.000000 0.115938 0.000000 -0.065152
# 5 0.000485 -0.001038 0.002516 0.000000 0.029415 0.000000
# 6 0.000000 0.000000 0.000000 -0.065152 0.000000 0.075803
#
#
# Mechanical properties :
#
#
# Convention : Reuss Voigt Hill
#
# Bulk Modulus (GPa) = 75.64732 76.70840 76.17786
# Shear Modulus (GPa) = 17.13389 26.82974 21.98182
#
# Velocity S-wave (km/s) = 3.11960 3.90372 3.53348
# Velocity P-wave (km/s) = 7.47950 7.99302 7.74052
#
# Compressibility (1/GPa) = 0.01321924
#
# Stress axis : x y z
#
# Youngs Moduli (GPa) = 73.84229 73.64854 79.25427
#
# Poissons Ratio (x) = 0.33021 0.36553
# Poissons Ratio (y) = 0.33108 0.32999
# Poissons Ratio (z) = 0.34057 0.30665
#
# Static dielectric constant tensor:
#      x y z
#    x 3.527180 0.000000 0.186660 
#    y 0.000000 3.646570 0.000000 
#    z 0.186660 0.000000 3.412190 
# 
# 
# High freq. dielectric constant tensor:
#      x y z
#    x 1.680190 0.000000 0.026920 
#    y 0.000000 1.700980 0.000000 
#    z 0.026920 0.000000 1.663610 
# 
# From -- ./inp_files/9989.got.cif
#   From: 2010.03.12/outbox.cif.g09.slc.cpg/sg14_5_cif.got.tgz:9989.got - 2010.03.31 13:35:05.
