data_PCOD8126714
_publ_section_title
;
Structure prediction by ZEFSAII (Michael W. Deem and Ramdas Pophale) SiO2 
 PCOD8126714
Probable space group: P 21/C
;
_chemical_formula_sum "Si O2"
_cell_formula_units_Z 32
_cell_length_a 5.303946
_cell_length_b 26.841976
_cell_length_c 8.279965
_cell_angle_alpha 90.000000
_cell_angle_beta 109.954399
_cell_angle_gamma 90.000000
_cell_volume 1108.035170
_symmetry_space_group_name_H-M "P 21/C"
_symmetry_group_IT_number 14
_symmetry_cell_setting 'monoclinic'
loop_
_space_group_symop_operation_xyz
x,y,z
-x,1/2+y,1/2-z
-x,-y,-z
x,1/2-y,1/2+z
loop_
_atom_site_type_symbol
_atom_site_label
_atom_site_fract_x
_atom_site_fract_y
_atom_site_fract_z
Si Si1 0.016829 0.969502 0.286591
Si Si2 0.157019 0.634811 0.216883
Si Si3 0.311932 0.684872 0.800241
Si Si4 0.120720 0.424522 0.570882
Si Si5 0.652208 0.679121 0.439083
Si Si6 0.547859 0.737398 0.142794
Si Si7 0.388995 0.959695 0.643345
Si Si8 0.836286 0.633392 0.850313
O O1 0.867847 0.925759 0.353397
O O2 0.314191 0.976403 0.439153
O O3 0.820594 0.015999 0.275601
O O4 0.030995 0.956834 0.099047
O O5 0.079725 0.602717 0.355512
O O6 0.332314 0.680391 0.324634
O O7 0.343457 0.599865 0.141644
O O8 0.916291 0.653296 0.047756
O O9 0.313546 0.735237 0.696608
O O10 0.524645 0.647338 0.758687
O O11 0.022428 0.657894 0.746929
O O12 0.401479 0.697229 0.000650
O O13 0.278103 0.379095 0.514125
O O14 0.301748 0.464038 0.720339
O O15 0.766732 0.706461 0.301318
O O16 0.714800 0.717816 0.595995
#
# Coordination Sequence:
#
# PCOD8126714 Si02
#       8
#     4   4   4   4   4   4   4   4
#     4  10  22  43  68 103 133 188 237 288 354 441
#     4  10  22  39  65  93 135 182 223 291 360 419
#     4  11  24  43  64  97 132 183 229 298 357 428
#     4  11  22  41  70  97 135 184 231 294 362 428
#     4  10  21  42  59  94 131 174 230 293 349 427
#     4  10  22  42  64  91 131 179 235 290 358 425
#     4   9  22  45  64  98 146 172 240 293 357 423
#     4  11  24  43  67  96 142 182 233 291 366 428
#
# _framework density 28.879949
#
# number of rings (size 3 to 8) (size 9 to 14) (size 15 to 20)
#    0.000    1.750    1.250    1.875    5.250    1.500 
#   11.250    1.875    0.000    0.000    0.000    0.000 
#    0.000    0.000    0.000    0.000    0.000    0.000 
#
# Total GULP energy -396491.789966 kJ/mol
# GULP energy per Si atom -12390.368436 kJ/mol
# Density = 2.881422 g / cm^3
# Si number density = 28.879949 Si / 1000 Ang^3
#
#
#
# Elastic Constant Matrix: (Units=GPa)
#
#
# Indices 1 2 3 4 5 6 
#
# 1 80.3410 5.8545 27.3611 0.0000 19.5136 0.0000
# 2 5.8545 105.7173 28.4693 0.0000 17.0916 0.0000
# 3 27.3611 28.4693 118.0230 0.0000 14.7276 0.0000
# 4 0.0000 0.0000 0.0000 67.1255 0.0000 -2.4105
# 5 19.5136 17.0916 14.7276 0.0000 36.5220 0.0000
# 6 0.0000 0.0000 0.0000 -2.4105 0.0000 24.5150
#
#
#
# Elastic Compliance Matrix: (Units=1/GPa)
#
#
# Indices 1 2 3 4 5 6 
#
# 1 0.015152 0.001138 -0.002854 0.000000 -0.007478 0.000000
# 2 0.001138 0.010773 -0.002272 0.000000 -0.004734 0.000000
# 3 -0.002854 -0.002272 0.009856 0.000000 -0.001386 0.000000
# 4 0.000000 0.000000 0.000000 0.014950 0.000000 0.001470
# 5 -0.007478 -0.004734 -0.001386 0.000000 0.034150 0.000000
# 6 0.000000 0.000000 0.000000 0.001470 0.000000 0.040936
#
#
# Mechanical properties :
#
#
# Convention : Reuss Voigt Hill
#
# Bulk Modulus (GPa) = 35.96385 47.49454 41.72920
# Shear Modulus (GPa) = 34.94999 41.79226 38.37113
#
# Velocity S-wave (km/s) = 3.48254 3.80821 3.64901
# Velocity P-wave (km/s) = 5.35263 5.98480 5.67752
#
# Compressibility (1/GPa) = 0.02780570
#
# Stress axis : x y z
#
# Youngs Moduli (GPa) = 65.99694 92.82211 101.46504
#
# Poissons Ratio (x) = -0.10567 0.28960
# Poissons Ratio (y) = -0.07513 0.23052
# Poissons Ratio (z) = 0.18837 0.21089
#
# Static dielectric constant tensor:
#      x y z
#    x 4.797890 0.000000 0.053760 
#    y 0.000000 5.617220 0.000000 
#    z 0.053760 0.000000 5.695740 
# 
# 
# High freq. dielectric constant tensor:
#      x y z
#    x 2.137360 0.000000 -0.005340 
#    y 0.000000 2.199800 0.000000 
#    z -0.005340 0.000000 2.196280 
# 
# From -- ./inp_files/6998.got.cif
#   From: 2010.03.12/outbox.cif.g09.slc.cpg/sg14_4_cif.got.tgz:6998.got - 2010.03.31 13:35:05.
