data_PCOD8126089
_publ_section_title
;
Structure prediction by ZEFSAII (Michael W. Deem and Ramdas Pophale) SiO2 
 PCOD8126089
Probable space group: P 21/C
;
_chemical_formula_sum "Si O2"
_cell_formula_units_Z 24
_cell_length_a 7.640627
_cell_length_b 22.797487
_cell_length_c 8.319638
_cell_angle_alpha 90.000000
_cell_angle_beta 52.462686
_cell_angle_gamma 90.000000
_cell_volume 1149.131915
_symmetry_space_group_name_H-M "P 21/C"
_symmetry_group_IT_number 14
_symmetry_cell_setting 'monoclinic'
loop_
_space_group_symop_operation_xyz
x,y,z
-x,1/2+y,1/2-z
-x,-y,-z
x,1/2-y,1/2+z
loop_
_atom_site_type_symbol
_atom_site_label
_atom_site_fract_x
_atom_site_fract_y
_atom_site_fract_z
Si Si1 0.603579 0.424015 0.546815
Si Si2 0.963522 0.434124 0.578728
Si Si3 0.367147 0.810835 0.181985
Si Si4 0.161291 0.317245 0.447788
Si Si5 0.850866 0.973812 0.721483
Si Si6 0.898760 0.268972 0.883996
O O1 0.726670 0.410307 0.647204
O O2 0.625071 0.373801 0.403366
O O3 0.347084 0.433538 0.736875
O O4 0.727028 0.478869 0.399836
O O5 0.146603 0.386945 0.411514
O O6 0.000000 0.500000 0.500000
O O7 0.981995 0.435734 0.761955
O O8 0.175963 0.809034 0.424269
O O9 0.314230 0.763327 0.073662
O O10 0.594977 0.796460 0.143536
O O11 0.077071 0.279004 0.344738
O O12 0.005692 0.310014 0.690392
O O13 0.000000 0.000000 0.500000
#
# Coordination Sequence:
#
# PCOD8126089 Si02
#       6
#     4   4   4   4   4   4
#     4  10  21  38  60  83 119 151 191 246 298 350
#     4  10  21  39  61  87 123 161 194 249 308 351
#     4  11  21  39  61  86 116 157 195 245 305 353
#     4  11  21  41  62  88 123 155 201 253 301 361
#     4  10  22  39  60  86 113 156 201 239 293 358
#     4  10  24  38  61  90 117 155 205 248 302 364
#
# _framework density 20.885331000000001
#
# number of rings (size 3 to 8) (size 9 to 14) (size 15 to 20)
#    0.000    1.667    3.333    1.000    2.333    0.667 
#    0.000    3.333    0.000    0.000    0.000    0.000 
#    0.000    0.000    0.000    0.000    0.000    0.000 
#
# Total GULP energy -297450.937610 kJ/mol
# GULP energy per Si atom -12393.789067 kJ/mol
# Density = 2.083780 g / cm^3
# Si number density = 20.885331 Si / 1000 Ang^3
#
#
#
# Elastic Constant Matrix: (Units=GPa)
#
#
# Indices 1 2 3 4 5 6 
#
# 1 169.1172 15.5359 20.8342 0.0000 0.7943 0.0000
# 2 15.5359 66.4459 -5.2622 0.0000 -2.5175 0.0000
# 3 20.8342 -5.2622 49.3636 0.0000 1.2691 0.0000
# 4 0.0000 0.0000 0.0000 27.1898 0.0000 3.2271
# 5 0.7943 -2.5175 1.2691 0.0000 19.3001 0.0000
# 6 0.0000 0.0000 0.0000 3.2271 0.0000 24.4676
#
#
#
# Elastic Compliance Matrix: (Units=1/GPa)
#
#
# Indices 1 2 3 4 5 6 
#
# 1 0.006431 -0.001744 -0.002892 0.000000 -0.000302 0.000000
# 2 -0.001744 0.015719 0.002361 0.000000 0.001967 0.000000
# 3 -0.002892 0.002361 0.021756 0.000000 -0.001004 0.000000
# 4 0.000000 0.000000 0.000000 0.037363 0.000000 -0.004928
# 5 -0.000302 0.001967 -0.001004 0.000000 0.052148 0.000000
# 6 0.000000 0.000000 0.000000 -0.004928 0.000000 0.041520
#
#
# Mechanical properties :
#
#
# Convention : Reuss Voigt Hill
#
# Bulk Modulus (GPa) = 25.40932 38.57138 31.99035
# Shear Modulus (GPa) = 25.95955 31.11277 28.53616
#
# Velocity S-wave (km/s) = 3.52938 3.86384 3.70039
# Velocity P-wave (km/s) = 5.36668 6.19790 5.79721
#
# Compressibility (1/GPa) = 0.03935563
#
# Stress axis : x y z
#
# Youngs Moduli (GPa) = 155.49608 63.61663 45.96413
#
# Poissons Ratio (x) = 0.11096 0.13295
# Poissons Ratio (y) = 0.27121 -0.10853
# Poissons Ratio (z) = 0.44976 -0.15021
#
# Static dielectric constant tensor:
#      x y z
#    x 4.690510 0.000000 0.167420 
#    y 0.000000 3.798150 0.000000 
#    z 0.167420 0.000000 3.346740 
# 
# 
# High freq. dielectric constant tensor:
#      x y z
#    x 1.848100 0.000000 0.012570 
#    y 0.000000 1.822450 0.000000 
#    z 0.012570 0.000000 1.778500 
# 
# From -- ./inp_files/10105.got.cif
#   From: 2010.03.12/outbox.cif.g09.slc.cpg/sg14_6_cif.got.tgz:10105.got - 2010.03.31 13:35:05.
