data_PCOD8126670
_publ_section_title
;
Structure prediction by ZEFSAII (Michael W. Deem and Ramdas Pophale) SiO2 
 PCOD8126670
Probable space group: P 21/C
;
_chemical_formula_sum "Si O2"
_cell_formula_units_Z 32
_cell_length_a 11.252523
_cell_length_b 11.224575
_cell_length_c 11.675682
_cell_angle_alpha 90.000000
_cell_angle_beta 108.949713
_cell_angle_gamma 90.000000
_cell_volume 1394.771931
_symmetry_space_group_name_H-M "P 21/C"
_symmetry_group_IT_number 14
_symmetry_cell_setting 'monoclinic'
loop_
_space_group_symop_operation_xyz
x,y,z
-x,1/2+y,1/2-z
-x,-y,-z
x,1/2-y,1/2+z
loop_
_atom_site_type_symbol
_atom_site_label
_atom_site_fract_x
_atom_site_fract_y
_atom_site_fract_z
Si Si1 0.453685 0.152009 0.437979
Si Si2 0.658652 0.159951 0.320411
Si Si3 0.279853 0.337130 0.684172
Si Si4 0.109198 0.670404 0.577816
Si Si5 0.461442 0.112270 0.061985
Si Si6 0.304541 0.085874 0.589753
Si Si7 0.039647 0.399382 0.924823
Si Si8 0.977727 0.560105 0.338331
O O1 0.589884 0.154590 0.422229
O O2 0.347992 0.110746 0.316436
O O3 0.423800 0.287468 0.461255
O O4 0.432127 0.073358 0.548933
O O5 0.753805 0.272249 0.352665
O O6 0.569196 0.164814 0.181726
O O7 0.724628 0.029577 0.340500
O O8 0.336036 0.416248 0.596666
O O9 0.317196 0.198518 0.677893
O O10 0.132110 0.352720 0.651813
O O11 0.068663 0.576510 0.663007
O O12 0.009002 0.775086 0.543341
O O13 0.099120 0.597799 0.453492
O O14 0.500000 0.000000 0.000000
O O15 0.190217 0.107807 0.466072
O O16 0.984466 0.422120 0.781202
O O17 0.000000 0.500000 0.000000
#
# Coordination Sequence:
#
# PCOD8126670 Si02
#       8
#     4   4   4   4   4   4   4   4
#     4  10  22  41  65  98 134 179 227 283 353 421
#     4  11  24  43  68 101 140 179 234 295 353 439
#     4  10  21  41  67  96 136 181 228 282 351 425
#     4  11  27  47  68 107 139 193 241 293 372 425
#     4  10  23  41  65 104 137 182 231 290 355 426
#     4  11  21  40  67  98 132 179 229 283 356 425
#     4  12  25  45  71 102 139 186 241 300 358 435
#     4  11  26  47  72 100 146 189 240 304 358 445
#
# _framework density 22.942817999999999
#
# number of rings (size 3 to 8) (size 9 to 14) (size 15 to 20)
#    0.000    1.250    3.750    1.125    3.500    2.000 
#    6.750    0.000    0.000    0.000    0.000    0.000 
#    0.000    0.000    0.000    0.000    0.000    0.000 
#
# Total GULP energy -396587.217506 kJ/mol
# GULP energy per Si atom -12393.350547 kJ/mol
# Density = 2.289060 g / cm^3
# Si number density = 22.942818 Si / 1000 Ang^3
#
#
#
# Elastic Constant Matrix: (Units=GPa)
#
#
# Indices 1 2 3 4 5 6 
#
# 1 82.5675 21.0745 26.1379 0.0000 -4.1588 0.0000
# 2 21.0745 103.1752 31.8942 0.0000 -16.5887 0.0000
# 3 26.1379 31.8942 92.1110 0.0000 -13.9727 0.0000
# 4 0.0000 0.0000 0.0000 30.8859 0.0000 5.1769
# 5 -4.1588 -16.5887 -13.9727 0.0000 35.5727 0.0000
# 6 0.0000 0.0000 0.0000 5.1769 0.0000 31.3625
#
#
#
# Elastic Compliance Matrix: (Units=1/GPa)
#
#
# Indices 1 2 3 4 5 6 
#
# 1 0.013601 -0.001848 -0.003306 0.000000 -0.000570 0.000000
# 2 -0.001848 0.011614 -0.002880 0.000000 0.004069 0.000000
# 3 -0.003306 -0.002880 0.013323 0.000000 0.003504 0.000000
# 4 0.000000 0.000000 0.000000 0.033299 0.000000 -0.005496
# 5 -0.000570 0.004069 0.003504 0.000000 0.031318 0.000000
# 6 0.000000 0.000000 0.000000 -0.005496 0.000000 0.032792
#
#
# Mechanical properties :
#
#
# Convention : Reuss Voigt Hill
#
# Bulk Modulus (GPa) = 44.50259 48.45187 46.47723
# Shear Modulus (GPa) = 31.34686 32.81403 32.08044
#
# Velocity S-wave (km/s) = 3.70036 3.78597 3.74341
# Velocity P-wave (km/s) = 6.13972 6.34632 6.24388
#
# Compressibility (1/GPa) = 0.02247060
#
# Stress axis : x y z
#
# Youngs Moduli (GPa) = 73.52510 86.10192 75.05629
#
# Poissons Ratio (x) = 0.15910 0.24815
# Poissons Ratio (y) = 0.13586 0.21616
# Poissons Ratio (z) = 0.24308 0.24797
#
# Static dielectric constant tensor:
#      x y z
#    x 4.128990 0.000000 -0.020500 
#    y 0.000000 4.192510 0.000000 
#    z -0.020500 0.000000 3.974230 
# 
# 
# High freq. dielectric constant tensor:
#      x y z
#    x 1.901530 0.000000 -0.004590 
#    y 0.000000 1.913400 0.000000 
#    z -0.004590 0.000000 1.905120 
# 
# From -- ./inp_files/29398.got.cif
#   From: 2010.03.12/outbox.cif.g09.slc.cpg/sg14_15_cif.got.tgz:29398.got - 2010.03.31 13:35:05.
