data_PCOD8126385
_publ_section_title
;
Structure prediction by ZEFSAII (Michael W. Deem and Ramdas Pophale) SiO2 
 PCOD8126385
Probable space group: P 21/C
;
_chemical_formula_sum "Si O2"
_cell_formula_units_Z 32
_cell_length_a 12.290240
_cell_length_b 10.927804
_cell_length_c 13.295578
_cell_angle_alpha 90.000000
_cell_angle_beta 113.282169
_cell_angle_gamma 90.000000
_cell_volume 1640.259165
_symmetry_space_group_name_H-M "P 21/C"
_symmetry_group_IT_number 14
_symmetry_cell_setting 'monoclinic'
loop_
_space_group_symop_operation_xyz
x,y,z
-x,1/2+y,1/2-z
-x,-y,-z
x,1/2-y,1/2+z
loop_
_atom_site_type_symbol
_atom_site_label
_atom_site_fract_x
_atom_site_fract_y
_atom_site_fract_z
Si Si1 0.716654 0.725743 0.809674
Si Si2 0.196191 0.028679 0.074893
Si Si3 0.478890 0.388686 0.133525
Si Si4 0.046880 0.085129 0.655480
Si Si5 0.469766 0.337624 0.899239
Si Si6 0.007294 0.911668 0.136745
Si Si7 0.904397 0.167032 0.416677
Si Si8 0.660924 0.204978 0.851952
O O1 0.742859 0.840573 0.890982
O O2 0.641837 0.627270 0.846829
O O3 0.836599 0.665500 0.815601
O O4 0.646053 0.770864 0.685933
O O5 0.296121 0.927059 0.094108
O O6 0.113243 0.025585 0.945882
O O7 0.119053 0.995460 0.145965
O O8 0.518528 0.529342 0.147181
O O9 0.581865 0.308059 0.222516
O O10 0.456052 0.341330 0.013352
O O11 0.991357 0.104049 0.744113
O O12 0.944035 0.126244 0.542020
O O13 0.078403 0.943138 0.654642
O O14 0.586384 0.260679 0.916032
O O15 0.014145 0.779060 0.087813
O O16 0.767602 0.204017 0.365904
#
# Coordination Sequence:
#
# PCOD8126385 Si02
#       8
#     4   4   4   4   4   4   4   4
#     4  11  22  39  61  87 124 154 197 255 293 358
#     4  10  21  40  59  90 120 159 195 249 300 360
#     4  10  22  40  61  90 115 159 204 249 302 352
#     4  11  24  39  62  91 121 162 202 248 306 366
#     4  10  22  40  63  87 117 159 206 244 303 362
#     4  10  23  39  64  86 125 161 198 246 307 369
#     4  10  23  41  58  91 123 157 203 254 300 363
#     4  10  21  40  62  83 124 157 195 256 297 352
#
# _framework density 19.509111999999998
#
# number of rings (size 3 to 8) (size 9 to 14) (size 15 to 20)
#    0.000    1.750    2.500    0.750    3.500    3.000 
#    2.250    0.625    0.000    0.000    0.000    0.000 
#    0.000    0.000    0.000    0.000    0.000    0.000 
#
# Total GULP energy -396959.090881 kJ/mol
# GULP energy per Si atom -12404.971590 kJ/mol
# Density = 1.946471 g / cm^3
# Si number density = 19.509112 Si / 1000 Ang^3
#
#
#
# Elastic Constant Matrix: (Units=GPa)
#
#
# Indices 1 2 3 4 5 6 
#
# 1 66.9142 14.1836 25.0468 0.0000 7.8886 0.0000
# 2 14.1836 68.6111 17.5202 0.0000 -0.7470 0.0000
# 3 25.0468 17.5202 77.8348 0.0000 -7.6526 0.0000
# 4 0.0000 0.0000 0.0000 28.6392 0.0000 3.7739
# 5 7.8886 -0.7470 -7.6526 0.0000 27.7324 0.0000
# 6 0.0000 0.0000 0.0000 3.7739 0.0000 31.9246
#
#
#
# Elastic Compliance Matrix: (Units=1/GPa)
#
#
# Indices 1 2 3 4 5 6 
#
# 1 0.018570 -0.002348 -0.006139 0.000000 -0.007040 0.000000
# 2 -0.002348 0.015769 -0.002761 0.000000 0.000331 0.000000
# 3 -0.006139 -0.002761 0.016045 0.000000 0.006099 0.000000
# 4 0.000000 0.000000 0.000000 0.035470 0.000000 -0.004193
# 5 -0.007040 0.000331 0.006099 0.000000 0.039753 0.000000
# 6 0.000000 0.000000 0.000000 -0.004193 0.000000 0.031820
#
#
# Mechanical properties :
#
#
# Convention : Reuss Voigt Hill
#
# Bulk Modulus (GPa) = 35.85989 36.31793 36.08891
# Shear Modulus (GPa) = 26.42435 28.09985 27.26210
#
# Velocity S-wave (km/s) = 3.68429 3.79931 3.74224
# Velocity P-wave (km/s) = 6.04315 6.15651 6.10009
#
# Compressibility (1/GPa) = 0.02788631
#
# Stress axis : x y z
#
# Youngs Moduli (GPa) = 53.84983 63.41547 62.32612
#
# Poissons Ratio (x) = 0.14889 0.38265
# Poissons Ratio (y) = 0.12643 0.17211
# Poissons Ratio (z) = 0.33061 0.17512
#
# Static dielectric constant tensor:
#      x y z
#    x 3.514390 0.000000 0.151650 
#    y 0.000000 3.732790 0.000000 
#    z 0.151650 0.000000 3.444450 
# 
# 
# High freq. dielectric constant tensor:
#      x y z
#    x 1.759590 0.000000 0.014430 
#    y 0.000000 1.772730 0.000000 
#    z 0.014430 0.000000 1.758280 
# 
# From -- ./inp_files/29384.got.cif
#   From: 2010.03.12/outbox.cif.g09.slc.cpg/sg14_15_cif.got.tgz:29384.got - 2010.03.31 13:35:05.
