data_PCOD8126982
_publ_section_title
;
Structure prediction by ZEFSAII (Michael W. Deem and Ramdas Pophale) SiO2 
 PCOD8126982
Probable space group: P 21/C
;
_chemical_formula_sum "Si O2"
_cell_formula_units_Z 28
_cell_length_a 16.484437
_cell_length_b 7.088699
_cell_length_c 23.263050
_cell_angle_alpha 90.000000
_cell_angle_beta 152.910417
_cell_angle_gamma 90.000000
_cell_volume 1237.896029
_symmetry_space_group_name_H-M "P 21/C"
_symmetry_group_IT_number 14
_symmetry_cell_setting 'monoclinic'
loop_
_space_group_symop_operation_xyz
x,y,z
-x,1/2+y,1/2-z
-x,-y,-z
x,1/2-y,1/2+z
loop_
_atom_site_type_symbol
_atom_site_label
_atom_site_fract_x
_atom_site_fract_y
_atom_site_fract_z
Si Si1 0.974710 0.491947 0.417261
Si Si2 0.586188 0.448653 0.158295
Si Si3 0.705581 0.068534 0.178881
Si Si4 0.967184 0.560339 0.045101
Si Si5 0.317304 0.924460 0.075259
Si Si6 0.592017 0.650624 0.840775
Si Si7 0.606289 0.208870 0.002428
O O1 0.776308 0.556583 0.274675
O O2 0.999561 0.276049 0.417543
O O3 0.000000 0.500000 0.500000
O O4 0.121893 0.623508 0.478714
O O5 0.605374 0.231656 0.152162
O O6 0.523978 0.456939 0.185182
O O7 0.441628 0.567117 0.029859
O O8 0.880977 0.971716 0.318203
O O9 0.573242 0.894499 0.092037
O O10 0.748033 0.160140 0.142528
O O11 0.000000 0.500000 0.000000
O O12 0.762959 0.516900 0.933660
O O13 0.473605 0.819041 0.208848
O O14 0.315440 0.858790 0.008587
O O15 0.347421 0.147870 0.097683
#
# Coordination Sequence:
#
# PCOD8126982 Si02
#       7
#     4   4   4   4   4   4   4
#     4  10  22  37  59  93 131 159 204 270 323 368
#     4  11  22  42  66  94 125 166 217 264 319 383
#     4  10  23  45  63  92 129 162 214 267 315 386
#     4  10  23  38  63  92 126 164 207 266 325 374
#     4  11  22  39  61  95 131 166 211 263 325 381
#     4  11  22  37  62  96 128 165 215 265 317 382
#     4  11  23  41  69  89 123 176 209 256 327 385
#
# _framework density 22.619025000000001
#
# number of rings (size 3 to 8) (size 9 to 14) (size 15 to 20)
#    0.000    1.429    2.857    2.143    6.000    1.143 
#    0.000    5.714    0.000    0.000    0.000    0.000 
#    0.000    0.000    0.000    0.000    0.000    0.000 
#
# Total GULP energy -347051.239720 kJ/mol
# GULP energy per Si atom -12394.687133 kJ/mol
# Density = 2.256754 g / cm^3
# Si number density = 22.619025 Si / 1000 Ang^3
#
#
#
# Elastic Constant Matrix: (Units=GPa)
#
#
# Indices 1 2 3 4 5 6 
#
# 1 156.7904 4.9579 63.6542 0.0000 -0.1719 0.0000
# 2 4.9579 38.5462 3.3632 0.0000 6.8030 0.0000
# 3 63.6542 3.3632 118.9443 0.0000 -4.3621 0.0000
# 4 0.0000 0.0000 0.0000 27.0653 0.0000 -4.2908
# 5 -0.1719 6.8030 -4.3621 0.0000 44.4961 0.0000
# 6 0.0000 0.0000 0.0000 -4.2908 0.0000 26.1773
#
#
#
# Elastic Compliance Matrix: (Units=1/GPa)
#
#
# Indices 1 2 3 4 5 6 
#
# 1 0.008169 -0.000617 -0.004366 0.000000 -0.000302 0.000000
# 2 -0.000617 0.026807 -0.000581 0.000000 -0.004158 0.000000
# 3 -0.004366 -0.000581 0.010801 0.000000 0.001131 0.000000
# 4 0.000000 0.000000 0.000000 0.037933 0.000000 0.006218
# 5 -0.000302 -0.004158 0.001131 0.000000 0.023219 0.000000
# 6 0.000000 0.000000 0.000000 0.006218 0.000000 0.039220
#
#
# Mechanical properties :
#
#
# Convention : Reuss Voigt Hill
#
# Bulk Modulus (GPa) = 28.85813 50.91462 39.88638
# Shear Modulus (GPa) = 29.61619 35.70145 32.65882
#
# Velocity S-wave (km/s) = 3.62242 3.97720 3.80394
# Velocity P-wave (km/s) = 5.50290 6.60676 6.07993
#
# Compressibility (1/GPa) = 0.03465228
#
# Stress axis : x y z
#
# Youngs Moduli (GPa) = 122.40691 37.30416 92.57982
#
# Poissons Ratio (x) = 0.02300 0.40417
# Poissons Ratio (y) = 0.07547 0.05374
# Poissons Ratio (z) = 0.53438 0.02166
#
# Static dielectric constant tensor:
#      x y z
#    x 4.208180 0.000000 0.085800 
#    y 0.000000 4.053120 0.000000 
#    z 0.085800 0.000000 4.442340 
# 
# 
# High freq. dielectric constant tensor:
#      x y z
#    x 1.888520 0.000000 0.002710 
#    y 0.000000 1.897040 0.000000 
#    z 0.002710 0.000000 1.884130 
# 
# From -- ./inp_files/68375.got.cif
#   From: 2010.03.12/outbox.cif.g09.slc.cpg/sg14_35_cif.got.tgz:68375.got - 2010.03.31 13:35:05.
