data_PCOD8126020
_publ_section_title
;
Structure prediction by ZEFSAII (Michael W. Deem and Ramdas Pophale) SiO2 
 PCOD8126020
Probable space group: P 21/C
;
_chemical_formula_sum "Si O2"
_cell_formula_units_Z 24
_cell_length_a 9.724501
_cell_length_b 19.949791
_cell_length_c 9.675428
_cell_angle_alpha 90.000000
_cell_angle_beta 41.979572
_cell_angle_gamma 90.000000
_cell_volume 1255.494243
_symmetry_space_group_name_H-M "P 21/C"
_symmetry_group_IT_number 14
_symmetry_cell_setting 'monoclinic'
loop_
_space_group_symop_operation_xyz
x,y,z
-x,1/2+y,1/2-z
-x,-y,-z
x,1/2-y,1/2+z
loop_
_atom_site_type_symbol
_atom_site_label
_atom_site_fract_x
_atom_site_fract_y
_atom_site_fract_z
Si Si1 0.686406 0.341375 0.110762
Si Si2 0.237792 0.488944 0.341495
Si Si3 0.163929 0.321306 0.783746
Si Si4 0.511109 0.105340 0.464931
Si Si5 0.362951 0.267907 0.907728
Si Si6 0.586872 0.937023 0.014470
O O1 0.570797 0.270545 0.211028
O O2 0.602513 0.394504 0.284243
O O3 0.659240 0.368871 0.976073
O O4 0.921944 0.330997 0.970473
O O5 0.357486 0.558804 0.235092
O O6 0.265818 0.461177 0.473613
O O7 0.000000 0.500000 0.500000
O O8 0.317668 0.435158 0.170412
O O9 0.234115 0.282678 0.867359
O O10 0.218041 0.278560 0.608354
O O11 0.277529 0.392960 0.692054
O O12 0.420544 0.165128 0.443906
O O13 0.500000 0.000000 0.000000
#
# Coordination Sequence:
#
# PCOD8126020 Si02
#       6
#     4   4   4   4   4   4
#     4  10  23  40  60  89 124 159 201 253 295 359
#     4  10  21  37  61  87 115 158 198 239 296 356
#     4  11  24  38  63  88 120 163 202 245 309 356
#     4  10  21  39  59  85 123 153 195 250 293 347
#     4  11  23  40  58  90 121 158 204 250 296 361
#     4  10  22  40  59  89 124 153 202 252 294 358
#
# _framework density 19.115977999999998
#
# number of rings (size 3 to 8) (size 9 to 14) (size 15 to 20)
#    0.000    1.667    1.667    2.000    2.333    3.333 
#    0.000    0.000    0.000    0.000    0.000    0.000 
#    0.000    0.000    0.000    0.000    0.000    0.000 
#
# Total GULP energy -297741.870677 kJ/mol
# GULP energy per Si atom -12405.911278 kJ/mol
# Density = 1.907247 g / cm^3
# Si number density = 19.115978 Si / 1000 Ang^3
#
#
#
# Elastic Constant Matrix: (Units=GPa)
#
#
# Indices 1 2 3 4 5 6 
#
# 1 117.9534 58.1590 77.0348 0.0000 -21.7841 0.0000
# 2 58.1590 121.9165 53.3926 0.0000 -12.9025 0.0000
# 3 77.0348 53.3926 89.1477 0.0000 -17.0972 0.0000
# 4 0.0000 0.0000 0.0000 22.6562 0.0000 10.7261
# 5 -21.7841 -12.9025 -17.0972 0.0000 28.5138 0.0000
# 6 0.0000 0.0000 0.0000 10.7261 0.0000 41.1996
#
#
#
# Elastic Compliance Matrix: (Units=1/GPa)
#
#
# Indices 1 2 3 4 5 6 
#
# 1 0.020825 -0.002620 -0.015370 0.000000 0.005508 0.000000
# 2 -0.002620 0.011483 -0.004520 0.000000 0.000484 0.000000
# 3 -0.015370 -0.004520 0.027753 0.000000 0.002854 0.000000
# 4 0.000000 0.000000 0.000000 0.050343 0.000000 -0.013107
# 5 0.005508 0.000484 0.002854 0.000000 0.041209 0.000000
# 6 0.000000 0.000000 0.000000 -0.013107 0.000000 0.027684
#
#
# Mechanical properties :
#
#
# Convention : Reuss Voigt Hill
#
# Bulk Modulus (GPa) = 66.48640 78.46560 72.47600
# Shear Modulus (GPa) = 21.80238 27.83600 24.81919
#
# Velocity S-wave (km/s) = 3.38084 3.82011 3.60717
# Velocity P-wave (km/s) = 7.07786 7.78421 7.43942
#
# Compressibility (1/GPa) = 0.01504067
#
# Stress axis : x y z
#
# Youngs Moduli (GPa) = 48.01895 87.08322 36.03175
#
# Poissons Ratio (x) = 0.22819 0.55380
# Poissons Ratio (y) = 0.12583 0.16288
# Poissons Ratio (z) = 0.73803 0.39366
#
# Static dielectric constant tensor:
#      x y z
#    x 3.311720 0.000000 -0.006640 
#    y 0.000000 3.787830 0.000000 
#    z -0.006640 0.000000 3.128820 
# 
# 
# High freq. dielectric constant tensor:
#      x y z
#    x 1.745120 0.000000 0.005730 
#    y 0.000000 1.762150 0.000000 
#    z 0.005730 0.000000 1.747930 
# 
# From -- ./inp_files/6324.got.cif
#   From: 2010.03.12/outbox.cif.g09.slc.cpg/sg14_4_cif.got.tgz:6324.got - 2010.03.31 13:35:05.
