data_PCOD8126415
_publ_section_title
;
Structure prediction by ZEFSAII (Michael W. Deem and Ramdas Pophale) SiO2 
 PCOD8126415
Probable space group: P 21/C
;
_chemical_formula_sum "Si O2"
_cell_formula_units_Z 24
_cell_length_a 8.325092
_cell_length_b 15.580549
_cell_length_c 8.940044
_cell_angle_alpha 90.000000
_cell_angle_beta 88.995176
_cell_angle_gamma 90.000000
_cell_volume 1159.430349
_symmetry_space_group_name_H-M "P 21/C"
_symmetry_group_IT_number 14
_symmetry_cell_setting 'monoclinic'
loop_
_space_group_symop_operation_xyz
x,y,z
-x,1/2+y,1/2-z
-x,-y,-z
x,1/2-y,1/2+z
loop_
_atom_site_type_symbol
_atom_site_label
_atom_site_fract_x
_atom_site_fract_y
_atom_site_fract_z
Si Si1 0.681249 0.672245 0.898928
Si Si2 0.188065 0.179091 0.915232
Si Si3 0.825770 0.494826 0.932799
Si Si4 0.814578 0.176391 0.925713
Si Si5 0.829227 0.491604 0.579338
Si Si6 0.313383 0.665221 0.897768
O O1 0.800213 0.693424 0.761652
O O2 0.734320 0.582969 0.973199
O O3 0.498704 0.665084 0.846573
O O4 0.699086 0.750334 0.012830
O O5 0.001922 0.188531 0.964024
O O6 0.257473 0.083249 0.951284
O O7 0.841836 0.476234 0.756357
O O8 0.724170 0.420349 0.010848
O O9 0.000000 0.500000 0.000000
O O10 0.795250 0.171114 0.747984
O O11 0.742428 0.089558 0.003210
O O12 0.717351 0.255658 0.992054
O O13 0.000000 0.500000 0.500000
#
# Coordination Sequence:
#
# PCOD8126415 Si02
#       6
#     4   4   4   4   4   4
#     4  11  24  40  59  89 126 159 201 258 316 365
#     4  10  21  40  62  87 118 160 206 251 302 370
#     4  11  22  40  64  90 121 163 210 256 306 374
#     4  11  22  40  64  89 120 162 211 256 305 375
#     4   9  20  38  61  90 117 151 204 257 300 353
#     4  12  24  40  60  91 125 161 202 260 318 365
#
# _framework density 20.699821
#
# number of rings (size 3 to 8) (size 9 to 14) (size 15 to 20)
#    0.000    1.333    0.000    7.500    0.000    5.333 
#    0.000    9.167    0.000    0.000    0.000    0.000 
#    0.000    0.000    0.000    0.000    0.000    0.000 
#
# Total GULP energy -297614.044410 kJ/mol
# GULP energy per Si atom -12400.585184 kJ/mol
# Density = 2.065271 g / cm^3
# Si number density = 20.699821 Si / 1000 Ang^3
#
#
#
# Elastic Constant Matrix: (Units=GPa)
#
#
# Indices 1 2 3 4 5 6 
#
# 1 78.1490 25.2900 5.6739 0.0000 1.6365 0.0000
# 2 25.2900 173.1737 65.8117 0.0000 0.9024 0.0000
# 3 5.6739 65.8117 106.5300 0.0000 -4.2880 0.0000
# 4 0.0000 0.0000 0.0000 41.8866 0.0000 -1.1845
# 5 1.6365 0.9024 -4.2880 0.0000 24.2880 0.0000
# 6 0.0000 0.0000 0.0000 -1.1845 0.0000 25.8787
#
#
#
# Elastic Compliance Matrix: (Units=1/GPa)
#
#
# Indices 1 2 3 4 5 6 
#
# 1 0.013478 -0.002196 0.000610 0.000000 -0.000719 0.000000
# 2 -0.002196 0.007934 -0.004825 0.000000 -0.000999 0.000000
# 3 0.000610 -0.004825 0.012429 0.000000 0.002332 0.000000
# 4 0.000000 0.000000 0.000000 0.023905 0.000000 0.001094
# 5 -0.000719 -0.000999 0.002332 0.000000 0.041670 0.000000
# 6 0.000000 0.000000 0.000000 0.001094 0.000000 0.038692
#
#
# Mechanical properties :
#
#
# Convention : Reuss Voigt Hill
#
# Bulk Modulus (GPa) = 47.57657 61.26709 54.42183
# Shear Modulus (GPa) = 31.65850 35.81580 33.73715
#
# Velocity S-wave (km/s) = 3.91501 4.16414 4.04149
# Velocity P-wave (km/s) = 6.59320 7.26513 6.93731
#
# Compressibility (1/GPa) = 0.02101875
#
# Stress axis : x y z
#
# Youngs Moduli (GPa) = 74.19719 126.03921 80.45708
#
# Poissons Ratio (x) = 0.27683 -0.04909
# Poissons Ratio (y) = 0.16296 0.38818
# Poissons Ratio (z) = -0.04527 0.60810
#
# Static dielectric constant tensor:
#      x y z
#    x 1.977430 0.000000 0.880950 
#    y 0.000000 4.436900 0.000000 
#    z 0.880950 0.000000 3.045900 
# 
# 
# High freq. dielectric constant tensor:
#      x y z
#    x 1.794690 0.000000 -0.012530 
#    y 0.000000 1.834770 0.000000 
#    z -0.012530 0.000000 1.813700 
# 
# From -- ./inp_files/8436.got.cif
#   From: 2010.03.12/outbox.cif.g09.slc.cpg/sg14_5_cif.got.tgz:8436.got - 2010.03.31 13:35:05.
