data_PCOD8126455
_publ_section_title
;
Structure prediction by ZEFSAII (Michael W. Deem and Ramdas Pophale) SiO2 
 PCOD8126455
Probable space group: P 21/C
;
_chemical_formula_sum "Si O2"
_cell_formula_units_Z 28
_cell_length_a 34.774865
_cell_length_b 7.287030
_cell_length_c 35.136152
_cell_angle_alpha 90.000000
_cell_angle_beta 171.774219
_cell_angle_gamma 90.000000
_cell_volume 1273.889574
_symmetry_space_group_name_H-M "P 21/C"
_symmetry_group_IT_number 14
_symmetry_cell_setting 'monoclinic'
loop_
_space_group_symop_operation_xyz
x,y,z
-x,1/2+y,1/2-z
-x,-y,-z
x,1/2-y,1/2+z
loop_
_atom_site_type_symbol
_atom_site_label
_atom_site_fract_x
_atom_site_fract_y
_atom_site_fract_z
Si Si1 0.667706 0.780785 0.760661
Si Si2 0.646350 0.219973 0.739425
Si Si3 0.278133 0.622221 0.993851
Si Si4 0.790388 0.121161 0.006173
Si Si5 0.869340 0.213670 0.731750
Si Si6 0.722935 0.999725 0.250008
Si Si7 0.094201 0.286342 0.731913
O O1 0.375945 0.701400 0.485183
O O2 0.739929 0.684388 0.792005
O O3 0.662878 0.000402 0.750058
O O4 0.857059 0.711144 0.981376
O O5 0.655788 0.316732 0.708033
O O6 0.394216 0.289210 0.518692
O O7 0.905563 0.298987 0.014972
O O8 0.548406 0.500437 0.250006
O O9 0.348392 0.750751 0.098323
O O10 0.186792 0.746993 0.868171
O O11 0.018352 0.500639 0.750002
O O12 0.950333 0.246337 0.131846
O O13 0.880915 0.999948 0.749663
O O14 0.000000 0.000000 0.500000
O O15 0.500000 0.000000 0.000000
#
# Coordination Sequence:
#
# PCOD8126455 Si02
#       7
#     4   4   4   4   4   4   4
#     4  10  21  40  64  89 117 164 210 249 311 383
#     4  10  21  40  64  89 117 164 210 249 311 383
#     4  11  22  39  61  90 132 169 214 269 327 379
#     4  11  22  39  61  90 132 169 214 269 327 379
#     4   9  18  37  63  83 117 164 208 252 302 367
#     4  12  26  42  62  94 132 156 198 272 326 382
#     4   9  18  37  63  83 117 164 208 252 302 367
#
# _framework density 21.979928999999998
#
# number of rings (size 3 to 8) (size 9 to 14) (size 15 to 20)
#    0.000    1.714    0.000    6.857    0.000    1.143 
#    7.714    0.000    0.000    0.000    0.000    0.000 
#    0.000    0.000    0.000    0.000    0.000    0.000 
#
# Total GULP energy -346891.524464 kJ/mol
# GULP energy per Si atom -12388.983017 kJ/mol
# Density = 2.192990 g / cm^3
# Si number density = 21.979929 Si / 1000 Ang^3
#
#
#
# Elastic Constant Matrix: (Units=GPa)
#
#
# Indices 1 2 3 4 5 6 
#
# 1 161.7160 44.3717 51.8032 0.0000 -0.3292 0.0000
# 2 44.3717 65.9103 19.5446 0.0000 -0.9538 0.0000
# 3 51.8032 19.5446 117.7292 0.0000 -1.3283 0.0000
# 4 0.0000 0.0000 0.0000 14.7034 0.0000 -0.9821
# 5 -0.3292 -0.9538 -1.3283 0.0000 48.8412 0.0000
# 6 0.0000 0.0000 0.0000 -0.9821 0.0000 35.8566
#
#
#
# Elastic Compliance Matrix: (Units=1/GPa)
#
#
# Indices 1 2 3 4 5 6 
#
# 1 0.008439 -0.004819 -0.002915 0.000000 -0.000116 0.000000
# 2 -0.004819 0.018712 -0.000983 0.000000 0.000306 0.000000
# 3 -0.002915 -0.000983 0.009942 0.000000 0.000232 0.000000
# 4 0.000000 0.000000 0.000000 0.068136 0.000000 0.001866
# 5 -0.000116 0.000306 0.000232 0.000000 0.020486 0.000000
# 6 0.000000 0.000000 0.000000 0.001866 0.000000 0.027940
#
#
# Mechanical properties :
#
#
# Convention : Reuss Voigt Hill
#
# Bulk Modulus (GPa) = 50.86141 64.08829 57.47485
# Shear Modulus (GPa) = 28.14648 35.18932 31.66790
#
# Velocity S-wave (km/s) = 3.58236 4.00556 3.79986
# Velocity P-wave (km/s) = 6.34833 7.11432 6.74221
#
# Compressibility (1/GPa) = 0.01966127
#
# Stress axis : x y z
#
# Youngs Moduli (GPa) = 118.49261 53.44153 100.57954
#
# Poissons Ratio (x) = 0.25753 0.29317
# Poissons Ratio (y) = 0.57099 0.09883
# Poissons Ratio (z) = 0.34538 0.05251
#
# Static dielectric constant tensor:
#      x y z
#    x 4.119220 0.000000 0.027160 
#    y 0.000000 4.707090 0.000000 
#    z 0.027160 0.000000 4.692340 
# 
# 
# High freq. dielectric constant tensor:
#      x y z
#    x 1.861870 0.000000 0.001450 
#    y 0.000000 1.841690 0.000000 
#    z 0.001450 0.000000 1.891480 
# 
# From -- ./inp_files/80904.got.cif
#   From: 2010.03.12/outbox.cif.g09.slc.cpg/sg14_41_cif.got.tgz:80904.got - 2010.03.31 13:35:05.
