data_PCOD8126009
_publ_section_title
;
Structure prediction by ZEFSAII (Michael W. Deem and Ramdas Pophale) SiO2 
 PCOD8126009
Probable space group: P 21/C
;
_chemical_formula_sum "Si O2"
_cell_formula_units_Z 32
_cell_length_a 12.457535
_cell_length_b 12.501491
_cell_length_c 19.844395
_cell_angle_alpha 90.000000
_cell_angle_beta 151.485894
_cell_angle_gamma 90.000000
_cell_volume 1475.338108
_symmetry_space_group_name_H-M "P 21/C"
_symmetry_group_IT_number 14
_symmetry_cell_setting 'monoclinic'
loop_
_space_group_symop_operation_xyz
x,y,z
-x,1/2+y,1/2-z
-x,-y,-z
x,1/2-y,1/2+z
loop_
_atom_site_type_symbol
_atom_site_label
_atom_site_fract_x
_atom_site_fract_y
_atom_site_fract_z
Si Si1 0.797764 0.139024 0.772592
Si Si2 0.690627 0.624983 0.947965
Si Si3 0.091922 0.236390 0.544030
Si Si4 0.089852 0.904969 0.443941
Si Si5 0.744929 0.191283 0.021245
Si Si6 0.055322 0.251058 0.805467
Si Si7 0.968939 0.932287 0.915906
Si Si8 0.349933 0.403024 0.385678
O O1 0.535860 0.148969 0.638668
O O2 0.862552 0.178671 0.733992
O O3 0.848001 0.011813 0.798026
O O4 0.915316 0.205185 0.897316
O O5 0.697052 0.695400 0.882911
O O6 0.880142 0.662533 0.103636
O O7 0.740891 0.503660 0.955094
O O8 0.982699 0.134865 0.521748
O O9 0.173697 0.324667 0.644328
O O10 0.870580 0.938741 0.278406
O O11 0.244233 0.814454 0.495038
O O12 0.948688 0.179133 0.186961
O O13 0.796939 0.109177 0.988346
O O14 0.504098 0.164062 0.919332
O O15 0.264030 0.175567 0.897747
O O16 0.000000 0.000000 0.000000
O O17 0.500000 0.500000 0.500000
#
# Coordination Sequence:
#
# PCOD8126009 Si02
#       8
#     4   4   4   4   4   4   4   4
#     4  10  21  37  60  84 114 157 199 246 307 356
#     4  11  22  37  59  85 119 159 196 247 305 359
#     4   9  21  40  57  83 118 152 199 252 297 358
#     4  10  23  38  57  90 121 149 200 252 295 363
#     4  10  21  39  61  85 118 157 193 242 302 364
#     4  10  22  40  57  88 122 152 202 250 291 363
#     4   9  19  38  61  87 114 148 202 252 292 359
#     4  11  22  39  64  88 117 160 197 241 308 366
#
# _framework density 21.689943
#
# number of rings (size 3 to 8) (size 9 to 14) (size 15 to 20)
#    0.000    2.000    0.000    2.625    0.000    9.000 
#    0.000    3.750    0.000    0.000    0.000    0.000 
#    0.000    0.000    0.000    0.000    0.000    0.000 
#
# Total GULP energy -396545.135848 kJ/mol
# GULP energy per Si atom -12392.035495 kJ/mol
# Density = 2.164058 g / cm^3
# Si number density = 21.689943 Si / 1000 Ang^3
#
#
#
# Elastic Constant Matrix: (Units=GPa)
#
#
# Indices 1 2 3 4 5 6 
#
# 1 148.2677 62.7074 24.8963 0.0000 32.0310 0.0000
# 2 62.7074 109.3660 26.7184 0.0000 16.5286 0.0000
# 3 24.8963 26.7184 46.3167 0.0000 19.7718 0.0000
# 4 0.0000 0.0000 0.0000 23.2034 0.0000 -0.9222
# 5 32.0310 16.5286 19.7718 0.0000 36.4855 0.0000
# 6 0.0000 0.0000 0.0000 -0.9222 0.0000 28.8162
#
#
#
# Elastic Compliance Matrix: (Units=1/GPa)
#
#
# Indices 1 2 3 4 5 6 
#
# 1 0.010275 -0.004909 0.000273 0.000000 -0.006945 0.000000
# 2 -0.004909 0.013096 -0.005494 0.000000 0.001354 0.000000
# 3 0.000273 -0.005494 0.030771 0.000000 -0.014426 0.000000
# 4 0.000000 0.000000 0.000000 0.043152 0.000000 0.001381
# 5 -0.006945 0.001354 -0.014426 0.000000 0.040709 0.000000
# 6 0.000000 0.000000 0.000000 0.001381 0.000000 0.034747
#
#
# Mechanical properties :
#
#
# Convention : Reuss Voigt Hill
#
# Bulk Modulus (GPa) = 29.51313 59.17718 44.34516
# Shear Modulus (GPa) = 24.47345 30.34290 27.40818
#
# Velocity S-wave (km/s) = 3.36271 3.74430 3.55862
# Velocity P-wave (km/s) = 5.35849 6.78494 6.11347
#
# Compressibility (1/GPa) = 0.03388322
#
# Stress axis : x y z
#
# Youngs Moduli (GPa) = 97.32331 76.36163 32.49803
#
# Poissons Ratio (x) = 0.37483 -0.00888
# Poissons Ratio (y) = 0.47772 0.17854
# Poissons Ratio (z) = -0.02659 0.41952
#
# Static dielectric constant tensor:
#      x y z
#    x 4.270870 0.000000 -0.059630 
#    y 0.000000 4.262190 0.000000 
#    z -0.059630 0.000000 3.498470 
# 
# 
# High freq. dielectric constant tensor:
#      x y z
#    x 1.875790 0.000000 0.000010 
#    y 0.000000 1.862730 0.000000 
#    z 0.000010 0.000000 1.816560 
# 
# From -- ./inp_files/67444.got.cif
#   From: 2010.03.12/outbox.cif.g09.slc.cpg/sg14_34_cif.got.tgz:67444.got - 2010.03.31 13:35:05.
