data_PCOD8126471
_publ_section_title
;
Structure prediction by ZEFSAII (Michael W. Deem and Ramdas Pophale) SiO2 
 PCOD8126471
Probable space group: P 21/C
;
_chemical_formula_sum "Si O2"
_cell_formula_units_Z 32
_cell_length_a 9.358907
_cell_length_b 5.437108
_cell_length_c 29.620956
_cell_angle_alpha 90.000000
_cell_angle_beta 113.153955
_cell_angle_gamma 90.000000
_cell_volume 1385.865389
_symmetry_space_group_name_H-M "P 21/C"
_symmetry_group_IT_number 14
_symmetry_cell_setting 'monoclinic'
loop_
_space_group_symop_operation_xyz
x,y,z
-x,1/2+y,1/2-z
-x,-y,-z
x,1/2-y,1/2+z
loop_
_atom_site_type_symbol
_atom_site_label
_atom_site_fract_x
_atom_site_fract_y
_atom_site_fract_z
Si Si1 0.458838 0.406278 0.125649
Si Si2 0.174703 0.675295 0.058943
Si Si3 0.381998 0.035855 0.046076
Si Si4 0.437437 0.334192 0.222624
Si Si5 0.081984 0.426876 0.315004
Si Si6 0.102880 0.424830 0.213388
Si Si7 0.174757 0.121860 0.467990
Si Si8 0.661276 0.728076 0.095265
O O1 0.281512 0.507099 0.103824
O O2 0.482616 0.229791 0.086195
O O3 0.487280 0.282146 0.177209
O O4 0.593655 0.603106 0.132232
O O5 0.004729 0.701391 0.058813
O O6 0.251969 0.942121 0.065773
O O7 0.182470 0.584409 0.007372
O O8 0.511158 0.833195 0.048326
O O9 0.284290 0.143479 0.992429
O O10 0.536836 0.573292 0.249845
O O11 0.260380 0.414773 0.204813
O O12 0.144214 0.423106 0.271537
O O13 0.221029 0.428747 0.368971
O O14 0.993187 0.682506 0.312511
O O15 0.980448 0.179944 0.310643
O O16 0.243012 0.046604 0.427280
#
# Coordination Sequence:
#
# PCOD8126471 Si02
#       8
#     4   4   4   4   4   4   4   4
#     4  10  25  41  63  95 133 174 227 284 334 415
#     4   9  21  41  65  92 134 170 225 283 339 413
#     4  10  22  40  62  93 132 175 224 282 341 410
#     4  12  27  44  74 101 138 184 228 282 348 415
#     4  10  23  42  67  97 133 174 219 287 334 408
#     4  10  23  44  66  96 135 172 225 276 345 403
#     4  10  21  40  64  95 129 177 221 280 350 403
#     4  11  24  38  65  94 133 175 228 279 344 408
#
# _framework density 23.090266
#
# number of rings (size 3 to 8) (size 9 to 14) (size 15 to 20)
#    0.000    1.750    0.000    2.250    8.750    7.500 
#    0.000    0.000    0.000    0.000    0.000    0.000 
#    0.000    0.000    0.000    0.000    0.000    0.000 
#
# Total GULP energy -396498.845939 kJ/mol
# GULP energy per Si atom -12390.588936 kJ/mol
# Density = 2.303771 g / cm^3
# Si number density = 23.090266 Si / 1000 Ang^3
#
#
#
# Elastic Constant Matrix: (Units=GPa)
#
#
# Indices 1 2 3 4 5 6 
#
# 1 143.0862 16.0606 36.1428 0.0000 -1.6283 0.0000
# 2 16.0606 80.5955 0.0744 0.0000 7.5748 0.0000
# 3 36.1428 0.0744 63.7320 0.0000 2.5379 0.0000
# 4 0.0000 0.0000 0.0000 20.1427 0.0000 4.8330
# 5 -1.6283 7.5748 2.5379 0.0000 29.7036 0.0000
# 6 0.0000 0.0000 0.0000 4.8330 0.0000 19.7133
#
#
#
# Elastic Compliance Matrix: (Units=1/GPa)
#
#
# Indices 1 2 3 4 5 6 
#
# 1 0.008426 -0.001800 -0.004829 0.000000 0.001334 0.000000
# 2 -0.001800 0.013098 0.001146 0.000000 -0.003537 0.000000
# 3 -0.004829 0.001146 0.018513 0.000000 -0.002139 0.000000
# 4 0.000000 0.000000 0.000000 0.052749 0.000000 -0.012932
# 5 0.001334 -0.003537 -0.002139 0.000000 0.034824 0.000000
# 6 0.000000 0.000000 0.000000 -0.012932 0.000000 0.053898
#
#
# Mechanical properties :
#
#
# Convention : Reuss Voigt Hill
#
# Bulk Modulus (GPa) = 34.39875 43.55214 38.97544
# Shear Modulus (GPa) = 24.73250 29.58764 27.16007
#
# Velocity S-wave (km/s) = 3.27635 3.58353 3.43338
# Velocity P-wave (km/s) = 5.40763 6.00208 5.71259
#
# Compressibility (1/GPa) = 0.02907082
#
# Stress axis : x y z
#
# Youngs Moduli (GPa) = 118.68212 76.34952 54.01527
#
# Poissons Ratio (x) = 0.13742 0.26086
# Poissons Ratio (y) = 0.21362 -0.06192
# Poissons Ratio (z) = 0.57316 -0.08752
#
# Static dielectric constant tensor:
#      x y z
#    x 4.132050 0.000000 0.136950 
#    y 0.000000 4.128310 0.000000 
#    z 0.136950 0.000000 3.965810 
# 
# 
# High freq. dielectric constant tensor:
#      x y z
#    x 1.925100 0.000000 0.007270 
#    y 0.000000 1.903230 0.000000 
#    z 0.007270 0.000000 1.903820 
# 
# From -- ./inp_files/79280.got.cif
#   From: 2010.03.12/outbox.cif.g09.slc.cpg/sg14_40_cif.got.tgz:79280.got - 2010.03.31 13:35:05.
