data_PCOD8126747
_publ_section_title
;
Structure prediction by ZEFSAII (Michael W. Deem and Ramdas Pophale) SiO2 
 PCOD8126747
Probable space group: P 21/C
;
_chemical_formula_sum "Si O2"
_cell_formula_units_Z 32
_cell_length_a 13.587325
_cell_length_b 14.878062
_cell_length_c 19.167400
_cell_angle_alpha 90.000000
_cell_angle_beta 159.267348
_cell_angle_gamma 90.000000
_cell_volume 1371.691557
_symmetry_space_group_name_H-M "P 21/C"
_symmetry_group_IT_number 14
_symmetry_cell_setting 'monoclinic'
loop_
_space_group_symop_operation_xyz
x,y,z
-x,1/2+y,1/2-z
-x,-y,-z
x,1/2-y,1/2+z
loop_
_atom_site_type_symbol
_atom_site_label
_atom_site_fract_x
_atom_site_fract_y
_atom_site_fract_z
Si Si1 0.692086 0.533037 0.247722
Si Si2 0.370011 0.690426 0.193394
Si Si3 0.159793 0.778773 0.766455
Si Si4 0.214444 0.842287 0.431713
Si Si5 0.382170 0.375108 0.122201
Si Si6 0.066829 0.110629 0.959546
Si Si7 0.353440 0.405380 0.397389
Si Si8 0.855178 0.906226 0.393438
O O1 0.519046 0.460766 0.177963
O O2 0.889106 0.595411 0.427695
O O3 0.883736 0.479120 0.317647
O O4 0.461913 0.597947 0.060714
O O5 0.436133 0.786897 0.268860
O O6 0.630746 0.620667 0.376794
O O7 0.299245 0.693392 0.064225
O O8 0.111181 0.662932 0.069139
O O9 0.158978 0.740411 0.844272
O O10 0.929025 0.857390 0.612107
O O11 0.106336 0.700175 0.673993
O O12 0.454318 0.825357 0.945102
O O13 0.936164 0.902961 0.252322
O O14 0.371493 0.391067 0.197807
O O15 0.500000 0.500000 0.500000
O O16 0.301742 0.389654 0.281987
O O17 0.000000 0.000000 0.500000
#
# Coordination Sequence:
#
# PCOD8126747 Si02
#       8
#     4   4   4   4   4   4   4   4
#     4  10  21  42  64  90 129 165 216 269 316 379
#     4   9  21  39  62  91 126 160 214 264 317 375
#     4  11  24  39  63  94 129 170 211 261 331 388
#     4  10  22  42  59  90 129 168 208 264 320 390
#     4  11  23  37  66  94 123 167 216 265 323 376
#     4   9  21  39  63  91 122 164 212 261 317 378
#     4  11  24  42  65  95 132 169 210 268 327 386
#     4  11  22  40  66  92 125 165 215 266 314 382
#
# _framework density 23.328858
#
# number of rings (size 3 to 8) (size 9 to 14) (size 15 to 20)
#    0.000    1.750    0.000    4.500    5.250    4.500 
#    6.750    1.250    0.000    0.000    0.000    0.000 
#    0.000    0.000    0.000    0.000    0.000    0.000 
#
# Total GULP energy -396613.896385 kJ/mol
# GULP energy per Si atom -12394.184262 kJ/mol
# Density = 2.327576 g / cm^3
# Si number density = 23.328858 Si / 1000 Ang^3
#
#
#
# Elastic Constant Matrix: (Units=GPa)
#
#
# Indices 1 2 3 4 5 6 
#
# 1 38.7679 10.1258 8.6398 0.0000 4.6868 0.0000
# 2 10.1258 70.0269 34.5988 0.0000 -9.4361 0.0000
# 3 8.6398 34.5988 119.2242 0.0000 -1.8610 0.0000
# 4 0.0000 0.0000 0.0000 54.2858 0.0000 7.8916
# 5 4.6868 -9.4361 -1.8610 0.0000 16.0028 0.0000
# 6 0.0000 0.0000 0.0000 7.8916 0.0000 33.0198
#
#
#
# Elastic Compliance Matrix: (Units=1/GPa)
#
#
# Indices 1 2 3 4 5 6 
#
# 1 0.028771 -0.005387 -0.000704 0.000000 -0.011685 0.000000
# 2 -0.005387 0.019180 -0.004984 0.000000 0.012308 0.000000
# 3 -0.000704 -0.004984 0.009860 0.000000 -0.001586 0.000000
# 4 0.000000 0.000000 0.000000 0.019084 0.000000 -0.004561
# 5 -0.011685 0.012308 -0.001586 0.000000 0.072984 0.000000
# 6 0.000000 0.000000 0.000000 -0.004561 0.000000 0.031375
#
#
# Mechanical properties :
#
#
# Convention : Reuss Voigt Hill
#
# Bulk Modulus (GPa) = 28.04102 37.19419 32.61761
# Shear Modulus (GPa) = 23.22445 32.30531 27.76488
#
# Velocity S-wave (km/s) = 3.15862 3.72530 3.45360
# Velocity P-wave (km/s) = 5.03472 5.87212 5.46947
#
# Compressibility (1/GPa) = 0.03566204
#
# Stress axis : x y z
#
# Youngs Moduli (GPa) = 34.75710 52.13793 101.41943
#
# Poissons Ratio (x) = 0.28086 0.07140
# Poissons Ratio (y) = 0.18723 0.50543
# Poissons Ratio (z) = 0.02447 0.25983
#
# Static dielectric constant tensor:
#      x y z
#    x 3.748820 0.000000 0.177270 
#    y 0.000000 4.251940 0.000000 
#    z 0.177270 0.000000 4.764630 
# 
# 
# High freq. dielectric constant tensor:
#      x y z
#    x 1.895900 0.000000 0.010630 
#    y 0.000000 1.925250 0.000000 
#    z 0.010630 0.000000 1.944360 
# 
# From -- ./inp_files/68717.got.cif
#   From: 2010.03.12/outbox.cif.g09.slc.cpg/sg14_35_cif.got.tgz:68717.got - 2010.03.31 13:35:05.
