data_PCOD8126845
_publ_section_title
;
Structure prediction by ZEFSAII (Michael W. Deem and Ramdas Pophale) SiO2 
 PCOD8126845
Probable space group: P 21/C
;
_chemical_formula_sum "Si O2"
_cell_formula_units_Z 28
_cell_length_a 11.715502
_cell_length_b 5.263528
_cell_length_c 18.562507
_cell_angle_alpha 90.000000
_cell_angle_beta 70.197606
_cell_angle_gamma 90.000000
_cell_volume 1076.967330
_symmetry_space_group_name_H-M "P 21/C"
_symmetry_group_IT_number 14
_symmetry_cell_setting 'monoclinic'
loop_
_space_group_symop_operation_xyz
x,y,z
-x,1/2+y,1/2-z
-x,-y,-z
x,1/2-y,1/2+z
loop_
_atom_site_type_symbol
_atom_site_label
_atom_site_fract_x
_atom_site_fract_y
_atom_site_fract_z
Si Si1 0.810266 0.653918 0.063958
Si Si2 0.560047 0.263017 0.265366
Si Si3 0.008512 0.737587 0.422126
Si Si4 0.063301 0.089367 0.710983
Si Si5 0.605029 0.297399 0.417062
Si Si6 0.648434 0.700043 0.966179
Si Si7 0.211350 0.467853 0.304010
O O1 0.883820 0.399926 0.064654
O O2 0.741238 0.753935 0.150636
O O3 0.701791 0.616243 0.031426
O O4 0.910090 0.845875 0.004105
O O5 0.508080 0.491337 0.228524
O O6 0.553659 0.353550 0.348880
O O7 0.700258 0.211133 0.213139
O O8 0.076400 0.513054 0.366114
O O9 0.928619 0.889443 0.377799
O O10 0.191245 0.135969 0.726828
O O11 0.970664 0.300037 0.761305
O O12 0.495769 0.252027 0.496762
O O13 0.693996 0.529255 0.423463
O O14 0.678762 0.030185 0.403992
#
# Coordination Sequence:
#
# PCOD8126845 Si02
#       7
#     4   4   4   4   4   4   4
#     4  11  23  43  71 102 141 186 242 289 359 414
#     4  12  28  46  75 106 143 184 239 293 356 431
#     4  10  24  43  68 104 139 189 241 292 351 433
#     4  10  21  43  66  97 137 183 228 287 344 416
#     4  10  23  46  65 105 133 184 237 282 355 418
#     4  10  23  42  73  94 142 180 230 296 344 416
#     4  11  25  43  71 101 145 188 232 297 359 419
#
# _framework density 25.998932
#
# number of rings (size 3 to 8) (size 9 to 14) (size 15 to 20)
#    0.000    1.429    1.429    2.143    8.000    1.143 
#   10.286    0.000    0.000    0.000    0.000    0.000 
#    0.000    0.000    0.000    0.000    0.000    0.000 
#
# Total GULP energy -346932.475451 kJ/mol
# GULP energy per Si atom -12390.445552 kJ/mol
# Density = 2.593976 g / cm^3
# Si number density = 25.998932 Si / 1000 Ang^3
#
#
#
# Elastic Constant Matrix: (Units=GPa)
#
#
# Indices 1 2 3 4 5 6 
#
# 1 86.9434 23.8073 30.1790 0.0000 49.5868 0.0000
# 2 23.8073 130.2085 23.6605 0.0000 25.8127 0.0000
# 3 30.1790 23.6605 83.2362 0.0000 22.4113 0.0000
# 4 0.0000 0.0000 0.0000 30.5185 0.0000 2.2932
# 5 49.5868 25.8127 22.4113 0.0000 50.1876 0.0000
# 6 0.0000 0.0000 0.0000 2.2932 0.0000 33.5873
#
#
#
# Elastic Compliance Matrix: (Units=1/GPa)
#
#
# Indices 1 2 3 4 5 6 
#
# 1 0.027035 0.000712 -0.003085 0.000000 -0.025700 0.000000
# 2 0.000712 0.008720 -0.001523 0.000000 -0.004509 0.000000
# 3 -0.003085 -0.001523 0.014247 0.000000 -0.002531 0.000000
# 4 0.000000 0.000000 0.000000 0.032936 0.000000 -0.002249
# 5 -0.025700 -0.004509 -0.002531 0.000000 0.048767 0.000000
# 6 0.000000 0.000000 0.000000 -0.002249 0.000000 0.029927
#
#
# Mechanical properties :
#
#
# Convention : Reuss Voigt Hill
#
# Bulk Modulus (GPa) = 23.69041 50.63129 37.16085
# Shear Modulus (GPa) = 27.24887 37.70809 32.47848
#
# Velocity S-wave (km/s) = 3.24091 3.81251 3.53827
# Velocity P-wave (km/s) = 4.81005 6.23674 5.56927
#
# Compressibility (1/GPa) = 0.04221117
#
# Stress axis : x y z
#
# Youngs Moduli (GPa) = 36.98866 114.67448 70.19115
#
# Poissons Ratio (x) = -0.08169 0.21653
# Poissons Ratio (y) = -0.02635 0.10691
# Poissons Ratio (z) = 0.11410 0.17466
#
# Static dielectric constant tensor:
#      x y z
#    x 4.751820 0.000000 0.340750 
#    y 0.000000 4.735980 0.000000 
#    z 0.340750 0.000000 4.911020 
# 
# 
# High freq. dielectric constant tensor:
#      x y z
#    x 2.041000 0.000000 0.017290 
#    y 0.000000 2.030790 0.000000 
#    z 0.017290 0.000000 2.047830 
# 
# From -- ./inp_files/66467.got.cif
#   From: 2010.03.12/outbox.cif.g09.slc.cpg/sg14_34_cif.got.tgz:66467.got - 2010.03.31 13:35:05.
