data_PCOD8126898
_publ_section_title
;
Structure prediction by ZEFSAII (Michael W. Deem and Ramdas Pophale) SiO2 
 PCOD8126898
Probable space group: P 21/C
;
_chemical_formula_sum "Si O2"
_cell_formula_units_Z 28
_cell_length_a 19.510376
_cell_length_b 11.478970
_cell_length_c 9.084168
_cell_angle_alpha 90.000000
_cell_angle_beta 142.357620
_cell_angle_gamma 90.000000
_cell_volume 1242.520903
_symmetry_space_group_name_H-M "P 21/C"
_symmetry_group_IT_number 14
_symmetry_cell_setting 'monoclinic'
loop_
_space_group_symop_operation_xyz
x,y,z
-x,1/2+y,1/2-z
-x,-y,-z
x,1/2-y,1/2+z
loop_
_atom_site_type_symbol
_atom_site_label
_atom_site_fract_x
_atom_site_fract_y
_atom_site_fract_z
Si Si1 0.130837 0.406977 0.848303
Si Si2 0.417312 0.615516 0.486103
Si Si3 0.890053 0.121091 0.877939
Si Si4 0.259400 0.986854 0.137780
Si Si5 0.278803 0.098454 0.867416
Si Si6 0.314608 0.741588 0.569026
Si Si7 0.657047 0.648966 0.980018
O O1 0.107341 0.540743 0.763466
O O2 0.228796 0.354380 0.916529
O O3 0.015625 0.333795 0.627643
O O4 0.166442 0.397535 0.078403
O O5 0.365431 0.495942 0.453301
O O6 0.393012 0.716661 0.563412
O O7 0.363520 0.646002 0.236467
O O8 0.552219 0.610100 0.699824
O O9 0.849382 0.045753 0.950311
O O10 0.809922 0.230628 0.705681
O O11 0.316589 0.867275 0.182940
O O12 0.344322 0.061300 0.383522
O O13 0.232152 0.066455 0.950149
O O14 0.349767 0.217502 0.979598
#
# Coordination Sequence:
#
# PCOD8126898 Si02
#       7
#     4   4   4   4   4   4   4
#     4  10  23  42  67  96 134 178 229 277 351 405
#     4  11  26  40  71  97 139 181 239 278 345 419
#     4  10  21  44  68  95 136 175 229 290 330 411
#     4  10  24  43  67 101 138 174 235 283 340 407
#     4  11  24  43  65 102 136 181 231 281 356 407
#     4  11  22  43  68 103 129 183 230 290 339 403
#     4  11  26  44  64 101 144 183 223 289 345 411
#
# _framework density 22.534832999999999
#
# number of rings (size 3 to 8) (size 9 to 14) (size 15 to 20)
#    0.000    1.429    2.857    0.857    6.000    3.429 
#    0.000    4.286    0.000    0.000    0.000    0.000 
#    0.000    0.000    0.000    0.000    0.000    0.000 
#
# Total GULP energy -347219.012407 kJ/mol
# GULP energy per Si atom -12400.679015 kJ/mol
# Density = 2.248354 g / cm^3
# Si number density = 22.534833 Si / 1000 Ang^3
#
#
#
# Elastic Constant Matrix: (Units=GPa)
#
#
# Indices 1 2 3 4 5 6 
#
# 1 72.0855 21.7309 43.4015 0.0000 7.0107 0.0000
# 2 21.7309 91.2556 45.6087 0.0000 7.2678 0.0000
# 3 43.4015 45.6087 160.2139 0.0000 14.5958 0.0000
# 4 0.0000 0.0000 0.0000 22.5780 0.0000 -2.5101
# 5 7.0107 7.2678 14.5958 0.0000 42.5212 0.0000
# 6 0.0000 0.0000 0.0000 -2.5101 0.0000 30.3416
#
#
#
# Elastic Compliance Matrix: (Units=1/GPa)
#
#
# Indices 1 2 3 4 5 6 
#
# 1 0.016941 -0.001985 -0.003923 0.000000 -0.001107 0.000000
# 2 -0.001985 0.013047 -0.003100 0.000000 -0.000839 0.000000
# 3 -0.003923 -0.003100 0.008341 0.000000 -0.001686 0.000000
# 4 0.000000 0.000000 0.000000 0.044702 0.000000 0.003698
# 5 -0.001107 -0.000839 -0.001686 0.000000 0.024422 0.000000
# 6 0.000000 0.000000 0.000000 0.003698 0.000000 0.033264
#
#
# Mechanical properties :
#
#
# Convention : Reuss Voigt Hill
#
# Bulk Modulus (GPa) = 49.23301 60.55970 54.89635
# Shear Modulus (GPa) = 30.21077 33.27575 31.74326
#
# Velocity S-wave (km/s) = 3.66543 3.84687 3.75724
# Velocity P-wave (km/s) = 6.30942 6.83106 6.57541
#
# Compressibility (1/GPa) = 0.02031158
#
# Stress axis : x y z
#
# Youngs Moduli (GPa) = 59.02975 76.64538 119.89634
#
# Poissons Ratio (x) = 0.15215 0.47037
# Poissons Ratio (y) = 0.11718 0.37168
# Poissons Ratio (z) = 0.23158 0.23760
#
# Static dielectric constant tensor:
#      x y z
#    x 4.059000 0.000000 -0.221550 
#    y 0.000000 4.047740 0.000000 
#    z -0.221550 0.000000 4.225340 
# 
# 
# High freq. dielectric constant tensor:
#      x y z
#    x 1.884940 0.000000 -0.012370 
#    y 0.000000 1.887430 0.000000 
#    z -0.012370 0.000000 1.891000 
# 
# From -- ./inp_files/18968.got.cif
#   From: 2010.03.12/outbox.cif.g09.slc.cpg/sg14_10_cif.got.tgz:18968.got - 2010.03.31 13:35:05.
