data_PCOD8126993
_publ_section_title
;
Structure prediction by ZEFSAII (Michael W. Deem and Ramdas Pophale) SiO2 
 PCOD8126993
Probable space group: P 21/C
;
_chemical_formula_sum "Si O2"
_cell_formula_units_Z 20
_cell_length_a 10.116422
_cell_length_b 8.893418
_cell_length_c 9.891164
_cell_angle_alpha 90.000000
_cell_angle_beta 98.849694
_cell_angle_gamma 90.000000
_cell_volume 879.309749
_symmetry_space_group_name_H-M "P 21/C"
_symmetry_group_IT_number 14
_symmetry_cell_setting 'monoclinic'
loop_
_space_group_symop_operation_xyz
x,y,z
-x,1/2+y,1/2-z
-x,-y,-z
x,1/2-y,1/2+z
loop_
_atom_site_type_symbol
_atom_site_label
_atom_site_fract_x
_atom_site_fract_y
_atom_site_fract_z
Si Si1 0.032757 0.739572 0.502702
Si Si2 0.060337 0.484856 0.722909
Si Si3 0.425457 0.162224 0.618620
Si Si4 0.844107 0.526687 0.918277
Si Si5 0.632741 0.583382 0.187775
O O1 0.074213 0.620175 0.620186
O O2 0.007024 0.660491 0.355931
O O3 0.898539 0.836155 0.524698
O O4 0.153645 0.862868 0.508624
O O5 0.209461 0.445687 0.797079
O O6 0.955634 0.534890 0.819084
O O7 0.304015 0.058826 0.656516
O O8 0.412803 0.174832 0.453861
O O9 0.413041 0.324876 0.686418
O O10 0.561873 0.079564 0.681732
#
# Coordination Sequence:
#
# PCOD8126993 Si02
#       5
#     4   4   4   4   4
#     4  10  22  37  62 101 132 171 214 274 333 399
#     4  11  23  40  68  98 136 169 226 272 339 392
#     4  11  27  47  71  96 138 178 230 273 339 394
#     4  11  22  40  67  97 130 174 217 281 327 395
#     4  11  26  49  68 100 135 181 223 282 329 408
#
# _framework density 22.745114000000001
#
# number of rings (size 3 to 8) (size 9 to 14) (size 15 to 20)
#    0.000    1.200    2.000    3.600    5.600    0.800 
#    3.600    0.000    0.000    0.000    0.000    0.000 
#    0.000    0.000    0.000    0.000    0.000    0.000 
#
# Total GULP energy -247819.182639 kJ/mol
# GULP energy per Si atom -12390.959132 kJ/mol
# Density = 2.269335 g / cm^3
# Si number density = 22.745114 Si / 1000 Ang^3
#
#
#
# Elastic Constant Matrix: (Units=GPa)
#
#
# Indices 1 2 3 4 5 6 
#
# 1 79.8659 3.3505 29.2696 0.0000 1.9233 0.0000
# 2 3.3505 96.4187 20.3849 0.0000 10.5106 0.0000
# 3 29.2696 20.3849 60.6635 0.0000 18.5001 0.0000
# 4 0.0000 0.0000 0.0000 43.4272 0.0000 0.8362
# 5 1.9233 10.5106 18.5001 0.0000 28.4676 0.0000
# 6 0.0000 0.0000 0.0000 0.8362 0.0000 29.5508
#
#
#
# Elastic Compliance Matrix: (Units=1/GPa)
#
#
# Indices 1 2 3 4 5 6 
#
# 1 0.015799 0.000920 -0.009358 0.000000 0.004674 0.000000
# 2 0.000920 0.011320 -0.003684 0.000000 -0.001847 0.000000
# 3 -0.009358 -0.003684 0.026976 0.000000 -0.015538 0.000000
# 4 0.000000 0.000000 0.000000 0.023040 0.000000 -0.000652
# 5 0.004674 -0.001847 -0.015538 0.000000 0.045592 0.000000
# 6 0.000000 0.000000 0.000000 -0.000652 0.000000 0.033858
#
#
# Mechanical properties :
#
#
# Convention : Reuss Voigt Hill
#
# Bulk Modulus (GPa) = 33.49972 38.10645 35.80309
# Shear Modulus (GPa) = 26.20835 32.55200 29.38018
#
# Velocity S-wave (km/s) = 3.39818 3.78718 3.59794
# Velocity P-wave (km/s) = 5.49155 5.99280 5.74764
#
# Compressibility (1/GPa) = 0.02985100
#
# Stress axis : x y z
#
# Youngs Moduli (GPa) = 63.29422 88.34104 37.07010
#
# Poissons Ratio (x) = -0.08126 0.34688
# Poissons Ratio (y) = -0.05822 0.13658
# Poissons Ratio (z) = 0.59228 0.32547
#
# Static dielectric constant tensor:
#      x y z
#    x 4.019900 0.000000 0.164130 
#    y 0.000000 4.467900 0.000000 
#    z 0.164130 0.000000 4.361700 
# 
# 
# High freq. dielectric constant tensor:
#      x y z
#    x 1.885350 0.000000 0.005830 
#    y 0.000000 1.906560 0.000000 
#    z 0.005830 0.000000 1.910460 
# 
# From -- ./inp_files/23129.got.cif
#   From: 2010.03.12/outbox.cif.g09.slc.cpg/sg14_12_cif.got.tgz:23129.got - 2010.03.31 13:35:05.
