data_PCOD8126561
_publ_section_title
;
Structure prediction by ZEFSAII (Michael W. Deem and Ramdas Pophale) SiO2 
 PCOD8126561
Probable space group: P 21/C
;
_chemical_formula_sum "Si O2"
_cell_formula_units_Z 20
_cell_length_a 8.622689
_cell_length_b 9.464823
_cell_length_c 15.208408
_cell_angle_alpha 90.000000
_cell_angle_beta 128.936461
_cell_angle_gamma 90.000000
_cell_volume 965.452992
_symmetry_space_group_name_H-M "P 21/C"
_symmetry_group_IT_number 14
_symmetry_cell_setting 'monoclinic'
loop_
_space_group_symop_operation_xyz
x,y,z
-x,1/2+y,1/2-z
-x,-y,-z
x,1/2-y,1/2+z
loop_
_atom_site_type_symbol
_atom_site_label
_atom_site_fract_x
_atom_site_fract_y
_atom_site_fract_z
Si Si1 0.833428 0.318673 0.154848
Si Si2 0.973335 0.875243 0.651375
Si Si3 0.197629 0.634454 0.514043
Si Si4 0.785639 0.823398 0.952291
Si Si5 0.637685 0.252146 0.254243
O O1 0.014490 0.219270 0.255184
O O2 0.676183 0.344222 0.178611
O O3 0.915490 0.465768 0.149826
O O4 0.724235 0.234205 0.036792
O O5 0.194133 0.872711 0.684181
O O6 0.810069 0.805790 0.528787
O O7 0.215106 0.470135 0.492864
O O8 0.333003 0.653013 0.649020
O O9 0.967206 0.674285 0.448389
O O10 0.583825 0.808746 0.824862
#
# Coordination Sequence:
#
# PCOD8126561 Si02
#       5
#     4   4   4   4   4
#     4  10  21  41  61  86 122 160 200 252 300 353
#     4   9  21  39  61  86 122 155 203 246 298 352
#     4  10  22  39  63  87 123 161 193 250 308 345
#     4  10  21  41  62  87 126 154 202 249 299 362
#     4   9  23  39  60  94 118 157 210 240 297 367
#
# _framework density 20.715665999999999
#
# number of rings (size 3 to 8) (size 9 to 14) (size 15 to 20)
#    1.200    1.200    0.000    1.200    2.800    8.000 
#    3.600    0.000    0.000    0.000    0.000    0.000 
#    0.000    0.000    0.000    0.000    0.000    0.000 
#
# Total GULP energy -247847.516820 kJ/mol
# GULP energy per Si atom -12392.375841 kJ/mol
# Density = 2.066852 g / cm^3
# Si number density = 20.715666 Si / 1000 Ang^3
#
#
#
# Elastic Constant Matrix: (Units=GPa)
#
#
# Indices 1 2 3 4 5 6 
#
# 1 37.9149 9.8514 50.3792 0.0000 0.9458 0.0000
# 2 9.8514 95.9936 38.0630 0.0000 -0.5162 0.0000
# 3 50.3792 38.0630 117.2062 0.0000 3.1023 0.0000
# 4 0.0000 0.0000 0.0000 27.7949 0.0000 -6.9257
# 5 0.9458 -0.5162 3.1023 0.0000 40.1338 0.0000
# 6 0.0000 0.0000 0.0000 -6.9257 0.0000 23.6349
#
#
#
# Elastic Compliance Matrix: (Units=1/GPa)
#
#
# Indices 1 2 3 4 5 6 
#
# 1 0.063504 0.004957 -0.028927 0.000000 0.000803 0.000000
# 2 0.004957 0.012352 -0.006156 0.000000 0.000518 0.000000
# 3 -0.028927 -0.006156 0.022996 0.000000 -0.001175 0.000000
# 4 0.000000 0.000000 0.000000 0.038812 0.000000 0.011373
# 5 0.000803 0.000518 -0.001175 0.000000 0.024995 0.000000
# 6 0.000000 0.000000 0.000000 0.011373 0.000000 0.045643
#
#
# Mechanical properties :
#
#
# Convention : Reuss Voigt Hill
#
# Bulk Modulus (GPa) = 25.90644 49.74466 37.82555
# Shear Modulus (GPa) = 17.76701 28.50078 23.13389
#
# Velocity S-wave (km/s) = 2.93176 3.71321 3.34538
# Velocity P-wave (km/s) = 4.89828 6.51530 5.76378
#
# Compressibility (1/GPa) = 0.03860044
#
# Stress axis : x y z
#
# Youngs Moduli (GPa) = 15.74713 80.95619 43.48553
#
# Poissons Ratio (x) = -0.40133 1.25792
# Poissons Ratio (y) = -0.07806 0.26770
# Poissons Ratio (z) = 0.45552 0.49837
#
# Static dielectric constant tensor:
#      x y z
#    x 3.454390 0.000000 -0.109770 
#    y 0.000000 3.507800 0.000000 
#    z -0.109770 0.000000 3.677010 
# 
# 
# High freq. dielectric constant tensor:
#      x y z
#    x 1.782500 0.000000 -0.009400 
#    y 0.000000 1.802010 0.000000 
#    z -0.009400 0.000000 1.812880 
# 
# From -- ./inp_files/49979.got.cif
#   From: 2010.03.12/outbox.cif.g09.slc.cpg/sg14_25_cif.got.tgz:49979.got - 2010.03.31 13:35:05.
