data_PCOD8126716
_publ_section_title
;
Structure prediction by ZEFSAII (Michael W. Deem and Ramdas Pophale) SiO2 
 PCOD8126716
Probable space group: P 21/C
;
_chemical_formula_sum "Si O2"
_cell_formula_units_Z 24
_cell_length_a 6.572649
_cell_length_b 7.450482
_cell_length_c 26.778220
_cell_angle_alpha 90.000000
_cell_angle_beta 61.654407
_cell_angle_gamma 90.000000
_cell_volume 1154.086730
_symmetry_space_group_name_H-M "P 21/C"
_symmetry_group_IT_number 14
_symmetry_cell_setting 'monoclinic'
loop_
_space_group_symop_operation_xyz
x,y,z
-x,1/2+y,1/2-z
-x,-y,-z
x,1/2-y,1/2+z
loop_
_atom_site_type_symbol
_atom_site_label
_atom_site_fract_x
_atom_site_fract_y
_atom_site_fract_z
Si Si1 0.765388 0.718683 0.699091
Si Si2 0.491447 0.541026 0.817970
Si Si3 0.128583 0.898809 0.544583
Si Si4 0.817264 0.284565 0.065928
Si Si5 0.713692 0.216097 0.369764
Si Si6 0.263900 0.102709 0.901056
O O1 0.644607 0.661786 0.763945
O O2 0.690546 0.921356 0.692361
O O3 0.695165 0.580851 0.663215
O O4 0.040555 0.701263 0.673727
O O5 0.365554 0.677033 0.869662
O O6 0.657820 0.419673 0.831875
O O7 0.894820 0.778548 0.572550
O O8 0.275421 0.842219 0.478397
O O9 0.279101 0.876974 0.576673
O O10 0.054588 0.107418 0.548702
O O11 0.862423 0.070970 0.061351
O O12 0.514676 0.367682 0.397164
#
# Coordination Sequence:
#
# PCOD8126716 Si02
#       6
#     4   4   4   4   4   4
#     4  10  22  41  61  87 126 158 202 261 306 373
#     4  11  22  40  61  89 122 165 201 257 312 366
#     4  10  22  43  61  91 128 162 208 256 300 373
#     4  11  21  40  66  88 124 170 203 250 317 361
#     4  10  21  42  60  88 133 154 207 263 304 371
#     4  10  21  42  62  92 125 160 205 258 309 365
#
# _framework density 20.795662
#
# number of rings (size 3 to 8) (size 9 to 14) (size 15 to 20)
#    0.000    1.667    5.000    1.500    0.000    5.333 
#    9.000    0.000    0.000    0.000    0.000    0.000 
#    0.000    0.000    0.000    0.000    0.000    0.000 
#
# Total GULP energy -297533.891140 kJ/mol
# GULP energy per Si atom -12397.245464 kJ/mol
# Density = 2.074833 g / cm^3
# Si number density = 20.795662 Si / 1000 Ang^3
#
#
#
# Elastic Constant Matrix: (Units=GPa)
#
#
# Indices 1 2 3 4 5 6 
#
# 1 112.0178 41.7064 24.5358 0.0000 9.4721 0.0000
# 2 41.7064 87.2612 33.2345 0.0000 -3.1415 0.0000
# 3 24.5358 33.2345 122.1020 0.0000 22.7258 0.0000
# 4 0.0000 0.0000 0.0000 37.9500 0.0000 -2.7142
# 5 9.4721 -3.1415 22.7258 0.0000 21.2554 0.0000
# 6 0.0000 0.0000 0.0000 -2.7142 0.0000 14.1929
#
#
#
# Elastic Compliance Matrix: (Units=1/GPa)
#
#
# Indices 1 2 3 4 5 6 
#
# 1 0.011599 -0.005984 0.000530 0.000000 -0.006620 0.000000
# 2 -0.005984 0.016766 -0.005391 0.000000 0.010909 0.000000
# 3 0.000530 -0.005391 0.012164 0.000000 -0.014038 0.000000
# 4 0.000000 0.000000 0.000000 0.026716 0.000000 0.005109
# 5 -0.006620 0.010909 -0.014038 0.000000 0.066618 0.000000
# 6 0.000000 0.000000 0.000000 0.005109 0.000000 0.071435
#
#
# Mechanical properties :
#
#
# Convention : Reuss Voigt Hill
#
# Bulk Modulus (GPa) = 53.08411 57.81493 55.44952
# Shear Modulus (GPa) = 21.43465 29.47328 25.45397
#
# Velocity S-wave (km/s) = 3.21398 3.76876 3.50237
# Velocity P-wave (km/s) = 6.27334 6.84104 6.56333
#
# Compressibility (1/GPa) = 0.01883803
#
# Stress axis : x y z
#
# Youngs Moduli (GPa) = 86.21647 59.64480 82.21242
#
# Poissons Ratio (x) = 0.35690 -0.04358
# Poissons Ratio (y) = 0.51590 0.44324
# Poissons Ratio (z) = -0.04571 0.32157
#
# Static dielectric constant tensor:
#      x y z
#    x 3.596090 0.000000 0.181810 
#    y 0.000000 3.580140 0.000000 
#    z 0.181810 0.000000 4.105960 
# 
# 
# High freq. dielectric constant tensor:
#      x y z
#    x 1.797250 0.000000 0.006480 
#    y 0.000000 1.801820 0.000000 
#    z 0.006480 0.000000 1.837100 
# 
# From -- ./inp_files/75576.got.cif
#   From: 2010.03.12/outbox.cif.g09.slc.cpg/sg14_38_cif.got.tgz:75576.got - 2010.03.31 13:35:05.
