data_PCOD8126884
_publ_section_title
;
Structure prediction by ZEFSAII (Michael W. Deem and Ramdas Pophale) SiO2 
 PCOD8126884
Probable space group: P 21/C
;
_chemical_formula_sum "Si O2"
_cell_formula_units_Z 32
_cell_length_a 9.600645
_cell_length_b 11.606921
_cell_length_c 32.155490
_cell_angle_alpha 90.000000
_cell_angle_beta 154.569579
_cell_angle_gamma 90.000000
_cell_volume 1538.684131
_symmetry_space_group_name_H-M "P 21/C"
_symmetry_group_IT_number 14
_symmetry_cell_setting 'monoclinic'
loop_
_space_group_symop_operation_xyz
x,y,z
-x,1/2+y,1/2-z
-x,-y,-z
x,1/2-y,1/2+z
loop_
_atom_site_type_symbol
_atom_site_label
_atom_site_fract_x
_atom_site_fract_y
_atom_site_fract_z
Si Si1 0.682895 0.241848 0.706459
Si Si2 0.184532 0.506852 0.944074
Si Si3 0.837063 0.998346 0.269609
Si Si4 0.983889 0.732736 0.933290
Si Si5 0.238107 0.434126 0.379658
Si Si6 0.595707 0.343697 0.095002
Si Si7 0.780647 0.156072 0.080877
Si Si8 0.299563 0.581305 0.570362
O O1 0.793187 0.371277 0.743247
O O2 0.386554 0.205558 0.656038
O O3 0.562803 0.233828 0.626692
O O4 0.972270 0.153906 0.791803
O O5 0.871407 0.502984 0.829353
O O6 0.173781 0.617726 0.971171
O O7 0.500000 0.500000 0.000000
O O8 0.234937 0.394538 0.987228
O O9 0.528684 0.919133 0.173168
O O10 0.155259 0.950459 0.331706
O O11 0.981375 0.821862 0.893891
O O12 0.170815 0.791363 0.022978
O O13 0.075581 0.552331 0.352399
O O14 0.421800 0.374864 0.467728
O O15 0.487320 0.468628 0.410244
O O16 0.750331 0.272256 0.098896
O O17 0.000000 0.500000 0.500000
#
# Coordination Sequence:
#
# PCOD8126884 Si02
#       8
#     4   4   4   4   4   4   4   4
#     4  12  25  40  66 104 133 175 231 286 343 418
#     4  10  22  43  67  97 132 184 222 276 350 413
#     4  11  22  41  69  97 130 183 229 269 351 414
#     4  11  24  42  67  98 140 170 228 288 345 412
#     4  10  23  41  69  93 136 180 232 281 345 416
#     4  11  23  40  71  93 135 176 228 276 347 413
#     4  10  21  44  64  95 129 179 223 280 342 416
#     4  11  22  43  67 102 134 184 228 293 342 409
#
# _framework density 20.796990000000001
#
# number of rings (size 3 to 8) (size 9 to 14) (size 15 to 20)
#    0.000    1.250    5.000    1.500    5.250    1.500 
#    2.250    1.250    0.000    0.000    0.000    0.000 
#    0.000    0.000    0.000    0.000    0.000    0.000 
#
# Total GULP energy -396692.588951 kJ/mol
# GULP energy per Si atom -12396.643405 kJ/mol
# Density = 2.074966 g / cm^3
# Si number density = 20.796990 Si / 1000 Ang^3
#
#
#
# Elastic Constant Matrix: (Units=GPa)
#
#
# Indices 1 2 3 4 5 6 
#
# 1 90.5066 51.1100 55.4091 0.0000 7.0732 0.0000
# 2 51.1100 125.4930 54.5591 0.0000 -11.5470 0.0000
# 3 55.4091 54.5591 109.1838 0.0000 -20.4903 0.0000
# 4 0.0000 0.0000 0.0000 34.3049 0.0000 -9.7677
# 5 7.0732 -11.5470 -20.4903 0.0000 34.5653 0.0000
# 6 0.0000 0.0000 0.0000 -9.7677 0.0000 39.1090
#
#
#
# Elastic Compliance Matrix: (Units=1/GPa)
#
#
# Indices 1 2 3 4 5 6 
#
# 1 0.021505 -0.005293 -0.010606 0.000000 -0.012456 0.000000
# 2 -0.005293 0.011489 -0.002398 0.000000 0.003500 0.000000
# 3 -0.010606 -0.002398 0.017999 0.000000 0.012039 0.000000
# 4 0.000000 0.000000 0.000000 0.031382 0.000000 0.007838
# 5 -0.012456 0.003500 0.012039 0.000000 0.039785 0.000000
# 6 0.000000 0.000000 0.000000 0.007838 0.000000 0.027527
#
#
# Mechanical properties :
#
#
# Convention : Reuss Voigt Hill
#
# Bulk Modulus (GPa) = 69.45360 71.92665 70.69012
# Shear Modulus (GPa) = 26.16703 32.53618 29.35160
#
# Velocity S-wave (km/s) = 3.55098 3.95962 3.76085
# Velocity P-wave (km/s) = 7.09091 7.45420 7.27482
#
# Compressibility (1/GPa) = 0.01439810
#
# Stress axis : x y z
#
# Youngs Moduli (GPa) = 46.50183 87.03992 55.55975
#
# Poissons Ratio (x) = 0.46074 0.58925
# Poissons Ratio (y) = 0.24615 0.13323
# Poissons Ratio (z) = 0.49318 0.20871
#
# Static dielectric constant tensor:
#      x y z
#    x 3.769580 0.000000 -0.361360 
#    y 0.000000 3.880110 0.000000 
#    z -0.361360 0.000000 4.139770 
# 
# 
# High freq. dielectric constant tensor:
#      x y z
#    x 1.802840 0.000000 -0.018490 
#    y 0.000000 1.819260 0.000000 
#    z -0.018490 0.000000 1.810220 
# 
# From -- ./inp_files/79651.got.cif
#   From: 2010.03.12/outbox.cif.g09.slc.cpg/sg14_40_cif.got.tgz:79651.got - 2010.03.31 13:35:05.
