data_PCOD8126736
_publ_section_title
;
Structure prediction by ZEFSAII (Michael W. Deem and Ramdas Pophale) SiO2 
 PCOD8126736
Probable space group: P 21/C
;
_chemical_formula_sum "Si O2"
_cell_formula_units_Z 28
_cell_length_a 20.897625
_cell_length_b 8.510308
_cell_length_c 13.949860
_cell_angle_alpha 90.000000
_cell_angle_beta 148.836672
_cell_angle_gamma 90.000000
_cell_volume 1283.822994
_symmetry_space_group_name_H-M "P 21/C"
_symmetry_group_IT_number 14
_symmetry_cell_setting 'monoclinic'
loop_
_space_group_symop_operation_xyz
x,y,z
-x,1/2+y,1/2-z
-x,-y,-z
x,1/2-y,1/2+z
loop_
_atom_site_type_symbol
_atom_site_label
_atom_site_fract_x
_atom_site_fract_y
_atom_site_fract_z
Si Si1 0.966128 0.573871 0.759494
Si Si2 0.743361 0.546584 0.358427
Si Si3 0.121628 0.718377 0.590334
Si Si4 0.563321 0.777691 0.036294
Si Si5 0.384286 0.836660 0.161294
Si Si6 0.115056 0.723064 0.793763
Si Si7 0.374150 0.886396 0.934342
O O1 0.836598 0.638651 0.549327
O O2 0.949142 0.393196 0.770699
O O3 0.069229 0.590501 0.808605
O O4 0.005741 0.687390 0.897281
O O5 0.831003 0.420806 0.416770
O O6 0.675933 0.657035 0.195505
O O7 0.637221 0.473584 0.288916
O O8 0.080887 0.659902 0.643719
O O9 0.232041 0.839949 0.749270
O O10 0.621014 0.949788 0.114942
O O11 0.501644 0.757772 0.852708
O O12 0.459875 0.760451 0.987738
O O13 0.262455 0.728978 0.998027
O O14 0.420379 0.901605 0.103145
#
# Coordination Sequence:
#
# PCOD8126736 Si02
#       7
#     4   4   4   4   4   4   4
#     4  11  21  44  60  92 123 167 207 264 310 379
#     4  11  24  40  65  90 129 167 209 254 319 371
#     4  11  22  44  63  92 126 167 205 262 316 380
#     4  11  23  41  63  97 128 163 210 264 299 382
#     4  10  21  42  63  89 126 165 202 256 312 371
#     4  10  23  40  68  88 124 166 208 257 325 368
#     4  10  24  39  67  95 125 165 212 254 319 363
#
# _framework density 21.80986
#
# number of rings (size 3 to 8) (size 9 to 14) (size 15 to 20)
#    0.000    1.429    4.286    0.857    4.000    1.714 
#    0.000    0.000    0.000    0.000    0.000    0.000 
#    0.000    0.000    0.000    0.000    0.000    0.000 
#
# Total GULP energy -347154.585828 kJ/mol
# GULP energy per Si atom -12398.378065 kJ/mol
# Density = 2.176022 g / cm^3
# Si number density = 21.809860 Si / 1000 Ang^3
#
#
#
# Elastic Constant Matrix: (Units=GPa)
#
#
# Indices 1 2 3 4 5 6 
#
# 1 88.4738 7.5689 18.0347 0.0000 -27.1807 0.0000
# 2 7.5689 54.9514 39.2274 0.0000 -7.0579 0.0000
# 3 18.0347 39.2274 123.4473 0.0000 -21.9247 0.0000
# 4 0.0000 0.0000 0.0000 25.2433 0.0000 -3.9139
# 5 -27.1807 -7.0579 -21.9247 0.0000 33.0234 0.0000
# 6 0.0000 0.0000 0.0000 -3.9139 0.0000 23.2900
#
#
#
# Elastic Compliance Matrix: (Units=1/GPa)
#
#
# Indices 1 2 3 4 5 6 
#
# 1 0.015145 -0.000629 0.000201 0.000000 0.012464 0.000000
# 2 -0.000629 0.023563 -0.007475 0.000000 -0.000444 0.000000
# 3 0.000201 -0.007475 0.011555 0.000000 0.006239 0.000000
# 4 0.000000 0.000000 0.000000 0.040674 0.000000 0.006835
# 5 0.012464 -0.000444 0.006239 0.000000 0.044588 0.000000
# 6 0.000000 0.000000 0.000000 0.006835 0.000000 0.044086
#
#
# Mechanical properties :
#
#
# Convention : Reuss Voigt Hill
#
# Bulk Modulus (GPa) = 29.02072 44.05940 36.54006
# Shear Modulus (GPa) = 24.16614 29.78077 26.97345
#
# Velocity S-wave (km/s) = 3.33233 3.69924 3.52057
# Velocity P-wave (km/s) = 5.30481 6.20413 5.77201
#
# Compressibility (1/GPa) = 0.03445814
#
# Stress axis : x y z
#
# Youngs Moduli (GPa) = 66.02895 42.43894 86.54609
#
# Poissons Ratio (x) = 0.02667 -0.01739
# Poissons Ratio (y) = 0.04150 0.64690
# Poissons Ratio (z) = -0.01326 0.31721
#
# Static dielectric constant tensor:
#      x y z
#    x 4.164760 0.000000 -0.181670 
#    y 0.000000 3.609800 0.000000 
#    z -0.181670 0.000000 4.050820 
# 
# 
# High freq. dielectric constant tensor:
#      x y z
#    x 1.861630 0.000000 -0.013760 
#    y 0.000000 1.830830 0.000000 
#    z -0.013760 0.000000 1.867870 
# 
# From -- ./inp_files/50132.got.cif
#   From: 2010.03.12/outbox.cif.g09.slc.cpg/sg14_26_cif.got.tgz:50132.got - 2010.03.31 13:35:05.
