data_PCOD8126778
_publ_section_title
;
Structure prediction by ZEFSAII (Michael W. Deem and Ramdas Pophale) SiO2 
 PCOD8126778
Probable space group: P 21/C
;
_chemical_formula_sum "Si O2"
_cell_formula_units_Z 28
_cell_length_a 6.125664
_cell_length_b 11.792280
_cell_length_c 20.007254
_cell_angle_alpha 90.000000
_cell_angle_beta 58.974465
_cell_angle_gamma 90.000000
_cell_volume 1238.476239
_symmetry_space_group_name_H-M "P 21/C"
_symmetry_group_IT_number 14
_symmetry_cell_setting 'monoclinic'
loop_
_space_group_symop_operation_xyz
x,y,z
-x,1/2+y,1/2-z
-x,-y,-z
x,1/2-y,1/2+z
loop_
_atom_site_type_symbol
_atom_site_label
_atom_site_fract_x
_atom_site_fract_y
_atom_site_fract_z
Si Si1 0.744468 0.088482 0.587381
Si Si2 0.132404 0.255272 0.083134
Si Si3 0.827824 0.676496 0.641478
Si Si4 0.714996 0.082595 0.172474
Si Si5 0.683118 0.747325 0.801739
Si Si6 0.680733 0.200740 0.459714
Si Si7 0.530466 0.367588 0.844580
O O1 0.546526 0.157867 0.663501
O O2 0.701924 0.108261 0.515221
O O3 0.024524 0.128893 0.566739
O O4 0.703400 0.956409 0.610039
O O5 0.145914 0.267949 0.160523
O O6 0.944530 0.149981 0.099775
O O7 0.410993 0.232838 0.008206
O O8 0.756341 0.546078 0.644891
O O9 0.865446 0.716042 0.711882
O O10 0.594946 0.745055 0.645787
O O11 0.097494 0.705907 0.564381
O O12 0.443842 0.127477 0.186168
O O13 0.713087 0.098667 0.253610
O O14 0.699717 0.136144 0.385428
#
# Coordination Sequence:
#
# PCOD8126778 Si02
#       7
#     4   4   4   4   4   4   4
#     4  10  21  42  67  92 127 166 211 265 313 377
#     4  10  22  42  64  91 130 170 207 261 323 377
#     4  11  23  40  62  98 128 165 217 262 316 387
#     4  10  22  42  66  92 128 165 213 266 315 381
#     4   9  20  41  64  92 122 167 214 264 319 371
#     4  11  24  39  63  97 132 166 211 255 325 388
#     4  11  23  42  67  97 126 167 213 271 317 370
#
# _framework density 22.608426999999999
#
# number of rings (size 3 to 8) (size 9 to 14) (size 15 to 20)
#    0.000    1.714    1.429    2.143    0.000    6.286 
#    5.143   10.000    0.000    0.000    0.000    0.000 
#    0.000    0.000    0.000    0.000    0.000    0.000 
#
# Total GULP energy -347213.810234 kJ/mol
# GULP energy per Si atom -12400.493223 kJ/mol
# Density = 2.255697 g / cm^3
# Si number density = 22.608427 Si / 1000 Ang^3
#
#
#
# Elastic Constant Matrix: (Units=GPa)
#
#
# Indices 1 2 3 4 5 6 
#
# 1 57.7798 6.1216 7.3218 0.0000 7.6583 0.0000
# 2 6.1216 112.7151 5.9475 0.0000 -6.1484 0.0000
# 3 7.3218 5.9475 75.0097 0.0000 3.9334 0.0000
# 4 0.0000 0.0000 0.0000 30.1936 0.0000 -2.6730
# 5 7.6583 -6.1484 3.9334 0.0000 48.1230 0.0000
# 6 0.0000 0.0000 0.0000 -2.6730 0.0000 21.8168
#
#
#
# Elastic Compliance Matrix: (Units=1/GPa)
#
#
# Indices 1 2 3 4 5 6 
#
# 1 0.017992 -0.001054 -0.001522 0.000000 -0.002874 0.000000
# 2 -0.001054 0.009041 -0.000686 0.000000 0.001379 0.000000
# 3 -0.001522 -0.000686 0.013585 0.000000 -0.000956 0.000000
# 4 0.000000 0.000000 0.000000 0.033483 0.000000 0.004102
# 5 -0.002874 0.001379 -0.000956 0.000000 0.021492 0.000000
# 6 0.000000 0.000000 0.000000 0.004102 0.000000 0.046339
#
#
# Mechanical properties :
#
#
# Convention : Reuss Voigt Hill
#
# Bulk Modulus (GPa) = 29.33079 31.58738 30.45909
# Shear Modulus (GPa) = 31.28530 35.10093 33.19312
#
# Velocity S-wave (km/s) = 3.72397 3.94453 3.83583
# Velocity P-wave (km/s) = 5.61179 5.89471 5.75499
#
# Compressibility (1/GPa) = 0.03409386
#
# Stress axis : x y z
#
# Youngs Moduli (GPa) = 55.57887 110.61241 73.61210
#
# Poissons Ratio (x) = 0.11654 0.11204
# Poissons Ratio (y) = 0.05856 0.05052
# Poissons Ratio (z) = 0.08459 0.07591
#
# Static dielectric constant tensor:
#      x y z
#    x 3.976920 0.000000 0.016330 
#    y 0.000000 3.841990 0.000000 
#    z 0.016330 0.000000 4.305120 
# 
# 
# High freq. dielectric constant tensor:
#      x y z
#    x 1.886240 0.000000 0.001270 
#    y 0.000000 1.872810 0.000000 
#    z 0.001270 0.000000 1.906720 
# 
# From -- ./inp_files/63417.got.cif
#   From: 2010.03.12/outbox.cif.g09.slc.cpg/sg14_32_cif.got.tgz:63417.got - 2010.03.31 13:35:05.
