data_PCOD8126459
_publ_section_title
;
Structure prediction by ZEFSAII (Michael W. Deem and Ramdas Pophale) SiO2 
 PCOD8126459
Probable space group: P 21/C
;
_chemical_formula_sum "Si O2"
_cell_formula_units_Z 32
_cell_length_a 11.778016
_cell_length_b 8.578361
_cell_length_c 14.873731
_cell_angle_alpha 90.000000
_cell_angle_beta 88.328190
_cell_angle_gamma 90.000000
_cell_volume 1502.143691
_symmetry_space_group_name_H-M "P 21/C"
_symmetry_group_IT_number 14
_symmetry_cell_setting 'monoclinic'
loop_
_space_group_symop_operation_xyz
x,y,z
-x,1/2+y,1/2-z
-x,-y,-z
x,1/2-y,1/2+z
loop_
_atom_site_type_symbol
_atom_site_label
_atom_site_fract_x
_atom_site_fract_y
_atom_site_fract_z
Si Si1 0.064065 0.881284 0.560022
Si Si2 0.792826 0.620617 0.831595
Si Si3 0.605736 0.450774 0.297885
Si Si4 0.178238 0.611471 0.479219
Si Si5 0.537547 0.706406 0.851905
Si Si6 0.064830 0.390704 0.340451
Si Si7 0.425537 0.650064 0.509150
Si Si8 0.154539 0.461979 0.668639
O O1 0.129537 0.785709 0.480659
O O2 0.977617 0.777793 0.623041
O O3 0.154517 0.971192 0.620982
O O4 0.000000 0.000000 0.500000
O O5 0.656813 0.615203 0.845876
O O6 0.826266 0.627741 0.725699
O O7 0.841977 0.784276 0.867090
O O8 0.551386 0.377979 0.210863
O O9 0.546121 0.614112 0.321966
O O10 0.596145 0.328000 0.382709
O O11 0.737938 0.490234 0.272033
O O12 0.105456 0.497037 0.420732
O O13 0.311551 0.614075 0.454503
O O14 0.159583 0.566432 0.581601
O O15 0.489516 0.706509 0.956549
O O16 0.966418 0.484656 0.285875
O O17 0.500000 0.500000 0.500000
#
# Coordination Sequence:
#
# PCOD8126459 Si02
#       8
#     4   4   4   4   4   4   4   4
#     4  11  23  41  62  92 127 157 205 257 305 370
#     4  11  23  39  60  94 125 160 203 258 310 364
#     4   9  20  39  63  88 123 162 211 254 315 367
#     4  10  21  40  64  91 114 168 205 246 312 374
#     4  10  22  40  62  93 126 165 207 261 308 367
#     4  11  22  38  65  89 124 162 203 247 317 371
#     4   9  20  40  64  88 120 169 209 251 307 375
#     4   9  19  41  60  84 124 161 203 252 306 372
#
# _framework density 21.302887999999999
#
# number of rings (size 3 to 8) (size 9 to 14) (size 15 to 20)
#    0.000    2.000    0.000    4.500    3.500    3.000 
#    9.000    1.250    0.000    0.000    0.000    0.000 
#    0.000    0.000    0.000    0.000    0.000    0.000 
#
# Total GULP energy -396483.784020 kJ/mol
# GULP energy per Si atom -12390.118251 kJ/mol
# Density = 2.125440 g / cm^3
# Si number density = 21.302888 Si / 1000 Ang^3
#
#
#
# Elastic Constant Matrix: (Units=GPa)
#
#
# Indices 1 2 3 4 5 6 
#
# 1 126.0657 57.6852 39.5914 0.0000 4.2055 0.0000
# 2 57.6852 106.5662 37.1288 0.0000 14.9672 0.0000
# 3 39.5914 37.1288 62.4589 0.0000 5.4176 0.0000
# 4 0.0000 0.0000 0.0000 33.4654 0.0000 12.9078
# 5 4.2055 14.9672 5.4176 0.0000 29.9991 0.0000
# 6 0.0000 0.0000 0.0000 12.9078 0.0000 35.0529
#
#
#
# Elastic Compliance Matrix: (Units=1/GPa)
#
#
# Indices 1 2 3 4 5 6 
#
# 1 0.011547 -0.004896 -0.004552 0.000000 0.001646 0.000000
# 2 -0.004896 0.014604 -0.005085 0.000000 -0.005681 0.000000
# 3 -0.004552 -0.005085 0.021988 0.000000 -0.000796 0.000000
# 4 0.000000 0.000000 0.000000 0.034828 0.000000 -0.012825
# 5 0.001646 -0.005681 -0.000796 0.000000 0.036082 0.000000
# 6 0.000000 0.000000 0.000000 -0.012825 0.000000 0.033251
#
#
# Mechanical properties :
#
#
# Convention : Reuss Voigt Hill
#
# Bulk Modulus (GPa) = 52.43016 62.65575 57.54295
# Shear Modulus (GPa) = 26.63497 30.41585 28.52541
#
# Velocity S-wave (km/s) = 3.53979 3.78270 3.66326
# Velocity P-wave (km/s) = 6.43211 6.96808 6.70545
#
# Compressibility (1/GPa) = 0.01907299
#
# Stress axis : x y z
#
# Youngs Moduli (GPa) = 86.60048 68.47620 45.47991
#
# Poissons Ratio (x) = 0.33525 0.20702
# Poissons Ratio (y) = 0.42398 0.23126
# Poissons Ratio (z) = 0.39421 0.34820
#
# Static dielectric constant tensor:
#      x y z
#    x 4.716090 0.000000 -0.223050 
#    y 0.000000 4.012100 0.000000 
#    z -0.223050 0.000000 3.838110 
# 
# 
# High freq. dielectric constant tensor:
#      x y z
#    x 1.852790 0.000000 -0.002260 
#    y 0.000000 1.833320 0.000000 
#    z -0.002260 0.000000 1.815390 
# 
# From -- ./inp_files/57067.got.cif
#   From: 2010.03.12/outbox.cif.g09.slc.cpg/sg14_29_cif.got.tgz:57067.got - 2010.03.31 13:35:05.
