data_PCOD8126319
_publ_section_title
;
Structure prediction by ZEFSAII (Michael W. Deem and Ramdas Pophale) SiO2 
 PCOD8126319
Probable space group: P 21/C
;
_chemical_formula_sum "Si O2"
_cell_formula_units_Z 20
_cell_length_a 18.476950
_cell_length_b 8.570077
_cell_length_c 8.285143
_cell_angle_alpha 90.000000
_cell_angle_beta 39.500177
_cell_angle_gamma 90.000000
_cell_volume 834.501591
_symmetry_space_group_name_H-M "P 21/C"
_symmetry_group_IT_number 14
_symmetry_cell_setting 'monoclinic'
loop_
_space_group_symop_operation_xyz
x,y,z
-x,1/2+y,1/2-z
-x,-y,-z
x,1/2-y,1/2+z
loop_
_atom_site_type_symbol
_atom_site_label
_atom_site_fract_x
_atom_site_fract_y
_atom_site_fract_z
Si Si1 0.591517 0.658153 0.004825
Si Si2 0.137829 0.949972 0.455664
Si Si3 0.801327 0.921336 0.334238
Si Si4 0.074477 0.226976 0.145152
Si Si5 0.630671 0.522223 0.586324
O O1 0.462736 0.613644 0.271675
O O2 0.610914 0.844748 0.983670
O O3 0.672213 0.573137 0.996274
O O4 0.622513 0.603044 0.773340
O O5 0.050722 0.809424 0.567328
O O6 0.175591 0.936500 0.581574
O O7 0.071017 0.113885 0.543956
O O8 0.247899 0.938825 0.151185
O O9 0.830366 0.757851 0.379632
O O10 0.885629 0.920110 0.033692
#
# Coordination Sequence:
#
# PCOD8126319 Si02
#       5
#     4   4   4   4   4
#     4  11  23  46  67 100 129 173 217 274 329 389
#     4  10  23  42  64  95 128 175 213 267 321 386
#     4  10  21  39  65  89 133 166 212 264 324 377
#     4  10  22  41  63  93 129 171 215 262 322 382
#     4  11  24  43  72  95 134 170 219 271 331 388
#
# _framework density 23.966401000000001
#
# number of rings (size 3 to 8) (size 9 to 14) (size 15 to 20)
#    1.200    0.400    2.000    3.000    0.000    4.000 
#    3.600    2.000    0.000    0.000    0.000    0.000 
#    0.000    0.000    0.000    0.000    0.000    0.000 
#
# Total GULP energy -247794.800838 kJ/mol
# GULP energy per Si atom -12389.740042 kJ/mol
# Density = 2.391185 g / cm^3
# Si number density = 23.966401 Si / 1000 Ang^3
#
#
#
# Elastic Constant Matrix: (Units=GPa)
#
#
# Indices 1 2 3 4 5 6 
#
# 1 95.0679 20.9164 46.1665 0.0000 -9.3774 0.0000
# 2 20.9164 32.3620 23.8007 0.0000 -20.0059 0.0000
# 3 46.1665 23.8007 159.6768 0.0000 -32.9905 0.0000
# 4 0.0000 0.0000 0.0000 35.2391 0.0000 -14.4911
# 5 -9.3774 -20.0059 -32.9905 0.0000 46.1253 0.0000
# 6 0.0000 0.0000 0.0000 -14.4911 0.0000 28.2960
#
#
#
# Elastic Compliance Matrix: (Units=1/GPa)
#
#
# Indices 1 2 3 4 5 6 
#
# 1 0.013682 -0.008378 -0.003383 0.000000 -0.003272 0.000000
# 2 -0.008378 0.048565 -0.000958 0.000000 0.018675 0.000000
# 3 -0.003383 -0.000958 0.008396 0.000000 0.004902 0.000000
# 4 0.000000 0.000000 0.000000 0.035948 0.000000 0.018410
# 5 -0.003272 0.018675 0.004902 0.000000 0.032621 0.000000
# 6 0.000000 0.000000 0.000000 0.018410 0.000000 0.044769
#
#
# Mechanical properties :
#
#
# Convention : Reuss Voigt Hill
#
# Bulk Modulus (GPa) = 22.12111 52.09710 37.10910
# Shear Modulus (GPa) = 22.27292 35.01360 28.64326
#
# Velocity S-wave (km/s) = 3.05181 3.82638 3.46083
# Velocity P-wave (km/s) = 4.65491 6.42700 5.61135
#
# Compressibility (1/GPa) = 0.04520569
#
# Stress axis : x y z
#
# Youngs Moduli (GPa) = 73.08789 20.59104 119.09862
#
# Poissons Ratio (x) = 0.17250 0.40292
# Poissons Ratio (y) = 0.61230 0.11412
# Poissons Ratio (z) = 0.24726 0.01973
#
# Static dielectric constant tensor:
#      x y z
#    x 4.270740 0.000000 0.027990 
#    y 0.000000 3.752030 0.000000 
#    z 0.027990 0.000000 4.342090 
# 
# 
# High freq. dielectric constant tensor:
#      x y z
#    x 1.952160 0.000000 0.001960 
#    y 0.000000 1.898970 0.000000 
#    z 0.001960 0.000000 1.964020 
# 
# From -- ./inp_files/18472.got.cif
#   From: 2010.03.12/outbox.cif.g09.slc.cpg/sg14_10_cif.got.tgz:18472.got - 2010.03.31 13:35:05.
