data_PCOD8126585
_publ_section_title
;
Structure prediction by ZEFSAII (Michael W. Deem and Ramdas Pophale) SiO2 
 PCOD8126585
Probable space group: P 21/C
;
_chemical_formula_sum "Si O2"
_cell_formula_units_Z 32
_cell_length_a 14.211712
_cell_length_b 9.156412
_cell_length_c 13.052771
_cell_angle_alpha 90.000000
_cell_angle_beta 89.999395
_cell_angle_gamma 90.000000
_cell_volume 1698.534774
_symmetry_space_group_name_H-M "P 21/C"
_symmetry_group_IT_number 14
_symmetry_cell_setting 'monoclinic'
loop_
_space_group_symop_operation_xyz
x,y,z
-x,1/2+y,1/2-z
-x,-y,-z
x,1/2-y,1/2+z
loop_
_atom_site_type_symbol
_atom_site_label
_atom_site_fract_x
_atom_site_fract_y
_atom_site_fract_z
Si Si1 0.105283 0.849661 0.938204
Si Si2 0.394714 0.849665 0.938203
Si Si3 0.750004 0.165036 0.451366
Si Si4 0.250003 0.060980 0.214841
Si Si5 0.749999 0.639563 0.056330
Si Si6 0.608145 0.651294 0.454553
Si Si7 0.108150 0.151289 0.045450
Si Si8 0.749999 0.221289 0.231209
O O1 0.156452 0.817955 0.831175
O O2 0.997556 0.799824 0.928537
O O3 0.156492 0.759839 0.027782
O O4 0.111609 0.020459 0.963715
O O5 0.502439 0.799816 0.928544
O O6 0.343551 0.817963 0.831170
O O7 0.343493 0.759854 0.027779
O O8 0.388396 0.020465 0.963711
O O9 0.750001 0.120053 0.332484
O O10 0.749999 0.029254 0.526908
O O11 0.250002 0.150979 0.320759
O O12 0.342351 0.105653 0.151178
O O13 0.157655 0.105650 0.151179
O O14 0.250004 0.889085 0.235140
O O15 0.657370 0.712616 0.009250
O O16 0.842627 0.712621 0.009250
#
# Coordination Sequence:
#
# PCOD8126585 Si02
#       8
#     4   4   4   4   4   4   4   4
#     4  10  21  41  63  84 117 165 198 237 302 361
#     4  10  21  41  63  84 117 165 198 237 302 361
#     4  11  21  38  61  89 121 153 195 251 299 355
#     4  11  20  41  61  85 121 156 195 253 294 346
#     4  11  23  38  60  90 122 150 195 255 297 346
#     4  10  23  41  61  87 122 159 199 246 300 359
#     4  10  23  41  61  87 122 159 199 246 300 359
#     4  11  20  39  64  88 116 161 203 237 298 361
#
# _framework density 18.839767999999999
#
# number of rings (size 3 to 8) (size 9 to 14) (size 15 to 20)
#    0.000    1.500    5.000    2.250    0.000    7.000 
#    4.500    0.000    0.000    0.000    0.000    0.000 
#    0.000    0.000    0.000    0.000    0.000    0.000 
#
# Total GULP energy -396886.920525 kJ/mol
# GULP energy per Si atom -12402.716266 kJ/mol
# Density = 1.879689 g / cm^3
# Si number density = 18.839768 Si / 1000 Ang^3
#
#
#
# Elastic Constant Matrix: (Units=GPa)
#
#
# Indices 1 2 3 4 5 6 
#
# 1 187.5736 38.4310 59.1441 0.0000 0.0120 0.0000
# 2 38.4310 60.9974 13.5792 0.0000 0.0036 0.0000
# 3 59.1441 13.5792 143.6153 0.0000 0.0074 0.0000
# 4 0.0000 0.0000 0.0000 35.9392 0.0000 0.0020
# 5 0.0120 0.0036 0.0074 0.0000 10.8132 0.0000
# 6 0.0000 0.0000 0.0000 0.0020 0.0000 14.6967
#
#
#
# Elastic Compliance Matrix: (Units=1/GPa)
#
#
# Indices 1 2 3 4 5 6 
#
# 1 0.006889 -0.003789 -0.002479 0.000000 -0.000005 0.000000
# 2 -0.003789 0.018830 -0.000220 0.000000 -0.000002 0.000000
# 3 -0.002479 -0.000220 0.008005 0.000000 -0.000003 0.000000
# 4 0.000000 0.000000 0.000000 0.027825 0.000000 -0.000004
# 5 -0.000005 -0.000002 -0.000003 0.000000 0.092479 0.000000
# 6 0.000000 0.000000 0.000000 -0.000004 0.000000 0.068043
#
#
# Mechanical properties :
#
#
# Convention : Reuss Voigt Hill
#
# Bulk Modulus (GPa) = 48.19597 68.27721 58.23659
# Shear Modulus (GPa) = 20.66438 31.02528 25.84483
#
# Velocity S-wave (km/s) = 3.31546 4.06248 3.70783
# Velocity P-wave (km/s) = 6.34775 7.63706 7.02206
#
# Compressibility (1/GPa) = 0.02074862
#
# Stress axis : x y z
#
# Youngs Moduli (GPa) = 145.15742 53.10638 124.92630
#
# Poissons Ratio (x) = 0.20120 0.30967
# Poissons Ratio (y) = 0.54994 0.02751
# Poissons Ratio (z) = 0.35982 0.01170
#
# Static dielectric constant tensor:
#      x y z
#    x 3.581280 0.000000 0.000030 
#    y 0.000000 3.376510 0.000000 
#    z 0.000030 0.000000 3.566870 
# 
# 
# High freq. dielectric constant tensor:
#      x y z
#    x 1.735350 0.000000 0.000000 
#    y 0.000000 1.731350 0.000000 
#    z 0.000000 0.000000 1.739130 
# 
# From -- ./inp_files/31583.got.cif
#   From: 2010.03.12/outbox.cif.g09.slc.cpg/sg14_16_cif.got.tgz:31583.got - 2010.03.31 13:35:05.
