data_PCOD8126004
_publ_section_title
;
Structure prediction by ZEFSAII (Michael W. Deem and Ramdas Pophale) SiO2 
 PCOD8126004
Probable space group: P 21/C
;
_chemical_formula_sum "Si O2"
_cell_formula_units_Z 32
_cell_length_a 12.893809
_cell_length_b 10.646254
_cell_length_c 11.915884
_cell_angle_alpha 90.000000
_cell_angle_beta 103.054129
_cell_angle_gamma 90.000000
_cell_volume 1593.431243
_symmetry_space_group_name_H-M "P 21/C"
_symmetry_group_IT_number 14
_symmetry_cell_setting 'monoclinic'
loop_
_space_group_symop_operation_xyz
x,y,z
-x,1/2+y,1/2-z
-x,-y,-z
x,1/2-y,1/2+z
loop_
_atom_site_type_symbol
_atom_site_label
_atom_site_fract_x
_atom_site_fract_y
_atom_site_fract_z
Si Si1 0.027137 0.084668 0.111802
Si Si2 0.398224 0.845939 0.943322
Si Si3 0.186667 0.995237 0.862251
Si Si4 0.591970 0.445183 0.102455
Si Si5 0.285242 0.170499 0.720360
Si Si6 0.495129 0.952217 0.180416
Si Si7 0.844234 0.760250 0.002010
Si Si8 0.793598 0.593798 0.177023
O O1 0.060065 0.220846 0.066639
O O2 0.128485 0.034568 0.209218
O O3 0.922984 0.085379 0.165390
O O4 0.000000 0.000000 0.000000
O O5 0.404463 0.703100 0.908906
O O6 0.278737 0.896051 0.907736
O O7 0.476148 0.920385 0.878207
O O8 0.433935 0.859719 0.080915
O O9 0.204398 0.063303 0.747270
O O10 0.186595 0.102719 0.957914
O O11 0.574838 0.484900 0.227979
O O12 0.711377 0.494506 0.102711
O O13 0.500000 0.500000 0.000000
O O14 0.403351 0.120030 0.748808
O O15 0.258232 0.203962 0.586050
O O16 0.279912 0.294115 0.795101
O O17 0.872735 0.657584 0.103656
#
# Coordination Sequence:
#
# PCOD8126004 Si02
#       8
#     4   4   4   4   4   4   4   4
#     4   9  19  37  63  86 115 160 199 249 302 364
#     4  10  24  42  60  93 122 172 203 259 314 371
#     4   9  19  39  60  88 120 152 213 251 306 373
#     4  12  26  40  62  94 129 165 208 261 314 371
#     4   9  18  35  61  87 114 157 198 259 300 367
#     4  10  23  40  64  86 126 163 215 250 315 374
#     4   9  18  36  63  88 117 155 204 249 309 366
#     4  10  21  37  59  93 119 156 208 251 304 372
#
# _framework density 20.082447999999999
#
# number of rings (size 3 to 8) (size 9 to 14) (size 15 to 20)
#    0.000    2.250    0.000    1.500    8.750    3.000 
#    9.000    0.625    0.000    0.000    0.000    0.000 
#    0.000    0.000    0.000    0.000    0.000    0.000 
#
# Total GULP energy -396588.730012 kJ/mol
# GULP energy per Si atom -12393.397813 kJ/mol
# Density = 2.003674 g / cm^3
# Si number density = 20.082448 Si / 1000 Ang^3
#
#
#
# Elastic Constant Matrix: (Units=GPa)
#
#
# Indices 1 2 3 4 5 6 
#
# 1 96.4075 41.4155 33.3774 0.0000 9.0918 0.0000
# 2 41.4155 95.3479 39.9059 0.0000 9.2553 0.0000
# 3 33.3774 39.9059 110.7237 0.0000 12.4482 0.0000
# 4 0.0000 0.0000 0.0000 22.9661 0.0000 3.2051
# 5 9.0918 9.2553 12.4482 0.0000 27.4076 0.0000
# 6 0.0000 0.0000 0.0000 3.2051 0.0000 27.2532
#
#
#
# Elastic Compliance Matrix: (Units=1/GPa)
#
#
# Indices 1 2 3 4 5 6 
#
# 1 0.013302 -0.004718 -0.002100 0.000000 -0.001866 0.000000
# 2 -0.004718 0.014159 -0.003498 0.000000 -0.001628 0.000000
# 3 -0.002100 -0.003498 0.011291 0.000000 -0.003250 0.000000
# 4 0.000000 0.000000 0.000000 0.044269 0.000000 -0.005206
# 5 -0.001866 -0.001628 -0.003250 0.000000 0.039131 0.000000
# 6 0.000000 0.000000 0.000000 -0.005206 0.000000 0.037305
#
#
# Mechanical properties :
#
#
# Convention : Reuss Voigt Hill
#
# Bulk Modulus (GPa) = 55.18565 59.09742 57.14153
# Shear Modulus (GPa) = 26.86306 28.04406 27.45356
#
# Velocity S-wave (km/s) = 3.66134 3.74096 3.70136
# Velocity P-wave (km/s) = 6.73892 6.93909 6.83974
#
# Compressibility (1/GPa) = 0.01812065
#
# Stress axis : x y z
#
# Youngs Moduli (GPa) = 75.17432 70.62519 88.56974
#
# Poissons Ratio (x) = 0.33322 0.18597
# Poissons Ratio (y) = 0.35468 0.30981
# Poissons Ratio (z) = 0.15785 0.24704
#
# Static dielectric constant tensor:
#      x y z
#    x 3.927930 0.000000 -0.137590 
#    y 0.000000 3.557580 0.000000 
#    z -0.137590 0.000000 3.839900 
# 
# 
# High freq. dielectric constant tensor:
#      x y z
#    x 1.778760 0.000000 -0.003510 
#    y 0.000000 1.767340 0.000000 
#    z -0.003510 0.000000 1.791950 
# 
# From -- ./inp_files/29054.got.cif
#   From: 2010.03.12/outbox.cif.g09.slc.cpg/sg14_15_cif.got.tgz:29054.got - 2010.03.31 13:35:05.
