data_PCOD8126289
_publ_section_title
;
Structure prediction by ZEFSAII (Michael W. Deem and Ramdas Pophale) SiO2 
 PCOD8126289
Probable space group: P 21/C
;
_chemical_formula_sum "Si O2"
_cell_formula_units_Z 32
_cell_length_a 11.648945
_cell_length_b 9.207409
_cell_length_c 17.980939
_cell_angle_alpha 90.000000
_cell_angle_beta 124.048214
_cell_angle_gamma 90.000000
_cell_volume 1597.952569
_symmetry_space_group_name_H-M "P 21/C"
_symmetry_group_IT_number 14
_symmetry_cell_setting 'monoclinic'
loop_
_space_group_symop_operation_xyz
x,y,z
-x,1/2+y,1/2-z
-x,-y,-z
x,1/2-y,1/2+z
loop_
_atom_site_type_symbol
_atom_site_label
_atom_site_fract_x
_atom_site_fract_y
_atom_site_fract_z
Si Si1 0.528859 0.127640 0.210789
Si Si2 0.837845 0.238452 0.593849
Si Si3 0.802086 0.418357 0.724677
Si Si4 0.341801 0.161064 0.904962
Si Si5 0.654085 0.962937 0.533102
Si Si6 0.357977 0.405797 0.143033
Si Si7 0.067770 0.064734 0.598675
Si Si8 0.620301 0.441057 0.450026
O O1 0.651420 0.144769 0.193747
O O2 0.469299 0.285223 0.206490
O O3 0.590471 0.062277 0.309023
O O4 0.405737 0.019471 0.138436
O O5 0.867373 0.321723 0.682266
O O6 0.755910 0.339853 0.505023
O O7 0.977095 0.192439 0.602244
O O8 0.752872 0.096519 0.586374
O O9 0.776175 0.582730 0.686461
O O10 0.908533 0.433620 0.832540
O O11 0.292407 0.325379 0.900286
O O12 0.490093 0.163712 0.918043
O O13 0.365656 0.075573 0.989600
O O14 0.664008 0.916946 0.451680
O O15 0.500000 0.000000 0.500000
O O16 0.214265 0.363971 0.130770
O O17 0.000000 0.000000 0.500000
#
# Coordination Sequence:
#
# PCOD8126289 Si02
#       8
#     4   4   4   4   4   4   4   4
#     4  10  21  39  63  90 124 159 206 267 327 368
#     4  11  22  38  64  92 122 168 217 254 307 390
#     4   9  22  42  66  90 120 168 215 258 318 380
#     4   9  17  33  58  90 121 153 197 268 319 349
#     4  12  21  33  61  97 123 154 220 269 305 364
#     4  11  24  39  61  90 127 168 206 259 326 379
#     4  11  24  44  62  89 135 178 200 249 334 392
#     4   9  17  34  59  85 122 158 198 255 320 369
#
# _framework density 20.025625000000002
#
# number of rings (size 3 to 8) (size 9 to 14) (size 15 to 20)
#    0.000    1.750    3.750    1.500    1.750    2.000 
#    0.000    1.875    0.000    0.000    0.000    0.000 
#    0.000    0.000    0.000    0.000    0.000    0.000 
#
# Total GULP energy -396728.589481 kJ/mol
# GULP energy per Si atom -12397.768421 kJ/mol
# Density = 1.998005 g / cm^3
# Si number density = 20.025625 Si / 1000 Ang^3
#
#
#
# Elastic Constant Matrix: (Units=GPa)
#
#
# Indices 1 2 3 4 5 6 
#
# 1 102.6390 38.0188 32.1075 0.0000 -9.2990 0.0000
# 2 38.0188 88.5488 30.1853 0.0000 -6.3906 0.0000
# 3 32.1075 30.1853 97.0085 0.0000 -1.7572 0.0000
# 4 0.0000 0.0000 0.0000 25.2604 0.0000 -3.1979
# 5 -9.2990 -6.3906 -1.7572 0.0000 20.0166 0.0000
# 6 0.0000 0.0000 0.0000 -3.1979 0.0000 37.0864
#
#
#
# Elastic Compliance Matrix: (Units=1/GPa)
#
#
# Indices 1 2 3 4 5 6 
#
# 1 0.012527 -0.004121 -0.002787 0.000000 0.004259 0.000000
# 2 -0.004121 0.014268 -0.003033 0.000000 0.002374 0.000000
# 3 -0.002787 -0.003033 0.012153 0.000000 -0.001196 0.000000
# 4 0.000000 0.000000 0.000000 0.040025 0.000000 0.003451
# 5 0.004259 0.002374 -0.001196 0.000000 0.052590 0.000000
# 6 0.000000 0.000000 0.000000 0.003451 0.000000 0.027262
#
#
# Mechanical properties :
#
#
# Convention : Reuss Voigt Hill
#
# Bulk Modulus (GPa) = 52.44756 54.31327 53.38041
# Shear Modulus (GPa) = 27.01821 28.99832 28.00826
#
# Velocity S-wave (km/s) = 3.67711 3.80947 3.74387
# Velocity P-wave (km/s) = 6.65396 6.82130 6.73815
#
# Compressibility (1/GPa) = 0.01906667
#
# Stress axis : x y z
#
# Youngs Moduli (GPa) = 79.82741 70.08790 82.28664
#
# Poissons Ratio (x) = 0.28885 0.22930
# Poissons Ratio (y) = 0.32899 0.24954
# Poissons Ratio (z) = 0.22245 0.21255
#
# Static dielectric constant tensor:
#      x y z
#    x 3.597200 0.000000 -0.077460 
#    y 0.000000 3.388600 0.000000 
#    z -0.077460 0.000000 3.650680 
# 
# 
# High freq. dielectric constant tensor:
#      x y z
#    x 1.764060 0.000000 -0.005690 
#    y 0.000000 1.775290 0.000000 
#    z -0.005690 0.000000 1.786290 
# 
# From -- ./inp_files/57303.got.cif
#   From: 2010.03.12/outbox.cif.g09.slc.cpg/sg14_29_cif.got.tgz:57303.got - 2010.03.31 13:35:05.
