data_PCOD8126784
_publ_section_title
;
Structure prediction by ZEFSAII (Michael W. Deem and Ramdas Pophale) SiO2 
 PCOD8126784
Probable space group: P 21/C
;
_chemical_formula_sum "Si O2"
_cell_formula_units_Z 32
_cell_length_a 17.036391
_cell_length_b 14.050379
_cell_length_c 12.138141
_cell_angle_alpha 90.000000
_cell_angle_beta 32.069766
_cell_angle_gamma 90.000000
_cell_volume 1542.668683
_symmetry_space_group_name_H-M "P 21/C"
_symmetry_group_IT_number 14
_symmetry_cell_setting 'monoclinic'
loop_
_space_group_symop_operation_xyz
x,y,z
-x,1/2+y,1/2-z
-x,-y,-z
x,1/2-y,1/2+z
loop_
_atom_site_type_symbol
_atom_site_label
_atom_site_fract_x
_atom_site_fract_y
_atom_site_fract_z
Si Si1 0.127489 0.586693 0.931017
Si Si2 0.300751 0.615835 0.100534
Si Si3 0.155855 0.489529 0.108435
Si Si4 0.355368 0.385570 0.317113
Si Si5 0.846924 0.206752 0.806944
Si Si6 0.819417 0.701801 0.048281
Si Si7 0.820850 0.435593 0.531297
Si Si8 0.790931 0.587332 0.287073
O O1 0.151290 0.677807 0.825458
O O2 0.235666 0.505883 0.753274
O O3 0.171497 0.582005 0.007516
O O4 0.952398 0.565378 0.146131
O O5 0.251770 0.516212 0.101657
O O6 0.255904 0.700988 0.070669
O O7 0.217400 0.627947 0.316480
O O8 0.473968 0.618432 0.915406
O O9 0.214368 0.391120 0.985868
O O10 0.987139 0.472268 0.342986
O O11 0.281474 0.286755 0.371598
O O12 0.285001 0.473072 0.335615
O O13 0.333387 0.400263 0.473437
O O14 0.008758 0.232197 0.662042
O O15 0.786615 0.123577 0.959464
O O16 0.784586 0.680251 0.217490
#
# Coordination Sequence:
#
# PCOD8126784 Si02
#       8
#     4   4   4   4   4   4   4   4
#     4   9  16  37  68  89 110 147 217 267 294 356
#     4  12  28  37  59  97 134 170 201 253 325 383
#     4  10  21  42  67  95 120 158 218 266 308 360
#     4  12  23  41  60  90 133 174 203 252 325 381
#     4  10  22  40  65  95 117 161 220 265 307 364
#     4   9  22  38  66  94 120 160 216 266 310 363
#     4  11  23  44  67  86 126 169 215 260 311 367
#     4   9  17  36  63  91 110 160 206 259 306 356
#
# _framework density 20.743275000000001
#
# number of rings (size 3 to 8) (size 9 to 14) (size 15 to 20)
#    0.000    1.750    2.500    3.000    1.750    6.000 
#    0.000    1.250    0.000    0.000    0.000    0.000 
#    0.000    0.000    0.000    0.000    0.000    0.000 
#
# Total GULP energy -396533.938803 kJ/mol
# GULP energy per Si atom -12391.685588 kJ/mol
# Density = 2.069606 g / cm^3
# Si number density = 20.743275 Si / 1000 Ang^3
#
#
#
# Elastic Constant Matrix: (Units=GPa)
#
#
# Indices 1 2 3 4 5 6 
#
# 1 73.1872 44.6901 46.9821 0.0000 -4.4148 0.0000
# 2 44.6901 95.5400 35.0052 0.0000 -16.3375 0.0000
# 3 46.9821 35.0052 85.8701 0.0000 8.4087 0.0000
# 4 0.0000 0.0000 0.0000 16.3865 0.0000 4.1925
# 5 -4.4148 -16.3375 8.4087 0.0000 27.9892 0.0000
# 6 0.0000 0.0000 0.0000 4.1925 0.0000 26.5436
#
#
#
# Elastic Compliance Matrix: (Units=1/GPa)
#
#
# Indices 1 2 3 4 5 6 
#
# 1 0.025572 -0.007255 -0.011348 0.000000 0.003208 0.000000
# 2 -0.007255 0.017009 -0.003940 0.000000 0.009967 0.000000
# 3 -0.011348 -0.003940 0.020463 0.000000 -0.010237 0.000000
# 4 0.000000 0.000000 0.000000 0.063596 0.000000 -0.010045
# 5 0.003208 0.009967 -0.010237 0.000000 0.045128 0.000000
# 6 0.000000 0.000000 0.000000 -0.010045 0.000000 0.039260
#
#
# Mechanical properties :
#
#
# Convention : Reuss Voigt Hill
#
# Bulk Modulus (GPa) = 55.68767 56.43913 56.06340
# Shear Modulus (GPa) = 19.07675 22.71185 20.89430
#
# Velocity S-wave (km/s) = 3.03588 3.31252 3.17721
# Velocity P-wave (km/s) = 6.26044 6.47285 6.36754
#
# Compressibility (1/GPa) = 0.01795730
#
# Stress axis : x y z
#
# Youngs Moduli (GPa) = 39.10525 58.79349 48.86936
#
# Poissons Ratio (x) = 0.42657 0.55455
# Poissons Ratio (y) = 0.28373 0.19254
# Poissons Ratio (z) = 0.44375 0.23165
#
# Static dielectric constant tensor:
#      x y z
#    x 3.651510 0.000000 0.307900 
#    y 0.000000 3.682920 0.000000 
#    z 0.307900 0.000000 3.637710 
# 
# 
# High freq. dielectric constant tensor:
#      x y z
#    x 1.801490 0.000000 0.024630 
#    y 0.000000 1.810620 0.000000 
#    z 0.024630 0.000000 1.798180 
# 
# From -- ./inp_files/34211.got.cif
#   From: 2010.03.12/outbox.cif.g09.slc.cpg/sg14_18_cif.got.tgz:34211.got - 2010.03.31 13:35:05.
