data_PCOD8126646
_publ_section_title
;
Structure prediction by ZEFSAII (Michael W. Deem and Ramdas Pophale) SiO2 
 PCOD8126646
Probable space group: P 21/C
;
_chemical_formula_sum "Si O2"
_cell_formula_units_Z 28
_cell_length_a 9.407883
_cell_length_b 13.488879
_cell_length_c 11.714653
_cell_angle_alpha 90.000000
_cell_angle_beta 118.238245
_cell_angle_gamma 90.000000
_cell_volume 1309.685754
_symmetry_space_group_name_H-M "P 21/C"
_symmetry_group_IT_number 14
_symmetry_cell_setting 'monoclinic'
loop_
_space_group_symop_operation_xyz
x,y,z
-x,1/2+y,1/2-z
-x,-y,-z
x,1/2-y,1/2+z
loop_
_atom_site_type_symbol
_atom_site_label
_atom_site_fract_x
_atom_site_fract_y
_atom_site_fract_z
Si Si1 0.438885 0.322980 0.789858
Si Si2 0.045420 0.893229 0.968735
Si Si3 0.413983 0.630778 0.561357
Si Si4 0.157298 0.276409 0.049916
Si Si5 0.043106 0.044775 0.635498
Si Si6 0.622150 0.454560 0.695909
Si Si7 0.163713 0.406937 0.824699
O O1 0.521139 0.241678 0.901217
O O2 0.328366 0.270738 0.651360
O O3 0.584059 0.384371 0.788507
O O4 0.336453 0.400445 0.828348
O O5 0.969063 0.811420 0.024643
O O6 0.971253 0.870018 0.815925
O O7 0.235222 0.879859 0.040975
O O8 0.000000 0.000000 0.000000
O O9 0.522456 0.555577 0.675895
O O10 0.431952 0.604030 0.436356
O O11 0.089471 0.340671 0.133060
O O12 0.171795 0.338611 0.940003
O O13 0.190968 0.981777 0.743127
O O14 0.000000 0.000000 0.500000
O O15 0.888902 0.020261 0.659590
#
# Coordination Sequence:
#
# PCOD8126646 Si02
#       7
#     4   4   4   4   4   4   4
#     4  11  23  40  67  97 133 171 219 277 323 388
#     4  11  24  40  66  99 127 165 221 275 317 388
#     4  11  23  40  68  94 130 175 212 274 342 382
#     4  10  22  42  66  92 130 176 217 262 330 393
#     4  10  21  41  66  87 125 175 212 260 324 396
#     4  11  23  43  65  93 131 172 221 265 330 403
#     4  10  22  42  63  94 129 169 217 262 321 383
#
# _framework density 21.379173000000002
#
# number of rings (size 3 to 8) (size 9 to 14) (size 15 to 20)
#    0.000    1.429    2.857    2.571    4.000    3.429 
#    0.000    4.286    0.000    0.000    0.000    0.000 
#    0.000    0.000    0.000    0.000    0.000    0.000 
#
# Total GULP energy -347072.509162 kJ/mol
# GULP energy per Si atom -12395.446756 kJ/mol
# Density = 2.133051 g / cm^3
# Si number density = 21.379173 Si / 1000 Ang^3
#
#
#
# Elastic Constant Matrix: (Units=GPa)
#
#
# Indices 1 2 3 4 5 6 
#
# 1 101.1195 43.5698 15.2922 0.0000 5.0252 0.0000
# 2 43.5698 108.4835 18.0058 0.0000 -6.1185 0.0000
# 3 15.2922 18.0058 60.9190 0.0000 -2.4868 0.0000
# 4 0.0000 0.0000 0.0000 33.5884 0.0000 -2.6776
# 5 5.0252 -6.1185 -2.4868 0.0000 28.9279 0.0000
# 6 0.0000 0.0000 0.0000 -2.6776 0.0000 39.1566
#
#
#
# Elastic Compliance Matrix: (Units=1/GPa)
#
#
# Indices 1 2 3 4 5 6 
#
# 1 0.012433 -0.004881 -0.001815 0.000000 -0.003348 0.000000
# 2 -0.004881 0.011705 -0.002106 0.000000 0.003143 0.000000
# 3 -0.001815 -0.002106 0.017550 0.000000 0.001379 0.000000
# 4 0.000000 0.000000 0.000000 0.029935 0.000000 0.002047
# 5 -0.003348 0.003143 0.001379 0.000000 0.035934 0.000000
# 6 0.000000 0.000000 0.000000 0.002047 0.000000 0.025678
#
#
# Mechanical properties :
#
#
# Convention : Reuss Voigt Hill
#
# Bulk Modulus (GPa) = 41.52212 47.13975 44.33094
# Shear Modulus (GPa) = 31.47266 33.24485 32.35875
#
# Velocity S-wave (km/s) = 3.84098 3.94764 3.89468
# Velocity P-wave (km/s) = 6.25578 6.54796 6.40353
#
# Compressibility (1/GPa) = 0.02408355
#
# Stress axis : x y z
#
# Youngs Moduli (GPa) = 80.42898 85.43211 56.98118
#
# Poissons Ratio (x) = 0.41701 0.10342
# Poissons Ratio (y) = 0.39259 0.12001
# Poissons Ratio (z) = 0.14598 0.17993
#
# Static dielectric constant tensor:
#      x y z
#    x 3.999370 0.000000 0.002900 
#    y 0.000000 4.331730 0.000000 
#    z 0.002900 0.000000 3.888130 
# 
# 
# High freq. dielectric constant tensor:
#      x y z
#    x 1.839200 0.000000 0.003090 
#    y 0.000000 1.838310 0.000000 
#    z 0.003090 0.000000 1.837210 
# 
# From -- ./inp_files/25298.got.cif
#   From: 2010.03.12/outbox.cif.g09.slc.cpg/sg14_13_cif.got.tgz:25298.got - 2010.03.31 13:35:05.
