data_PCOD8126196
_publ_section_title
;
Structure prediction by ZEFSAII (Michael W. Deem and Ramdas Pophale) SiO2 
 PCOD8126196
Probable space group: P 21/C
;
_chemical_formula_sum "Si O2"
_cell_formula_units_Z 32
_cell_length_a 6.691212
_cell_length_b 30.281195
_cell_length_c 8.891827
_cell_angle_alpha 90.000000
_cell_angle_beta 58.008675
_cell_angle_gamma 90.000000
_cell_volume 1528.024682
_symmetry_space_group_name_H-M "P 21/C"
_symmetry_group_IT_number 14
_symmetry_cell_setting 'monoclinic'
loop_
_space_group_symop_operation_xyz
x,y,z
-x,1/2+y,1/2-z
-x,-y,-z
x,1/2-y,1/2+z
loop_
_atom_site_type_symbol
_atom_site_label
_atom_site_fract_x
_atom_site_fract_y
_atom_site_fract_z
Si Si1 0.492043 0.952391 0.842202
Si Si2 0.491954 0.294747 0.283198
Si Si3 0.005213 0.589579 0.556826
Si Si4 0.398122 0.703175 0.107797
Si Si5 0.472266 0.450038 0.327258
Si Si6 0.171116 0.874088 0.297391
Si Si7 0.288621 0.364982 0.838729
Si Si8 0.908114 0.665969 0.379420
O O1 0.616043 0.915034 0.693041
O O2 0.546953 0.000371 0.748925
O O3 0.594090 0.949508 0.970098
O O4 0.209990 0.946403 0.956488
O O5 0.566777 0.248139 0.318019
O O6 0.657347 0.332594 0.285083
O O7 0.224182 0.305196 0.440442
O O8 0.504624 0.292678 0.098871
O O9 0.756652 0.564893 0.674679
O O10 0.008741 0.621370 0.411621
O O11 0.047825 0.619013 0.686939
O O12 0.539386 0.664152 0.130428
O O13 0.120065 0.693470 0.221297
O O14 0.685836 0.417181 0.205148
O O15 0.977710 0.863775 0.498693
O O16 0.284518 0.346168 0.671048
#
# Coordination Sequence:
#
# PCOD8126196 Si02
#       8
#     4   4   4   4   4   4   4   4
#     4  10  21  38  67  98 133 175 232 282 332 407
#     4  12  27  48  70 101 136 175 224 283 336 407
#     4  11  20  41  68  94 132 180 223 277 338 397
#     4  12  29  46  70 103 135 173 229 279 339 408
#     4  10  21  40  64  99 132 179 229 278 341 397
#     4  11  25  41  66  97 140 175 225 280 338 404
#     4  12  24  45  66 100 137 180 226 281 339 402
#     4  12  24  45  73  97 135 183 220 277 339 397
#
# _framework density 20.942070999999999
#
# number of rings (size 3 to 8) (size 9 to 14) (size 15 to 20)
#    0.000    0.750    5.000    2.625    3.500    1.500 
#    0.000    0.625    0.000    0.000    0.000    0.000 
#    0.000    0.000    0.000    0.000    0.000    0.000 
#
# Total GULP energy -396989.012350 kJ/mol
# GULP energy per Si atom -12405.906636 kJ/mol
# Density = 2.089441 g / cm^3
# Si number density = 20.942071 Si / 1000 Ang^3
#
#
#
# Elastic Constant Matrix: (Units=GPa)
#
#
# Indices 1 2 3 4 5 6 
#
# 1 101.6894 29.2599 30.7612 0.0000 1.4605 0.0000
# 2 29.2599 116.5534 19.7263 0.0000 -7.6188 0.0000
# 3 30.7612 19.7263 96.1231 0.0000 -6.1014 0.0000
# 4 0.0000 0.0000 0.0000 26.9333 0.0000 5.7793
# 5 1.4605 -7.6188 -6.1014 0.0000 37.5503 0.0000
# 6 0.0000 0.0000 0.0000 5.7793 0.0000 25.3257
#
#
#
# Elastic Compliance Matrix: (Units=1/GPa)
#
#
# Indices 1 2 3 4 5 6 
#
# 1 0.011552 -0.002440 -0.003290 0.000000 -0.001479 0.000000
# 2 -0.002440 0.009491 -0.001049 0.000000 0.001850 0.000000
# 3 -0.003290 -0.001049 0.011788 0.000000 0.001830 0.000000
# 4 0.000000 0.000000 0.000000 0.039040 0.000000 -0.008909
# 5 -0.001479 0.001850 0.001830 0.000000 0.027361 0.000000
# 6 0.000000 0.000000 0.000000 -0.008909 0.000000 0.041519
#
#
# Mechanical properties :
#
#
# Convention : Reuss Voigt Hill
#
# Bulk Modulus (GPa) = 51.88889 52.65119 52.27004
# Shear Modulus (GPa) = 31.10718 33.60308 32.35513
#
# Velocity S-wave (km/s) = 3.85826 4.01006 3.93489
# Velocity P-wave (km/s) = 6.68426 6.82911 6.75707
#
# Compressibility (1/GPa) = 0.01927195
#
# Stress axis : x y z
#
# Youngs Moduli (GPa) = 86.56161 105.36466 84.83359
#
# Poissons Ratio (x) = 0.25709 0.27912
# Poissons Ratio (y) = 0.21121 0.08903
# Poissons Ratio (z) = 0.28480 0.11057
#
# Static dielectric constant tensor:
#      x y z
#    x 3.868230 0.000000 0.011090 
#    y 0.000000 3.918540 0.000000 
#    z 0.011090 0.000000 3.701930 
# 
# 
# High freq. dielectric constant tensor:
#      x y z
#    x 1.832120 0.000000 -0.000860 
#    y 0.000000 1.830980 0.000000 
#    z -0.000860 0.000000 1.810330 
# 
# From -- ./inp_files/6961.got.cif
#   From: 2010.03.12/outbox.cif.g09.slc.cpg/sg14_4_cif.got.tgz:6961.got - 2010.03.31 13:35:05.
