data_PCOD8126030
_publ_section_title
;
Structure prediction by ZEFSAII (Michael W. Deem and Ramdas Pophale) SiO2 
 PCOD8126030
Probable space group: P 21/C
;
_chemical_formula_sum "Si O2"
_cell_formula_units_Z 20
_cell_length_a 21.780915
_cell_length_b 5.049384
_cell_length_c 14.251671
_cell_angle_alpha 90.000000
_cell_angle_beta 34.124130
_cell_angle_gamma 90.000000
_cell_volume 879.293033
_symmetry_space_group_name_H-M "P 21/C"
_symmetry_group_IT_number 14
_symmetry_cell_setting 'monoclinic'
loop_
_space_group_symop_operation_xyz
x,y,z
-x,1/2+y,1/2-z
-x,-y,-z
x,1/2-y,1/2+z
loop_
_atom_site_type_symbol
_atom_site_label
_atom_site_fract_x
_atom_site_fract_y
_atom_site_fract_z
Si Si1 0.225919 0.643904 0.981838
Si Si2 0.950582 0.965783 0.763011
Si Si3 0.129572 0.964425 0.403233
Si Si4 0.572386 0.080312 0.662342
Si Si5 0.789069 0.530870 0.806627
O O1 0.200013 0.561576 0.909753
O O2 0.356728 0.660884 0.834264
O O3 0.174562 0.935689 0.069882
O O4 0.176758 0.440126 0.125394
O O5 0.029300 0.193053 0.708638
O O6 0.999023 0.951132 0.594254
O O7 0.168301 0.234116 0.309057
O O8 0.154836 0.732630 0.300592
O O9 0.496304 0.832905 0.784003
O O10 0.656352 0.000473 0.471750
#
# Coordination Sequence:
#
# PCOD8126030 Si02
#       5
#     4   4   4   4   4
#     4   9  24  41  65  89 130 167 198 255 318 346
#     4  10  21  37  62  94 127 165 202 242 307 376
#     4  11  21  41  62  95 127 158 205 253 297 383
#     4  10  22  43  63  86 124 161 207 262 305 358
#     4  10  24  38  65  92 124 159 214 246 307 371
#
# _framework density 22.745543000000001
#
# number of rings (size 3 to 8) (size 9 to 14) (size 15 to 20)
#    1.200    0.800    0.000    3.600    0.000   11.200 
#    0.000    6.000    0.000    0.000    0.000    0.000 
#    0.000    0.000    0.000    0.000    0.000    0.000 
#
# Total GULP energy -247798.785603 kJ/mol
# GULP energy per Si atom -12389.939280 kJ/mol
# Density = 2.269377 g / cm^3
# Si number density = 22.745543 Si / 1000 Ang^3
#
#
#
# Elastic Constant Matrix: (Units=GPa)
#
#
# Indices 1 2 3 4 5 6 
#
# 1 88.5673 47.9390 30.0756 0.0000 -5.0907 0.0000
# 2 47.9390 139.1548 47.2389 0.0000 2.9567 0.0000
# 3 30.0756 47.2389 82.5578 0.0000 -14.5769 0.0000
# 4 0.0000 0.0000 0.0000 47.5338 0.0000 8.0977
# 5 -5.0907 2.9567 -14.5769 0.0000 42.3908 0.0000
# 6 0.0000 0.0000 0.0000 8.0977 0.0000 28.7966
#
#
#
# Elastic Compliance Matrix: (Units=1/GPa)
#
#
# Indices 1 2 3 4 5 6 
#
# 1 0.014498 -0.004082 -0.002755 0.000000 0.001078 0.000000
# 2 -0.004082 0.010330 -0.004937 0.000000 -0.002909 0.000000
# 3 -0.002755 -0.004937 0.016975 0.000000 0.005851 0.000000
# 4 0.000000 0.000000 0.000000 0.022096 0.000000 -0.006214
# 5 0.001078 -0.002909 0.005851 0.000000 0.025934 0.000000
# 6 0.000000 0.000000 0.000000 -0.006214 0.000000 0.036474
#
#
# Mechanical properties :
#
#
# Convention : Reuss Voigt Hill
#
# Bulk Modulus (GPa) = 54.78505 62.30965 58.54735
# Shear Modulus (GPa) = 32.06327 36.07933 34.07130
#
# Velocity S-wave (km/s) = 3.75860 3.98705 3.87451
# Velocity P-wave (km/s) = 6.55549 6.97489 6.76844
#
# Compressibility (1/GPa) = 0.01825315
#
# Stress axis : x y z
#
# Youngs Moduli (GPa) = 68.97480 96.80116 58.91110
#
# Poissons Ratio (x) = 0.39515 0.16233
# Poissons Ratio (y) = 0.28156 0.29087
# Poissons Ratio (z) = 0.19006 0.47795
#
# Static dielectric constant tensor:
#      x y z
#    x 4.218540 0.000000 0.007820 
#    y 0.000000 4.050390 0.000000 
#    z 0.007820 0.000000 4.211010 
# 
# 
# High freq. dielectric constant tensor:
#      x y z
#    x 1.901720 0.000000 -0.002310 
#    y 0.000000 1.913420 0.000000 
#    z -0.002310 0.000000 1.890300 
# 
# From -- ./inp_files/50958.got.cif
#   From: 2010.03.12/outbox.cif.g09.slc.cpg/sg14_26_cif.got.tgz:50958.got - 2010.03.31 13:35:05.
