data_PCOD8126668
_publ_section_title
;
Structure prediction by ZEFSAII (Michael W. Deem and Ramdas Pophale) SiO2 
 PCOD8126668
Probable space group: P 21/C
;
_chemical_formula_sum "Si O2"
_cell_formula_units_Z 28
_cell_length_a 7.813571
_cell_length_b 9.374189
_cell_length_c 25.489838
_cell_angle_alpha 90.000000
_cell_angle_beta 45.442566
_cell_angle_gamma 90.000000
_cell_volume 1330.344623
_symmetry_space_group_name_H-M "P 21/C"
_symmetry_group_IT_number 14
_symmetry_cell_setting 'monoclinic'
loop_
_space_group_symop_operation_xyz
x,y,z
-x,1/2+y,1/2-z
-x,-y,-z
x,1/2-y,1/2+z
loop_
_atom_site_type_symbol
_atom_site_label
_atom_site_fract_x
_atom_site_fract_y
_atom_site_fract_z
Si Si1 0.398248 0.288410 0.659056
Si Si2 0.396636 0.942155 0.221588
Si Si3 0.456764 0.499310 0.199579
Si Si4 0.766348 0.755769 0.587952
Si Si5 0.720397 0.155900 0.996089
Si Si6 0.042833 0.715104 0.314240
Si Si7 0.730590 0.821682 0.977253
O O1 0.390749 0.388671 0.712048
O O2 0.371482 0.121842 0.677671
O O3 0.633638 0.317443 0.574066
O O4 0.175880 0.341545 0.672816
O O5 0.442981 0.913004 0.272589
O O6 0.597782 0.874166 0.141365
O O7 0.141789 0.862622 0.267929
O O8 0.663296 0.592889 0.128364
O O9 0.242059 0.593835 0.267706
O O10 0.765914 0.757986 0.524801
O O11 0.024589 0.737356 0.560761
O O12 0.762140 0.989829 0.977532
O O13 0.530310 0.214642 0.993279
O O14 0.948419 0.734421 0.394002
#
# Coordination Sequence:
#
# PCOD8126668 Si02
#       7
#     4   4   4   4   4   4   4
#     4  11  22  42  64  92 128 166 214 261 317 385
#     4  11  23  42  64  93 122 169 213 256 320 381
#     4  11  25  41  62  96 129 165 212 262 325 378
#     4  11  23  42  66  93 129 168 209 269 316 376
#     4  10  22  38  67  97 123 174 213 262 318 385
#     4  10  23  42  65  93 123 165 213 269 315 372
#     4  10  21  41  67  95 127 165 223 259 317 389
#
# _framework density 21.047177000000001
#
# number of rings (size 3 to 8) (size 9 to 14) (size 15 to 20)
#    0.000    1.429    1.429    3.857    4.000    0.571 
#   12.857    1.429    0.000    0.000    0.000    0.000 
#    0.000    0.000    0.000    0.000    0.000    0.000 
#
# Total GULP energy -347193.833687 kJ/mol
# GULP energy per Si atom -12399.779775 kJ/mol
# Density = 2.099927 g / cm^3
# Si number density = 21.047177 Si / 1000 Ang^3
#
#
#
# Elastic Constant Matrix: (Units=GPa)
#
#
# Indices 1 2 3 4 5 6 
#
# 1 81.1090 21.9940 56.1501 0.0000 2.7461 0.0000
# 2 21.9940 98.3857 50.5141 0.0000 -2.8935 0.0000
# 3 56.1501 50.5141 140.3288 0.0000 -8.1393 0.0000
# 4 0.0000 0.0000 0.0000 12.1556 0.0000 2.4812
# 5 2.7461 -2.8935 -8.1393 0.0000 35.0676 0.0000
# 6 0.0000 0.0000 0.0000 2.4812 0.0000 23.5134
#
#
#
# Elastic Compliance Matrix: (Units=1/GPa)
#
#
# Indices 1 2 3 4 5 6 
#
# 1 0.017373 -0.000385 -0.006988 0.000000 -0.003014 0.000000
# 2 -0.000385 0.012477 -0.004334 0.000000 0.000054 0.000000
# 3 -0.006988 -0.004334 0.011650 0.000000 0.002894 0.000000
# 4 0.000000 0.000000 0.000000 0.084078 0.000000 -0.008872
# 5 -0.003014 0.000054 0.002894 0.000000 0.029428 0.000000
# 6 0.000000 0.000000 0.000000 -0.008872 0.000000 0.043465
#
#
# Mechanical properties :
#
#
# Convention : Reuss Voigt Hill
#
# Bulk Modulus (GPa) = 55.28939 64.12666 59.70803
# Shear Modulus (GPa) = 21.93809 26.89166 24.41488
#
# Velocity S-wave (km/s) = 3.23202 3.57835 3.40958
# Velocity P-wave (km/s) = 6.34462 6.89978 6.62802
#
# Compressibility (1/GPa) = 0.01808665
#
# Stress axis : x y z
#
# Youngs Moduli (GPa) = 57.56060 80.14736 85.83485
#
# Poissons Ratio (x) = 0.03082 0.59980
# Poissons Ratio (y) = 0.02214 0.37204
# Poissons Ratio (z) = 0.40223 0.34739
#
# Static dielectric constant tensor:
#      x y z
#    x 3.819250 0.000000 -0.023010 
#    y 0.000000 3.511220 0.000000 
#    z -0.023010 0.000000 3.949500 
# 
# 
# High freq. dielectric constant tensor:
#      x y z
#    x 1.830960 0.000000 -0.001220 
#    y 0.000000 1.812230 0.000000 
#    z -0.001220 0.000000 1.836120 
# 
# From -- ./inp_files/76437.got.cif
#   From: 2010.03.12/outbox.cif.g09.slc.cpg/sg14_39_cif.got.tgz:76437.got - 2010.03.31 13:35:05.
