data_PCOD8126627
_publ_section_title
;
Structure prediction by ZEFSAII (Michael W. Deem and Ramdas Pophale) SiO2 
 PCOD8126627
Probable space group: P 21/C
;
_chemical_formula_sum "Si O2"
_cell_formula_units_Z 24
_cell_length_a 20.514521
_cell_length_b 11.154396
_cell_length_c 10.252789
_cell_angle_alpha 90.000000
_cell_angle_beta 155.161427
_cell_angle_gamma 90.000000
_cell_volume 985.516773
_symmetry_space_group_name_H-M "P 21/C"
_symmetry_group_IT_number 14
_symmetry_cell_setting 'monoclinic'
loop_
_space_group_symop_operation_xyz
x,y,z
-x,1/2+y,1/2-z
-x,-y,-z
x,1/2-y,1/2+z
loop_
_atom_site_type_symbol
_atom_site_label
_atom_site_fract_x
_atom_site_fract_y
_atom_site_fract_z
Si Si1 0.519189 0.728557 0.454098
Si Si2 0.258569 0.346943 0.818801
Si Si3 0.563281 0.479848 0.464848
Si Si4 0.213375 0.405920 0.321039
Si Si5 0.665937 0.266778 0.147110
Si Si6 0.100818 0.530368 0.374906
O O1 0.682556 0.783871 0.708191
O O2 0.544198 0.586469 0.541004
O O3 0.461042 0.805792 0.472773
O O4 0.394638 0.725913 0.110282
O O5 0.208959 0.240351 0.828481
O O6 0.117577 0.435963 0.525209
O O7 0.398614 0.424672 0.127587
O O8 0.623911 0.554669 0.448310
O O9 0.690681 0.375396 0.726264
O O10 0.189061 0.473919 0.411734
O O11 0.077776 0.444804 0.974706
O O12 0.821340 0.342529 0.445603
#
# Coordination Sequence:
#
# PCOD8126627 Si02
#       6
#     4   4   4   4   4   4
#     4  10  22  38  64  99 132 172 224 276 321 382
#     4  10  22  39  66  91 127 167 219 274 322 384
#     4  10  21  41  64  95 130 169 223 277 318 384
#     4  10  25  43  62  98 129 174 224 269 328 403
#     4  11  22  39  66  97 131 174 217 274 331 385
#     4  11  23  42  68  88 135 178 216 268 338 401
#
# _framework density 24.352705
#
# number of rings (size 3 to 8) (size 9 to 14) (size 15 to 20)
#    0.000    1.667    1.667    2.500    9.333    1.333 
#    0.000    0.000    0.000    3.000    0.000    0.000 
#    0.000    0.000    0.000    0.000    0.000    0.000 
#
# Total GULP energy -297437.368890 kJ/mol
# GULP energy per Si atom -12393.223704 kJ/mol
# Density = 2.429728 g / cm^3
# Si number density = 24.352705 Si / 1000 Ang^3
#
#
#
# Elastic Constant Matrix: (Units=GPa)
#
#
# Indices 1 2 3 4 5 6 
#
# 1 65.0585 11.5791 12.3759 0.0000 -15.7401 0.0000
# 2 11.5791 146.9214 47.2795 0.0000 -8.6521 0.0000
# 3 12.3759 47.2795 85.6518 0.0000 -13.9247 0.0000
# 4 0.0000 0.0000 0.0000 37.7491 0.0000 -7.6297
# 5 -15.7401 -8.6521 -13.9247 0.0000 24.0903 0.0000
# 6 0.0000 0.0000 0.0000 -7.6297 0.0000 41.2081
#
#
#
# Elastic Compliance Matrix: (Units=1/GPa)
#
#
# Indices 1 2 3 4 5 6 
#
# 1 0.018351 -0.000629 -0.000432 0.000000 0.011514 0.000000
# 2 -0.000629 0.008301 -0.004496 0.000000 -0.000028 0.000000
# 3 -0.000432 -0.004496 0.015354 0.000000 0.006978 0.000000
# 4 0.000000 0.000000 0.000000 0.027521 0.000000 0.005095
# 5 0.011514 -0.000028 0.006978 0.000000 0.053056 0.000000
# 6 0.000000 0.000000 0.000000 0.005095 0.000000 0.025210
#
#
# Mechanical properties :
#
#
# Convention : Reuss Voigt Hill
#
# Bulk Modulus (GPa) = 32.37201 48.90006 40.63603
# Shear Modulus (GPa) = 29.55004 35.70267 32.62636
#
# Velocity S-wave (km/s) = 3.48720 3.83308 3.66422
# Velocity P-wave (km/s) = 5.43469 6.30186 5.88428
#
# Compressibility (1/GPa) = 0.03089088
#
# Stress axis : x y z
#
# Youngs Moduli (GPa) = 54.49383 120.46678 65.13076
#
# Poissons Ratio (x) = 0.07578 0.02816
# Poissons Ratio (y) = 0.03428 0.29282
# Poissons Ratio (z) = 0.02356 0.54160
#
# Static dielectric constant tensor:
#      x y z
#    x 4.362210 0.000000 -0.166310 
#    y 0.000000 5.217730 0.000000 
#    z -0.166310 0.000000 4.003320 
# 
# 
# High freq. dielectric constant tensor:
#      x y z
#    x 1.966740 0.000000 -0.024030 
#    y 0.000000 1.999450 0.000000 
#    z -0.024030 0.000000 1.937780 
# 
# From -- ./inp_files/35941.got.cif
#   From: 2010.03.12/outbox.cif.g09.slc.cpg/sg14_18_cif.got.tgz:35941.got - 2010.03.31 13:35:05.
