data_PCOD8126283
_publ_section_title
;
Structure prediction by ZEFSAII (Michael W. Deem and Ramdas Pophale) SiO2 
 PCOD8126283
Probable space group: P 21/C
;
_chemical_formula_sum "Si O2"
_cell_formula_units_Z 32
_cell_length_a 8.854144
_cell_length_b 8.752166
_cell_length_c 22.317931
_cell_angle_alpha 90.000000
_cell_angle_beta 115.964497
_cell_angle_gamma 90.000000
_cell_volume 1554.917653
_symmetry_space_group_name_H-M "P 21/C"
_symmetry_group_IT_number 14
_symmetry_cell_setting 'monoclinic'
loop_
_space_group_symop_operation_xyz
x,y,z
-x,1/2+y,1/2-z
-x,-y,-z
x,1/2-y,1/2+z
loop_
_atom_site_type_symbol
_atom_site_label
_atom_site_fract_x
_atom_site_fract_y
_atom_site_fract_z
Si Si1 0.731315 0.394844 0.073980
Si Si2 0.650989 0.057728 0.796040
Si Si3 0.980646 0.902028 0.185142
Si Si4 0.853289 0.076644 0.051780
Si Si5 0.025679 0.552446 0.192750
Si Si6 0.642738 0.401376 0.824188
Si Si7 0.369502 0.064246 0.559124
Si Si8 0.775474 0.616672 0.428340
O O1 0.747103 0.222633 0.053239
O O2 0.566097 0.404243 0.085582
O O3 0.889223 0.437139 0.142243
O O4 0.719751 0.513361 0.017419
O O5 0.823672 0.060769 0.789384
O O6 0.600971 0.224729 0.809619
O O7 0.507842 0.002140 0.727023
O O8 0.661455 0.947621 0.855080
O O9 0.948670 0.721475 0.186153
O O10 0.872674 0.960199 0.110328
O O11 0.916129 0.989111 0.232822
O O12 0.031993 0.128923 0.057684
O O13 0.751113 0.990748 0.981935
O O14 0.185362 0.551682 0.177661
O O15 0.659746 0.431149 0.897698
O O16 0.280755 0.214582 0.566962
#
# Coordination Sequence:
#
# PCOD8126283 Si02
#       8
#     4   4   4   4   4   4   4   4
#     4  11  24  40  59  86 119 153 192 240 291 344
#     4  10  22  39  59  87 120 152 191 239 289 342
#     4  10  22  39  59  87 120 152 191 239 289 342
#     4  10  21  39  63  89 118 153 194 239 287 344
#     4  11  23  39  61  86 115 154 195 237 287 343
#     4  11  23  39  61  86 115 154 195 237 287 343
#     4  11  24  40  59  86 119 153 192 240 291 344
#     4  10  21  39  63  89 118 153 194 239 287 344
#
# _framework density 20.579868999999999
#
# number of rings (size 3 to 8) (size 9 to 14) (size 15 to 20)
#    0.000    1.500    0.000    4.500    0.000   11.500 
#    0.000    0.000    0.000    0.000    0.000    0.000 
#    0.000    0.000    0.000    0.000    0.000    0.000 
#
# Total GULP energy -397051.827876 kJ/mol
# GULP energy per Si atom -12407.869621 kJ/mol
# Density = 2.053303 g / cm^3
# Si number density = 20.579869 Si / 1000 Ang^3
#
#
#
# Elastic Constant Matrix: (Units=GPa)
#
#
# Indices 1 2 3 4 5 6 
#
# 1 43.9558 7.2906 10.9594 0.0000 -15.6946 0.0000
# 2 7.2906 80.9384 -1.7038 0.0000 -10.8593 0.0000
# 3 10.9594 -1.7038 66.5898 0.0000 -11.9794 0.0000
# 4 0.0000 0.0000 0.0000 38.8866 0.0000 -5.5012
# 5 -15.6946 -10.8593 -11.9794 0.0000 32.0842 0.0000
# 6 0.0000 0.0000 0.0000 -5.5012 0.0000 25.8135
#
#
#
# Elastic Compliance Matrix: (Units=1/GPa)
#
#
# Indices 1 2 3 4 5 6 
#
# 1 0.027947 -0.000893 -0.002377 0.000000 0.012481 0.000000
# 2 -0.000893 0.013061 0.001284 0.000000 0.004463 0.000000
# 3 -0.002377 0.001284 0.016413 0.000000 0.005400 0.000000
# 4 0.000000 0.000000 0.000000 0.026515 0.000000 0.005651
# 5 0.012481 0.004463 0.005400 0.000000 0.040800 0.000000
# 6 0.000000 0.000000 0.000000 0.005651 0.000000 0.039944
#
#
# Mechanical properties :
#
#
# Convention : Reuss Voigt Hill
#
# Bulk Modulus (GPa) = 18.70912 24.95294 21.83103
# Shear Modulus (GPa) = 26.81410 31.01937 28.91674
#
# Velocity S-wave (km/s) = 3.61353 3.88657 3.75253
# Velocity P-wave (km/s) = 5.14984 5.68259 5.42276
#
# Compressibility (1/GPa) = 0.05344986
#
# Stress axis : x y z
#
# Youngs Moduli (GPa) = 35.78160 76.56154 60.92796
#
# Poissons Ratio (x) = 0.06836 0.14483
# Poissons Ratio (y) = 0.03195 -0.07824
# Poissons Ratio (z) = 0.08506 -0.09831
#
# Static dielectric constant tensor:
#      x y z
#    x 3.714210 0.000000 -0.150080 
#    y 0.000000 3.770890 0.000000 
#    z -0.150080 0.000000 3.877600 
# 
# 
# High freq. dielectric constant tensor:
#      x y z
#    x 1.802400 0.000000 -0.010460 
#    y 0.000000 1.818200 0.000000 
#    z -0.010460 0.000000 1.817540 
# 
# From -- ./inp_files/72097.got.cif
#   From: 2010.03.12/outbox.cif.g09.slc.cpg/sg14_37_cif.got.tgz:72097.got - 2010.03.31 13:35:05.
