data_PCOD8126411
_publ_section_title
;
Structure prediction by ZEFSAII (Michael W. Deem and Ramdas Pophale) SiO2 
 PCOD8126411
Probable space group: P 21/C
;
_chemical_formula_sum "Si O2"
_cell_formula_units_Z 24
_cell_length_a 7.353963
_cell_length_b 16.437920
_cell_length_c 16.565221
_cell_angle_alpha 90.000000
_cell_angle_beta 36.201188
_cell_angle_gamma 90.000000
_cell_volume 1182.702326
_symmetry_space_group_name_H-M "P 21/C"
_symmetry_group_IT_number 14
_symmetry_cell_setting 'monoclinic'
loop_
_space_group_symop_operation_xyz
x,y,z
-x,1/2+y,1/2-z
-x,-y,-z
x,1/2-y,1/2+z
loop_
_atom_site_type_symbol
_atom_site_label
_atom_site_fract_x
_atom_site_fract_y
_atom_site_fract_z
Si Si1 0.909062 0.326767 0.955725
Si Si2 0.833987 0.498311 0.916382
Si Si3 0.776045 0.675377 0.994383
Si Si4 0.709330 0.938418 0.877965
Si Si5 0.153722 0.684473 0.297703
Si Si6 0.494332 0.194294 0.158419
O O1 0.845140 0.423124 0.975289
O O2 0.124338 0.298514 0.804171
O O3 0.592792 0.276092 0.075247
O O4 0.099126 0.298345 0.964430
O O5 0.887323 0.583450 0.941345
O O6 0.087980 0.489909 0.756932
O O7 0.500000 0.500000 0.000000
O O8 0.938058 0.734866 0.871205
O O9 0.404232 0.686263 0.134041
O O10 0.469606 0.880619 0.915979
O O11 0.931100 0.891804 0.861720
O O12 0.500000 0.000000 0.000000
O O13 0.321007 0.675099 0.324848
#
# Coordination Sequence:
#
# PCOD8126411 Si02
#       6
#     4   4   4   4   4   4
#     4   9  20  39  61  87 116 155 195 243 292 350
#     4  11  22  38  58  89 119 156 195 241 297 349
#     4  10  21  40  62  85 118 154 198 242 295 353
#     4  11  25  40  58  88 122 156 196 246 297 348
#     4  10  22  40  62  88 116 155 196 244 292 353
#     4   9  21  40  61  86 119 152 198 241 292 349
#
# _framework density 20.292511999999999
#
# number of rings (size 3 to 8) (size 9 to 14) (size 15 to 20)
#    0.000    2.000    1.667    0.500    4.667    2.000 
#    0.000    0.000    0.000    0.000    0.000    0.000 
#    0.000    0.000    0.000    0.000    0.000    0.000 
#
# Total GULP energy -297452.601826 kJ/mol
# GULP energy per Si atom -12393.858409 kJ/mol
# Density = 2.024632 g / cm^3
# Si number density = 20.292512 Si / 1000 Ang^3
#
#
#
# Elastic Constant Matrix: (Units=GPa)
#
#
# Indices 1 2 3 4 5 6 
#
# 1 46.8130 19.7534 25.6840 0.0000 -11.3685 0.0000
# 2 19.7534 155.7421 103.2333 0.0000 -4.4689 0.0000
# 3 25.6840 103.2333 127.7849 0.0000 -7.7574 0.0000
# 4 0.0000 0.0000 0.0000 48.3887 0.0000 -1.9953
# 5 -11.3685 -4.4689 -7.7574 0.0000 24.9258 0.0000
# 6 0.0000 0.0000 0.0000 -1.9953 0.0000 35.4609
#
#
#
# Elastic Compliance Matrix: (Units=1/GPa)
#
#
# Indices 1 2 3 4 5 6 
#
# 1 0.026515 0.000101 -0.004766 0.000000 0.010628 0.000000
# 2 0.000101 0.013849 -0.011268 0.000000 -0.000978 0.000000
# 3 -0.004766 -0.011268 0.017971 0.000000 0.001399 0.000000
# 4 0.000000 0.000000 0.000000 0.020714 0.000000 0.001166
# 5 0.010628 -0.000978 0.001399 0.000000 0.045227 0.000000
# 6 0.000000 0.000000 0.000000 0.001166 0.000000 0.028266
#
#
# Mechanical properties :
#
#
# Convention : Reuss Voigt Hill
#
# Bulk Modulus (GPa) = 37.77860 69.74236 53.76048
# Shear Modulus (GPa) = 25.87607 33.86637 29.87122
#
# Velocity S-wave (km/s) = 3.57480 4.08966 3.84087
# Velocity P-wave (km/s) = 5.97465 7.53283 6.79853
#
# Compressibility (1/GPa) = 0.02647001
#
# Stress axis : x y z
#
# Youngs Moduli (GPa) = 37.71493 72.20901 55.64479
#
# Poissons Ratio (x) = -0.00728 0.26518
# Poissons Ratio (y) = -0.00380 0.62698
# Poissons Ratio (z) = 0.17973 0.81362
#
# Static dielectric constant tensor:
#      x y z
#    x 3.618710 0.000000 -0.102760 
#    y 0.000000 5.922650 0.000000 
#    z -0.102760 0.000000 3.855100 
# 
# 
# High freq. dielectric constant tensor:
#      x y z
#    x 1.795150 0.000000 -0.003200 
#    y 0.000000 1.789420 0.000000 
#    z -0.003200 0.000000 1.800150 
# 
# From -- ./inp_files/32512.got.cif
#   From: 2010.03.12/outbox.cif.g09.slc.cpg/sg14_17_cif.got.tgz:32512.got - 2010.03.31 13:35:05.
