data_PCOD8126107
_publ_section_title
;
Structure prediction by ZEFSAII (Michael W. Deem and Ramdas Pophale) SiO2 
 PCOD8126107
Probable space group: P 21/C
;
_chemical_formula_sum "Si O2"
_cell_formula_units_Z 28
_cell_length_a 19.658254
_cell_length_b 9.740242
_cell_length_c 13.426806
_cell_angle_alpha 90.000000
_cell_angle_beta 153.384721
_cell_angle_gamma 90.000000
_cell_volume 1151.762696
_symmetry_space_group_name_H-M "P 21/C"
_symmetry_group_IT_number 14
_symmetry_cell_setting 'monoclinic'
loop_
_space_group_symop_operation_xyz
x,y,z
-x,1/2+y,1/2-z
-x,-y,-z
x,1/2-y,1/2+z
loop_
_atom_site_type_symbol
_atom_site_label
_atom_site_fract_x
_atom_site_fract_y
_atom_site_fract_z
Si Si1 0.091606 0.705584 0.271680
Si Si2 0.591516 0.139456 0.306267
Si Si3 0.153642 0.113435 0.156066
Si Si4 0.796308 0.413030 0.771375
Si Si5 0.052277 0.657572 0.440978
Si Si6 0.541737 0.845266 0.229491
Si Si7 0.350581 0.168811 0.840592
O O1 0.251880 0.782142 0.497456
O O2 0.112536 0.586293 0.215180
O O3 0.036898 0.633818 0.302422
O O4 0.974597 0.820318 0.083225
O O5 0.461419 0.217913 0.199133
O O6 0.605469 0.983936 0.367363
O O7 0.516684 0.121065 0.097684
O O8 0.110126 0.138252 0.215648
O O9 0.313634 0.183921 0.341725
O O10 0.164582 0.952824 0.141390
O O11 0.879427 0.308930 0.954966
O O12 0.628133 0.360794 0.531978
O O13 0.786667 0.564407 0.807735
O O14 0.650938 0.812611 0.279683
#
# Coordination Sequence:
#
# PCOD8126107 Si02
#       7
#     4   4   4   4   4   4   4
#     4  10  21  38  61  84 116 159 197 240 295 349
#     4  10  22  39  62  88 116 155 199 239 292 357
#     4  10  25  38  57  90 117 152 202 243 291 353
#     4   9  20  38  60  87 116 154 198 235 294 361
#     4  10  21  41  59  82 122 158 192 243 299 344
#     4  10  21  38  61  89 119 154 195 243 296 345
#     4  11  22  39  61  89 121 154 195 247 292 346
#
# _framework density 24.310563999999999
#
# number of rings (size 3 to 8) (size 9 to 14) (size 15 to 20)
#    0.000    2.000    0.000    3.429    0.000   14.857 
#    0.000    2.143    0.000    0.000    0.000    0.000 
#    0.000    0.000    0.000    0.000    0.000    0.000 
#
# Total GULP energy -347177.615241 kJ/mol
# GULP energy per Si atom -12399.200544 kJ/mol
# Density = 2.425523 g / cm^3
# Si number density = 24.310564 Si / 1000 Ang^3
#
#
#
# Elastic Constant Matrix: (Units=GPa)
#
#
# Indices 1 2 3 4 5 6 
#
# 1 166.4139 27.6464 2.8663 0.0000 -18.1417 0.0000
# 2 27.6464 73.7180 -26.1987 0.0000 -0.4227 0.0000
# 3 2.8663 -26.1987 18.0422 0.0000 0.7515 0.0000
# 4 0.0000 0.0000 0.0000 17.7615 0.0000 -2.2523
# 5 -18.1417 -0.4227 0.7515 0.0000 27.4491 0.0000
# 6 0.0000 0.0000 0.0000 -2.2523 0.0000 29.9299
#
#
#
# Elastic Compliance Matrix: (Units=1/GPa)
#
#
# Indices 1 2 3 4 5 6 
#
# 1 0.008024 -0.007258 -0.012044 0.000000 0.005521 0.000000
# 2 -0.007258 0.034608 0.051644 0.000000 -0.005678 0.000000
# 3 -0.012044 0.051644 0.132780 0.000000 -0.010800 0.000000
# 4 0.000000 0.000000 0.000000 0.056844 0.000000 0.004278
# 5 0.005521 -0.005678 -0.010800 0.000000 0.040289 0.000000
# 6 0.000000 0.000000 0.000000 0.004278 0.000000 0.033733
#
#
# Mechanical properties :
#
#
# Convention : Reuss Voigt Hill
#
# Bulk Modulus (GPa) = 4.16500 29.64466 16.90483
# Shear Modulus (GPa) = 15.54598 31.95209 23.74903
#
# Velocity S-wave (km/s) = 2.53153 3.62930 3.12893
# Velocity P-wave (km/s) = 3.20340 5.45739 4.47464
#
# Compressibility (1/GPa) = 0.24009602
#
# Stress axis : x y z
#
# Youngs Moduli (GPa) = 124.62244 28.89476 7.53127
#
# Poissons Ratio (x) = 0.20972 0.09071
# Poissons Ratio (y) = 0.90451 -0.38894
# Poissons Ratio (z) = 1.50094 -1.49223
#
# Static dielectric constant tensor:
#      x y z
#    x 4.604130 0.000000 0.006790 
#    y 0.000000 4.500300 0.000000 
#    z 0.006790 0.000000 4.008310 
# 
# 
# High freq. dielectric constant tensor:
#      x y z
#    x 1.970360 0.000000 -0.001050 
#    y 0.000000 1.961180 0.000000 
#    z -0.001050 0.000000 1.958620 
# 
# From -- ./inp_files/50136.got.cif
#   From: 2010.03.12/outbox.cif.g09.slc.cpg/sg14_26_cif.got.tgz:50136.got - 2010.03.31 13:35:05.
