data_PCOD8126763
_publ_section_title
;
Structure prediction by ZEFSAII (Michael W. Deem and Ramdas Pophale) SiO2 
 PCOD8126763
Probable space group: P 21/C
;
_chemical_formula_sum "Si O2"
_cell_formula_units_Z 28
_cell_length_a 15.155724
_cell_length_b 9.502956
_cell_length_c 10.181532
_cell_angle_alpha 90.000000
_cell_angle_beta 65.867891
_cell_angle_gamma 90.000000
_cell_volume 1338.232204
_symmetry_space_group_name_H-M "P 21/C"
_symmetry_group_IT_number 14
_symmetry_cell_setting 'monoclinic'
loop_
_space_group_symop_operation_xyz
x,y,z
-x,1/2+y,1/2-z
-x,-y,-z
x,1/2-y,1/2+z
loop_
_atom_site_type_symbol
_atom_site_label
_atom_site_fract_x
_atom_site_fract_y
_atom_site_fract_z
Si Si1 0.404975 0.908196 0.023674
Si Si2 0.098868 0.081626 0.919076
Si Si3 0.452452 0.736671 0.743293
Si Si4 0.218861 0.414714 0.094507
Si Si5 0.782723 0.587484 0.397973
Si Si6 0.093996 0.090074 0.420619
Si Si7 0.431383 0.473791 0.921480
O O1 0.392892 0.786486 0.143183
O O2 0.314737 0.010428 0.080821
O O3 0.400888 0.832419 0.884386
O O4 0.500000 0.000000 0.000000
O O5 0.149064 0.031820 0.753341
O O6 0.069725 0.244975 0.937608
O O7 0.176673 0.046621 0.984409
O O8 0.000000 0.000000 0.000000
O O9 0.470015 0.581151 0.787798
O O10 0.553144 0.815558 0.644915
O O11 0.240517 0.251336 0.101540
O O12 0.170385 0.448610 0.985919
O O13 0.320734 0.496907 0.031342
O O14 0.864179 0.543388 0.244405
O O15 0.000000 0.000000 0.500000
O O16 0.500000 0.500000 0.000000
#
# Coordination Sequence:
#
# PCOD8126763 Si02
#       7
#     4   4   4   4   4   4   4
#     4  12  25  44  67  99 139 176 228 278 332 398
#     4  10  22  43  68  97 126 171 222 276 335 397
#     4  12  26  43  67  95 139 179 227 274 336 390
#     4  10  23  41  68  95 130 178 224 261 337 410
#     4  10  23  42  69  92 133 181 217 264 340 409
#     4  10  21  42  65  94 128 169 216 273 335 400
#     4  12  26  43  66  99 138 176 227 277 329 402
#
# _framework density 20.923126
#
# number of rings (size 3 to 8) (size 9 to 14) (size 15 to 20)
#    0.000    1.143    2.857    2.571    2.000    1.143 
#    7.714    0.000    0.000    0.000    0.000    0.000 
#    0.000    0.000    0.000    0.000    0.000    0.000 
#
# Total GULP energy -347158.232165 kJ/mol
# GULP energy per Si atom -12398.508292 kJ/mol
# Density = 2.087550 g / cm^3
# Si number density = 20.923126 Si / 1000 Ang^3
#
#
#
# Elastic Constant Matrix: (Units=GPa)
#
#
# Indices 1 2 3 4 5 6 
#
# 1 85.7238 47.7470 31.5567 0.0000 -18.3432 0.0000
# 2 47.7470 77.7950 40.2737 0.0000 -12.7508 0.0000
# 3 31.5567 40.2737 114.1301 0.0000 4.7715 0.0000
# 4 0.0000 0.0000 0.0000 38.9098 0.0000 -3.2203
# 5 -18.3432 -12.7508 4.7715 0.0000 34.8697 0.0000
# 6 0.0000 0.0000 0.0000 -3.2203 0.0000 39.8381
#
#
#
# Elastic Compliance Matrix: (Units=1/GPa)
#
#
# Indices 1 2 3 4 5 6 
#
# 1 0.019300 -0.009529 -0.002266 0.000000 0.006978 0.000000
# 2 -0.009529 0.022074 -0.005313 0.000000 0.003786 0.000000
# 3 -0.002266 -0.005313 0.011460 0.000000 -0.004703 0.000000
# 4 0.000000 0.000000 0.000000 0.025874 0.000000 0.002091
# 5 0.006978 0.003786 -0.004703 0.000000 0.034377 0.000000
# 6 0.000000 0.000000 0.000000 0.002091 0.000000 0.025271
#
#
# Mechanical properties :
#
#
# Convention : Reuss Voigt Hill
#
# Bulk Modulus (GPa) = 53.70917 57.42264 55.56591
# Shear Modulus (GPa) = 27.96801 33.26162 30.61482
#
# Velocity S-wave (km/s) = 3.66006 3.99144 3.82934
# Velocity P-wave (km/s) = 6.60204 6.98185 6.79460
#
# Compressibility (1/GPa) = 0.01861879
#
# Stress axis : x y z
#
# Youngs Moduli (GPa) = 51.81327 45.30301 87.26182
#
# Poissons Ratio (x) = 0.43168 0.19771
# Poissons Ratio (y) = 0.49372 0.46361
# Poissons Ratio (z) = 0.11739 0.24069
#
# Static dielectric constant tensor:
#      x y z
#    x 3.737000 0.000000 0.549430 
#    y 0.000000 3.921020 0.000000 
#    z 0.549430 0.000000 3.470990 
# 
# 
# High freq. dielectric constant tensor:
#      x y z
#    x 1.812390 0.000000 0.014500 
#    y 0.000000 1.815990 0.000000 
#    z 0.014500 0.000000 1.842610 
# 
# From -- ./inp_files/31462.got.cif
#   From: 2010.03.12/outbox.cif.g09.slc.cpg/sg14_16_cif.got.tgz:31462.got - 2010.03.31 13:35:05.
