data_PCOD8126537
_publ_section_title
;
Structure prediction by ZEFSAII (Michael W. Deem and Ramdas Pophale) SiO2 
 PCOD8126537
Probable space group: P 21/C
;
_chemical_formula_sum "Si O2"
_cell_formula_units_Z 28
_cell_length_a 7.797619
_cell_length_b 16.134687
_cell_length_c 11.417979
_cell_angle_alpha 90.000000
_cell_angle_beta 58.437781
_cell_angle_gamma 90.000000
_cell_volume 1224.019189
_symmetry_space_group_name_H-M "P 21/C"
_symmetry_group_IT_number 14
_symmetry_cell_setting 'monoclinic'
loop_
_space_group_symop_operation_xyz
x,y,z
-x,1/2+y,1/2-z
-x,-y,-z
x,1/2-y,1/2+z
loop_
_atom_site_type_symbol
_atom_site_label
_atom_site_fract_x
_atom_site_fract_y
_atom_site_fract_z
Si Si1 0.809753 0.294755 0.295532
Si Si2 0.617838 0.409714 0.184598
Si Si3 0.786833 0.596112 0.533785
Si Si4 0.787579 0.406768 0.518685
Si Si5 0.613575 0.903681 0.697459
Si Si6 0.532546 0.340080 0.981386
Si Si7 0.233307 0.285206 0.673762
O O1 0.765774 0.341110 0.188445
O O2 0.730399 0.357463 0.422818
O O3 0.695566 0.207540 0.344297
O O4 0.041527 0.273153 0.228202
O O5 0.386667 0.395408 0.307026
O O6 0.689184 0.502501 0.193274
O O7 0.634003 0.403490 0.037194
O O8 0.806880 0.503076 0.478328
O O9 0.731024 0.653411 0.446156
O O10 0.999502 0.626819 0.509461
O O11 0.613985 0.392217 0.675374
O O12 0.614327 0.886388 0.557697
O O13 0.764542 0.839041 0.707150
O O14 0.419399 0.276926 0.107761
#
# Coordination Sequence:
#
# PCOD8126537 Si02
#       7
#     4   4   4   4   4   4   4
#     4  12  25  40  68  98 137 175 228 274 336 392
#     4  11  24  46  68  96 137 181 222 274 339 403
#     4  10  21  40  68  98 132 176 226 273 331 405
#     4  10  21  40  68  98 132 176 226 273 331 405
#     4  11  24  46  68  96 137 181 222 274 339 403
#     4  12  25  42  67 102 136 170 226 282 339 388
#     4  12  25  40  68  98 137 175 228 274 336 392
#
# _framework density 22.875457000000001
#
# number of rings (size 3 to 8) (size 9 to 14) (size 15 to 20)
#    0.000    0.857    2.857    3.857    4.000    2.286 
#    0.000    5.714    0.000    0.000    0.000    0.000 
#    0.000    0.000    0.000    0.000    0.000    0.000 
#
# Total GULP energy -347302.270089 kJ/mol
# GULP energy per Si atom -12403.652503 kJ/mol
# Density = 2.282339 g / cm^3
# Si number density = 22.875457 Si / 1000 Ang^3
#
#
#
# Elastic Constant Matrix: (Units=GPa)
#
#
# Indices 1 2 3 4 5 6 
#
# 1 90.7059 30.3406 20.0528 0.0000 10.3864 0.0000
# 2 30.3406 77.7373 35.6046 0.0000 9.9504 0.0000
# 3 20.0528 35.6046 66.0164 0.0000 29.6222 0.0000
# 4 0.0000 0.0000 0.0000 26.0753 0.0000 13.2250
# 5 10.3864 9.9504 29.6222 0.0000 41.5310 0.0000
# 6 0.0000 0.0000 0.0000 13.2250 0.0000 38.6931
#
#
#
# Elastic Compliance Matrix: (Units=1/GPa)
#
#
# Indices 1 2 3 4 5 6 
#
# 1 0.012873 -0.004457 -0.000796 0.000000 -0.001584 0.000000
# 2 -0.004457 0.019011 -0.010818 0.000000 0.004276 0.000000
# 3 -0.000796 -0.010818 0.029372 0.000000 -0.018159 0.000000
# 4 0.000000 0.000000 0.000000 0.046393 0.000000 -0.015857
# 5 -0.001584 0.004276 -0.018159 0.000000 0.036402 0.000000
# 6 0.000000 0.000000 0.000000 -0.015857 0.000000 0.031264
#
#
# Mechanical properties :
#
#
# Convention : Reuss Voigt Hill
#
# Bulk Modulus (GPa) = 34.34717 45.16174 39.75445
# Shear Modulus (GPa) = 23.02451 31.15731 27.09091
#
# Velocity S-wave (km/s) = 3.17601 3.69459 3.44507
# Velocity P-wave (km/s) = 5.33824 6.16322 5.76550
#
# Compressibility (1/GPa) = 0.02911448
#
# Stress axis : x y z
#
# Youngs Moduli (GPa) = 77.68336 52.60169 34.04629
#
# Poissons Ratio (x) = 0.23445 0.02709
# Poissons Ratio (y) = 0.34624 0.36831
# Poissons Ratio (z) = 0.06180 0.56903
#
# Static dielectric constant tensor:
#      x y z
#    x 4.059990 0.000000 0.083190 
#    y 0.000000 4.263500 0.000000 
#    z 0.083190 0.000000 3.890620 
# 
# 
# High freq. dielectric constant tensor:
#      x y z
#    x 1.900340 0.000000 0.011450 
#    y 0.000000 1.916480 0.000000 
#    z 0.011450 0.000000 1.888970 
# 
# From -- ./inp_files/25098.got.cif
#   From: 2010.03.12/outbox.cif.g09.slc.cpg/sg14_13_cif.got.tgz:25098.got - 2010.03.31 13:35:05.
