data_PCOD8126179
_publ_section_title
;
Structure prediction by ZEFSAII (Michael W. Deem and Ramdas Pophale) SiO2 
 PCOD8126179
Probable space group: P 21/C
;
_chemical_formula_sum "Si O2"
_cell_formula_units_Z 32
_cell_length_a 23.311197
_cell_length_b 13.503563
_cell_length_c 14.528463
_cell_angle_alpha 90.000000
_cell_angle_beta 20.550851
_cell_angle_gamma 90.000000
_cell_volume 1605.415459
_symmetry_space_group_name_H-M "P 21/C"
_symmetry_group_IT_number 14
_symmetry_cell_setting 'monoclinic'
loop_
_space_group_symop_operation_xyz
x,y,z
-x,1/2+y,1/2-z
-x,-y,-z
x,1/2-y,1/2+z
loop_
_atom_site_type_symbol
_atom_site_label
_atom_site_fract_x
_atom_site_fract_y
_atom_site_fract_z
Si Si1 0.278722 0.145422 0.623807
Si Si2 0.403195 0.255296 0.104312
Si Si3 0.396098 0.565016 0.890723
Si Si4 0.991097 0.787532 0.497001
Si Si5 0.814862 0.359765 0.123870
Si Si6 0.267832 0.073929 0.206737
Si Si7 0.243622 0.792431 0.481835
Si Si8 0.505784 0.243530 0.644696
O O1 0.303084 0.163058 0.696574
O O2 0.406413 0.218643 0.381903
O O3 0.302213 0.031732 0.565562
O O4 0.096851 0.179898 0.868084
O O5 0.332610 0.145586 0.190220
O O6 0.383781 0.277334 0.242224
O O7 0.593080 0.265821 0.791607
O O8 0.580825 0.539322 0.584044
O O9 0.290737 0.607568 0.964916
O O10 0.398941 0.644004 0.969829
O O11 0.054586 0.813562 0.502748
O O12 0.863978 0.871675 0.658799
O O13 0.139382 0.782268 0.201550
O O14 0.818663 0.478761 0.119135
O O15 0.858832 0.322666 0.955137
O O16 0.631934 0.327369 0.424388
#
# Coordination Sequence:
#
# PCOD8126179 Si02
#       8
#     4   4   4   4   4   4   4   4
#     4  11  22  38  64  87 122 156 199 257 296 359
#     4   9  21  38  61  91 115 155 207 244 297 350
#     4  11  21  40  64  89 117 161 208 247 301 348
#     4  11  22  41  58  88 130 158 188 249 316 360
#     4  11  22  39  64  88 121 161 199 250 302 351
#     4  10  21  38  65  92 114 155 210 250 287 359
#     4  10  22  39  57  87 123 154 200 242 293 368
#     4  11  20  39  64  86 120 160 200 255 293 352
#
# _framework density 19.932535000000001
#
# number of rings (size 3 to 8) (size 9 to 14) (size 15 to 20)
#    0.000    1.500    6.250    0.375    1.750    4.500 
#    0.000    1.250    0.000    0.000    0.000    0.000 
#    0.000    0.000    0.000    0.000    0.000    0.000 
#
# Total GULP energy -396874.153255 kJ/mol
# GULP energy per Si atom -12402.317289 kJ/mol
# Density = 1.988717 g / cm^3
# Si number density = 19.932535 Si / 1000 Ang^3
#
#
#
# Elastic Constant Matrix: (Units=GPa)
#
#
# Indices 1 2 3 4 5 6 
#
# 1 171.9898 41.8289 21.8139 0.0000 -11.0047 0.0000
# 2 41.8289 81.1483 13.4635 0.0000 -0.0450 0.0000
# 3 21.8139 13.4635 41.3751 0.0000 -13.2126 0.0000
# 4 0.0000 0.0000 0.0000 29.5299 0.0000 1.9226
# 5 -11.0047 -0.0450 -13.2126 0.0000 23.2062 0.0000
# 6 0.0000 0.0000 0.0000 1.9226 0.0000 17.1194
#
#
#
# Elastic Compliance Matrix: (Units=1/GPa)
#
#
# Indices 1 2 3 4 5 6 
#
# 1 0.006999 -0.003290 -0.001909 0.000000 0.002226 0.000000
# 2 -0.003290 0.014737 -0.004339 0.000000 -0.004002 0.000000
# 3 -0.001909 -0.004339 0.032139 0.000000 0.017385 0.000000
# 4 0.000000 0.000000 0.000000 0.034113 0.000000 -0.003831
# 5 0.002226 -0.004002 0.017385 0.000000 0.054038 0.000000
# 6 0.000000 0.000000 0.000000 -0.003831 0.000000 0.058844
#
#
# Mechanical properties :
#
#
# Convention : Reuss Voigt Hill
#
# Bulk Modulus (GPa) = 28.73569 49.85843 39.29706
# Shear Modulus (GPa) = 21.59419 28.46489 25.02954
#
# Velocity S-wave (km/s) = 3.29502 3.78307 3.54745
# Velocity P-wave (km/s) = 5.37810 6.64455 6.04459
#
# Compressibility (1/GPa) = 0.03479993
#
# Stress axis : x y z
#
# Youngs Moduli (GPa) = 142.87977 67.85866 31.11490
#
# Poissons Ratio (x) = 0.22324 0.05939
# Poissons Ratio (y) = 0.47004 0.13500
# Poissons Ratio (z) = 0.27271 0.29442
#
# Static dielectric constant tensor:
#      x y z
#    x 3.851580 0.000000 -0.066400 
#    y 0.000000 3.443760 0.000000 
#    z -0.066400 0.000000 3.561700 
# 
# 
# High freq. dielectric constant tensor:
#      x y z
#    x 1.789560 0.000000 -0.008480 
#    y 0.000000 1.763230 0.000000 
#    z -0.008480 0.000000 1.763120 
# 
# From -- ./inp_files/51563.got.cif
#   From: 2010.03.12/outbox.cif.g09.slc.cpg/sg14_26_cif.got.tgz:51563.got - 2010.03.31 13:35:05.
