data_PCOD8126610
_publ_section_title
;
Structure prediction by ZEFSAII (Michael W. Deem and Ramdas Pophale) SiO2 
 PCOD8126610
Probable space group: P 21/C
;
_chemical_formula_sum "Si O2"
_cell_formula_units_Z 28
_cell_length_a 11.493193
_cell_length_b 11.306814
_cell_length_c 16.536675
_cell_angle_alpha 90.000000
_cell_angle_beta 138.686852
_cell_angle_gamma 90.000000
_cell_volume 1418.690258
_symmetry_space_group_name_H-M "P 21/C"
_symmetry_group_IT_number 14
_symmetry_cell_setting 'monoclinic'
loop_
_space_group_symop_operation_xyz
x,y,z
-x,1/2+y,1/2-z
-x,-y,-z
x,1/2-y,1/2+z
loop_
_atom_site_type_symbol
_atom_site_label
_atom_site_fract_x
_atom_site_fract_y
_atom_site_fract_z
Si Si1 0.813670 0.689144 0.156903
Si Si2 0.334731 0.531592 0.967932
Si Si3 0.196705 0.384329 0.666132
Si Si4 0.164452 0.652687 0.604415
Si Si5 0.454487 0.772878 0.649622
Si Si6 0.494447 0.139066 0.984487
Si Si7 0.825869 0.228204 0.714142
O O1 0.755399 0.594224 0.057508
O O2 0.782320 0.625620 0.226610
O O3 0.695018 0.807721 0.087295
O O4 0.018730 0.710901 0.254266
O O5 0.199567 0.603350 0.841874
O O6 0.500000 0.500000 0.000000
O O7 0.382259 0.604725 0.072953
O O8 0.221999 0.517337 0.647283
O O9 0.354991 0.303895 0.711439
O O10 0.006881 0.334483 0.541280
O O11 0.325070 0.726019 0.650673
O O12 0.113958 0.711522 0.662727
O O13 0.469924 0.670431 0.590345
O O14 0.648270 0.194831 0.119184
O O15 0.500000 0.000000 0.000000
#
# Coordination Sequence:
#
# PCOD8126610 Si02
#       7
#     4   4   4   4   4   4   4
#     4  11  22  39  68  89 117 166 213 259 297 368
#     4  11  18  42  66  87 114 164 219 245 298 374
#     4  10  21  41  64  86 124 168 204 245 308 379
#     4  11  23  39  60  93 128 161 203 246 320 381
#     4  10  22  40  65  90 122 163 204 262 307 372
#     4  10  23  40  62  93 123 154 213 265 307 350
#     4  11  23  37  62  94 120 159 206 259 306 365
#
# _framework density 19.736514
#
# number of rings (size 3 to 8) (size 9 to 14) (size 15 to 20)
#    0.000    1.429    5.714    1.714    2.000    4.571 
#    0.000    0.714    0.000    0.000    0.000    0.000 
#    0.000    0.000    0.000    0.000    0.000    0.000 
#
# Total GULP energy -347143.342437 kJ/mol
# GULP energy per Si atom -12397.976516 kJ/mol
# Density = 1.969159 g / cm^3
# Si number density = 19.736514 Si / 1000 Ang^3
#
#
#
# Elastic Constant Matrix: (Units=GPa)
#
#
# Indices 1 2 3 4 5 6 
#
# 1 75.5859 23.2212 28.6267 0.0000 19.4284 0.0000
# 2 23.2212 110.6755 43.9448 0.0000 8.4050 0.0000
# 3 28.6267 43.9448 94.0306 0.0000 23.0406 0.0000
# 4 0.0000 0.0000 0.0000 32.8371 0.0000 5.0666
# 5 19.4284 8.4050 23.0406 0.0000 29.4587 0.0000
# 6 0.0000 0.0000 0.0000 5.0666 0.0000 30.3072
#
#
#
# Elastic Compliance Matrix: (Units=1/GPa)
#
#
# Indices 1 2 3 4 5 6 
#
# 1 0.016939 -0.002087 -0.001967 0.000000 -0.009038 0.000000
# 2 -0.002087 0.011380 -0.005226 0.000000 0.002217 0.000000
# 3 -0.001967 -0.005226 0.016073 0.000000 -0.009783 0.000000
# 4 0.000000 0.000000 0.000000 0.031260 0.000000 -0.005226
# 5 -0.009038 0.002217 -0.009783 0.000000 0.046925 0.000000
# 6 0.000000 0.000000 0.000000 -0.005226 0.000000 0.033869
#
#
# Mechanical properties :
#
#
# Convention : Reuss Voigt Hill
#
# Bulk Modulus (GPa) = 38.71171 52.43081 45.57126
# Shear Modulus (GPa) = 27.23051 30.82057 29.02554
#
# Velocity S-wave (km/s) = 3.71846 3.95600 3.83907
# Velocity P-wave (km/s) = 6.17194 6.89127 6.54150
#
# Compressibility (1/GPa) = 0.02583198
#
# Stress axis : x y z
#
# Youngs Moduli (GPa) = 59.03515 87.87312 62.21455
#
# Poissons Ratio (x) = 0.18335 0.12239
# Poissons Ratio (y) = 0.12318 0.32516
# Poissons Ratio (z) = 0.11614 0.45926
#
# Static dielectric constant tensor:
#      x y z
#    x 3.411910 0.000000 0.242080 
#    y 0.000000 3.680310 0.000000 
#    z 0.242080 0.000000 3.919500 
# 
# 
# High freq. dielectric constant tensor:
#      x y z
#    x 1.750470 0.000000 0.016250 
#    y 0.000000 1.771490 0.000000 
#    z 0.016250 0.000000 1.781260 
# 
# From -- ./inp_files/57604.got.cif
#   From: 2010.03.12/outbox.cif.g09.slc.cpg/sg14_29_cif.got.tgz:57604.got - 2010.03.31 13:35:05.
