data_PCOD8126704
_publ_section_title
;
Structure prediction by ZEFSAII (Michael W. Deem and Ramdas Pophale) SiO2 
 PCOD8126704
Probable space group: P 21/C
;
_chemical_formula_sum "Si O2"
_cell_formula_units_Z 28
_cell_length_a 20.210341
_cell_length_b 5.188604
_cell_length_c 13.012318
_cell_angle_alpha 90.000000
_cell_angle_beta 71.500379
_cell_angle_gamma 90.000000
_cell_volume 1294.006270
_symmetry_space_group_name_H-M "P 21/C"
_symmetry_group_IT_number 14
_symmetry_cell_setting 'monoclinic'
loop_
_space_group_symop_operation_xyz
x,y,z
-x,1/2+y,1/2-z
-x,-y,-z
x,1/2-y,1/2+z
loop_
_atom_site_type_symbol
_atom_site_label
_atom_site_fract_x
_atom_site_fract_y
_atom_site_fract_z
Si Si1 0.913510 0.526719 0.337499
Si Si2 0.427087 0.630363 0.010420
Si Si3 0.492048 0.379724 0.688850
Si Si4 0.350635 0.983902 0.193836
Si Si5 0.247025 0.466310 0.568671
Si Si6 0.021103 0.974424 0.606710
Si Si7 0.303622 0.985265 0.443074
O O1 0.831927 0.510884 0.354712
O O2 0.937708 0.291317 0.397283
O O3 0.951192 0.516494 0.209031
O O4 0.928765 0.790910 0.388820
O O5 0.384665 0.722010 0.131102
O O6 0.500000 0.500000 0.000000
O O7 0.449377 0.878029 0.929234
O O8 0.377919 0.454695 0.961782
O O9 0.489964 0.664141 0.736429
O O10 0.414810 0.316816 0.680047
O O11 0.294383 0.104021 0.144000
O O12 0.312237 0.922583 0.319109
O O13 0.268412 0.737184 0.510450
O O14 0.255362 0.237055 0.481623
O O15 0.000000 0.000000 0.500000
#
# Coordination Sequence:
#
# PCOD8126704 Si02
#       7
#     4   4   4   4   4   4   4
#     4  10  22  41  67 100 138 170 215 267 311 381
#     4  11  24  44  66  96 122 167 221 288 344 396
#     4  12  25  41  68  92 122 164 217 283 345 387
#     4  11  26  43  67  93 130 173 222 275 337 400
#     4  11  26  45  63  96 135 177 216 262 325 394
#     4  10  21  41  71 104 133 169 216 264 315 375
#     4  11  26  43  64  91 132 170 223 271 323 400
#
# _framework density 21.638226
#
# number of rings (size 3 to 8) (size 9 to 14) (size 15 to 20)
#    0.000    1.143    1.429    3.429    4.000    5.714 
#    0.000    0.000    0.000    0.000    0.000    0.000 
#    0.000    0.000    0.000    0.000    0.000    0.000 
#
# Total GULP energy -347231.317572 kJ/mol
# GULP energy per Si atom -12401.118485 kJ/mol
# Density = 2.158898 g / cm^3
# Si number density = 21.638226 Si / 1000 Ang^3
#
#
#
# Elastic Constant Matrix: (Units=GPa)
#
#
# Indices 1 2 3 4 5 6 
#
# 1 120.6232 14.7842 54.1697 0.0000 -16.8305 0.0000
# 2 14.7842 83.0805 21.2454 0.0000 -8.2749 0.0000
# 3 54.1697 21.2454 113.1641 0.0000 6.9164 0.0000
# 4 0.0000 0.0000 0.0000 16.6726 0.0000 -3.2527
# 5 -16.8305 -8.2749 6.9164 0.0000 26.7112 0.0000
# 6 0.0000 0.0000 0.0000 -3.2527 0.0000 21.3725
#
#
#
# Elastic Compliance Matrix: (Units=1/GPa)
#
#
# Indices 1 2 3 4 5 6 
#
# 1 0.012632 0.000455 -0.006734 0.000000 0.009844 0.000000
# 2 0.000455 0.013243 -0.003020 0.000000 0.005171 0.000000
# 3 -0.006734 -0.003020 0.013152 0.000000 -0.008584 0.000000
# 4 0.000000 0.000000 0.000000 0.061814 0.000000 0.009407
# 5 0.009844 0.005171 -0.008584 0.000000 0.047464 0.000000
# 6 0.000000 0.000000 0.000000 0.009407 0.000000 0.048221
#
#
# Mechanical properties :
#
#
# Convention : Reuss Voigt Hill
#
# Bulk Modulus (GPa) = 48.95118 55.25182 52.10150
# Shear Modulus (GPa) = 22.52930 28.06250 25.29590
#
# Velocity S-wave (km/s) = 3.23023 3.60515 3.42283
# Velocity P-wave (km/s) = 6.04849 6.55128 6.30490
#
# Compressibility (1/GPa) = 0.02042852
#
# Stress axis : x y z
#
# Youngs Moduli (GPa) = 79.16374 75.51224 76.03649
#
# Poissons Ratio (x) = -0.03432 0.51201
# Poissons Ratio (y) = -0.03598 0.22962
# Poissons Ratio (z) = 0.53306 0.22803
#
# Static dielectric constant tensor:
#      x y z
#    x 3.954110 0.000000 0.147900 
#    y 0.000000 4.177530 0.000000 
#    z 0.147900 0.000000 6.205860 
# 
# 
# High freq. dielectric constant tensor:
#      x y z
#    x 1.844520 0.000000 0.000910 
#    y 0.000000 1.852420 0.000000 
#    z 0.000910 0.000000 1.860070 
# 
# From -- ./inp_files/34690.got.cif
#   From: 2010.03.12/outbox.cif.g09.slc.cpg/sg14_18_cif.got.tgz:34690.got - 2010.03.31 13:35:05.
