data_PCOD8126904
_publ_section_title
;
Structure prediction by ZEFSAII (Michael W. Deem and Ramdas Pophale) SiO2 
 PCOD8126904
Probable space group: P 21/C
;
_chemical_formula_sum "Si O2"
_cell_formula_units_Z 28
_cell_length_a 11.062104
_cell_length_b 8.875672
_cell_length_c 15.080668
_cell_angle_alpha 90.000000
_cell_angle_beta 58.752676
_cell_angle_gamma 90.000000
_cell_volume 1265.881975
_symmetry_space_group_name_H-M "P 21/C"
_symmetry_group_IT_number 14
_symmetry_cell_setting 'monoclinic'
loop_
_space_group_symop_operation_xyz
x,y,z
-x,1/2+y,1/2-z
-x,-y,-z
x,1/2-y,1/2+z
loop_
_atom_site_type_symbol
_atom_site_label
_atom_site_fract_x
_atom_site_fract_y
_atom_site_fract_z
Si Si1 0.091688 0.843380 0.151947
Si Si2 0.625492 0.247717 0.670397
Si Si3 0.929777 0.687408 0.370590
Si Si4 0.537573 0.012426 0.340002
Si Si5 0.063214 0.833242 0.481958
Si Si6 0.406732 0.862474 0.004556
Si Si7 0.355460 0.144897 0.545046
O O1 0.018799 0.785396 0.268195
O O2 0.038027 0.011729 0.152660
O O3 0.055911 0.729677 0.085069
O O4 0.257253 0.855928 0.110711
O O5 0.600521 0.342202 0.768378
O O6 0.777625 0.167369 0.615770
O O7 0.618696 0.365782 0.591466
O O8 0.501398 0.122526 0.712784
O O9 0.765156 0.730109 0.418693
O O10 0.968210 0.726904 0.456492
O O11 0.383997 0.047974 0.445354
O O12 0.662820 0.959804 0.360551
O O13 0.000000 0.000000 0.500000
O O14 0.489102 0.713354 0.999178
O O15 0.500000 0.000000 0.000000
#
# Coordination Sequence:
#
# PCOD8126904 Si02
#       7
#     4   4   4   4   4   4   4
#     4  11  26  44  71 104 137 183 239 283 351 426
#     4  10  24  41  68 102 133 179 231 281 346 410
#     4  12  25  44  70 100 140 187 225 286 357 415
#     4  10  23  42  67 101 136 175 232 288 343 412
#     4  11  25  47  67  98 143 184 232 288 349 424
#     4  10  21  44  69  98 132 175 228 285 339 401
#     4  10  23  43  69  97 139 180 225 285 348 411
#
# _framework density 22.118967000000001
#
# number of rings (size 3 to 8) (size 9 to 14) (size 15 to 20)
#    0.000    1.429    1.429    2.143    6.000    3.429 
#   10.286    0.000    0.000    0.000    0.000    0.000 
#    0.000    0.000    0.000    0.000    0.000    0.000 
#
# Total GULP energy -347187.411809 kJ/mol
# GULP energy per Si atom -12399.550422 kJ/mol
# Density = 2.206862 g / cm^3
# Si number density = 22.118967 Si / 1000 Ang^3
#
#
#
# Elastic Constant Matrix: (Units=GPa)
#
#
# Indices 1 2 3 4 5 6 
#
# 1 106.3822 35.1158 33.0322 0.0000 -3.2647 0.0000
# 2 35.1158 123.8859 27.6487 0.0000 1.3066 0.0000
# 3 33.0322 27.6487 66.2889 0.0000 -2.9078 0.0000
# 4 0.0000 0.0000 0.0000 41.7025 0.0000 3.6397
# 5 -3.2647 1.3066 -2.9078 0.0000 27.3067 0.0000
# 6 0.0000 0.0000 0.0000 3.6397 0.0000 46.2852
#
#
#
# Elastic Compliance Matrix: (Units=1/GPa)
#
#
# Indices 1 2 3 4 5 6 
#
# 1 0.011672 -0.002239 -0.004839 0.000000 0.000987 0.000000
# 2 -0.002239 0.009348 -0.002828 0.000000 -0.001016 0.000000
# 3 -0.004839 -0.002828 0.018745 0.000000 0.001553 0.000000
# 4 0.000000 0.000000 0.000000 0.024145 0.000000 -0.001899
# 5 0.000987 -0.001016 0.001553 0.000000 0.036953 0.000000
# 6 0.000000 0.000000 0.000000 -0.001899 0.000000 0.021754
#
#
# Mechanical properties :
#
#
# Convention : Reuss Voigt Hill
#
# Bulk Modulus (GPa) = 50.11828 54.23893 52.17861
# Shear Modulus (GPa) = 33.53889 36.44290 34.99090
#
# Velocity S-wave (km/s) = 3.89819 4.06345 3.98168
# Velocity P-wave (km/s) = 6.55506 6.82570 6.69175
#
# Compressibility (1/GPa) = 0.01995280
#
# Stress axis : x y z
#
# Youngs Moduli (GPa) = 85.67538 106.96956 53.34890
#
# Poissons Ratio (x) = 0.23949 0.25816
# Poissons Ratio (y) = 0.19182 0.15088
# Poissons Ratio (z) = 0.41459 0.30252
#
# Static dielectric constant tensor:
#      x y z
#    x 4.177890 0.000000 0.077040 
#    y 0.000000 4.391280 0.000000 
#    z 0.077040 0.000000 3.942840 
# 
# 
# High freq. dielectric constant tensor:
#      x y z
#    x 1.874800 0.000000 0.007160 
#    y 0.000000 1.885360 0.000000 
#    z 0.007160 0.000000 1.864020 
# 
# From -- ./inp_files/43595.got.cif
#   From: 2010.03.12/outbox.cif.g09.slc.cpg/sg14_22_cif.got.tgz:43595.got - 2010.03.31 13:35:05.
