data_PCOD8126673
_publ_section_title
;
Structure prediction by ZEFSAII (Michael W. Deem and Ramdas Pophale) SiO2 
 PCOD8126673
Probable space group: P 21/C
;
_chemical_formula_sum "Si O2"
_cell_formula_units_Z 28
_cell_length_a 7.786934
_cell_length_b 13.929541
_cell_length_c 11.488228
_cell_angle_alpha 90.000000
_cell_angle_beta 111.840895
_cell_angle_gamma 90.000000
_cell_volume 1156.664785
_symmetry_space_group_name_H-M "P 21/C"
_symmetry_group_IT_number 14
_symmetry_cell_setting 'monoclinic'
loop_
_space_group_symop_operation_xyz
x,y,z
-x,1/2+y,1/2-z
-x,-y,-z
x,1/2-y,1/2+z
loop_
_atom_site_type_symbol
_atom_site_label
_atom_site_fract_x
_atom_site_fract_y
_atom_site_fract_z
Si Si1 0.402829 0.399206 0.452912
Si Si2 0.146414 0.360001 0.834225
Si Si3 0.745498 0.355810 0.282149
Si Si4 0.463721 0.689605 0.991050
Si Si5 0.116388 0.824689 0.545957
Si Si6 0.089032 0.346831 0.232113
Si Si7 0.816777 0.959002 0.898300
O O1 0.500000 0.500000 0.500000
O O2 0.529008 0.303486 0.473019
O O3 0.273519 0.409630 0.304219
O O4 0.277706 0.383806 0.537906
O O5 0.351532 0.372575 0.940561
O O6 0.120896 0.247332 0.816450
O O7 0.127242 0.408482 0.706232
O O8 0.975005 0.393282 0.876417
O O9 0.828171 0.278138 0.390075
O O10 0.678859 0.449011 0.339227
O O11 0.907375 0.398344 0.238851
O O12 0.583876 0.314500 0.158704
O O13 0.303740 0.638148 0.029850
O O14 0.947351 0.818589 0.410737
O O15 0.000000 0.000000 0.000000
#
# Coordination Sequence:
#
# PCOD8126673 Si02
#       7
#     4   4   4   4   4   4   4
#     4  11  24  42  68 108 138 181 239 299 356 415
#     4  10  24  39  68 100 133 185 226 286 354 414
#     4  10  21  41  67  98 135 185 228 282 356 424
#     4  10  24  43  67 102 138 180 236 283 355 429
#     4  10  21  42  71  96 132 186 228 281 346 427
#     4   9  20  41  64  95 134 178 231 277 354 421
#     4  12  24  43  70 100 141 180 240 295 349 424
#
# _framework density 24.207533999999999
#
# number of rings (size 3 to 8) (size 9 to 14) (size 15 to 20)
#    0.000    1.714    1.429    1.714    6.000    5.143 
#    0.000    2.857    0.000    0.000    0.000    0.000 
#    0.000    0.000    0.000    0.000    0.000    0.000 
#
# Total GULP energy -346865.692088 kJ/mol
# GULP energy per Si atom -12388.060432 kJ/mol
# Density = 2.415244 g / cm^3
# Si number density = 24.207534 Si / 1000 Ang^3
#
#
#
# Elastic Constant Matrix: (Units=GPa)
#
#
# Indices 1 2 3 4 5 6 
#
# 1 111.4790 25.3369 68.7657 0.0000 7.0338 0.0000
# 2 25.3369 35.9598 34.5885 0.0000 6.8891 0.0000
# 3 68.7657 34.5885 171.9224 0.0000 2.2212 0.0000
# 4 0.0000 0.0000 0.0000 38.8524 0.0000 -4.4525
# 5 7.0338 6.8891 2.2212 0.0000 32.8801 0.0000
# 6 0.0000 0.0000 0.0000 -4.4525 0.0000 32.0168
#
#
#
# Elastic Compliance Matrix: (Units=1/GPa)
#
#
# Indices 1 2 3 4 5 6 
#
# 1 0.012658 -0.004699 -0.004099 0.000000 -0.001446 0.000000
# 2 -0.004699 0.037796 -0.005640 0.000000 -0.006533 0.000000
# 3 -0.004099 -0.005640 0.008572 0.000000 0.001480 0.000000
# 4 0.000000 0.000000 0.000000 0.026155 0.000000 0.003637
# 5 -0.001446 -0.006533 0.001480 0.000000 0.031992 0.000000
# 6 0.000000 0.000000 0.000000 0.003637 0.000000 0.031739
#
#
# Mechanical properties :
#
#
# Convention : Reuss Voigt Hill
#
# Bulk Modulus (GPa) = 33.16771 64.08258 48.62515
# Shear Modulus (GPa) = 26.61861 33.46120 30.03991
#
# Velocity S-wave (km/s) = 3.31962 3.72191 3.52651
# Velocity P-wave (km/s) = 5.33145 6.70819 6.05905
#
# Compressibility (1/GPa) = 0.03014981
#
# Stress axis : x y z
#
# Youngs Moduli (GPa) = 79.00184 26.45759 116.66336
#
# Poissons Ratio (x) = 0.12432 0.47819
# Poissons Ratio (y) = 0.37123 0.65801
# Poissons Ratio (z) = 0.32382 0.14923
#
# Static dielectric constant tensor:
#      x y z
#    x 4.891940 0.000000 -0.183290 
#    y 0.000000 4.068850 0.000000 
#    z -0.183290 0.000000 4.602900 
# 
# 
# High freq. dielectric constant tensor:
#      x y z
#    x 1.966490 0.000000 -0.005370 
#    y 0.000000 1.928720 0.000000 
#    z -0.005370 0.000000 1.976890 
# 
# From -- ./inp_files/25579.got.cif
#   From: 2010.03.12/outbox.cif.g09.slc.cpg/sg14_13_cif.got.tgz:25579.got - 2010.03.31 13:35:05.
