data_PCOD8126117
_publ_section_title
;
Structure prediction by ZEFSAII (Michael W. Deem and Ramdas Pophale) SiO2 
 PCOD8126117
Probable space group: P 21/C
;
_chemical_formula_sum "Si O2"
_cell_formula_units_Z 24
_cell_length_a 28.316633
_cell_length_b 9.151687
_cell_length_c 14.700647
_cell_angle_alpha 90.000000
_cell_angle_beta 18.688735
_cell_angle_gamma 90.000000
_cell_volume 1220.697309
_symmetry_space_group_name_H-M "P 21/C"
_symmetry_group_IT_number 14
_symmetry_cell_setting 'monoclinic'
loop_
_space_group_symop_operation_xyz
x,y,z
-x,1/2+y,1/2-z
-x,-y,-z
x,1/2-y,1/2+z
loop_
_atom_site_type_symbol
_atom_site_label
_atom_site_fract_x
_atom_site_fract_y
_atom_site_fract_z
Si Si1 0.431916 0.920081 0.539254
Si Si2 0.814044 0.529591 0.741757
Si Si3 0.269265 0.184039 0.774290
Si Si4 0.389263 0.588963 0.635902
Si Si5 0.869128 0.594335 0.840272
Si Si6 0.499086 0.592778 0.716914
O O1 0.392405 0.760474 0.647485
O O2 0.532673 0.907017 0.263926
O O3 0.500000 0.000000 0.500000
O O4 0.292345 0.018953 0.767581
O O5 0.814280 0.662165 0.668739
O O6 0.815984 0.615796 0.833667
O O7 0.957567 0.429743 0.468670
O O8 0.676320 0.416856 0.983668
O O9 0.424629 0.268326 0.472308
O O10 0.169367 0.263611 0.030542
O O11 0.500000 0.500000 0.500000
O O12 0.431323 0.554166 0.454328
O O13 0.220021 0.544371 0.959032
#
# Coordination Sequence:
#
# PCOD8126117 Si02
#       6
#     4   4   4   4   4   4
#     4  11  22  33  58  93 122 153 203 263 302 349
#     4  10  21  39  64  91 123 163 207 242 318 367
#     4  10  23  38  63  90 123 156 209 260 297 362
#     4  11  21  38  62  87 123 160 208 243 310 369
#     4  10  22  40  66  87 122 171 198 252 309 376
#     4  10  21  38  61  89 120 161 204 256 299 367
#
# _framework density 19.660893000000002
#
# number of rings (size 3 to 8) (size 9 to 14) (size 15 to 20)
#    0.000    1.667    1.667    4.000    2.333    2.667 
#    0.000    0.000    0.000    7.000    0.000    0.000 
#    0.000    0.000    0.000    0.000    0.000    0.000 
#
# Total GULP energy -297425.953782 kJ/mol
# GULP energy per Si atom -12392.748074 kJ/mol
# Density = 1.961614 g / cm^3
# Si number density = 19.660893 Si / 1000 Ang^3
#
#
#
# Elastic Constant Matrix: (Units=GPa)
#
#
# Indices 1 2 3 4 5 6 
#
# 1 128.9880 51.0663 56.1299 0.0000 13.0180 0.0000
# 2 51.0663 137.9461 34.6368 0.0000 9.8385 0.0000
# 3 56.1299 34.6368 98.4929 0.0000 8.7290 0.0000
# 4 0.0000 0.0000 0.0000 20.5533 0.0000 5.0621
# 5 13.0180 9.8385 8.7290 0.0000 28.9585 0.0000
# 6 0.0000 0.0000 0.0000 5.0621 0.0000 30.5840
#
#
#
# Elastic Compliance Matrix: (Units=1/GPa)
#
#
# Indices 1 2 3 4 5 6 
#
# 1 0.011397 -0.002699 -0.005315 0.000000 -0.002604 0.000000
# 2 -0.002699 0.008694 -0.001403 0.000000 -0.001318 0.000000
# 3 -0.005315 -0.001403 0.013790 0.000000 -0.001291 0.000000
# 4 0.000000 0.000000 0.000000 0.050722 0.000000 -0.008395
# 5 -0.002604 -0.001318 -0.001291 0.000000 0.036540 0.000000
# 6 0.000000 0.000000 0.000000 -0.008395 0.000000 0.034086
#
#
# Mechanical properties :
#
#
# Convention : Reuss Voigt Hill
#
# Bulk Modulus (GPa) = 66.45458 72.12146 69.28802
# Shear Modulus (GPa) = 27.92082 30.92541 29.42312
#
# Velocity S-wave (km/s) = 3.77254 3.97033 3.87270
# Velocity P-wave (km/s) = 7.26979 7.60134 7.43741
#
# Compressibility (1/GPa) = 0.01504787
#
# Stress axis : x y z
#
# Youngs Moduli (GPa) = 87.74415 115.01579 72.51789
#
# Poissons Ratio (x) = 0.31039 0.38543
# Poissons Ratio (y) = 0.23679 0.10173
# Poissons Ratio (z) = 0.46636 0.16135
#
# Static dielectric constant tensor:
#      x y z
#    x 4.391140 0.000000 0.395960 
#    y 0.000000 3.710270 0.000000 
#    z 0.395960 0.000000 3.608240 
# 
# 
# High freq. dielectric constant tensor:
#      x y z
#    x 1.782100 0.000000 0.022480 
#    y 0.000000 1.756580 0.000000 
#    z 0.022480 0.000000 1.754340 
# 
# From -- ./inp_files/38909.got.cif
#   From: 2010.03.12/outbox.cif.g09.slc.cpg/sg14_20_cif.got.tgz:38909.got - 2010.03.31 13:35:05.
