data_PCOD8126615
_publ_section_title
;
Structure prediction by ZEFSAII (Michael W. Deem and Ramdas Pophale) SiO2 
 PCOD8126615
Probable space group: P 21/C
;
_chemical_formula_sum "Si O2"
_cell_formula_units_Z 32
_cell_length_a 18.805708
_cell_length_b 10.988912
_cell_length_c 15.582414
_cell_angle_alpha 90.000000
_cell_angle_beta 29.234783
_cell_angle_gamma 90.000000
_cell_volume 1572.698389
_symmetry_space_group_name_H-M "P 21/C"
_symmetry_group_IT_number 14
_symmetry_cell_setting 'monoclinic'
loop_
_space_group_symop_operation_xyz
x,y,z
-x,1/2+y,1/2-z
-x,-y,-z
x,1/2-y,1/2+z
loop_
_atom_site_type_symbol
_atom_site_label
_atom_site_fract_x
_atom_site_fract_y
_atom_site_fract_z
Si Si1 0.282110 0.004335 0.683358
Si Si2 0.150052 0.821621 0.692047
Si Si3 0.845322 0.447303 0.261137
Si Si4 0.641259 0.119940 0.675782
Si Si5 0.645321 0.543146 0.617640
Si Si6 0.819373 0.550867 0.105120
Si Si7 0.557777 0.140528 0.345902
Si Si8 0.822855 0.675760 0.564776
O O1 0.388495 0.102419 0.526379
O O2 0.177437 0.075921 0.858989
O O3 0.189861 0.938418 0.707379
O O4 0.372296 0.899843 0.637664
O O5 0.188242 0.696290 0.700276
O O6 0.231359 0.822004 0.515717
O O7 0.978371 0.827985 0.854348
O O8 0.758332 0.523512 0.422783
O O9 0.789255 0.492722 0.228822
O O10 0.015168 0.476005 0.097819
O O11 0.513172 0.077766 0.748522
O O12 0.578608 0.215581 0.811203
O O13 0.706451 0.004950 0.656686
O O14 0.636816 0.420723 0.681791
O O15 0.700489 0.650721 0.621927
O O16 0.789035 0.694206 0.142229
#
# Coordination Sequence:
#
# PCOD8126615 Si02
#       8
#     4   4   4   4   4   4   4   4
#     4  10  21  41  64  90 125 159 207 256 311 372
#     4  11  21  40  68  93 121 166 207 259 311 383
#     4  10  22  44  65  89 129 162 211 259 320 369
#     4  12  24  39  65  91 127 163 213 248 320 367
#     4  11  23  40  62  89 126 161 201 260 309 370
#     4  10  24  43  62  93 124 167 210 263 307 381
#     4  10  22  40  59  92 122 160 200 259 306 366
#     4  10  24  41  63  93 127 160 211 259 315 366
#
# _framework density 20.347196
#
# number of rings (size 3 to 8) (size 9 to 14) (size 15 to 20)
#    0.000    1.500    2.500    1.875    3.500    0.500 
#    0.000    0.000    0.000    0.000    0.000    0.000 
#    0.000    0.000    0.000    0.000    0.000    0.000 
#
# Total GULP energy -396934.403414 kJ/mol
# GULP energy per Si atom -12404.200107 kJ/mol
# Density = 2.030088 g / cm^3
# Si number density = 20.347196 Si / 1000 Ang^3
#
#
#
# Elastic Constant Matrix: (Units=GPa)
#
#
# Indices 1 2 3 4 5 6 
#
# 1 90.2117 31.2518 22.3174 0.0000 -10.0493 0.0000
# 2 31.2518 90.8948 20.5377 0.0000 -5.1776 0.0000
# 3 22.3174 20.5377 75.7077 0.0000 12.2137 0.0000
# 4 0.0000 0.0000 0.0000 24.2331 0.0000 -1.7891
# 5 -10.0493 -5.1776 12.2137 0.0000 30.9216 0.0000
# 6 0.0000 0.0000 0.0000 -1.7891 0.0000 30.0137
#
#
#
# Elastic Compliance Matrix: (Units=1/GPa)
#
#
# Indices 1 2 3 4 5 6 
#
# 1 0.013933 -0.003565 -0.004031 0.000000 0.005523 0.000000
# 2 -0.003565 0.012985 -0.002815 0.000000 0.002127 0.000000
# 3 -0.004031 -0.002815 0.016499 0.000000 -0.008298 0.000000
# 4 0.000000 0.000000 0.000000 0.041448 0.000000 0.002471
# 5 0.005523 0.002127 -0.008298 0.000000 0.037769 0.000000
# 6 0.000000 0.000000 0.000000 0.002471 0.000000 0.033465
#
#
# Mechanical properties :
#
#
# Convention : Reuss Voigt Hill
#
# Bulk Modulus (GPa) = 44.25753 45.00312 44.63033
# Shear Modulus (GPa) = 27.10732 29.21418 28.16075
#
# Velocity S-wave (km/s) = 3.65394 3.79328 3.72427
# Velocity P-wave (km/s) = 6.29286 6.43047 6.36204
#
# Compressibility (1/GPa) = 0.02259503
#
# Stress axis : x y z
#
# Youngs Moduli (GPa) = 71.77452 77.01429 60.60862
#
# Poissons Ratio (x) = 0.27455 0.24432
# Poissons Ratio (y) = 0.25587 0.17060
# Poissons Ratio (z) = 0.28933 0.21678
#
# Static dielectric constant tensor:
#      x y z
#    x 3.545770 0.000000 0.027830 
#    y 0.000000 3.636800 0.000000 
#    z 0.027830 0.000000 3.768650 
# 
# 
# High freq. dielectric constant tensor:
#      x y z
#    x 1.789910 0.000000 0.004010 
#    y 0.000000 1.795390 0.000000 
#    z 0.004010 0.000000 1.805990 
# 
# From -- ./inp_files/48981.got.cif
#   From: 2010.03.12/outbox.cif.g09.slc.cpg/sg14_25_cif.got.tgz:48981.got - 2010.03.31 13:35:05.
