data_PCOD8126696
_publ_section_title
;
Structure prediction by ZEFSAII (Michael W. Deem and Ramdas Pophale) SiO2 
 PCOD8126696
Probable space group: P 21/C
;
_chemical_formula_sum "Si O2"
_cell_formula_units_Z 32
_cell_length_a 22.526425
_cell_length_b 13.241392
_cell_length_c 15.463982
_cell_angle_alpha 90.000000
_cell_angle_beta 19.607345
_cell_angle_gamma 90.000000
_cell_volume 1547.866139
_symmetry_space_group_name_H-M "P 21/C"
_symmetry_group_IT_number 14
_symmetry_cell_setting 'monoclinic'
loop_
_space_group_symop_operation_xyz
x,y,z
-x,1/2+y,1/2-z
-x,-y,-z
x,1/2-y,1/2+z
loop_
_atom_site_type_symbol
_atom_site_label
_atom_site_fract_x
_atom_site_fract_y
_atom_site_fract_z
Si Si1 0.604937 0.307486 0.214206
Si Si2 0.595381 0.083531 0.171118
Si Si3 0.123223 0.697244 0.003802
Si Si4 0.007719 0.591503 0.609156
Si Si5 0.319272 0.406277 0.723331
Si Si6 0.585740 0.109134 0.987124
Si Si7 0.273340 0.536167 0.096736
Si Si8 0.040795 0.515700 0.747474
O O1 0.555573 0.198952 0.245054
O O2 0.420132 0.345903 0.509394
O O3 0.769243 0.296471 0.053924
O O4 0.662507 0.378213 0.056957
O O5 0.438039 0.013082 0.422633
O O6 0.589245 0.065343 0.077007
O O7 0.778683 0.046543 0.956195
O O8 0.999265 0.793997 0.156941
O O9 0.998370 0.599282 0.171816
O O10 0.270199 0.697614 0.724463
O O11 0.150726 0.585335 0.337036
O O12 0.060203 0.519349 0.617149
O O13 0.821143 0.554099 0.827142
O O14 0.352563 0.525910 0.668398
O O15 0.388225 0.364834 0.722838
O O16 0.105203 0.401408 0.018476
#
# Coordination Sequence:
#
# PCOD8126696 Si02
#       8
#     4   4   4   4   4   4   4   4
#     4  11  21  43  66  96 134 174 219 271 336 390
#     4  12  24  40  65 104 134 166 220 280 331 393
#     4  10  21  41  69  96 130 177 220 268 324 392
#     4  11  23  46  67  95 133 181 223 259 340 405
#     4   9  19  39  68  87 122 173 214 264 324 388
#     4   9  18  37  65  91 124 164 212 268 323 379
#     4  11  25  44  70  93 137 178 216 277 333 402
#     4  11  23  41  69  98 133 170 223 279 319 390
#
# _framework density 20.673621000000001
#
# number of rings (size 3 to 8) (size 9 to 14) (size 15 to 20)
#    0.000    1.500    3.750    2.250    0.000    3.500 
#    9.000    1.250    0.000    0.000    0.000    0.000 
#    0.000    0.000    0.000    0.000    0.000    0.000 
#
# Total GULP energy -396613.340997 kJ/mol
# GULP energy per Si atom -12394.166906 kJ/mol
# Density = 2.062657 g / cm^3
# Si number density = 20.673621 Si / 1000 Ang^3
#
#
#
# Elastic Constant Matrix: (Units=GPa)
#
#
# Indices 1 2 3 4 5 6 
#
# 1 92.7880 33.6154 64.0866 0.0000 -3.1790 0.0000
# 2 33.6154 114.8274 42.9585 0.0000 -11.3167 0.0000
# 3 64.0866 42.9585 95.1868 0.0000 -19.0634 0.0000
# 4 0.0000 0.0000 0.0000 24.9438 0.0000 -0.1165
# 5 -3.1790 -11.3167 -19.0634 0.0000 33.7637 0.0000
# 6 0.0000 0.0000 0.0000 -0.1165 0.0000 25.7184
#
#
#
# Elastic Compliance Matrix: (Units=1/GPa)
#
#
# Indices 1 2 3 4 5 6 
#
# 1 0.021644 -0.001266 -0.015422 0.000000 -0.007094 0.000000
# 2 -0.001266 0.010579 -0.003648 0.000000 0.001367 0.000000
# 3 -0.015422 -0.003648 0.024804 0.000000 0.011330 0.000000
# 4 0.000000 0.000000 0.000000 0.040091 0.000000 0.000182
# 5 -0.007094 0.001367 0.011330 0.000000 0.035805 0.000000
# 6 0.000000 0.000000 0.000000 0.000182 0.000000 0.038884
#
#
# Mechanical properties :
#
#
# Convention : Reuss Voigt Hill
#
# Bulk Modulus (GPa) = 61.14196 64.90257 63.02226
# Shear Modulus (GPa) = 22.94299 27.69462 25.31880
#
# Velocity S-wave (km/s) = 3.33494 3.66404 3.50336
# Velocity P-wave (km/s) = 6.66844 7.02583 6.84947
#
# Compressibility (1/GPa) = 0.01635538
#
# Stress axis : x y z
#
# Youngs Moduli (GPa) = 46.20121 94.52787 40.31529
#
# Poissons Ratio (x) = 0.11966 0.62174
# Poissons Ratio (y) = 0.05849 0.14708
# Poissons Ratio (z) = 0.71252 0.34487
#
# Static dielectric constant tensor:
#      x y z
#    x 3.724330 0.000000 -0.021000 
#    y 0.000000 3.703450 0.000000 
#    z -0.021000 0.000000 3.920570 
# 
# 
# High freq. dielectric constant tensor:
#      x y z
#    x 1.808280 0.000000 0.002280 
#    y 0.000000 1.800120 0.000000 
#    z 0.002280 0.000000 1.814880 
# 
# From -- ./inp_files/50677.got.cif
#   From: 2010.03.12/outbox.cif.g09.slc.cpg/sg14_26_cif.got.tgz:50677.got - 2010.03.31 13:35:05.
