data_PCOD8126808
_publ_section_title
;
Structure prediction by ZEFSAII (Michael W. Deem and Ramdas Pophale) SiO2 
 PCOD8126808
Probable space group: P 21/C
;
_chemical_formula_sum "Si O2"
_cell_formula_units_Z 28
_cell_length_a 8.758215
_cell_length_b 8.627474
_cell_length_c 22.336710
_cell_angle_alpha 90.000000
_cell_angle_beta 47.748282
_cell_angle_gamma 90.000000
_cell_volume 1249.298892
_symmetry_space_group_name_H-M "P 21/C"
_symmetry_group_IT_number 14
_symmetry_cell_setting 'monoclinic'
loop_
_space_group_symop_operation_xyz
x,y,z
-x,1/2+y,1/2-z
-x,-y,-z
x,1/2-y,1/2+z
loop_
_atom_site_type_symbol
_atom_site_label
_atom_site_fract_x
_atom_site_fract_y
_atom_site_fract_z
Si Si1 0.749426 0.324765 0.799140
Si Si2 0.479102 0.518479 0.662183
Si Si3 0.181640 0.000339 0.833226
Si Si4 0.977346 0.128709 0.456105
Si Si5 0.879643 0.679264 0.207899
Si Si6 0.395921 0.460192 0.966272
Si Si7 0.166292 0.346141 0.496513
O O1 0.688885 0.146079 0.811392
O O2 0.791149 0.361044 0.719646
O O3 0.560459 0.432003 0.870746
O O4 0.943192 0.355644 0.790812
O O5 0.602185 0.543127 0.691900
O O6 0.343512 0.361579 0.703996
O O7 0.651859 0.527987 0.564143
O O8 0.009851 0.938734 0.923851
O O9 0.102520 0.142026 0.814172
O O10 0.085292 0.085587 0.363974
O O11 0.070335 0.289747 0.457083
O O12 0.730335 0.120146 0.512512
O O13 0.000000 0.000000 0.500000
O O14 0.500000 0.500000 0.000000
O O15 0.251642 0.305009 0.009490
#
# Coordination Sequence:
#
# PCOD8126808 Si02
#       7
#     4   4   4   4   4   4   4
#     4  11  26  45  68 104 142 180 238 290 357 417
#     4  11  25  45  72  98 139 183 239 284 346 424
#     4  12  26  45  73 101 139 185 237 295 351 415
#     4  10  22  40  72 101 138 181 237 283 352 412
#     4  12  25  46  67 102 141 185 229 298 349 417
#     4  10  21  42  71 105 138 184 227 285 359 418
#     4  10  24  46  69 105 139 185 237 293 342 425
#
# _framework density 22.412569000000001
#
# number of rings (size 3 to 8) (size 9 to 14) (size 15 to 20)
#    0.000    1.143    2.857    2.143    8.000    2.286 
#    0.000    7.857    0.000    0.000    0.000    0.000 
#    0.000    0.000    0.000    0.000    0.000    0.000 
#
# Total GULP energy -346899.686501 kJ/mol
# GULP energy per Si atom -12389.274518 kJ/mol
# Density = 2.236156 g / cm^3
# Si number density = 22.412569 Si / 1000 Ang^3
#
#
#
# Elastic Constant Matrix: (Units=GPa)
#
#
# Indices 1 2 3 4 5 6 
#
# 1 138.5297 41.1000 53.4987 0.0000 -9.3576 0.0000
# 2 41.1000 67.3097 47.6977 0.0000 -13.4659 0.0000
# 3 53.4987 47.6977 122.8140 0.0000 -9.9675 0.0000
# 4 0.0000 0.0000 0.0000 42.8318 0.0000 -2.3752
# 5 -9.3576 -13.4659 -9.9675 0.0000 37.9066 0.0000
# 6 0.0000 0.0000 0.0000 -2.3752 0.0000 37.9447
#
#
#
# Elastic Compliance Matrix: (Units=1/GPa)
#
#
# Indices 1 2 3 4 5 6 
#
# 1 0.009369 -0.003850 -0.002564 0.000000 0.000271 0.000000
# 2 -0.003850 0.023178 -0.006881 0.000000 0.005474 0.000000
# 3 -0.002564 -0.006881 0.011937 0.000000 0.000061 0.000000
# 4 0.000000 0.000000 0.000000 0.023428 0.000000 0.001467
# 5 0.000271 0.005474 0.000061 0.000000 0.028408 0.000000
# 6 0.000000 0.000000 0.000000 0.001467 0.000000 0.026446
#
#
# Mechanical properties :
#
#
# Convention : Reuss Voigt Hill
#
# Bulk Modulus (GPa) = 55.88072 68.13847 62.00960
# Shear Modulus (GPa) = 32.19129 36.16044 34.17586
#
# Velocity S-wave (km/s) = 3.79397 4.02107 3.90917
# Velocity P-wave (km/s) = 6.64674 7.21295 6.93563
#
# Compressibility (1/GPa) = 0.01789526
#
# Stress axis : x y z
#
# Youngs Moduli (GPa) = 106.72996 43.14363 83.77568
#
# Poissons Ratio (x) = 0.16609 0.21482
# Poissons Ratio (y) = 0.41088 0.57643
# Poissons Ratio (z) = 0.27368 0.29685
#
# Static dielectric constant tensor:
#      x y z
#    x 4.052080 0.000000 0.130790 
#    y 0.000000 3.894720 0.000000 
#    z 0.130790 0.000000 4.171140 
# 
# 
# High freq. dielectric constant tensor:
#      x y z
#    x 1.898930 0.000000 -0.003910 
#    y 0.000000 1.872150 0.000000 
#    z -0.003910 0.000000 1.885200 
# 
# From -- ./inp_files/64959.got.cif
#   From: 2010.03.12/outbox.cif.g09.slc.cpg/sg14_33_cif.got.tgz:64959.got - 2010.03.31 13:35:05.
