data_PCOD8126512
_publ_section_title
;
Structure prediction by ZEFSAII (Michael W. Deem and Ramdas Pophale) SiO2 
 PCOD8126512
Probable space group: P 21/C
;
_chemical_formula_sum "Si O2"
_cell_formula_units_Z 28
_cell_length_a 13.820325
_cell_length_b 15.989308
_cell_length_c 8.778087
_cell_angle_alpha 90.000000
_cell_angle_beta 135.890763
_cell_angle_gamma 90.000000
_cell_volume 1350.127758
_symmetry_space_group_name_H-M "P 21/C"
_symmetry_group_IT_number 14
_symmetry_cell_setting 'monoclinic'
loop_
_space_group_symop_operation_xyz
x,y,z
-x,1/2+y,1/2-z
-x,-y,-z
x,1/2-y,1/2+z
loop_
_atom_site_type_symbol
_atom_site_label
_atom_site_fract_x
_atom_site_fract_y
_atom_site_fract_z
Si Si1 0.110773 0.659189 0.303493
Si Si2 0.719414 0.252275 0.760307
Si Si3 0.203837 0.174406 0.530629
Si Si4 0.412083 0.638596 0.130928
Si Si5 0.800777 0.995905 0.656225
Si Si6 0.716977 0.841378 0.043924
Si Si7 0.103563 0.476082 0.404472
O O1 0.165872 0.697959 0.522705
O O2 0.202965 0.685279 0.265290
O O3 0.115201 0.559199 0.316647
O O4 0.955298 0.693103 0.104824
O O5 0.619536 0.188864 0.558741
O O6 0.625205 0.305627 0.765918
O O7 0.267895 0.249319 0.506600
O O8 0.291025 0.163234 0.782943
O O9 0.216711 0.093015 0.441687
O O10 0.574864 0.617205 0.322014
O O11 0.328148 0.552340 0.039332
O O12 0.943420 0.041697 0.767478
O O13 0.801538 0.982936 0.838288
O O14 0.845964 0.898932 0.140066
#
# Coordination Sequence:
#
# PCOD8126512 Si02
#       7
#     4   4   4   4   4   4   4
#     4  10  21  40  66  97 120 165 214 270 314 369
#     4  10  22  39  67  92 126 165 216 259 318 381
#     4  11  25  41  66  94 129 169 212 269 319 380
#     4  11  24  43  64  94 131 170 208 263 318 389
#     4  10  23  43  66  95 130 166 216 266 317 377
#     4  12  26  43  64  95 131 171 211 259 327 385
#     4  10  23  42  65  96 128 164 217 266 320 373
#
# _framework density 20.738778
#
# number of rings (size 3 to 8) (size 9 to 14) (size 15 to 20)
#    0.000    1.429    1.429    2.571    8.000    2.286 
#    5.143    0.000    0.000    0.000    0.000    0.000 
#    0.000    0.000    0.000    0.000    0.000    0.000 
#
# Total GULP energy -347417.433109 kJ/mol
# GULP energy per Si atom -12407.765468 kJ/mol
# Density = 2.069158 g / cm^3
# Si number density = 20.738778 Si / 1000 Ang^3
#
#
#
# Elastic Constant Matrix: (Units=GPa)
#
#
# Indices 1 2 3 4 5 6 
#
# 1 52.1974 29.6141 24.1474 0.0000 2.5219 0.0000
# 2 29.6141 84.8282 25.4657 0.0000 6.5222 0.0000
# 3 24.1474 25.4657 106.8365 0.0000 8.6028 0.0000
# 4 0.0000 0.0000 0.0000 33.3685 0.0000 1.3581
# 5 2.5219 6.5222 8.6028 0.0000 33.5358 0.0000
# 6 0.0000 0.0000 0.0000 1.3581 0.0000 19.5333
#
#
#
# Elastic Compliance Matrix: (Units=1/GPa)
#
#
# Indices 1 2 3 4 5 6 
#
# 1 0.025321 -0.007705 -0.003935 0.000000 0.000604 0.000000
# 2 -0.007705 0.015140 -0.001712 0.000000 -0.001926 0.000000
# 3 -0.003935 -0.001712 0.010831 0.000000 -0.002149 0.000000
# 4 0.000000 0.000000 0.000000 0.030053 0.000000 -0.002090
# 5 0.000604 -0.001926 -0.002149 0.000000 0.030699 0.000000
# 6 0.000000 0.000000 0.000000 -0.002090 0.000000 0.051340
#
#
# Mechanical properties :
#
#
# Convention : Reuss Voigt Hill
#
# Bulk Modulus (GPa) = 40.67124 44.70183 42.68653
# Shear Modulus (GPa) = 25.21627 28.26318 26.73973
#
# Velocity S-wave (km/s) = 3.49076 3.69564 3.59466
# Velocity P-wave (km/s) = 5.99174 6.30966 6.15276
#
# Compressibility (1/GPa) = 0.02458740
#
# Stress axis : x y z
#
# Youngs Moduli (GPa) = 39.49359 66.04831 92.32960
#
# Poissons Ratio (x) = 0.50888 0.36333
# Poissons Ratio (y) = 0.30429 0.15810
# Poissons Ratio (z) = 0.15541 0.11310
#
# Static dielectric constant tensor:
#      x y z
#    x 3.667930 0.000000 -0.053920 
#    y 0.000000 3.672030 0.000000 
#    z -0.053920 0.000000 3.908650 
# 
# 
# High freq. dielectric constant tensor:
#      x y z
#    x 1.810670 0.000000 -0.008330 
#    y 0.000000 1.815700 0.000000 
#    z -0.008330 0.000000 1.823720 
# 
# From -- ./inp_files/13177.got.cif
#   From: 2010.03.12/outbox.cif.g09.slc.cpg/sg14_7_cif.got.tgz:13177.got - 2010.03.31 13:35:05.
