data_PCOD8126137
_publ_section_title
;
Structure prediction by ZEFSAII (Michael W. Deem and Ramdas Pophale) SiO2 
 PCOD8126137
Probable space group: P 21/C
;
_chemical_formula_sum "Si O2"
_cell_formula_units_Z 28
_cell_length_a 15.618734
_cell_length_b 12.953414
_cell_length_c 9.205932
_cell_angle_alpha 90.000000
_cell_angle_beta 47.792425
_cell_angle_gamma 90.000000
_cell_volume 1379.588087
_symmetry_space_group_name_H-M "P 21/C"
_symmetry_group_IT_number 14
_symmetry_cell_setting 'monoclinic'
loop_
_space_group_symop_operation_xyz
x,y,z
-x,1/2+y,1/2-z
-x,-y,-z
x,1/2-y,1/2+z
loop_
_atom_site_type_symbol
_atom_site_label
_atom_site_fract_x
_atom_site_fract_y
_atom_site_fract_z
Si Si1 0.406474 0.260401 0.759478
Si Si2 0.284347 0.042629 0.538811
Si Si3 0.159165 0.553778 0.911431
Si Si4 0.497323 0.942254 0.228842
Si Si5 0.390929 0.891013 0.053248
Si Si6 0.088862 0.140543 0.304913
Si Si7 0.191049 0.320491 0.371186
O O1 0.432463 0.162313 0.831387
O O2 0.532193 0.288532 0.550993
O O3 0.320235 0.227214 0.729579
O O4 0.343761 0.352292 0.914234
O O5 0.204297 0.071882 0.767833
O O6 0.198052 0.990873 0.522207
O O7 0.392915 0.967962 0.462344
O O8 0.254304 0.630013 0.728739
O O9 0.142580 0.458634 0.821040
O O10 0.047286 0.623890 0.061083
O O11 0.427315 0.949160 0.158189
O O12 0.590581 0.034817 0.108584
O O13 0.107110 0.242051 0.382237
O O14 0.145504 0.157205 0.083652
#
# Coordination Sequence:
#
# PCOD8126137 Si02
#       7
#     4   4   4   4   4   4   4
#     4  11  19  34  63  91 124 158 199 249 300 370
#     4  10  21  38  62  91 125 158 203 250 308 363
#     4  10  21  43  60  87 119 166 204 254 305 362
#     4   9  19  34  57  90 122 156 196 243 306 369
#     4   9  19  34  59  86 120 163 190 247 310 361
#     4  11  23  39  66  85 121 160 214 251 300 359
#     4  12  22  38  64  94 115 161 208 254 296 374
#
# _framework density 20.295912999999999
#
# number of rings (size 3 to 8) (size 9 to 14) (size 15 to 20)
#    0.000    1.714    2.857    2.571    0.000    1.143 
#    5.143    1.429    0.000    0.000    0.000    0.000 
#    0.000    0.000    0.000    0.000    0.000    0.000 
#
# Total GULP energy -346940.593634 kJ/mol
# GULP energy per Si atom -12390.735487 kJ/mol
# Density = 2.024972 g / cm^3
# Si number density = 20.295913 Si / 1000 Ang^3
#
#
#
# Elastic Constant Matrix: (Units=GPa)
#
#
# Indices 1 2 3 4 5 6 
#
# 1 80.0927 29.7130 39.9756 0.0000 -19.8507 0.0000
# 2 29.7130 64.1792 28.4397 0.0000 -10.1713 0.0000
# 3 39.9756 28.4397 98.6461 0.0000 -9.9633 0.0000
# 4 0.0000 0.0000 0.0000 27.5454 0.0000 -6.5452
# 5 -19.8507 -10.1713 -9.9633 0.0000 33.1600 0.0000
# 6 0.0000 0.0000 0.0000 -6.5452 0.0000 33.1582
#
#
#
# Elastic Compliance Matrix: (Units=1/GPa)
#
#
# Indices 1 2 3 4 5 6 
#
# 1 0.019160 -0.005149 -0.005446 0.000000 0.008254 0.000000
# 2 -0.005149 0.019792 -0.003421 0.000000 0.001961 0.000000
# 3 -0.005446 -0.003421 0.013299 0.000000 -0.000314 0.000000
# 4 0.000000 0.000000 0.000000 0.038090 0.000000 0.007519
# 5 0.008254 0.001961 -0.000314 0.000000 0.035605 0.000000
# 6 0.000000 0.000000 0.000000 0.007519 0.000000 0.031643
#
#
# Mechanical properties :
#
#
# Convention : Reuss Voigt Hill
#
# Bulk Modulus (GPa) = 41.29239 48.79717 45.04478
# Shear Modulus (GPa) = 25.81387 28.42536 27.11961
#
# Velocity S-wave (km/s) = 3.57020 3.74645 3.65939
# Velocity P-wave (km/s) = 6.11429 6.54290 6.33222
#
# Compressibility (1/GPa) = 0.02421754
#
# Stress axis : x y z
#
# Youngs Moduli (GPa) = 52.19284 50.52542 75.19360
#
# Poissons Ratio (x) = 0.26015 0.40952
# Poissons Ratio (y) = 0.26873 0.25727
# Poissons Ratio (z) = 0.28426 0.17287
#
# Static dielectric constant tensor:
#      x y z
#    x 3.713740 0.000000 -0.195600 
#    y 0.000000 3.574340 0.000000 
#    z -0.195600 0.000000 3.834230 
# 
# 
# High freq. dielectric constant tensor:
#      x y z
#    x 1.786690 0.000000 -0.009370 
#    y 0.000000 1.776410 0.000000 
#    z -0.009370 0.000000 1.793930 
# 
# From -- ./inp_files/16190.got.cif
#   From: 2010.03.12/outbox.cif.g09.slc.cpg/sg14_9_cif.got.tgz:16190.got - 2010.03.31 13:35:05.
