data_PCOD8126003
_publ_section_title
;
Structure prediction by ZEFSAII (Michael W. Deem and Ramdas Pophale) SiO2 
 PCOD8126003
Probable space group: P 21/C
;
_chemical_formula_sum "Si O2"
_cell_formula_units_Z 28
_cell_length_a 17.181522
_cell_length_b 7.509691
_cell_length_c 14.019845
_cell_angle_alpha 90.000000
_cell_angle_beta 129.877505
_cell_angle_gamma 90.000000
_cell_volume 1388.219978
_symmetry_space_group_name_H-M "P 21/C"
_symmetry_group_IT_number 14
_symmetry_cell_setting 'monoclinic'
loop_
_space_group_symop_operation_xyz
x,y,z
-x,1/2+y,1/2-z
-x,-y,-z
x,1/2-y,1/2+z
loop_
_atom_site_type_symbol
_atom_site_label
_atom_site_fract_x
_atom_site_fract_y
_atom_site_fract_z
Si Si1 0.376232 0.505685 0.710573
Si Si2 0.599757 0.140739 0.392928
Si Si3 0.255326 0.326352 0.057564
Si Si4 0.840277 0.464044 0.856911
Si Si5 0.006640 0.662115 0.875768
Si Si6 0.111199 0.467196 0.792803
Si Si7 0.285957 0.665416 0.825691
O O1 0.381498 0.687570 0.656800
O O2 0.482729 0.407502 0.802771
O O3 0.301275 0.370791 0.596983
O O4 0.337323 0.544496 0.785822
O O5 0.633949 0.188923 0.526491
O O6 0.660604 0.975591 0.397469
O O7 0.202745 0.368324 0.117669
O O8 0.172464 0.329090 0.908237
O O9 0.745060 0.359461 0.737858
O O10 0.915836 0.530432 0.834386
O O11 0.902176 0.334182 0.976593
O O12 0.048561 0.606302 0.806065
O O13 0.965944 0.861633 0.835184
O O14 0.184110 0.573010 0.780539
#
# Coordination Sequence:
#
# PCOD8126003 Si02
#       7
#     4   4   4   4   4   4   4
#     4  12  23  44  68  92 129 171 203 268 325 371
#     4  11  24  43  64  97 128 164 214 261 316 385
#     4  10  22  41  62  92 130 165 213 261 311 375
#     4  10  21  39  59  89 129 166 209 263 312 369
#     4  10  21  37  59  87 129 164 209 266 307 369
#     4  10  22  38  60  93 125 166 216 258 309 377
#     4  11  24  40  66  95 127 168 213 261 314 388
#
# _framework density 20.169713000000002
#
# number of rings (size 3 to 8) (size 9 to 14) (size 15 to 20)
#    0.000    1.429    2.857    2.143    2.000    1.714 
#    0.000    1.429    0.000    0.000    0.000    0.000 
#    0.000    0.000    0.000    0.000    0.000    0.000 
#
# Total GULP energy -347333.219599 kJ/mol
# GULP energy per Si atom -12404.757843 kJ/mol
# Density = 2.012381 g / cm^3
# Si number density = 20.169713 Si / 1000 Ang^3
#
#
#
# Elastic Constant Matrix: (Units=GPa)
#
#
# Indices 1 2 3 4 5 6 
#
# 1 102.7048 24.9856 7.8947 0.0000 -16.0465 0.0000
# 2 24.9856 67.9871 19.8890 0.0000 -13.7095 0.0000
# 3 7.8947 19.8890 49.9513 0.0000 -9.8232 0.0000
# 4 0.0000 0.0000 0.0000 29.6828 0.0000 13.6618
# 5 -16.0465 -13.7095 -9.8232 0.0000 29.5996 0.0000
# 6 0.0000 0.0000 0.0000 13.6618 0.0000 30.7363
#
#
#
# Elastic Compliance Matrix: (Units=1/GPa)
#
#
# Indices 1 2 3 4 5 6 
#
# 1 0.011245 -0.003320 0.000472 0.000000 0.004715 0.000000
# 2 -0.003320 0.018649 -0.005944 0.000000 0.004865 0.000000
# 3 0.000472 -0.005944 0.023344 0.000000 0.005250 0.000000
# 4 0.000000 0.000000 0.000000 0.042354 0.000000 -0.018826
# 5 0.004715 0.004865 0.005250 0.000000 0.040336 0.000000
# 6 0.000000 0.000000 0.000000 -0.018826 0.000000 0.040903
#
#
# Mechanical properties :
#
#
# Convention : Reuss Voigt Hill
#
# Bulk Modulus (GPa) = 28.04756 36.24242 32.14499
# Shear Modulus (GPa) = 24.23679 29.19533 26.71606
#
# Velocity S-wave (km/s) = 3.47023 3.80871 3.64340
# Velocity P-wave (km/s) = 5.47655 6.11142 5.80268
#
# Compressibility (1/GPa) = 0.03565372
#
# Stress axis : x y z
#
# Youngs Moduli (GPa) = 88.93126 53.62350 42.83755
#
# Poissons Ratio (x) = 0.17802 -0.02021
# Poissons Ratio (y) = 0.29523 0.25462
# Poissons Ratio (z) = -0.04196 0.31873
#
# Static dielectric constant tensor:
#      x y z
#    x 3.862590 0.000000 0.003200 
#    y 0.000000 3.445020 0.000000 
#    z 0.003200 0.000000 3.716920 
# 
# 
# High freq. dielectric constant tensor:
#      x y z
#    x 1.807210 0.000000 -0.001260 
#    y 0.000000 1.780180 0.000000 
#    z -0.001260 0.000000 1.789330 
# 
# From -- ./inp_files/31455.got.cif
#   From: 2010.03.12/outbox.cif.g09.slc.cpg/sg14_16_cif.got.tgz:31455.got - 2010.03.31 13:35:05.
