data_PCOD8126136
_publ_section_title
;
Structure prediction by ZEFSAII (Michael W. Deem and Ramdas Pophale) SiO2 
 PCOD8126136
Probable space group: P 21/C
;
_chemical_formula_sum "Si O2"
_cell_formula_units_Z 28
_cell_length_a 8.194131
_cell_length_b 31.038560
_cell_length_c 10.074752
_cell_angle_alpha 90.000000
_cell_angle_beta 150.889489
_cell_angle_gamma 90.000000
_cell_volume 1246.573264
_symmetry_space_group_name_H-M "P 21/C"
_symmetry_group_IT_number 14
_symmetry_cell_setting 'monoclinic'
loop_
_space_group_symop_operation_xyz
x,y,z
-x,1/2+y,1/2-z
-x,-y,-z
x,1/2-y,1/2+z
loop_
_atom_site_type_symbol
_atom_site_label
_atom_site_fract_x
_atom_site_fract_y
_atom_site_fract_z
Si Si1 0.471265 0.727276 0.855426
Si Si2 0.313525 0.866925 0.281419
Si Si3 0.446348 0.043114 0.878558
Si Si4 0.920069 0.382195 0.664618
Si Si5 0.935566 0.066619 0.705027
Si Si6 0.768920 0.212291 0.095457
Si Si7 0.353380 0.014501 0.194511
O O1 0.269125 0.684548 0.758068
O O2 0.446334 0.732987 0.678280
O O3 0.326965 0.768301 0.830352
O O4 0.850873 0.722756 0.170134
O O5 0.178394 0.886559 0.324019
O O6 0.694579 0.880110 0.518035
O O7 0.092968 0.886203 0.004736
O O8 0.088650 0.065948 0.663338
O O9 0.451544 0.026721 0.729480
O O10 0.747372 0.077201 0.113009
O O11 0.500000 0.000000 0.000000
O O12 0.718506 0.339204 0.566393
O O13 0.608695 0.035364 0.483020
O O14 0.254699 0.050674 0.016724
O O15 0.000000 0.000000 0.000000
#
# Coordination Sequence:
#
# PCOD8126136 Si02
#       7
#     4   4   4   4   4   4   4
#     4  10  21  38  62  91 123 155 197 244 294 358
#     4  10  21  39  60  84 114 154 195 232 284 357
#     4  10  23  39  56  84 116 147 193 249 294 341
#     4  10  22  40  60  81 116 156 192 233 292 357
#     4  11  22  36  55  82 110 142 187 236 282 329
#     4  10  21  39  62  90 120 158 197 243 299 356
#     4  11  22  37  57  78 108 148 189 231 285 344
#
# _framework density 22.461577999999999
#
# number of rings (size 3 to 8) (size 9 to 14) (size 15 to 20)
#    0.000    1.714    0.000    4.286    0.000    6.857 
#    0.000    2.857    0.000    0.000    0.000    0.000 
#    0.000    0.000    0.000    0.000    0.000    0.000 
#
# Total GULP energy -347113.221676 kJ/mol
# GULP energy per Si atom -12396.900774 kJ/mol
# Density = 2.241045 g / cm^3
# Si number density = 22.461578 Si / 1000 Ang^3
#
#
#
# Elastic Constant Matrix: (Units=GPa)
#
#
# Indices 1 2 3 4 5 6 
#
# 1 70.0311 35.9804 -1.8793 0.0000 8.0523 0.0000
# 2 35.9804 91.6607 8.4308 0.0000 -3.1490 0.0000
# 3 -1.8793 8.4308 68.4705 0.0000 -5.5753 0.0000
# 4 0.0000 0.0000 0.0000 25.1030 0.0000 2.2046
# 5 8.0523 -3.1490 -5.5753 0.0000 26.3589 0.0000
# 6 0.0000 0.0000 0.0000 2.2046 0.0000 48.1226
#
#
#
# Elastic Compliance Matrix: (Units=1/GPa)
#
#
# Indices 1 2 3 4 5 6 
#
# 1 0.019064 -0.007796 0.000949 0.000000 -0.006554 0.000000
# 2 -0.007796 0.014251 -0.001665 0.000000 0.003732 0.000000
# 3 0.000949 -0.001665 0.015055 0.000000 0.002696 0.000000
# 4 0.000000 0.000000 0.000000 0.039997 0.000000 -0.001832
# 5 -0.006554 0.003732 0.002696 0.000000 0.040956 0.000000
# 6 0.000000 0.000000 0.000000 -0.001832 0.000000 0.020864
#
#
# Mechanical properties :
#
#
# Convention : Reuss Voigt Hill
#
# Bulk Modulus (GPa) = 31.89991 35.02513 33.46252
# Shear Modulus (GPa) = 28.14378 32.42559 30.28468
#
# Velocity S-wave (km/s) = 3.54358 3.80360 3.67589
# Velocity P-wave (km/s) = 5.56556 5.90906 5.73988
#
# Compressibility (1/GPa) = 0.03134805
#
# Stress axis : x y z
#
# Youngs Moduli (GPa) = 52.45556 70.16910 66.42150
#
# Poissons Ratio (x) = 0.54702 -0.06306
# Poissons Ratio (y) = 0.40893 0.11058
# Poissons Ratio (z) = -0.04980 0.11682
#
# Static dielectric constant tensor:
#      x y z
#    x 4.260940 0.000000 -0.119690 
#    y 0.000000 4.092090 0.000000 
#    z -0.119690 0.000000 4.081760 
# 
# 
# High freq. dielectric constant tensor:
#      x y z
#    x 1.873440 0.000000 0.001580 
#    y 0.000000 1.878990 0.000000 
#    z 0.001580 0.000000 1.886270 
# 
# From -- ./inp_files/27123.got.cif
#   From: 2010.03.12/outbox.cif.g09.slc.cpg/sg14_14_cif.got.tgz:27123.got - 2010.03.31 13:35:05.
