data_PCOD8126191
_publ_section_title
;
Structure prediction by ZEFSAII (Michael W. Deem and Ramdas Pophale) SiO2 
 PCOD8126191
Probable space group: P 21/C
;
_chemical_formula_sum "Si O2"
_cell_formula_units_Z 32
_cell_length_a 15.009934
_cell_length_b 17.203309
_cell_length_c 9.381392
_cell_angle_alpha 90.000000
_cell_angle_beta 141.048047
_cell_angle_gamma 90.000000
_cell_volume 1522.929281
_symmetry_space_group_name_H-M "P 21/C"
_symmetry_group_IT_number 14
_symmetry_cell_setting 'monoclinic'
loop_
_space_group_symop_operation_xyz
x,y,z
-x,1/2+y,1/2-z
-x,-y,-z
x,1/2-y,1/2+z
loop_
_atom_site_type_symbol
_atom_site_label
_atom_site_fract_x
_atom_site_fract_y
_atom_site_fract_z
Si Si1 0.391649 0.336007 0.048571
Si Si2 0.470888 0.585353 0.524029
Si Si3 0.099136 0.396297 0.714998
Si Si4 0.159608 0.577282 0.104926
Si Si5 0.897644 0.895420 0.455297
Si Si6 0.381900 0.160812 0.036684
Si Si7 0.474162 0.915870 0.534749
Si Si8 0.167104 0.923096 0.288325
O O1 0.427296 0.398655 0.215936
O O2 0.228320 0.350479 0.800525
O O3 0.406348 0.248233 0.123627
O O4 0.497978 0.350575 0.050039
O O5 0.500000 0.500000 0.500000
O O6 0.308171 0.595530 0.367113
O O7 0.503372 0.647799 0.443373
O O8 0.083298 0.367155 0.858518
O O9 0.134883 0.486404 0.747129
O O10 0.954225 0.377453 0.450701
O O11 0.039729 0.622801 0.043265
O O12 0.135708 0.485930 0.084683
O O13 0.164907 0.606810 0.948316
O O14 0.774195 0.849213 0.221721
O O15 0.410048 0.098716 0.197191
O O16 0.316959 0.905730 0.400551
O O17 0.500000 0.000000 0.500000
#
# Coordination Sequence:
#
# PCOD8126191 Si02
#       8
#     4   4   4   4   4   4   4   4
#     4  12  26  42  65  98 136 179 215 273 345 396
#     4  12  21  44  72  95 128 176 225 279 318 393
#     4  10  21  40  63  93 132 168 213 269 327 391
#     4  10  21  38  66  99 123 165 224 272 317 376
#     4  10  22  38  67  94 126 172 218 265 323 396
#     4  12  25  44  65  94 140 174 220 275 340 400
#     4  12  25  40  69 103 129 172 224 277 333 392
#     4  10  21  40  63 100 131 160 216 281 319 375
#
# _framework density 21.012138
#
# number of rings (size 3 to 8) (size 9 to 14) (size 15 to 20)
#    0.000    1.000    5.000    2.250    3.500    1.000 
#    0.000    2.500    0.000    0.000    0.000    0.000 
#    0.000    0.000    0.000    0.000    0.000    0.000 
#
# Total GULP energy -396840.694060 kJ/mol
# GULP energy per Si atom -12401.271689 kJ/mol
# Density = 2.096431 g / cm^3
# Si number density = 21.012138 Si / 1000 Ang^3
#
#
#
# Elastic Constant Matrix: (Units=GPa)
#
#
# Indices 1 2 3 4 5 6 
#
# 1 158.5691 38.4260 60.2848 0.0000 12.4410 0.0000
# 2 38.4260 51.1135 46.8325 0.0000 8.8002 0.0000
# 3 60.2848 46.8325 140.5176 0.0000 6.6675 0.0000
# 4 0.0000 0.0000 0.0000 16.0040 0.0000 -4.6631
# 5 12.4410 8.8002 6.6675 0.0000 38.3517 0.0000
# 6 0.0000 0.0000 0.0000 -4.6631 0.0000 23.2525
#
#
#
# Elastic Compliance Matrix: (Units=1/GPa)
#
#
# Indices 1 2 3 4 5 6 
#
# 1 0.008183 -0.003971 -0.002122 0.000000 -0.001374 0.000000
# 2 -0.003971 0.031024 -0.008429 0.000000 -0.004365 0.000000
# 3 -0.002122 -0.008429 0.010801 0.000000 0.000745 0.000000
# 4 0.000000 0.000000 0.000000 0.066362 0.000000 0.013308
# 5 -0.001374 -0.004365 0.000745 0.000000 0.027393 0.000000
# 6 0.000000 0.000000 0.000000 0.013308 0.000000 0.045675
#
#
# Mechanical properties :
#
#
# Convention : Reuss Voigt Hill
#
# Bulk Modulus (GPa) = 47.70078 71.25410 59.47744
# Shear Modulus (GPa) = 22.17582 29.16543 25.67062
#
# Velocity S-wave (km/s) = 3.25219 3.72967 3.49908
# Velocity P-wave (km/s) = 6.07068 7.24788 6.68524
#
# Compressibility (1/GPa) = 0.02096402
#
# Stress axis : x y z
#
# Youngs Moduli (GPa) = 122.19977 32.23264 92.58429
#
# Poissons Ratio (x) = 0.12800 0.19647
# Poissons Ratio (y) = 0.48526 0.78041
# Poissons Ratio (z) = 0.25932 0.27170
#
# Static dielectric constant tensor:
#      x y z
#    x 4.182080 0.000000 0.020580 
#    y 0.000000 3.483220 0.000000 
#    z 0.020580 0.000000 4.070980 
# 
# 
# High freq. dielectric constant tensor:
#      x y z
#    x 1.836930 0.000000 0.001740 
#    y 0.000000 1.789650 0.000000 
#    z 0.001740 0.000000 1.830920 
# 
# From -- ./inp_files/16877.got.cif
#   From: 2010.03.12/outbox.cif.g09.slc.cpg/sg14_9_cif.got.tgz:16877.got - 2010.03.31 13:35:05.
