data_PCOD8126453
_publ_section_title
;
Structure prediction by ZEFSAII (Michael W. Deem and Ramdas Pophale) SiO2 
 PCOD8126453
Probable space group: P 21/C
;
_chemical_formula_sum "Si O2"
_cell_formula_units_Z 20
_cell_length_a 11.462884
_cell_length_b 14.024971
_cell_length_c 12.996272
_cell_angle_alpha 90.000000
_cell_angle_beta 29.487952
_cell_angle_gamma 90.000000
_cell_volume 1028.470962
_symmetry_space_group_name_H-M "P 21/C"
_symmetry_group_IT_number 14
_symmetry_cell_setting 'monoclinic'
loop_
_space_group_symop_operation_xyz
x,y,z
-x,1/2+y,1/2-z
-x,-y,-z
x,1/2-y,1/2+z
loop_
_atom_site_type_symbol
_atom_site_label
_atom_site_fract_x
_atom_site_fract_y
_atom_site_fract_z
Si Si1 0.601524 0.521430 0.534151
Si Si2 0.352804 0.949303 0.427916
Si Si3 0.043365 0.322877 0.688231
Si Si4 0.035654 0.386611 0.254771
Si Si5 0.872785 0.901192 0.092147
O O1 0.500000 0.500000 0.500000
O O2 0.387347 0.524476 0.780892
O O3 0.725345 0.625397 0.441306
O O4 0.786442 0.439380 0.425890
O O5 0.594437 0.917599 0.295142
O O6 0.179388 0.859116 0.574191
O O7 0.248661 0.042083 0.564074
O O8 0.059217 0.209255 0.671949
O O9 0.015662 0.346064 0.589220
O O10 0.064971 0.348933 0.349184
O O11 0.000000 0.000000 0.000000
#
# Coordination Sequence:
#
# PCOD8126453 Si02
#       5
#     4   4   4   4   4
#     4  10  23  41  57  86 128 163 201 249 311 367
#     4  10  21  40  64  84 123 164 202 256 306 349
#     4  10  24  38  60  98 118 159 214 247 303 369
#     4  11  23  38  63  92 121 161 208 254 302 364
#     4  11  20  42  64  90 120 159 211 250 299 368
#
# _framework density 19.446342999999999
#
# number of rings (size 3 to 8) (size 9 to 14) (size 15 to 20)
#    0.000    1.600    6.000    0.600    0.000   11.200 
#    0.000    0.000    0.000    0.000    0.000    0.000 
#    0.000    0.000    0.000    0.000    0.000    0.000 
#
# Total GULP energy -247952.511769 kJ/mol
# GULP energy per Si atom -12397.625588 kJ/mol
# Density = 1.940208 g / cm^3
# Si number density = 19.446343 Si / 1000 Ang^3
#
#
#
# Elastic Constant Matrix: (Units=GPa)
#
#
# Indices 1 2 3 4 5 6 
#
# 1 129.6027 10.9499 45.8231 0.0000 25.9516 0.0000
# 2 10.9499 100.5084 19.1365 0.0000 2.8775 0.0000
# 3 45.8231 19.1365 109.5875 0.0000 12.0562 0.0000
# 4 0.0000 0.0000 0.0000 15.6196 0.0000 10.7762
# 5 25.9516 2.8775 12.0562 0.0000 31.7062 0.0000
# 6 0.0000 0.0000 0.0000 10.7762 0.0000 23.5214
#
#
#
# Elastic Compliance Matrix: (Units=1/GPa)
#
#
# Indices 1 2 3 4 5 6 
#
# 1 0.010418 -0.000259 -0.003523 0.000000 -0.007164 0.000000
# 2 -0.000259 0.010300 -0.001681 0.000000 -0.000083 0.000000
# 3 -0.003523 -0.001681 0.011019 0.000000 -0.001154 0.000000
# 4 0.000000 0.000000 0.000000 0.093611 0.000000 -0.042887
# 5 -0.007164 -0.000083 -0.001154 0.000000 0.037850 0.000000
# 6 0.000000 0.000000 0.000000 -0.042887 0.000000 0.062163
#
#
# Mechanical properties :
#
#
# Convention : Reuss Voigt Hill
#
# Bulk Modulus (GPa) = 48.05241 54.61307 51.33274
# Shear Modulus (GPa) = 20.55727 31.75539 26.15633
#
# Velocity S-wave (km/s) = 3.25488 4.04539 3.67147
# Velocity P-wave (km/s) = 6.23615 7.06861 6.66539
#
# Compressibility (1/GPa) = 0.02081061
#
# Stress axis : x y z
#
# Youngs Moduli (GPa) = 95.98948 97.08633 90.75543
#
# Poissons Ratio (x) = 0.02516 0.31971
# Poissons Ratio (y) = 0.02488 0.15257
# Poissons Ratio (z) = 0.33814 0.16321
#
# Static dielectric constant tensor:
#      x y z
#    x 3.107490 0.000000 0.058040 
#    y 0.000000 3.383150 0.000000 
#    z 0.058040 0.000000 3.647980 
# 
# 
# High freq. dielectric constant tensor:
#      x y z
#    x 1.757240 0.000000 0.008110 
#    y 0.000000 1.746960 0.000000 
#    z 0.008110 0.000000 1.772380 
# 
# From -- ./inp_files/20698.got.cif
#   From: 2010.03.12/outbox.cif.g09.slc.cpg/sg14_11_cif.got.tgz:20698.got - 2010.03.31 13:35:05.
