data_PCOD8126609
_publ_section_title
;
Structure prediction by ZEFSAII (Michael W. Deem and Ramdas Pophale) SiO2 
 PCOD8126609
Probable space group: P 21/C
;
_chemical_formula_sum "Si O2"
_cell_formula_units_Z 20
_cell_length_a 15.411487
_cell_length_b 5.045716
_cell_length_c 12.677903
_cell_angle_alpha 90.000000
_cell_angle_beta 73.976391
_cell_angle_gamma 90.000000
_cell_volume 947.556368
_symmetry_space_group_name_H-M "P 21/C"
_symmetry_group_IT_number 14
_symmetry_cell_setting 'monoclinic'
loop_
_space_group_symop_operation_xyz
x,y,z
-x,1/2+y,1/2-z
-x,-y,-z
x,1/2-y,1/2+z
loop_
_atom_site_type_symbol
_atom_site_label
_atom_site_fract_x
_atom_site_fract_y
_atom_site_fract_z
Si Si1 0.115385 0.012128 0.753931
Si Si2 0.032063 0.982507 0.371791
Si Si3 0.438093 0.614770 0.929601
Si Si4 0.406227 0.148010 0.226468
Si Si5 0.318697 0.847954 0.656119
O O1 0.079753 0.799330 0.848733
O O2 0.216472 0.942062 0.688958
O O3 0.105612 0.296745 0.813216
O O4 0.057417 0.994618 0.667667
O O5 0.000000 0.000000 0.500000
O O6 0.491701 0.865235 0.858396
O O7 0.414196 0.395912 0.849014
O O8 0.500000 0.500000 0.000000
O O9 0.346749 0.687480 0.023344
O O10 0.373359 0.443428 0.209724
O O11 0.336145 0.936927 0.202685
#
# Coordination Sequence:
#
# PCOD8126609 Si02
#       5
#     4   4   4   4   4
#     4  10  22  39  61  92 120 151 203 244 291 364
#     4  10  21  41  64  86 120 162 193 239 302 359
#     4  10  22  41  61  84 118 160 199 244 298 352
#     4  11  23  40  61  87 120 160 203 242 298 360
#     4  11  24  39  60  91 122 153 198 255 297 347
#
# _framework density 21.106922000000001
#
# number of rings (size 3 to 8) (size 9 to 14) (size 15 to 20)
#    0.000    1.600    0.000    4.800    0.000    8.000 
#    0.000    0.000    0.000    0.000    0.000    0.000 
#    0.000    0.000    0.000    0.000    0.000    0.000 
#
# Total GULP energy -247893.523238 kJ/mol
# GULP energy per Si atom -12394.676162 kJ/mol
# Density = 2.105888 g / cm^3
# Si number density = 21.106922 Si / 1000 Ang^3
#
#
#
# Elastic Constant Matrix: (Units=GPa)
#
#
# Indices 1 2 3 4 5 6 
#
# 1 92.3250 2.8730 32.1961 0.0000 -20.1219 0.0000
# 2 2.8730 57.8060 4.8989 0.0000 16.6092 0.0000
# 3 32.1961 4.8989 142.7341 0.0000 1.7716 0.0000
# 4 0.0000 0.0000 0.0000 20.5790 0.0000 5.8085
# 5 -20.1219 16.6092 1.7716 0.0000 18.0586 0.0000
# 6 0.0000 0.0000 0.0000 5.8085 0.0000 25.6917
#
#
#
# Elastic Compliance Matrix: (Units=1/GPa)
#
#
# Indices 1 2 3 4 5 6 
#
# 1 0.019334 -0.009380 -0.004419 0.000000 0.030603 0.000000
# 2 -0.009380 0.028105 0.001604 0.000000 -0.036457 0.000000
# 3 -0.004419 0.001604 0.008037 0.000000 -0.007187 0.000000
# 4 0.000000 0.000000 0.000000 0.051905 0.000000 -0.011735
# 5 0.030603 -0.036457 -0.007187 0.000000 0.123711 0.000000
# 6 0.000000 0.000000 0.000000 -0.011735 0.000000 0.041576
#
#
# Mechanical properties :
#
#
# Convention : Reuss Voigt Hill
#
# Bulk Modulus (GPa) = 32.16907 41.42233 36.79570
# Shear Modulus (GPa) = 16.26436 29.72569 22.99503
#
# Velocity S-wave (km/s) = 2.77893 3.75685 3.30427
# Velocity P-wave (km/s) = 5.05674 6.20373 5.65937
#
# Compressibility (1/GPa) = 0.03108576
#
# Stress axis : x y z
#
# Youngs Moduli (GPa) = 51.72199 35.58129 124.42462
#
# Poissons Ratio (x) = 0.33374 0.54984
# Poissons Ratio (y) = 0.48513 -0.19953
# Poissons Ratio (z) = 0.22856 -0.05706
#
# Static dielectric constant tensor:
#      x y z
#    x 3.902230 0.000000 -0.250070 
#    y 0.000000 4.028660 0.000000 
#    z -0.250070 0.000000 4.225480 
# 
# 
# High freq. dielectric constant tensor:
#      x y z
#    x 1.819110 0.000000 -0.001680 
#    y 0.000000 1.833120 0.000000 
#    z -0.001680 0.000000 1.837480 
# 
# From -- ./inp_files/31072.got.cif
#   From: 2010.03.12/outbox.cif.g09.slc.cpg/sg14_16_cif.got.tgz:31072.got - 2010.03.31 13:35:05.
