data_PCOD8126062
_publ_section_title
;
Structure prediction by ZEFSAII (Michael W. Deem and Ramdas Pophale) SiO2 
 PCOD8126062
Probable space group: P 21/C
;
_chemical_formula_sum "Si O2"
_cell_formula_units_Z 32
_cell_length_a 11.613041
_cell_length_b 9.262342
_cell_length_c 13.639435
_cell_angle_alpha 90.000000
_cell_angle_beta 101.741125
_cell_angle_gamma 90.000000
_cell_volume 1436.415236
_symmetry_space_group_name_H-M "P 21/C"
_symmetry_group_IT_number 14
_symmetry_cell_setting 'monoclinic'
loop_
_space_group_symop_operation_xyz
x,y,z
-x,1/2+y,1/2-z
-x,-y,-z
x,1/2-y,1/2+z
loop_
_atom_site_type_symbol
_atom_site_label
_atom_site_fract_x
_atom_site_fract_y
_atom_site_fract_z
Si Si1 0.945161 0.388623 0.724775
Si Si2 0.579838 0.249823 0.430530
Si Si3 0.622911 0.275399 0.214330
Si Si4 0.132358 0.902041 0.206631
Si Si5 0.590303 0.923578 0.423774
Si Si6 0.273961 0.026401 0.750535
Si Si7 0.802662 0.414137 0.501850
Si Si8 0.658573 0.828518 0.053289
O O1 0.950530 0.228844 0.770409
O O2 0.863890 0.486572 0.782593
O O3 0.892908 0.395101 0.605636
O O4 0.077009 0.452371 0.742904
O O5 0.567184 0.271295 0.312219
O O6 0.710872 0.281521 0.490367
O O7 0.482978 0.354074 0.463251
O O8 0.552089 0.082396 0.455033
O O9 0.734542 0.383525 0.232930
O O10 0.526354 0.330976 0.121691
O O11 0.663326 0.114898 0.189490
O O12 0.126435 0.910123 0.087548
O O13 0.674015 0.940255 0.345009
O O14 0.671587 0.834767 0.514392
O O15 0.288823 0.159975 0.827769
O O16 0.724720 0.560731 0.492705
#
# Coordination Sequence:
#
# PCOD8126062 Si02
#       8
#     4   4   4   4   4   4   4   4
#     4  10  22  44  69  84 121 158 203 262 305 363
#     4  10  21  38  55  90 128 161 200 241 306 362
#     4   9  20  37  62  84 127 163 193 254 303 357
#     4  10  22  43  63  93 115 161 211 251 305 358
#     4  11  22  36  60  92 133 156 197 260 293 355
#     4   9  21  40  57  90 122 164 203 242 314 357
#     4  10  23  41  65  88 124 162 202 247 309 373
#     4  11  22  36  60  89 122 168 202 233 294 379
#
# _framework density 22.277681000000001
#
# number of rings (size 3 to 8) (size 9 to 14) (size 15 to 20)
#    0.000    2.000    1.250    1.875    7.000    2.000 
#    4.500    0.625    0.000    0.000    0.000    0.000 
#    0.000    0.000    0.000    0.000    0.000    0.000 
#
# Total GULP energy -396715.128015 kJ/mol
# GULP energy per Si atom -12397.347750 kJ/mol
# Density = 2.222698 g / cm^3
# Si number density = 22.277681 Si / 1000 Ang^3
#
#
#
# Elastic Constant Matrix: (Units=GPa)
#
#
# Indices 1 2 3 4 5 6 
#
# 1 63.0217 28.7939 17.8267 0.0000 -19.5628 0.0000
# 2 28.7939 101.5460 33.0154 0.0000 -7.8787 0.0000
# 3 17.8267 33.0154 74.1111 0.0000 -8.6985 0.0000
# 4 0.0000 0.0000 0.0000 35.9047 0.0000 -5.0875
# 5 -19.5628 -7.8787 -8.6985 0.0000 26.2139 0.0000
# 6 0.0000 0.0000 0.0000 -5.0875 0.0000 38.9625
#
#
#
# Elastic Compliance Matrix: (Units=1/GPa)
#
#
# Indices 1 2 3 4 5 6 
#
# 1 0.023349 -0.004896 -0.001626 0.000000 0.015414 0.000000
# 2 -0.004896 0.012627 -0.004611 0.000000 -0.001389 0.000000
# 3 -0.001626 -0.004611 0.016267 0.000000 0.002799 0.000000
# 4 0.000000 0.000000 0.000000 0.028376 0.000000 0.003705
# 5 0.015414 -0.001389 0.002799 0.000000 0.050162 0.000000
# 6 0.000000 0.000000 0.000000 0.003705 0.000000 0.026150
#
#
# Mechanical properties :
#
#
# Convention : Reuss Voigt Hill
#
# Bulk Modulus (GPa) = 33.35817 44.21677 38.78747
# Shear Modulus (GPa) = 26.42851 30.81907 28.62379
#
# Velocity S-wave (km/s) = 3.44804 3.72345 3.58839
# Velocity P-wave (km/s) = 5.55502 6.19488 5.88366
#
# Compressibility (1/GPa) = 0.02997766
#
# Stress axis : x y z
#
# Youngs Moduli (GPa) = 42.82804 79.19303 61.47492
#
# Poissons Ratio (x) = 0.38774 0.09997
# Poissons Ratio (y) = 0.20969 0.28343
# Poissons Ratio (z) = 0.06964 0.36512
#
# Static dielectric constant tensor:
#      x y z
#    x 3.930290 0.000000 -0.380460 
#    y 0.000000 4.003370 0.000000 
#    z -0.380460 0.000000 4.009780 
# 
# 
# High freq. dielectric constant tensor:
#      x y z
#    x 1.870200 0.000000 -0.032060 
#    y 0.000000 1.868390 0.000000 
#    z -0.032060 0.000000 1.884530 
# 
# From -- ./inp_files/43726.got.cif
#   From: 2010.03.12/outbox.cif.g09.slc.cpg/sg14_22_cif.got.tgz:43726.got - 2010.03.31 13:35:05.
