data_PCOD8126160
_publ_section_title
;
Structure prediction by ZEFSAII (Michael W. Deem and Ramdas Pophale) SiO2 
 PCOD8126160
Probable space group: P 21/C
;
_chemical_formula_sum "Si O2"
_cell_formula_units_Z 24
_cell_length_a 9.174894
_cell_length_b 15.726646
_cell_length_c 16.662077
_cell_angle_alpha 90.000000
_cell_angle_beta 32.059037
_cell_angle_gamma 90.000000
_cell_volume 1276.119454
_symmetry_space_group_name_H-M "P 21/C"
_symmetry_group_IT_number 14
_symmetry_cell_setting 'monoclinic'
loop_
_space_group_symop_operation_xyz
x,y,z
-x,1/2+y,1/2-z
-x,-y,-z
x,1/2-y,1/2+z
loop_
_atom_site_type_symbol
_atom_site_label
_atom_site_fract_x
_atom_site_fract_y
_atom_site_fract_z
Si Si1 0.642432 0.321749 0.265558
Si Si2 0.193787 0.577659 0.389925
Si Si3 0.933554 0.689783 0.383716
Si Si4 0.312213 0.738994 0.426488
Si Si5 0.242534 0.009848 0.324611
Si Si6 0.136731 0.332723 0.767421
O O1 0.350412 0.293220 0.437283
O O2 0.652950 0.297332 0.167631
O O3 0.678100 0.422650 0.256639
O O4 0.889978 0.276697 0.198295
O O5 0.164147 0.650432 0.471847
O O6 0.506239 0.546463 0.240491
O O7 0.000000 0.500000 0.500000
O O8 0.112074 0.615818 0.342145
O O9 0.871917 0.658313 0.323672
O O10 0.607488 0.724703 0.327078
O O11 0.136737 0.787385 0.574462
O O12 0.157793 0.073202 0.293414
O O13 0.000000 0.000000 0.500000
#
# Coordination Sequence:
#
# PCOD8126160 Si02
#       6
#     4   4   4   4   4   4
#     4  11  22  41  65  88 121 167 204 247 301 371
#     4  10  21  40  62  87 118 162 205 242 297 370
#     4  11  24  40  63  91 126 156 202 254 311 358
#     4  10  21  38  64  83 120 162 202 241 298 371
#     4  11  23  40  65  90 121 161 211 250 295 364
#     4  11  23  41  60  94 123 156 203 257 308 357
#
# _framework density 18.807017999999999
#
# number of rings (size 3 to 8) (size 9 to 14) (size 15 to 20)
#    0.000    1.333    3.333    3.000    4.667    0.667 
#    3.000    0.833    0.000    0.000    0.000    0.000 
#    0.000    0.000    0.000    0.000    0.000    0.000 
#
# Total GULP energy -297711.984644 kJ/mol
# GULP energy per Si atom -12404.666027 kJ/mol
# Density = 1.876421 g / cm^3
# Si number density = 18.807018 Si / 1000 Ang^3
#
#
#
# Elastic Constant Matrix: (Units=GPa)
#
#
# Indices 1 2 3 4 5 6 
#
# 1 60.1675 6.1861 3.9157 0.0000 0.3846 0.0000
# 2 6.1861 104.9592 25.8635 0.0000 -9.7148 0.0000
# 3 3.9157 25.8635 95.8020 0.0000 -7.9495 0.0000
# 4 0.0000 0.0000 0.0000 33.0225 0.0000 -4.8902
# 5 0.3846 -9.7148 -7.9495 0.0000 26.7983 0.0000
# 6 0.0000 0.0000 0.0000 -4.8902 0.0000 21.2952
#
#
#
# Elastic Compliance Matrix: (Units=1/GPa)
#
#
# Indices 1 2 3 4 5 6 
#
# 1 0.016753 -0.000933 -0.000493 0.000000 -0.000725 0.000000
# 2 -0.000933 0.010492 -0.002540 0.000000 0.003063 0.000000
# 3 -0.000493 -0.002540 0.011348 0.000000 0.002452 0.000000
# 4 0.000000 0.000000 0.000000 0.031348 0.000000 0.007199
# 5 -0.000725 0.003063 0.002452 0.000000 0.039164 0.000000
# 6 0.000000 0.000000 0.000000 0.007199 0.000000 0.048612
#
#
# Mechanical properties :
#
#
# Convention : Reuss Voigt Hill
#
# Bulk Modulus (GPa) = 32.61562 36.98435 34.79999
# Shear Modulus (GPa) = 28.43019 31.22078 29.82548
#
# Velocity S-wave (km/s) = 3.89225 4.07880 3.98662
# Velocity P-wave (km/s) = 6.13020 6.47225 6.30355
#
# Compressibility (1/GPa) = 0.03066015
#
# Stress axis : x y z
#
# Youngs Moduli (GPa) = 59.69114 95.31092 88.12431
#
# Poissons Ratio (x) = 0.08892 0.04345
# Poissons Ratio (y) = 0.05569 0.22385
# Poissons Ratio (z) = 0.02943 0.24211
#
# Static dielectric constant tensor:
#      x y z
#    x 3.442800 0.000000 -0.185370 
#    y 0.000000 3.680780 0.000000 
#    z -0.185370 0.000000 3.500610 
# 
# 
# High freq. dielectric constant tensor:
#      x y z
#    x 1.726320 0.000000 -0.015030 
#    y 0.000000 1.740580 0.000000 
#    z -0.015030 0.000000 1.740980 
# 
# From -- ./inp_files/8434.got.cif
#   From: 2010.03.12/outbox.cif.g09.slc.cpg/sg14_5_cif.got.tgz:8434.got - 2010.03.31 13:35:05.
