data_PCOD8126807
_publ_section_title
;
Structure prediction by ZEFSAII (Michael W. Deem and Ramdas Pophale) SiO2 
 PCOD8126807
Probable space group: P 21/C
;
_chemical_formula_sum "Si O2"
_cell_formula_units_Z 28
_cell_length_a 8.644988
_cell_length_b 10.250891
_cell_length_c 14.200131
_cell_angle_alpha 90.000000
_cell_angle_beta 111.222030
_cell_angle_gamma 90.000000
_cell_volume 1173.060272
_symmetry_space_group_name_H-M "P 21/C"
_symmetry_group_IT_number 14
_symmetry_cell_setting 'monoclinic'
loop_
_space_group_symop_operation_xyz
x,y,z
-x,1/2+y,1/2-z
-x,-y,-z
x,1/2-y,1/2+z
loop_
_atom_site_type_symbol
_atom_site_label
_atom_site_fract_x
_atom_site_fract_y
_atom_site_fract_z
Si Si1 0.614426 0.430957 0.808686
Si Si2 0.439852 0.206532 0.653278
Si Si3 0.095960 0.993295 0.751078
Si Si4 0.893197 0.687294 0.471880
Si Si5 0.214733 0.577351 0.473450
Si Si6 0.132155 0.236057 0.325748
Si Si7 0.509227 0.273518 0.951392
O O1 0.533107 0.325212 0.722417
O O2 0.521031 0.571354 0.783684
O O3 0.805656 0.450978 0.820845
O O4 0.610804 0.383648 0.916557
O O5 0.240788 0.227937 0.615125
O O6 0.496372 0.189258 0.557666
O O7 0.217300 0.970518 0.866673
O O8 0.930605 0.904887 0.724678
O O9 0.051230 0.147692 0.744372
O O10 0.812419 0.543517 0.462806
O O11 0.929482 0.748672 0.581279
O O12 0.066306 0.682318 0.454382
O O13 0.392886 0.637692 0.536851
O O14 0.331192 0.242295 0.362008
#
# Coordination Sequence:
#
# PCOD8126807 Si02
#       7
#     4   4   4   4   4   4   4
#     4  12  26  44  70 105 143 187 233 294 363 413
#     4  11  26  46  70 107 142 187 240 294 354 432
#     4  11  24  43  67 106 135 184 235 292 350 422
#     4   9  22  42  69  96 142 185 233 284 357 416
#     4  10  21  42  71 100 136 185 234 291 346 422
#     4  10  24  44  69 100 139 182 237 290 355 417
#     4  11  24  47  73 103 144 185 239 293 353 431
#
# _framework density 23.869192999999999
#
# number of rings (size 3 to 8) (size 9 to 14) (size 15 to 20)
#    0.000    1.429    1.429    2.143    8.000    2.857 
#    5.143    3.571    0.000    0.000    0.000    0.000 
#    0.000    0.000    0.000    0.000    0.000    0.000 
#
# Total GULP energy -347221.261835 kJ/mol
# GULP energy per Si atom -12400.759351 kJ/mol
# Density = 2.381487 g / cm^3
# Si number density = 23.869193 Si / 1000 Ang^3
#
#
#
# Elastic Constant Matrix: (Units=GPa)
#
#
# Indices 1 2 3 4 5 6 
#
# 1 90.6363 27.2610 16.1415 0.0000 -2.3001 0.0000
# 2 27.2610 126.3949 35.5390 0.0000 6.3615 0.0000
# 3 16.1415 35.5390 56.2436 0.0000 3.4920 0.0000
# 4 0.0000 0.0000 0.0000 36.5716 0.0000 5.0150
# 5 -2.3001 6.3615 3.4920 0.0000 21.6491 0.0000
# 6 0.0000 0.0000 0.0000 5.0150 0.0000 29.9309
#
#
#
# Elastic Compliance Matrix: (Units=1/GPa)
#
#
# Indices 1 2 3 4 5 6 
#
# 1 0.012128 -0.002082 -0.002306 0.000000 0.002272 0.000000
# 2 -0.002082 0.010053 -0.005614 0.000000 -0.002270 0.000000
# 3 -0.002306 -0.005614 0.022124 0.000000 -0.002164 0.000000
# 4 0.000000 0.000000 0.000000 0.027987 0.000000 -0.004689
# 5 0.002272 -0.002270 -0.002164 0.000000 0.047449 0.000000
# 6 0.000000 0.000000 0.000000 -0.004689 0.000000 0.034196
#
#
# Mechanical properties :
#
#
# Convention : Reuss Voigt Hill
#
# Bulk Modulus (GPa) = 41.15163 47.90641 44.52902
# Shear Modulus (GPa) = 27.46647 30.58588 29.02617
#
# Velocity S-wave (km/s) = 3.39589 3.58354 3.49098
# Velocity P-wave (km/s) = 5.71437 6.10216 5.91144
#
# Compressibility (1/GPa) = 0.02430038
#
# Stress axis : x y z
#
# Youngs Moduli (GPa) = 82.45663 99.46803 45.20077
#
# Poissons Ratio (x) = 0.20705 0.10425
# Poissons Ratio (y) = 0.17164 0.25377
# Poissons Ratio (z) = 0.19017 0.55844
#
# Static dielectric constant tensor:
#      x y z
#    x 4.310810 0.000000 -0.295230 
#    y 0.000000 4.386230 0.000000 
#    z -0.295230 0.000000 4.070150 
# 
# 
# High freq. dielectric constant tensor:
#      x y z
#    x 1.946140 0.000000 -0.023000 
#    y 0.000000 1.949940 0.000000 
#    z -0.023000 0.000000 1.933600 
# 
# From -- ./inp_files/55238.got.cif
#   From: 2010.03.12/outbox.cif.g09.slc.cpg/sg14_28_cif.got.tgz:55238.got - 2010.03.31 13:35:05.
