data_PCOD8126854
_publ_section_title
;
Structure prediction by ZEFSAII (Michael W. Deem and Ramdas Pophale) SiO2 
 PCOD8126854
Probable space group: P 21/C
;
_chemical_formula_sum "Si O2"
_cell_formula_units_Z 32
_cell_length_a 17.426340
_cell_length_b 11.879851
_cell_length_c 13.859991
_cell_angle_alpha 90.000000
_cell_angle_beta 149.270387
_cell_angle_gamma 90.000000
_cell_volume 1466.189811
_symmetry_space_group_name_H-M "P 21/C"
_symmetry_group_IT_number 14
_symmetry_cell_setting 'monoclinic'
loop_
_space_group_symop_operation_xyz
x,y,z
-x,1/2+y,1/2-z
-x,-y,-z
x,1/2-y,1/2+z
loop_
_atom_site_type_symbol
_atom_site_label
_atom_site_fract_x
_atom_site_fract_y
_atom_site_fract_z
Si Si1 0.209803 0.172842 0.935680
Si Si2 0.555179 0.271605 0.098470
Si Si3 0.240752 0.598629 0.817466
Si Si4 0.237830 0.157410 0.310287
Si Si5 0.043744 0.243107 0.940578
Si Si6 0.444974 0.926747 0.027481
Si Si7 0.452369 0.891812 0.731705
Si Si8 0.898077 0.030893 0.300741
O O1 0.196588 0.294100 0.870402
O O2 0.137399 0.180902 0.960767
O O3 0.113126 0.075194 0.780847
O O4 0.384633 0.143237 0.129586
O O5 0.682147 0.358812 0.199286
O O6 0.511496 0.200541 0.954028
O O7 0.605284 0.189971 0.242550
O O8 0.415487 0.343751 0.982928
O O9 0.185881 0.470736 0.743361
O O10 0.094540 0.669899 0.674871
O O11 0.341589 0.611696 0.022257
O O12 0.157997 0.247180 0.153527
O O13 0.983857 0.365007 0.841930
O O14 0.265837 0.930297 0.842783
O O15 0.500000 0.000000 0.000000
O O16 0.530531 0.977453 0.213611
O O17 0.000000 0.000000 0.500000
#
# Coordination Sequence:
#
# PCOD8126854 Si02
#       8
#     4   4   4   4   4   4   4   4
#     4  10  24  45  66  99 130 174 226 266 330 389
#     4  10  21  43  67  98 126 170 226 274 324 385
#     4  12  25  42  64 100 134 176 216 265 342 389
#     4  11  25  46  66  93 140 179 210 266 336 400
#     4  12  26  43  66  99 135 173 218 272 325 397
#     4   9  19  38  66  98 122 160 221 280 318 373
#     4   9  22  42  66  96 131 171 223 276 321 387
#     4  11  22  44  72  93 129 173 222 278 322 384
#
# _framework density 21.825275999999999
#
# number of rings (size 3 to 8) (size 9 to 14) (size 15 to 20)
#    0.000    1.500    2.500    2.250    1.750    6.000 
#    2.250    0.000    0.000    0.000    0.000    0.000 
#    0.000    0.000    0.000    0.000    0.000    0.000 
#
# Total GULP energy -396606.926438 kJ/mol
# GULP energy per Si atom -12393.966451 kJ/mol
# Density = 2.177560 g / cm^3
# Si number density = 21.825276 Si / 1000 Ang^3
#
#
#
# Elastic Constant Matrix: (Units=GPa)
#
#
# Indices 1 2 3 4 5 6 
#
# 1 88.5260 9.2813 23.5400 0.0000 6.0564 0.0000
# 2 9.2813 97.0009 -7.6906 0.0000 6.5366 0.0000
# 3 23.5400 -7.6906 43.1425 0.0000 -6.7170 0.0000
# 4 0.0000 0.0000 0.0000 25.6929 0.0000 -5.0041
# 5 6.0564 6.5366 -6.7170 0.0000 17.7379 0.0000
# 6 0.0000 0.0000 0.0000 -5.0041 0.0000 18.8795
#
#
#
# Elastic Compliance Matrix: (Units=1/GPa)
#
#
# Indices 1 2 3 4 5 6 
#
# 1 0.014519 -0.001603 -0.009444 0.000000 -0.007943 0.000000
# 2 -0.001603 0.010824 0.002410 0.000000 -0.002529 0.000000
# 3 -0.009444 0.002410 0.030950 0.000000 0.014057 0.000000
# 4 0.000000 0.000000 0.000000 0.041040 0.000000 0.010878
# 5 -0.007943 -0.002529 0.014057 0.000000 0.065343 0.000000
# 6 0.000000 0.000000 0.000000 0.010878 0.000000 0.055851
#
#
# Mechanical properties :
#
#
# Convention : Reuss Voigt Hill
#
# Bulk Modulus (GPa) = 25.62811 30.99231 28.31021
# Shear Modulus (GPa) = 20.09585 26.03132 23.06359
#
# Velocity S-wave (km/s) = 3.03770 3.45732 3.25428
# Velocity P-wave (km/s) = 4.90626 5.49258 5.20767
#
# Compressibility (1/GPa) = 0.03901965
#
# Stress axis : x y z
#
# Youngs Moduli (GPa) = 68.87559 92.38693 32.30977
#
# Poissons Ratio (x) = 0.14807 0.30515
# Poissons Ratio (y) = 0.11039 -0.07788
# Poissons Ratio (z) = 0.65049 -0.22268
#
# Static dielectric constant tensor:
#      x y z
#    x 4.116620 0.000000 -0.039920 
#    y 0.000000 10.024830 0.000000 
#    z -0.039920 0.000000 4.029560 
# 
# 
# High freq. dielectric constant tensor:
#      x y z
#    x 1.862600 0.000000 0.007930 
#    y 0.000000 1.869290 0.000000 
#    z 0.007930 0.000000 1.847860 
# 
# From -- ./inp_files/48945.got.cif
#   From: 2010.03.12/outbox.cif.g09.slc.cpg/sg14_25_cif.got.tgz:48945.got - 2010.03.31 13:35:05.
