data_PCOD8126637
_publ_section_title
;
Structure prediction by ZEFSAII (Michael W. Deem and Ramdas Pophale) SiO2 
 PCOD8126637
Probable space group: P 21/C
;
_chemical_formula_sum "Si O2"
_cell_formula_units_Z 24
_cell_length_a 6.000949
_cell_length_b 14.198040
_cell_length_c 13.959773
_cell_angle_alpha 90.000000
_cell_angle_beta 67.503485
_cell_angle_gamma 90.000000
_cell_volume 1098.886845
_symmetry_space_group_name_H-M "P 21/C"
_symmetry_group_IT_number 14
_symmetry_cell_setting 'monoclinic'
loop_
_space_group_symop_operation_xyz
x,y,z
-x,1/2+y,1/2-z
-x,-y,-z
x,1/2-y,1/2+z
loop_
_atom_site_type_symbol
_atom_site_label
_atom_site_fract_x
_atom_site_fract_y
_atom_site_fract_z
Si Si1 0.121720 0.555677 0.267979
Si Si2 0.810236 0.637041 0.645383
Si Si3 0.004629 0.916808 0.574176
Si Si4 0.349650 0.406467 0.540785
Si Si5 0.524376 0.811427 0.685060
Si Si6 0.715476 0.240849 0.962393
O O1 0.227480 0.458771 0.291219
O O2 0.129587 0.548550 0.151744
O O3 0.297738 0.639919 0.276311
O O4 0.852724 0.577631 0.346564
O O5 0.775681 0.621940 0.537902
O O6 0.620705 0.714602 0.718262
O O7 0.081170 0.673700 0.618069
O O8 0.151661 0.827176 0.504128
O O9 0.734429 0.887964 0.643528
O O10 0.000000 0.000000 0.500000
O O11 0.500000 0.500000 0.500000
O O12 0.529864 0.325102 0.552828
O O13 0.446121 0.786501 0.591827
#
# Coordination Sequence:
#
# PCOD8126637 Si02
#       6
#     4   4   4   4   4   4
#     4  11  23  38  67 100 127 174 220 262 333 393
#     4  10  21  41  65  92 132 169 208 278 322 388
#     4  10  23  45  66  87 133 177 223 268 316 388
#     4  11  22  37  68  94 136 164 211 271 342 392
#     4   9  22  42  63  90 135 167 222 269 316 388
#     4   9  20  41  62  93 130 166 217 271 324 382
#
# _framework density 21.840281999999998
#
# number of rings (size 3 to 8) (size 9 to 14) (size 15 to 20)
#    0.000    2.000    1.667    0.500    2.333    2.667 
#    0.000   28.333    0.000    0.000    0.000    0.000 
#    0.000    0.000    0.000    0.000    0.000    0.000 
#
# Total GULP energy -297454.841330 kJ/mol
# GULP energy per Si atom -12393.951722 kJ/mol
# Density = 2.179057 g / cm^3
# Si number density = 21.840282 Si / 1000 Ang^3
#
#
#
# Elastic Constant Matrix: (Units=GPa)
#
#
# Indices 1 2 3 4 5 6 
#
# 1 93.9242 56.0647 33.6452 0.0000 -16.7150 0.0000
# 2 56.0647 173.5633 67.2121 0.0000 -22.8785 0.0000
# 3 33.6452 67.2121 75.7884 0.0000 -14.3781 0.0000
# 4 0.0000 0.0000 0.0000 35.3009 0.0000 0.0719
# 5 -16.7150 -22.8785 -14.3781 0.0000 39.0429 0.0000
# 6 0.0000 0.0000 0.0000 0.0719 0.0000 49.5607
#
#
#
# Elastic Compliance Matrix: (Units=1/GPa)
#
#
# Indices 1 2 3 4 5 6 
#
# 1 0.014056 -0.002953 -0.003019 0.000000 0.003176 0.000000
# 2 -0.002953 0.009619 -0.006870 0.000000 0.001842 0.000000
# 3 -0.003019 -0.006870 0.021092 0.000000 0.002449 0.000000
# 4 0.000000 0.000000 0.000000 0.028328 0.000000 -0.000041
# 5 0.003176 0.001842 0.002449 0.000000 0.028954 0.000000
# 6 0.000000 0.000000 0.000000 -0.000041 0.000000 0.020177
#
#
# Mechanical properties :
#
#
# Convention : Reuss Voigt Hill
#
# Bulk Modulus (GPa) = 52.40101 73.01334 62.70718
# Shear Modulus (GPa) = 32.41080 37.20450 34.80765
#
# Velocity S-wave (km/s) = 3.85644 4.13180 3.99649
# Velocity P-wave (km/s) = 6.62378 7.50104 7.07601
#
# Compressibility (1/GPa) = 0.01908360
#
# Stress axis : x y z
#
# Youngs Moduli (GPa) = 71.14418 103.96609 47.41164
#
# Poissons Ratio (x) = 0.30698 0.14313
# Poissons Ratio (y) = 0.21007 0.32571
# Poissons Ratio (z) = 0.21478 0.71422
#
# Static dielectric constant tensor:
#      x y z
#    x 4.373470 0.000000 -0.195930 
#    y 0.000000 4.460020 0.000000 
#    z -0.195930 0.000000 3.538670 
# 
# 
# High freq. dielectric constant tensor:
#      x y z
#    x 1.884000 0.000000 -0.011460 
#    y 0.000000 1.877780 0.000000 
#    z -0.011460 0.000000 1.812440 
# 
# From -- ./inp_files/37253.got.cif
#   From: 2010.03.12/outbox.cif.g09.slc.cpg/sg14_19_cif.got.tgz:37253.got - 2010.03.31 13:35:05.
