data_PCOD8126121
_publ_section_title
;
Structure prediction by ZEFSAII (Michael W. Deem and Ramdas Pophale) SiO2 
 PCOD8126121
Probable space group: P 21/C
;
_chemical_formula_sum "Si O2"
_cell_formula_units_Z 32
_cell_length_a 23.910995
_cell_length_b 14.355229
_cell_length_c 8.729994
_cell_angle_alpha 90.000000
_cell_angle_beta 148.145664
_cell_angle_gamma 90.000000
_cell_volume 1581.464557
_symmetry_space_group_name_H-M "P 21/C"
_symmetry_group_IT_number 14
_symmetry_cell_setting 'monoclinic'
loop_
_space_group_symop_operation_xyz
x,y,z
-x,1/2+y,1/2-z
-x,-y,-z
x,1/2-y,1/2+z
loop_
_atom_site_type_symbol
_atom_site_label
_atom_site_fract_x
_atom_site_fract_y
_atom_site_fract_z
Si Si1 0.938341 0.454133 0.176334
Si Si2 0.430028 0.685032 0.618263
Si Si3 0.113523 0.688660 0.183073
Si Si4 0.246870 0.690335 0.786237
Si Si5 0.943478 0.851452 0.805267
Si Si6 0.424783 0.276214 0.779766
Si Si7 0.293154 0.342957 0.203629
Si Si8 0.731293 0.052512 0.395712
O O1 0.955825 0.566126 0.204728
O O2 0.037680 0.402449 0.487327
O O3 0.923919 0.410284 0.974206
O O4 0.840135 0.429912 0.059220
O O5 0.356550 0.777656 0.463130
O O6 0.508150 0.700203 0.657454
O O7 0.361303 0.594540 0.424097
O O8 0.496655 0.665672 0.927675
O O9 0.153017 0.670820 0.446717
O O10 0.212930 0.725390 0.317694
O O11 0.021259 0.765669 0.957364
O O12 0.264248 0.597927 0.925948
O O13 0.825234 0.810338 0.527750
O O14 0.365106 0.344455 0.523711
O O15 0.337258 0.225387 0.678418
O O16 0.292653 0.445347 0.132158
#
# Coordination Sequence:
#
# PCOD8126121 Si02
#       8
#     4   4   4   4   4   4   4   4
#     4  10  21  38  61  93 123 157 206 247 304 377
#     4  11  19  37  65  87 122 154 200 262 312 351
#     4  12  20  36  63  94 124 159 201 248 314 374
#     4  12  20  35  63  98 122 152 195 258 319 365
#     4  10  21  38  64  84 127 167 197 247 306 361
#     4  10  23  42  58  88 120 165 213 247 298 379
#     4  10  25  42  61  84 125 167 209 248 298 370
#     4  11  21  40  65  95 123 155 199 264 315 356
#
# _framework density 20.234408999999999
#
# number of rings (size 3 to 8) (size 9 to 14) (size 15 to 20)
#    0.000    1.250    6.250    0.000    1.750    1.000 
#    0.000    5.625    0.000    0.000    0.000    0.000 
#    0.000    0.000    0.000    0.000    0.000    0.000 
#
# Total GULP energy -396808.288863 kJ/mol
# GULP energy per Si atom -12400.259027 kJ/mol
# Density = 2.018835 g / cm^3
# Si number density = 20.234409 Si / 1000 Ang^3
#
#
#
# Elastic Constant Matrix: (Units=GPa)
#
#
# Indices 1 2 3 4 5 6 
#
# 1 64.0586 28.4247 39.3438 0.0000 -3.9267 0.0000
# 2 28.4247 90.3691 41.6465 0.0000 -4.6778 0.0000
# 3 39.3438 41.6465 120.6123 0.0000 -3.6226 0.0000
# 4 0.0000 0.0000 0.0000 35.0134 0.0000 -4.7315
# 5 -3.9267 -4.6778 -3.6226 0.0000 34.8081 0.0000
# 6 0.0000 0.0000 0.0000 -4.7315 0.0000 26.5171
#
#
#
# Elastic Compliance Matrix: (Units=1/GPa)
#
#
# Indices 1 2 3 4 5 6 
#
# 1 0.020746 -0.003995 -0.005350 0.000000 0.001247 0.000000
# 2 -0.003995 0.013988 -0.003495 0.000000 0.001065 0.000000
# 3 -0.005350 -0.003495 0.011246 0.000000 0.000097 0.000000
# 4 0.000000 0.000000 0.000000 0.029266 0.000000 0.005222
# 5 0.001247 0.001065 0.000097 0.000000 0.029023 0.000000
# 6 0.000000 0.000000 0.000000 0.005222 0.000000 0.038643
#
#
# Mechanical properties :
#
#
# Convention : Reuss Voigt Hill
#
# Bulk Modulus (GPa) = 49.26261 54.87445 52.06853
# Shear Modulus (GPa) = 28.51285 30.30939 29.41112
#
# Velocity S-wave (km/s) = 3.75791 3.87449 3.81664
# Velocity P-wave (km/s) = 6.57480 6.86977 6.72390
#
# Compressibility (1/GPa) = 0.02029937
#
# Stress axis : x y z
#
# Youngs Moduli (GPa) = 48.20197 71.48945 88.92073
#
# Poissons Ratio (x) = 0.28561 0.47576
# Poissons Ratio (y) = 0.19258 0.31076
# Poissons Ratio (z) = 0.25790 0.24984
#
# Static dielectric constant tensor:
#      x y z
#    x 3.576080 0.000000 0.049100 
#    y 0.000000 3.479320 0.000000 
#    z 0.049100 0.000000 3.999120 
# 
# 
# High freq. dielectric constant tensor:
#      x y z
#    x 1.780720 0.000000 0.004100 
#    y 0.000000 1.766540 0.000000 
#    z 0.004100 0.000000 1.810210 
# 
# From -- ./inp_files/19844.got.cif
#   From: 2010.03.12/outbox.cif.g09.slc.cpg/sg14_10_cif.got.tgz:19844.got - 2010.03.31 13:35:05.
