data_PCOD8126330
_publ_section_title
;
Structure prediction by ZEFSAII (Michael W. Deem and Ramdas Pophale) SiO2 
 PCOD8126330
Probable space group: P 21/C
;
_chemical_formula_sum "Si O2"
_cell_formula_units_Z 28
_cell_length_a 30.960507
_cell_length_b 7.589076
_cell_length_c 29.732583
_cell_angle_alpha 90.000000
_cell_angle_beta 9.384693
_cell_angle_gamma 90.000000
_cell_volume 1139.156518
_symmetry_space_group_name_H-M "P 21/C"
_symmetry_group_IT_number 14
_symmetry_cell_setting 'monoclinic'
loop_
_space_group_symop_operation_xyz
x,y,z
-x,1/2+y,1/2-z
-x,-y,-z
x,1/2-y,1/2+z
loop_
_atom_site_type_symbol
_atom_site_label
_atom_site_fract_x
_atom_site_fract_y
_atom_site_fract_z
Si Si1 0.808102 0.437541 0.908864
Si Si2 0.258315 0.345820 0.516731
Si Si3 0.789862 0.870114 0.692655
Si Si4 0.997882 0.534781 0.449767
Si Si5 0.488943 0.164295 0.441654
Si Si6 0.562601 0.524501 0.337575
Si Si7 0.874771 0.366642 0.274303
O O1 0.047232 0.403142 0.696794
O O2 0.863832 0.330081 0.805738
O O3 0.546714 0.356151 0.199029
O O4 0.788262 0.645424 0.918585
O O5 0.247448 0.482887 0.568520
O O6 0.946544 0.742917 0.495967
O O7 0.582767 0.968740 0.872185
O O8 0.633382 0.744656 0.887027
O O9 0.000000 0.000000 0.500000
O O10 0.000000 0.500000 0.500000
O O11 0.772875 0.420211 0.657293
O O12 0.280977 0.481585 0.137346
O O13 0.521086 0.315803 0.370985
O O14 0.305477 0.630430 0.585448
O O15 0.820535 0.589423 0.047133
#
# Coordination Sequence:
#
# PCOD8126330 Si02
#       7
#     4   4   4   4   4   4   4
#     4  12  23  45  78 105 134 179 233 274 333 415
#     4  12  23  45  78 104 133 181 228 279 329 417
#     4  11  23  43  72  95 127 185 238 279 337 411
#     4  10  21  39  65  94 120 158 231 293 323 388
#     4  11  23  43  67  92 128 179 230 275 333 403
#     4  12  26  44  65  98 143 177 218 288 351 392
#     4  12  26  45  68 106 148 173 225 288 346 403
#
# _framework density 24.57959
#
# number of rings (size 3 to 8) (size 9 to 14) (size 15 to 20)
#    0.000    0.571    2.857    7.286    0.000    4.571 
#    7.714    0.000    0.000    0.000    0.000    0.000 
#    0.000    0.000    0.000    0.000    0.000    0.000 
#
# Total GULP energy -347202.008197 kJ/mol
# GULP energy per Si atom -12400.071721 kJ/mol
# Density = 2.452365 g / cm^3
# Si number density = 24.579590 Si / 1000 Ang^3
#
#
#
# Elastic Constant Matrix: (Units=GPa)
#
#
# Indices 1 2 3 4 5 6 
#
# 1 51.1374 10.7181 9.6448 0.0000 -22.7109 0.0000
# 2 10.7181 119.8745 4.5993 0.0000 -5.4137 0.0000
# 3 9.6448 4.5993 130.0704 0.0000 -21.3891 0.0000
# 4 0.0000 0.0000 0.0000 42.0222 0.0000 7.5765
# 5 -22.7109 -5.4137 -21.3891 0.0000 41.2748 0.0000
# 6 0.0000 0.0000 0.0000 7.5765 0.0000 52.2890
#
#
#
# Elastic Compliance Matrix: (Units=1/GPa)
#
#
# Indices 1 2 3 4 5 6 
#
# 1 0.026249 -0.001712 0.000494 0.000000 0.014475 0.000000
# 2 -0.001712 0.008505 -0.000159 0.000000 0.000091 0.000000
# 3 0.000494 -0.000159 0.008416 0.000000 0.004612 0.000000
# 4 0.000000 0.000000 0.000000 0.024435 0.000000 -0.003541
# 5 0.014475 0.000091 0.004612 0.000000 0.034595 0.000000
# 6 0.000000 0.000000 0.000000 -0.003541 0.000000 0.019638
#
#
# Mechanical properties :
#
#
# Convention : Reuss Voigt Hill
#
# Bulk Modulus (GPa) = 24.74202 39.00077 31.87139
# Shear Modulus (GPa) = 36.21528 45.52520 40.87024
#
# Velocity S-wave (km/s) = 3.84264 4.30834 4.08213
# Velocity P-wave (km/s) = 5.45672 6.37578 5.93407
#
# Compressibility (1/GPa) = 0.04041707
#
# Stress axis : x y z
#
# Youngs Moduli (GPa) = 38.09616 117.57294 118.82769
#
# Poissons Ratio (x) = 0.20131 -0.05875
# Poissons Ratio (y) = 0.06523 0.01887
# Poissons Ratio (z) = -0.01884 0.01867
#
# Static dielectric constant tensor:
#      x y z
#    x 4.357050 0.000000 -0.172960 
#    y 0.000000 5.552350 0.000000 
#    z -0.172960 0.000000 4.662660 
# 
# 
# High freq. dielectric constant tensor:
#      x y z
#    x 1.958490 0.000000 -0.005470 
#    y 0.000000 2.004740 0.000000 
#    z -0.005470 0.000000 1.999660 
# 
# From -- ./inp_files/80955.got.cif
#   From: 2010.03.12/outbox.cif.g09.slc.cpg/sg14_41_cif.got.tgz:80955.got - 2010.03.31 13:35:05.
