data_PCOD8126463
_publ_section_title
;
Structure prediction by ZEFSAII (Michael W. Deem and Ramdas Pophale) SiO2 
 PCOD8126463
Probable space group: P 21/C
;
_chemical_formula_sum "Si O2"
_cell_formula_units_Z 28
_cell_length_a 16.882958
_cell_length_b 8.191235
_cell_length_c 15.806223
_cell_angle_alpha 90.000000
_cell_angle_beta 144.249364
_cell_angle_gamma 90.000000
_cell_volume 1277.118510
_symmetry_space_group_name_H-M "P 21/C"
_symmetry_group_IT_number 14
_symmetry_cell_setting 'monoclinic'
loop_
_space_group_symop_operation_xyz
x,y,z
-x,1/2+y,1/2-z
-x,-y,-z
x,1/2-y,1/2+z
loop_
_atom_site_type_symbol
_atom_site_label
_atom_site_fract_x
_atom_site_fract_y
_atom_site_fract_z
Si Si1 0.958126 0.137262 0.895991
Si Si2 0.533120 0.683789 0.008136
Si Si3 0.823716 0.634880 0.194279
Si Si4 0.096918 0.798898 0.493259
Si Si5 0.379192 0.851486 0.211784
Si Si6 0.826211 0.852028 0.499137
Si Si7 0.449570 0.231716 0.293699
O O1 0.902580 0.288846 0.903445
O O2 0.843440 0.056760 0.736717
O O3 0.082262 0.196380 0.945723
O O4 0.000000 0.000000 0.000000
O O5 0.693070 0.707206 0.128326
O O6 0.497035 0.775190 0.065079
O O7 0.500000 0.500000 0.000000
O O8 0.445011 0.741534 0.850554
O O9 0.957018 0.734171 0.333760
O O10 0.797445 0.646201 0.072965
O O11 0.219846 0.685769 0.567067
O O12 0.103666 0.984066 0.470916
O O13 0.437641 0.779601 0.175872
O O14 0.408065 0.043090 0.244819
O O15 0.681620 0.843402 0.329923
#
# Coordination Sequence:
#
# PCOD8126463 Si02
#       7
#     4   4   4   4   4   4   4
#     4  10  21  40  64  91 131 174 218 272 342 398
#     4  10  22  42  71  94 132 180 224 271 344 413
#     4  11  22  43  68 100 133 182 231 279 344 414
#     4  11  24  41  66 100 136 175 231 282 346 406
#     4  11  23  43  67 100 135 181 229 282 344 415
#     4  12  23  41  69 102 136 177 231 290 340 411
#     4  11  22  42  70  96 136 179 226 284 347 410
#
# _framework density 21.924354999999998
#
# number of rings (size 3 to 8) (size 9 to 14) (size 15 to 20)
#    0.000    1.143    1.429    7.286    2.000    0.000 
#    2.571    2.857    0.000    0.000    0.000    0.000 
#    0.000    0.000    0.000    0.000    0.000    0.000 
#
# Total GULP energy -347112.574149 kJ/mol
# GULP energy per Si atom -12396.877648 kJ/mol
# Density = 2.187445 g / cm^3
# Si number density = 21.924355 Si / 1000 Ang^3
#
#
#
# Elastic Constant Matrix: (Units=GPa)
#
#
# Indices 1 2 3 4 5 6 
#
# 1 151.6062 21.5077 53.0590 0.0000 -22.4527 0.0000
# 2 21.5077 56.6165 21.5030 0.0000 -5.7119 0.0000
# 3 53.0590 21.5030 99.7527 0.0000 -1.1536 0.0000
# 4 0.0000 0.0000 0.0000 25.4690 0.0000 -4.2083
# 5 -22.4527 -5.7119 -1.1536 0.0000 47.8010 0.0000
# 6 0.0000 0.0000 0.0000 -4.2083 0.0000 20.8045
#
#
#
# Elastic Compliance Matrix: (Units=1/GPa)
#
#
# Indices 1 2 3 4 5 6 
#
# 1 0.008906 -0.001313 -0.004409 0.000000 0.003920 0.000000
# 2 -0.001313 0.019665 -0.003521 0.000000 0.001648 0.000000
# 3 -0.004409 -0.003521 0.013104 0.000000 -0.002175 0.000000
# 4 0.000000 0.000000 0.000000 0.040621 0.000000 0.008217
# 5 0.003920 0.001648 -0.002175 0.000000 0.022906 0.000000
# 6 0.000000 0.000000 0.000000 0.008217 0.000000 0.049729
#
#
# Mechanical properties :
#
#
# Convention : Reuss Voigt Hill
#
# Bulk Modulus (GPa) = 43.12579 55.56830 49.34705
# Shear Modulus (GPa) = 27.60201 32.94196 30.27198
#
# Velocity S-wave (km/s) = 3.55204 3.88045 3.71987
# Velocity P-wave (km/s) = 6.04447 6.74371 6.40364
#
# Compressibility (1/GPa) = 0.02318798
#
# Stress axis : x y z
#
# Youngs Moduli (GPa) = 112.28652 50.85096 76.31436
#
# Poissons Ratio (x) = 0.06678 0.33644
# Poissons Ratio (y) = 0.14747 0.26874
# Poissons Ratio (z) = 0.49503 0.17907
#
# Static dielectric constant tensor:
#      x y z
#    x 4.607110 0.000000 -0.398820 
#    y 0.000000 4.121250 0.000000 
#    z -0.398820 0.000000 4.308410 
# 
# 
# High freq. dielectric constant tensor:
#      x y z
#    x 1.886950 0.000000 -0.002800 
#    y 0.000000 1.842640 0.000000 
#    z -0.002800 0.000000 1.862430 
# 
# From -- ./inp_files/46759.got.cif
#   From: 2010.03.12/outbox.cif.g09.slc.cpg/sg14_24_cif.got.tgz:46759.got - 2010.03.31 13:35:05.
