data_PCOD8126655
_publ_section_title
;
Structure prediction by ZEFSAII (Michael W. Deem and Ramdas Pophale) SiO2 
 PCOD8126655
Probable space group: P 21/C
;
_chemical_formula_sum "Si O2"
_cell_formula_units_Z 32
_cell_length_a 8.863447
_cell_length_b 11.764597
_cell_length_c 27.713169
_cell_angle_alpha 90.000000
_cell_angle_beta 150.361979
_cell_angle_gamma 90.000000
_cell_volume 1429.054058
_symmetry_space_group_name_H-M "P 21/C"
_symmetry_group_IT_number 14
_symmetry_cell_setting 'monoclinic'
loop_
_space_group_symop_operation_xyz
x,y,z
-x,1/2+y,1/2-z
-x,-y,-z
x,1/2-y,1/2+z
loop_
_atom_site_type_symbol
_atom_site_label
_atom_site_fract_x
_atom_site_fract_y
_atom_site_fract_z
Si Si1 0.263706 0.730207 0.144507
Si Si2 0.312424 0.428163 0.696599
Si Si3 0.222257 0.102733 0.547179
Si Si4 0.729494 0.548396 0.627982
Si Si5 0.620928 0.555082 0.703947
Si Si6 0.265216 0.664349 0.430029
Si Si7 0.664831 0.080268 0.584028
Si Si8 0.725212 0.350341 0.258056
O O1 0.449363 0.612321 0.196073
O O2 0.479664 0.827334 0.183201
O O3 0.215391 0.744526 0.189529
O O4 0.960174 0.707818 0.028855
O O5 0.459966 0.447352 0.684776
O O6 0.197899 0.548906 0.683102
O O7 0.030715 0.338563 0.616667
O O8 0.483627 0.059807 0.583435
O O9 0.385370 0.151896 0.640876
O O10 0.000000 0.000000 0.500000
O O11 0.545938 0.546681 0.626732
O O12 0.547897 0.611850 0.536040
O O13 0.803279 0.417038 0.635147
O O14 0.031509 0.628983 0.717485
O O15 0.982543 0.545700 0.813174
O O16 0.351992 0.789407 0.437286
O O17 0.500000 0.000000 0.500000
#
# Coordination Sequence:
#
# PCOD8126655 Si02
#       8
#     4   4   4   4   4   4   4   4
#     4  11  23  41  67 101 146 186 237 297 373 428
#     4  10  21  41  66  94 141 191 226 300 357 421
#     4  12  25  43  72 105 141 197 241 300 372 444
#     4  10  22  45  69  99 134 191 250 289 357 436
#     4  11  24  43  69 107 139 183 245 301 350 440
#     4  10  23  45  71  96 147 195 229 302 366 434
#     4  12  26  45  70 108 147 183 244 301 373 435
#     4  10  22  42  66  96 144 184 240 297 360 432
#
# _framework density 22.392434999999999
#
# number of rings (size 3 to 8) (size 9 to 14) (size 15 to 20)
#    0.000    1.250    3.750    1.500    1.750    4.500 
#    2.250    0.000    0.000    0.000    0.000    0.000 
#    0.000    0.000    0.000    0.000    0.000    0.000 
#
# Total GULP energy -396560.469524 kJ/mol
# GULP energy per Si atom -12392.514673 kJ/mol
# Density = 2.234147 g / cm^3
# Si number density = 22.392435 Si / 1000 Ang^3
#
#
#
# Elastic Constant Matrix: (Units=GPa)
#
#
# Indices 1 2 3 4 5 6 
#
# 1 140.1365 40.8637 30.4992 0.0000 11.9157 0.0000
# 2 40.8637 87.7342 27.1054 0.0000 0.8351 0.0000
# 3 30.4992 27.1054 104.0433 0.0000 4.1340 0.0000
# 4 0.0000 0.0000 0.0000 36.9818 0.0000 -1.1038
# 5 11.9157 0.8351 4.1340 0.0000 36.6718 0.0000
# 6 0.0000 0.0000 0.0000 -1.1038 0.0000 23.2990
#
#
#
# Elastic Compliance Matrix: (Units=1/GPa)
#
#
# Indices 1 2 3 4 5 6 
#
# 1 0.008728 -0.003569 -0.001526 0.000000 -0.002583 0.000000
# 2 -0.003569 0.013856 -0.002609 0.000000 0.001138 0.000000
# 3 -0.001526 -0.002609 0.010764 0.000000 -0.000658 0.000000
# 4 0.000000 0.000000 0.000000 0.027079 0.000000 0.001283
# 5 -0.002583 0.001138 -0.000658 0.000000 0.028156 0.000000
# 6 0.000000 0.000000 0.000000 0.001283 0.000000 0.042981
#
#
# Mechanical properties :
#
#
# Convention : Reuss Voigt Hill
#
# Bulk Modulus (GPa) = 55.74000 58.76117 57.25058
# Shear Modulus (GPa) = 32.68976 34.95356 33.82166
#
# Velocity S-wave (km/s) = 3.82495 3.95518 3.89061
# Velocity P-wave (km/s) = 6.66734 6.86705 6.76793
#
# Compressibility (1/GPa) = 0.01794044
#
# Stress axis : x y z
#
# Youngs Moduli (GPa) = 114.56740 72.17278 92.89801
#
# Poissons Ratio (x) = 0.25761 0.14178
# Poissons Ratio (y) = 0.40893 0.24233
# Poissons Ratio (z) = 0.17485 0.18827
#
# Static dielectric constant tensor:
#      x y z
#    x 4.258170 0.000000 0.201780 
#    y 0.000000 4.025370 0.000000 
#    z 0.201780 0.000000 4.053830 
# 
# 
# High freq. dielectric constant tensor:
#      x y z
#    x 1.885580 0.000000 0.010310 
#    y 0.000000 1.875380 0.000000 
#    z 0.010310 0.000000 1.888540 
# 
# From -- ./inp_files/79643.got.cif
#   From: 2010.03.12/outbox.cif.g09.slc.cpg/sg14_40_cif.got.tgz:79643.got - 2010.03.31 13:35:05.
