data_PCOD8126331
_publ_section_title
;
Structure prediction by ZEFSAII (Michael W. Deem and Ramdas Pophale) SiO2 
 PCOD8126331
Probable space group: P 21/C
;
_chemical_formula_sum "Si O2"
_cell_formula_units_Z 20
_cell_length_a 8.747732
_cell_length_b 6.867935
_cell_length_c 15.551642
_cell_angle_alpha 90.000000
_cell_angle_beta 79.317135
_cell_angle_gamma 90.000000
_cell_volume 918.131383
_symmetry_space_group_name_H-M "P 21/C"
_symmetry_group_IT_number 14
_symmetry_cell_setting 'monoclinic'
loop_
_space_group_symop_operation_xyz
x,y,z
-x,1/2+y,1/2-z
-x,-y,-z
x,1/2-y,1/2+z
loop_
_atom_site_type_symbol
_atom_site_label
_atom_site_fract_x
_atom_site_fract_y
_atom_site_fract_z
Si Si1 0.914193 0.374576 0.437045
Si Si2 0.595708 0.806325 0.474166
Si Si3 0.089834 0.473740 0.126272
Si Si4 0.111071 0.620220 0.307752
Si Si5 0.640498 0.456380 0.575692
O O1 0.732586 0.388074 0.478925
O O2 0.000000 0.500000 0.500000
O O3 0.968203 0.470902 0.341760
O O4 0.962597 0.145591 0.433951
O O5 0.771459 0.845641 0.426345
O O6 0.600019 0.683512 0.563300
O O7 0.512722 0.678967 0.407428
O O8 0.500000 0.000000 0.500000
O O9 0.152143 0.590660 0.203870
O O10 0.941899 0.338790 0.162414
O O11 0.264830 0.568543 0.346307
#
# Coordination Sequence:
#
# PCOD8126331 Si02
#       5
#     4   4   4   4   4
#     4  10  21  39  65  96 125 167 223 263 315 395
#     4  11  23  42  66  93 128 178 217 268 324 395
#     4  12  23  42  68  95 136 172 216 278 338 384
#     4  11  24  42  64  99 131 173 214 280 332 393
#     4  10  23  43  64  93 134 168 224 265 320 399
#
# _framework density 21.783377000000002
#
# number of rings (size 3 to 8) (size 9 to 14) (size 15 to 20)
#    0.000    1.200    6.000    0.000    0.000    6.400 
#    3.600    0.000    0.000    0.000    0.000    0.000 
#    0.000    0.000    0.000    0.000    0.000    0.000 
#
# Total GULP energy -247897.542155 kJ/mol
# GULP energy per Si atom -12394.877108 kJ/mol
# Density = 2.173380 g / cm^3
# Si number density = 21.783377 Si / 1000 Ang^3
#
#
#
# Elastic Constant Matrix: (Units=GPa)
#
#
# Indices 1 2 3 4 5 6 
#
# 1 83.7066 47.3761 19.9936 0.0000 22.0421 0.0000
# 2 47.3761 172.2998 30.0935 0.0000 15.1220 0.0000
# 3 19.9936 30.0935 41.7506 0.0000 9.7614 0.0000
# 4 0.0000 0.0000 0.0000 30.7001 0.0000 -2.3992
# 5 22.0421 15.1220 9.7614 0.0000 27.8111 0.0000
# 6 0.0000 0.0000 0.0000 -2.3992 0.0000 46.6498
#
#
#
# Elastic Compliance Matrix: (Units=1/GPa)
#
#
# Indices 1 2 3 4 5 6 
#
# 1 0.017476 -0.003242 -0.003493 0.000000 -0.010862 0.000000
# 2 -0.003242 0.007356 -0.003721 0.000000 -0.000124 0.000000
# 3 -0.003493 -0.003721 0.029616 0.000000 -0.005604 0.000000
# 4 0.000000 0.000000 0.000000 0.032705 0.000000 0.001682
# 5 -0.010862 -0.000124 -0.005604 0.000000 0.046600 0.000000
# 6 0.000000 0.000000 0.000000 0.001682 0.000000 0.021523
#
#
# Mechanical properties :
#
#
# Convention : Reuss Voigt Hill
#
# Bulk Modulus (GPa) = 29.81687 54.74261 42.27974
# Shear Modulus (GPa) = 26.68585 34.38511 30.53548
#
# Velocity S-wave (km/s) = 3.50388 3.97735 3.74810
# Velocity P-wave (km/s) = 5.48518 6.80275 6.17918
#
# Compressibility (1/GPa) = 0.03353806
#
# Stress axis : x y z
#
# Youngs Moduli (GPa) = 57.22202 135.94380 33.76527
#
# Poissons Ratio (x) = 0.44071 0.11793
# Poissons Ratio (y) = 0.18551 0.12563
# Poissons Ratio (z) = 0.19985 0.50579
#
# Static dielectric constant tensor:
#      x y z
#    x 4.016500 0.000000 -0.373940 
#    y 0.000000 4.213760 0.000000 
#    z -0.373940 0.000000 4.122230 
# 
# 
# High freq. dielectric constant tensor:
#      x y z
#    x 1.847280 0.000000 0.000870 
#    y 0.000000 1.881860 0.000000 
#    z 0.000870 0.000000 1.828960 
# 
# From -- ./inp_files/53961.got.cif
#   From: 2010.03.12/outbox.cif.g09.slc.cpg/sg14_27_cif.got.tgz:53961.got - 2010.03.31 13:35:05.
