data_PCOD8126006
_publ_section_title
;
Structure prediction by ZEFSAII (Michael W. Deem and Ramdas Pophale) SiO2 
 PCOD8126006
Probable space group: P 21/C
;
_chemical_formula_sum "Si O2"
_cell_formula_units_Z 28
_cell_length_a 25.948222
_cell_length_b 12.066853
_cell_length_c 20.854916
_cell_angle_alpha 90.000000
_cell_angle_beta 167.940087
_cell_angle_gamma 90.000000
_cell_volume 1364.331900
_symmetry_space_group_name_H-M "P 21/C"
_symmetry_group_IT_number 14
_symmetry_cell_setting 'monoclinic'
loop_
_space_group_symop_operation_xyz
x,y,z
-x,1/2+y,1/2-z
-x,-y,-z
x,1/2-y,1/2+z
loop_
_atom_site_type_symbol
_atom_site_label
_atom_site_fract_x
_atom_site_fract_y
_atom_site_fract_z
Si Si1 0.620049 0.207616 0.756310
Si Si2 0.124401 0.391288 0.678448
Si Si3 0.481196 0.816523 0.730748
Si Si4 0.920983 0.222049 0.337850
Si Si5 0.857699 0.859211 0.650379
Si Si6 0.405033 0.396284 0.425284
Si Si7 0.570880 0.014159 0.916194
O O1 0.403385 0.115047 0.489328
O O2 0.586107 0.263766 0.783319
O O3 0.606091 0.299438 0.681855
O O4 0.883476 0.151266 0.070365
O O5 0.108014 0.398414 0.734877
O O6 0.000000 0.500000 0.500000
O O7 0.986159 0.279271 0.485175
O O8 0.217876 0.816536 0.373011
O O9 0.592995 0.939422 0.878443
O O10 0.695906 0.752956 0.953673
O O11 0.165622 0.165810 0.603925
O O12 0.729994 0.123331 0.109611
O O13 0.716370 0.949217 0.434085
O O14 0.500000 0.500000 0.500000
O O15 0.335393 0.444395 0.409731
#
# Coordination Sequence:
#
# PCOD8126006 Si02
#       7
#     4   4   4   4   4   4   4
#     4   9  21  38  55  84 114 153 196 240 292 367
#     4  10  21  39  58  83 117 155 197 244 300 348
#     4   9  20  39  56  80 118 151 187 243 296 350
#     4  10  21  37  61  85 117 155 200 251 293 366
#     4  10  21  37  60  80 115 153 195 237 296 364
#     4  10  22  34  57  89 116 149 192 254 303 341
#     4  10  21  38  58  86 114 155 199 242 301 356
#
# _framework density 20.522864999999999
#
# number of rings (size 3 to 8) (size 9 to 14) (size 15 to 20)
#    0.000    2.286    0.000    2.143    6.000    0.571 
#    0.000    5.714    0.000    0.000    0.000    0.000 
#    0.000    0.000    0.000    0.000    0.000    0.000 
#
# Total GULP energy -346865.432138 kJ/mol
# GULP energy per Si atom -12388.051148 kJ/mol
# Density = 2.047615 g / cm^3
# Si number density = 20.522865 Si / 1000 Ang^3
#
#
#
# Elastic Constant Matrix: (Units=GPa)
#
#
# Indices 1 2 3 4 5 6 
#
# 1 38.5739 2.7737 24.1271 0.0000 2.9629 0.0000
# 2 2.7737 63.8111 28.4683 0.0000 1.2393 0.0000
# 3 24.1271 28.4683 123.7182 0.0000 0.1573 0.0000
# 4 0.0000 0.0000 0.0000 32.7984 0.0000 -5.7384
# 5 2.9629 1.2393 0.1573 0.0000 29.3632 0.0000
# 6 0.0000 0.0000 0.0000 -5.7384 0.0000 27.0615
#
#
#
# Elastic Compliance Matrix: (Units=1/GPa)
#
#
# Indices 1 2 3 4 5 6 
#
# 1 0.029914 0.001515 -0.006179 0.000000 -0.003049 0.000000
# 2 0.001515 0.017556 -0.004334 0.000000 -0.000871 0.000000
# 3 -0.006179 -0.004334 0.010284 0.000000 0.000751 0.000000
# 4 0.000000 0.000000 0.000000 0.031664 0.000000 0.006714
# 5 -0.003049 -0.000871 0.000751 0.000000 0.034397 0.000000
# 6 0.000000 0.000000 0.000000 0.006714 0.000000 0.038377
#
#
# Mechanical properties :
#
#
# Convention : Reuss Voigt Hill
#
# Bulk Modulus (GPa) = 25.15120 37.42682 31.28901
# Shear Modulus (GPa) = 25.84792 29.22691 27.53741
#
# Velocity S-wave (km/s) = 3.55275 3.77784 3.66702
# Velocity P-wave (km/s) = 5.39548 6.10784 5.76267
#
# Compressibility (1/GPa) = 0.03975954
#
# Stress axis : x y z
#
# Youngs Moduli (GPa) = 33.42904 56.96095 97.23685
#
# Poissons Ratio (x) = -0.08632 0.60079
# Poissons Ratio (y) = -0.05066 0.42144
# Poissons Ratio (z) = 0.20654 0.24688
#
# Static dielectric constant tensor:
#      x y z
#    x 3.494950 0.000000 -0.433080 
#    y 0.000000 4.089120 0.000000 
#    z -0.433080 0.000000 4.128460 
# 
# 
# High freq. dielectric constant tensor:
#      x y z
#    x 1.769170 0.000000 -0.027300 
#    y 0.000000 1.811250 0.000000 
#    z -0.027300 0.000000 1.818130 
# 
# From -- ./inp_files/61265.got.cif
#   From: 2010.03.12/outbox.cif.g09.slc.cpg/sg14_31_cif.got.tgz:61265.got - 2010.03.31 13:35:05.
