data_PCOD8126591
_publ_section_title
;
Structure prediction by ZEFSAII (Michael W. Deem and Ramdas Pophale) SiO2 
 PCOD8126591
Probable space group: P 21/C
;
_chemical_formula_sum "Si O2"
_cell_formula_units_Z 32
_cell_length_a 10.554528
_cell_length_b 19.788241
_cell_length_c 10.319053
_cell_angle_alpha 90.000000
_cell_angle_beta 134.675854
_cell_angle_gamma 90.000000
_cell_volume 1532.547657
_symmetry_space_group_name_H-M "P 21/C"
_symmetry_group_IT_number 14
_symmetry_cell_setting 'monoclinic'
loop_
_space_group_symop_operation_xyz
x,y,z
-x,1/2+y,1/2-z
-x,-y,-z
x,1/2-y,1/2+z
loop_
_atom_site_type_symbol
_atom_site_label
_atom_site_fract_x
_atom_site_fract_y
_atom_site_fract_z
Si Si1 0.714031 0.135409 0.987155
Si Si2 0.965788 0.490549 0.626333
Si Si3 0.263446 0.106316 0.047165
Si Si4 0.903454 0.743386 0.551018
Si Si5 0.882251 0.231721 0.540874
Si Si6 0.587090 0.321122 0.670297
Si Si7 0.655716 0.947539 0.627701
Si Si8 0.576674 0.678332 0.911113
O O1 0.521537 0.140252 0.779188
O O2 0.812767 0.064341 0.045895
O O3 0.834510 0.189518 0.999636
O O4 0.698878 0.155779 0.126577
O O5 0.892702 0.561761 0.636536
O O6 0.000000 0.500000 0.500000
O O7 0.162933 0.469571 0.820367
O O8 0.428406 0.124548 0.072310
O O9 0.320598 0.055814 0.201413
O O10 0.197735 0.175763 0.064869
O O11 0.773634 0.800984 0.509626
O O12 0.036342 0.716655 0.759733
O O13 0.986299 0.778540 0.485285
O O14 0.713249 0.182405 0.389687
O O15 0.518777 0.244692 0.598958
O O16 0.590878 0.874355 0.536651
O O17 0.500000 0.000000 0.500000
#
# Coordination Sequence:
#
# PCOD8126591 Si02
#       8
#     4   4   4   4   4   4   4   4
#     4  11  22  41  62  93 131 169 220 270 323 398
#     4  10  21  41  63  89 122 172 222 266 325 391
#     4  10  23  39  62  91 130 169 220 271 327 394
#     4  11  22  38  64  95 133 172 216 282 329 399
#     4  11  22  38  62  95 129 170 218 274 337 386
#     4  10  24  38  61  95 131 173 216 273 337 392
#     4  11  23  41  69  96 127 169 226 274 329 398
#     4  10  23  36  64  91 130 167 217 271 336 390
#
# _framework density 20.880265999999999
#
# number of rings (size 3 to 8) (size 9 to 14) (size 15 to 20)
#    0.000    1.500    1.250    4.500    8.750    2.500 
#    0.000    0.000    0.000    2.250    0.000    0.000 
#    0.000    0.000    0.000    0.000    0.000    0.000 
#
# Total GULP energy -396569.588726 kJ/mol
# GULP energy per Si atom -12392.799648 kJ/mol
# Density = 2.083274 g / cm^3
# Si number density = 20.880266 Si / 1000 Ang^3
#
#
#
# Elastic Constant Matrix: (Units=GPa)
#
#
# Indices 1 2 3 4 5 6 
#
# 1 87.7393 39.3403 17.6505 0.0000 13.2235 0.0000
# 2 39.3403 104.8977 18.3231 0.0000 20.4643 0.0000
# 3 17.6505 18.3231 81.2016 0.0000 13.5950 0.0000
# 4 0.0000 0.0000 0.0000 28.5805 0.0000 2.9198
# 5 13.2235 20.4643 13.5950 0.0000 30.6768 0.0000
# 6 0.0000 0.0000 0.0000 2.9198 0.0000 34.2975
#
#
#
# Elastic Compliance Matrix: (Units=1/GPa)
#
#
# Indices 1 2 3 4 5 6 
#
# 1 0.014122 -0.004556 -0.001654 0.000000 -0.002315 0.000000
# 2 -0.004556 0.012567 -0.000833 0.000000 -0.006051 0.000000
# 3 -0.001654 -0.000833 0.013664 0.000000 -0.004787 0.000000
# 4 0.000000 0.000000 0.000000 0.035296 0.000000 -0.003005
# 5 -0.002315 -0.006051 -0.004787 0.000000 0.039754 0.000000
# 6 0.000000 0.000000 0.000000 -0.003005 0.000000 0.029412
#
#
# Mechanical properties :
#
#
# Convention : Reuss Voigt Hill
#
# Bulk Modulus (GPa) = 38.06780 47.16293 42.61536
# Shear Modulus (GPa) = 29.82301 31.94594 30.88448
#
# Velocity S-wave (km/s) = 3.78337 3.91571 3.85011
# Velocity P-wave (km/s) = 6.11197 6.56354 6.34178
#
# Compressibility (1/GPa) = 0.02626892
#
# Stress axis : x y z
#
# Youngs Moduli (GPa) = 70.81312 79.57046 73.18570
#
# Poissons Ratio (x) = 0.36248 0.12105
# Poissons Ratio (y) = 0.32259 0.06093
# Poissons Ratio (z) = 0.11712 0.06625
#
# Static dielectric constant tensor:
#      x y z
#    x 3.711120 0.000000 0.434910 
#    y 0.000000 3.901370 0.000000 
#    z 0.434910 0.000000 4.124460 
# 
# 
# High freq. dielectric constant tensor:
#      x y z
#    x 1.809550 0.000000 0.022070 
#    y 0.000000 1.813560 0.000000 
#    z 0.022070 0.000000 1.818060 
# 
# From -- ./inp_files/30479.got.cif
#   From: 2010.03.12/outbox.cif.g09.slc.cpg/sg14_16_cif.got.tgz:30479.got - 2010.03.31 13:35:05.
