data_PCOD8126985
_publ_section_title
;
Structure prediction by ZEFSAII (Michael W. Deem and Ramdas Pophale) SiO2 
 PCOD8126985
Probable space group: P 21/C
;
_chemical_formula_sum "Si O2"
_cell_formula_units_Z 24
_cell_length_a 14.638157
_cell_length_b 5.099996
_cell_length_c 22.876361
_cell_angle_alpha 90.000000
_cell_angle_beta 140.836533
_cell_angle_gamma 90.000000
_cell_volume 1078.550883
_symmetry_space_group_name_H-M "P 21/C"
_symmetry_group_IT_number 14
_symmetry_cell_setting 'monoclinic'
loop_
_space_group_symop_operation_xyz
x,y,z
-x,1/2+y,1/2-z
-x,-y,-z
x,1/2-y,1/2+z
loop_
_atom_site_type_symbol
_atom_site_label
_atom_site_fract_x
_atom_site_fract_y
_atom_site_fract_z
Si Si1 0.018959 0.454301 0.394096
Si Si2 0.270960 0.628595 0.814662
Si Si3 0.843906 0.052860 0.504066
Si Si4 0.550445 0.172204 0.306330
Si Si5 0.237340 0.800650 0.924252
Si Si6 0.453656 0.365590 0.383962
O O1 0.035561 0.717213 0.441356
O O2 0.121198 0.478572 0.386808
O O3 0.854288 0.412306 0.294806
O O4 0.075282 0.221327 0.463604
O O5 0.198420 0.704685 0.840292
O O6 0.357730 0.358755 0.867018
O O7 0.371940 0.858915 0.840907
O O8 0.719301 0.092794 0.394119
O O9 0.771586 0.062272 0.533244
O O10 0.537149 0.409393 0.253556
O O11 0.487902 0.280836 0.335415
O O12 0.401072 0.911742 0.006210
#
# Coordination Sequence:
#
# PCOD8126985 Si02
#       6
#     4   4   4   4   4   4
#     4  10  22  37  61  88 132 169 207 234 293 373
#     4  12  24  37  62  92 138 161 200 247 309 360
#     4   9  21  37  61  90 118 155 219 243 292 353
#     4  11  22  41  71  89 112 155 217 265 308 374
#     4   9  24  36  64  86 130 172 212 229 293 369
#     4  11  25  40  59  96 125 157 203 270 313 345
#
# _framework density 22.252079999999999
#
# number of rings (size 3 to 8) (size 9 to 14) (size 15 to 20)
#    1.000    0.667    0.000    4.000    9.333    0.000 
#    0.000    0.000    0.000   20.000    0.000    0.000 
#    0.000    0.000    0.000    0.000    0.000    0.000 
#
# Total GULP energy -297540.810280 kJ/mol
# GULP energy per Si atom -12397.533762 kJ/mol
# Density = 2.220143 g / cm^3
# Si number density = 22.252080 Si / 1000 Ang^3
#
#
#
# Elastic Constant Matrix: (Units=GPa)
#
#
# Indices 1 2 3 4 5 6 
#
# 1 12.7390 0.2689 2.4412 0.0000 6.6111 0.0000
# 2 0.2689 105.9767 28.4376 0.0000 11.6575 0.0000
# 3 2.4412 28.4376 103.1784 0.0000 12.0574 0.0000
# 4 0.0000 0.0000 0.0000 34.1606 0.0000 2.2703
# 5 6.6111 11.6575 12.0574 0.0000 32.2566 0.0000
# 6 0.0000 0.0000 0.0000 2.2703 0.0000 16.4957
#
#
#
# Elastic Compliance Matrix: (Units=1/GPa)
#
#
# Indices 1 2 3 4 5 6 
#
# 1 0.088204 0.001944 -0.000448 0.000000 -0.018613 0.000000
# 2 0.001944 0.010472 -0.002555 0.000000 -0.003228 0.000000
# 3 -0.000448 -0.002555 0.010758 0.000000 -0.003006 0.000000
# 4 0.000000 0.000000 0.000000 0.029544 0.000000 -0.004066
# 5 -0.018613 -0.003228 -0.003006 0.000000 0.037106 0.000000
# 6 0.000000 0.000000 0.000000 -0.004066 0.000000 0.061182
#
#
# Mechanical properties :
#
#
# Convention : Reuss Voigt Hill
#
# Bulk Modulus (GPa) = 9.31830 31.57661 20.44746
# Shear Modulus (GPa) = 18.17161 29.29901 23.73531
#
# Velocity S-wave (km/s) = 2.86077 3.63255 3.26951
# Velocity P-wave (km/s) = 3.88699 5.64049 4.84375
#
# Compressibility (1/GPa) = 0.10731568
#
# Stress axis : x y z
#
# Youngs Moduli (GPa) = 11.33742 95.49498 92.95378
#
# Poissons Ratio (x) = -0.18561 0.04160
# Poissons Ratio (y) = -0.02204 0.23749
# Poissons Ratio (z) = 0.00507 0.24399
#
# Static dielectric constant tensor:
#      x y z
#    x 3.612490 0.000000 0.048110 
#    y 0.000000 3.980260 0.000000 
#    z 0.048110 0.000000 3.951610 
# 
# 
# High freq. dielectric constant tensor:
#      x y z
#    x 1.848150 0.000000 0.004120 
#    y 0.000000 1.881560 0.000000 
#    z 0.004120 0.000000 1.882200 
# 
# From -- ./inp_files/77665.got.cif
#   From: 2010.03.12/outbox.cif.g09.slc.cpg/sg14_39_cif.got.tgz:77665.got - 2010.03.31 13:35:05.
