data_PCOD8126677
_publ_section_title
;
Structure prediction by ZEFSAII (Michael W. Deem and Ramdas Pophale) SiO2 
 PCOD8126677
Probable space group: P 21/C
;
_chemical_formula_sum "Si O2"
_cell_formula_units_Z 32
_cell_length_a 14.724394
_cell_length_b 12.302296
_cell_length_c 17.538123
_cell_angle_alpha 90.000000
_cell_angle_beta 151.560835
_cell_angle_gamma 90.000000
_cell_volume 1512.931478
_symmetry_space_group_name_H-M "P 21/C"
_symmetry_group_IT_number 14
_symmetry_cell_setting 'monoclinic'
loop_
_space_group_symop_operation_xyz
x,y,z
-x,1/2+y,1/2-z
-x,-y,-z
x,1/2-y,1/2+z
loop_
_atom_site_type_symbol
_atom_site_label
_atom_site_fract_x
_atom_site_fract_y
_atom_site_fract_z
Si Si1 0.535098 0.385099 0.108015
Si Si2 0.336454 0.379786 0.810233
Si Si3 0.579572 0.493414 0.677427
Si Si4 0.206857 0.010288 0.814263
Si Si5 0.946454 0.757305 0.312926
Si Si6 0.649857 0.789535 0.311498
Si Si7 0.330916 0.720654 0.179885
Si Si8 0.869898 0.641208 0.111162
O O1 0.660226 0.493808 0.209524
O O2 0.663288 0.288406 0.237052
O O3 0.505787 0.357455 0.996693
O O4 0.328764 0.399289 0.997266
O O5 0.140348 0.344818 0.705604
O O6 0.353823 0.314255 0.745178
O O7 0.712848 0.458631 0.704663
O O8 0.360903 0.515215 0.493401
O O9 0.671420 0.600914 0.779959
O O10 0.581854 0.398177 0.741530
O O11 0.002184 0.960909 0.685992
O O12 0.196460 0.140641 0.797196
O O13 0.987272 0.717544 0.256639
O O14 0.125297 0.796940 0.492753
O O15 0.450284 0.790000 0.207787
O O16 0.822238 0.787609 0.500506
#
# Coordination Sequence:
#
# PCOD8126677 Si02
#       8
#     4   4   4   4   4   4   4   4
#     4   9  22  44  65  92 129 170 210 262 319 374
#     4  10  21  41  68  89 126 168 210 260 314 378
#     4  11  24  41  66  97 125 168 213 265 324 378
#     4  11  23  41  66  94 130 162 213 267 321 380
#     4  11  23  44  61  94 130 167 211 267 316 379
#     4  11  23  39  66  94 125 170 210 260 317 381
#     4  11  25  40  67  93 131 166 215 261 317 382
#     4  10  23  42  62  95 130 167 213 263 318 377
#
# _framework density 21.150991000000001
#
# number of rings (size 3 to 8) (size 9 to 14) (size 15 to 20)
#    0.000    1.500    1.250    3.750    8.750    1.500 
#    2.250    0.000    0.000    0.000    0.000    0.000 
#    0.000    0.000    0.000    0.000    0.000    0.000 
#
# Total GULP energy -396781.330264 kJ/mol
# GULP energy per Si atom -12399.416571 kJ/mol
# Density = 2.110285 g / cm^3
# Si number density = 21.150991 Si / 1000 Ang^3
#
#
#
# Elastic Constant Matrix: (Units=GPa)
#
#
# Indices 1 2 3 4 5 6 
#
# 1 62.3750 23.6752 35.5018 0.0000 -12.6324 0.0000
# 2 23.6752 88.7380 30.7150 0.0000 -11.1245 0.0000
# 3 35.5018 30.7150 97.1680 0.0000 -19.2411 0.0000
# 4 0.0000 0.0000 0.0000 31.0810 0.0000 -1.1408
# 5 -12.6324 -11.1245 -19.2411 0.0000 32.2593 0.0000
# 6 0.0000 0.0000 0.0000 -1.1408 0.0000 34.7323
#
#
#
# Elastic Compliance Matrix: (Units=1/GPa)
#
#
# Indices 1 2 3 4 5 6 
#
# 1 0.021450 -0.003146 -0.006117 0.000000 0.003666 0.000000
# 2 -0.003146 0.013260 -0.002699 0.000000 0.001731 0.000000
# 3 -0.006117 -0.002699 0.014425 0.000000 0.005278 0.000000
# 4 0.000000 0.000000 0.000000 0.032213 0.000000 0.001058
# 5 0.003666 0.001731 0.005278 0.000000 0.036179 0.000000
# 6 0.000000 0.000000 0.000000 0.001058 0.000000 0.028826
#
#
# Mechanical properties :
#
#
# Convention : Reuss Voigt Hill
#
# Bulk Modulus (GPa) = 39.66602 47.56277 43.61439
# Shear Modulus (GPa) = 27.98295 30.17379 29.07837
#
# Velocity S-wave (km/s) = 3.64127 3.78112 3.71185
# Velocity P-wave (km/s) = 6.03928 6.44969 6.24786
#
# Compressibility (1/GPa) = 0.02521050
#
# Stress axis : x y z
#
# Youngs Moduli (GPa) = 46.61978 75.41620 69.32629
#
# Poissons Ratio (x) = 0.23726 0.42404
# Poissons Ratio (y) = 0.14667 0.18713
# Poissons Ratio (z) = 0.28516 0.20357
#
# Static dielectric constant tensor:
#      x y z
#    x 3.887910 0.000000 -0.344260 
#    y 0.000000 3.696470 0.000000 
#    z -0.344260 0.000000 3.860810 
# 
# 
# High freq. dielectric constant tensor:
#      x y z
#    x 1.826490 0.000000 -0.023440 
#    y 0.000000 1.826760 0.000000 
#    z -0.023440 0.000000 1.830660 
# 
# From -- ./inp_files/59483.got.cif
#   From: 2010.03.12/outbox.cif.g09.slc.cpg/sg14_30_cif.got.tgz:59483.got - 2010.03.31 13:35:05.
