data_PCOD8126586
_publ_section_title
;
Structure prediction by ZEFSAII (Michael W. Deem and Ramdas Pophale) SiO2 
 PCOD8126586
Probable space group: P 21/C
;
_chemical_formula_sum "Si O2"
_cell_formula_units_Z 24
_cell_length_a 14.561054
_cell_length_b 9.052380
_cell_length_c 13.218930
_cell_angle_alpha 90.000000
_cell_angle_beta 43.277408
_cell_angle_gamma 90.000000
_cell_volume 1194.480881
_symmetry_space_group_name_H-M "P 21/C"
_symmetry_group_IT_number 14
_symmetry_cell_setting 'monoclinic'
loop_
_space_group_symop_operation_xyz
x,y,z
-x,1/2+y,1/2-z
-x,-y,-z
x,1/2-y,1/2+z
loop_
_atom_site_type_symbol
_atom_site_label
_atom_site_fract_x
_atom_site_fract_y
_atom_site_fract_z
Si Si1 0.124669 0.588541 0.721938
Si Si2 0.639120 0.126818 0.116987
Si Si3 0.283469 0.448821 0.153277
Si Si4 0.501089 0.107108 0.640740
Si Si5 0.834330 0.206695 0.128542
Si Si6 0.949993 0.745910 0.206719
O O1 0.256056 0.569400 0.549238
O O2 0.164905 0.650859 0.799502
O O3 0.054108 0.430780 0.790388
O O4 0.021869 0.702124 0.751890
O O5 0.526534 0.228067 0.157451
O O6 0.709713 0.218674 0.151023
O O7 0.564303 0.983128 0.216416
O O8 0.399611 0.380197 0.129016
O O9 0.182608 0.557381 0.293255
O O10 0.198603 0.313933 0.176208
O O11 0.355633 0.537727 0.005304
O O12 0.971615 0.198191 0.955567
#
# Coordination Sequence:
#
# PCOD8126586 Si02
#       6
#     4   4   4   4   4   4
#     4  11  23  41  61  93 126 157 207 255 304 362
#     4  10  23  40  63  90 123 163 206 252 303 358
#     4  10  21  41  63  86 122 165 203 247 307 360
#     4  10  22  40  62  88 123 165 202 250 301 361
#     4  10  21  42  62  88 123 159 202 259 303 356
#     4  11  24  38  65  91 121 163 201 253 310 362
#
# _framework density 20.092409
#
# number of rings (size 3 to 8) (size 9 to 14) (size 15 to 20)
#    0.000    1.667    1.667    2.000    4.667    4.000 
#    0.000    1.667    0.000    0.000    0.000    0.000 
#    0.000    0.000    0.000    0.000    0.000    0.000 
#
# Total GULP energy -297722.232921 kJ/mol
# GULP energy per Si atom -12405.093038 kJ/mol
# Density = 2.004668 g / cm^3
# Si number density = 20.092409 Si / 1000 Ang^3
#
#
#
# Elastic Constant Matrix: (Units=GPa)
#
#
# Indices 1 2 3 4 5 6 
#
# 1 42.6782 17.8427 28.1388 0.0000 -2.6021 0.0000
# 2 17.8427 63.5546 8.1389 0.0000 -11.8032 0.0000
# 3 28.1388 8.1389 91.1896 0.0000 -5.1397 0.0000
# 4 0.0000 0.0000 0.0000 32.5303 0.0000 -4.2347
# 5 -2.6021 -11.8032 -5.1397 0.0000 23.2209 0.0000
# 6 0.0000 0.0000 0.0000 -4.2347 0.0000 40.7811
#
#
#
# Elastic Compliance Matrix: (Units=1/GPa)
#
#
# Indices 1 2 3 4 5 6 
#
# 1 0.033215 -0.008608 -0.009638 0.000000 -0.002787 0.000000
# 2 -0.008608 0.019709 0.001425 0.000000 0.009369 0.000000
# 3 -0.009638 0.001425 0.013967 0.000000 0.002736 0.000000
# 4 0.000000 0.000000 0.000000 0.031162 0.000000 0.003236
# 5 -0.002787 0.009369 0.002736 0.000000 0.048120 0.000000
# 6 0.000000 0.000000 0.000000 0.003236 0.000000 0.024857
#
#
# Mechanical properties :
#
#
# Convention : Reuss Voigt Hill
#
# Bulk Modulus (GPa) = 30.07638 33.96258 32.01948
# Shear Modulus (GPa) = 23.17453 28.85993 26.01723
#
# Velocity S-wave (km/s) = 3.39985 3.79405 3.60235
# Velocity P-wave (km/s) = 5.51485 6.01107 5.76830
#
# Compressibility (1/GPa) = 0.03324868
#
# Stress axis : x y z
#
# Youngs Moduli (GPa) = 30.10721 50.73925 71.59640
#
# Poissons Ratio (x) = 0.43677 0.69004
# Poissons Ratio (y) = 0.25917 -0.10204
# Poissons Ratio (z) = 0.29017 -0.07232
#
# Static dielectric constant tensor:
#      x y z
#    x 3.645810 0.000000 0.049630 
#    y 0.000000 3.410970 0.000000 
#    z 0.049630 0.000000 3.771330 
# 
# 
# High freq. dielectric constant tensor:
#      x y z
#    x 1.784380 0.000000 0.001110 
#    y 0.000000 1.776050 0.000000 
#    z 0.001110 0.000000 1.795450 
# 
# From -- ./inp_files/28038.got.cif
#   From: 2010.03.12/outbox.cif.g09.slc.cpg/sg14_15_cif.got.tgz:28038.got - 2010.03.31 13:35:05.
