data_PCOD8126048
_publ_section_title
;
Structure prediction by ZEFSAII (Michael W. Deem and Ramdas Pophale) SiO2 
 PCOD8126048
Probable space group: P 21/C
;
_chemical_formula_sum "Si O2"
_cell_formula_units_Z 28
_cell_length_a 11.966396
_cell_length_b 8.805548
_cell_length_c 12.801956
_cell_angle_alpha 90.000000
_cell_angle_beta 70.006272
_cell_angle_gamma 90.000000
_cell_volume 1267.649550
_symmetry_space_group_name_H-M "P 21/C"
_symmetry_group_IT_number 14
_symmetry_cell_setting 'monoclinic'
loop_
_space_group_symop_operation_xyz
x,y,z
-x,1/2+y,1/2-z
-x,-y,-z
x,1/2-y,1/2+z
loop_
_atom_site_type_symbol
_atom_site_label
_atom_site_fract_x
_atom_site_fract_y
_atom_site_fract_z
Si Si1 0.002772 0.529750 0.660065
Si Si2 0.669241 0.580953 0.613839
Si Si3 0.851463 0.002598 0.413630
Si Si4 0.526394 0.239631 0.436485
Si Si5 0.237384 0.676252 0.542972
Si Si6 0.909200 0.717797 0.510863
Si Si7 0.380882 0.074280 0.635558
O O1 0.140759 0.571783 0.632561
O O2 0.997908 0.377009 0.590746
O O3 0.941291 0.489158 0.787753
O O4 0.938068 0.671714 0.621559
O O5 0.542988 0.635089 0.608803
O O6 0.701017 0.405265 0.576780
O O7 0.772817 0.678904 0.528049
O O8 0.673386 0.610551 0.735322
O O9 0.913742 0.896918 0.482129
O O10 0.724097 0.944372 0.414854
O O11 0.829209 0.168480 0.471794
O O12 0.660456 0.298003 0.404763
O O13 0.462094 0.214371 0.569356
O O14 0.534570 0.074417 0.379031
#
# Coordination Sequence:
#
# PCOD8126048 Si02
#       7
#     4   4   4   4   4   4   4
#     4  10  21  40  61  93 127 170 216 261 323 379
#     4  11  21  41  65  93 125 169 212 262 329 381
#     4  11  20  41  65  91 127 170 217 265 326 380
#     4  10  22  42  61  95 130 165 214 267 319 393
#     4  10  24  39  63  95 133 164 210 278 317 385
#     4  10  21  37  65  89 124 168 213 261 314 388
#     4  10  22  38  66  92 126 170 213 265 325 380
#
# _framework density 22.088124000000001
#
# number of rings (size 3 to 8) (size 9 to 14) (size 15 to 20)
#    0.000    1.714    2.857    1.286    2.000    0.571 
#    0.000    0.000    9.429    0.000    0.000    0.000 
#    0.000    0.000    0.000    0.000    0.000    0.000 
#
# Total GULP energy -347059.082438 kJ/mol
# GULP energy per Si atom -12394.967230 kJ/mol
# Density = 2.203785 g / cm^3
# Si number density = 22.088124 Si / 1000 Ang^3
#
#
#
# Elastic Constant Matrix: (Units=GPa)
#
#
# Indices 1 2 3 4 5 6 
#
# 1 66.2272 28.8502 8.0861 0.0000 -17.6864 0.0000
# 2 28.8502 105.4101 34.2446 0.0000 1.9588 0.0000
# 3 8.0861 34.2446 77.7003 0.0000 -5.1060 0.0000
# 4 0.0000 0.0000 0.0000 23.8192 0.0000 -6.2516
# 5 -17.6864 1.9588 -5.1060 0.0000 27.6247 0.0000
# 6 0.0000 0.0000 0.0000 -6.2516 0.0000 39.3299
#
#
#
# Elastic Compliance Matrix: (Units=1/GPa)
#
#
# Indices 1 2 3 4 5 6 
#
# 1 0.021786 -0.006787 0.001693 0.000000 0.014742 0.000000
# 2 -0.006787 0.013266 -0.005555 0.000000 -0.006313 0.000000
# 3 0.001693 -0.005555 0.015427 0.000000 0.004329 0.000000
# 4 0.000000 0.000000 0.000000 0.043811 0.000000 0.006964
# 5 0.014742 -0.006313 0.004329 0.000000 0.046886 0.000000
# 6 0.000000 0.000000 0.000000 0.006964 0.000000 0.026533
#
#
# Mechanical properties :
#
#
# Convention : Reuss Voigt Hill
#
# Bulk Modulus (GPa) = 34.26946 43.52215 38.89581
# Shear Modulus (GPa) = 25.15921 30.03189 27.59555
#
# Velocity S-wave (km/s) = 3.37863 3.69133 3.53843
# Velocity P-wave (km/s) = 5.54695 6.15748 5.86017
#
# Compressibility (1/GPa) = 0.02918050
#
# Stress axis : x y z
#
# Youngs Moduli (GPa) = 45.90032 75.37908 64.82277
#
# Poissons Ratio (x) = 0.51157 -0.10972
# Poissons Ratio (y) = 0.31151 0.36011
# Poissons Ratio (z) = -0.07769 0.41876
#
# Static dielectric constant tensor:
#      x y z
#    x 3.963490 0.000000 -0.336820 
#    y 0.000000 4.067080 0.000000 
#    z -0.336820 0.000000 3.731980 
# 
# 
# High freq. dielectric constant tensor:
#      x y z
#    x 1.872950 0.000000 -0.027070 
#    y 0.000000 1.864650 0.000000 
#    z -0.027070 0.000000 1.849450 
# 
# From -- ./inp_files/43594.got.cif
#   From: 2010.03.12/outbox.cif.g09.slc.cpg/sg14_22_cif.got.tgz:43594.got - 2010.03.31 13:35:05.
