data_PCOD8126555
_publ_section_title
;
Structure prediction by ZEFSAII (Michael W. Deem and Ramdas Pophale) SiO2 
 PCOD8126555
Probable space group: P 21/C
;
_chemical_formula_sum "Si O2"
_cell_formula_units_Z 28
_cell_length_a 9.379929
_cell_length_b 16.813326
_cell_length_c 12.979396
_cell_angle_alpha 90.000000
_cell_angle_beta 44.438400
_cell_angle_gamma 90.000000
_cell_volume 1433.157153
_symmetry_space_group_name_H-M "P 21/C"
_symmetry_group_IT_number 14
_symmetry_cell_setting 'monoclinic'
loop_
_space_group_symop_operation_xyz
x,y,z
-x,1/2+y,1/2-z
-x,-y,-z
x,1/2-y,1/2+z
loop_
_atom_site_type_symbol
_atom_site_label
_atom_site_fract_x
_atom_site_fract_y
_atom_site_fract_z
Si Si1 0.287155 0.037619 0.139355
Si Si2 0.965576 0.109223 0.739234
Si Si3 0.712887 0.242045 0.396782
Si Si4 0.914929 0.417250 0.501974
Si Si5 0.666511 0.802714 0.531800
Si Si6 0.062311 0.346036 0.627092
Si Si7 0.506214 0.153653 0.168439
O O1 0.168980 0.070586 0.100116
O O2 0.329741 0.110712 0.193520
O O3 0.135939 0.969070 0.259636
O O4 0.500000 0.000000 0.000000
O O5 0.185889 0.124319 0.575615
O O6 0.808737 0.180327 0.791205
O O7 0.002972 0.102948 0.843470
O O8 0.539786 0.195221 0.425509
O O9 0.625038 0.273238 0.551102
O O10 0.894148 0.176428 0.302067
O O11 0.668426 0.413914 0.620046
O O12 0.000000 0.500000 0.500000
O O13 0.973886 0.350601 0.556634
O O14 0.764117 0.718921 0.457832
O O15 0.616297 0.807371 0.676900
#
# Coordination Sequence:
#
# PCOD8126555 Si02
#       7
#     4   4   4   4   4   4   4
#     4  12  20  41  66  90 123 170 208 253 315 379
#     4  10  23  38  64  90 128 162 212 255 310 380
#     4  10  21  41  59  92 123 163 207 254 312 367
#     4  11  20  38  62  91 117 165 207 249 307 375
#     4  11  23  40  60  93 128 158 204 268 308 368
#     4  11  22  37  66  91 124 160 213 255 310 365
#     4  11  23  38  66  86 125 163 208 254 314 373
#
# _framework density 19.537285000000001
#
# number of rings (size 3 to 8) (size 9 to 14) (size 15 to 20)
#    0.000    1.143    7.143    0.000    2.000    1.714 
#    0.000    2.857    3.143    0.000    0.000    0.000 
#    0.000    0.000    0.000    0.000    0.000    0.000 
#
# Total GULP energy -346994.549498 kJ/mol
# GULP energy per Si atom -12392.662482 kJ/mol
# Density = 1.949282 g / cm^3
# Si number density = 19.537285 Si / 1000 Ang^3
#
#
#
# Elastic Constant Matrix: (Units=GPa)
#
#
# Indices 1 2 3 4 5 6 
#
# 1 87.5742 26.2474 43.5409 0.0000 -10.9151 0.0000
# 2 26.2474 69.2802 42.9285 0.0000 -7.5303 0.0000
# 3 43.5409 42.9285 135.4803 0.0000 0.4995 0.0000
# 4 0.0000 0.0000 0.0000 24.4780 0.0000 -11.1089
# 5 -10.9151 -7.5303 0.4995 0.0000 25.0087 0.0000
# 6 0.0000 0.0000 0.0000 -11.1089 0.0000 41.5503
#
#
#
# Elastic Compliance Matrix: (Units=1/GPa)
#
#
# Indices 1 2 3 4 5 6 
#
# 1 0.014894 -0.002527 -0.004007 0.000000 0.005820 0.000000
# 2 -0.002527 0.019186 -0.005285 0.000000 0.004780 0.000000
# 3 -0.004007 -0.005285 0.010357 0.000000 -0.003547 0.000000
# 4 0.000000 0.000000 0.000000 0.046494 0.000000 0.012431
# 5 0.005820 0.004780 -0.003547 0.000000 0.044036 0.000000
# 6 0.000000 0.000000 0.000000 0.012431 0.000000 0.027391
#
#
# Mechanical properties :
#
#
# Convention : Reuss Voigt Hill
#
# Bulk Modulus (GPa) = 48.08138 57.52981 52.80559
# Shear Modulus (GPa) = 25.91636 30.18195 28.04915
#
# Velocity S-wave (km/s) = 3.64608 3.93471 3.79314
# Velocity P-wave (km/s) = 6.51066 7.08185 6.80225
#
# Compressibility (1/GPa) = 0.02079807
#
# Stress axis : x y z
#
# Youngs Moduli (GPa) = 67.14077 52.12246 96.55639
#
# Poissons Ratio (x) = 0.13172 0.38694
# Poissons Ratio (y) = 0.16967 0.51027
# Poissons Ratio (z) = 0.26906 0.27545
#
# Static dielectric constant tensor:
#      x y z
#    x 3.887080 0.000000 -0.152540 
#    y 0.000000 3.697510 0.000000 
#    z -0.152540 0.000000 3.615600 
# 
# 
# High freq. dielectric constant tensor:
#      x y z
#    x 1.764660 0.000000 -0.017630 
#    y 0.000000 1.758510 0.000000 
#    z -0.017630 0.000000 1.753150 
# 
# From -- ./inp_files/41771.got.cif
#   From: 2010.03.12/outbox.cif.g09.slc.cpg/sg14_21_cif.got.tgz:41771.got - 2010.03.31 13:35:05.
