data_PCOD8126507
_publ_section_title
;
Structure prediction by ZEFSAII (Michael W. Deem and Ramdas Pophale) SiO2 
 PCOD8126507
Probable space group: P 21/C
;
_chemical_formula_sum "Si O2"
_cell_formula_units_Z 28
_cell_length_a 16.089062
_cell_length_b 9.093043
_cell_length_c 14.232771
_cell_angle_alpha 90.000000
_cell_angle_beta 139.375036
_cell_angle_gamma 90.000000
_cell_volume 1355.752595
_symmetry_space_group_name_H-M "P 21/C"
_symmetry_group_IT_number 14
_symmetry_cell_setting 'monoclinic'
loop_
_space_group_symop_operation_xyz
x,y,z
-x,1/2+y,1/2-z
-x,-y,-z
x,1/2-y,1/2+z
loop_
_atom_site_type_symbol
_atom_site_label
_atom_site_fract_x
_atom_site_fract_y
_atom_site_fract_z
Si Si1 0.697522 0.718752 0.633796
Si Si2 0.513232 0.207640 0.193498
Si Si3 0.126338 0.097946 0.097213
Si Si4 0.785214 0.159709 0.936012
Si Si5 0.525109 0.871406 0.154839
Si Si6 0.049805 0.838459 0.558794
Si Si7 0.243887 0.908256 0.877209
O O1 0.585462 0.771823 0.468303
O O2 0.792876 0.855139 0.739339
O O3 0.639081 0.654529 0.680394
O O4 0.773729 0.584487 0.649712
O O5 0.649921 0.276120 0.290453
O O6 0.462161 0.250970 0.252508
O O7 0.528100 0.032499 0.203435
O O8 0.216889 0.006659 0.106171
O O9 0.074513 0.250986 0.009738
O O10 0.000000 0.000000 0.000000
O O11 0.897849 0.263939 0.992433
O O12 0.804583 0.146327 0.063602
O O13 0.389947 0.859003 0.984689
O O14 0.160699 0.823236 0.729802
O O15 0.000000 0.000000 0.500000
#
# Coordination Sequence:
#
# PCOD8126507 Si02
#       7
#     4   4   4   4   4   4   4
#     4  11  21  39  68  91 126 175 205 260 334 380
#     4  10  22  40  62  97 126 163 211 258 328 389
#     4  10  24  42  60  90 131 163 217 270 306 372
#     4  10  23  42  62  92 135 159 211 280 309 378
#     4  10  22  39  64  96 130 160 211 265 321 389
#     4  11  21  41  66  91 123 173 219 254 322 382
#     4  10  21  40  66  93 125 167 210 259 323 389
#
# _framework density 20.652736999999998
#
# number of rings (size 3 to 8) (size 9 to 14) (size 15 to 20)
#    0.000    1.714    1.429    3.429    6.000    1.714 
#   10.286    0.000    0.000    0.000    0.000    0.000 
#    0.000    0.000    0.000    0.000    0.000    0.000 
#
# Total GULP energy -347081.605856 kJ/mol
# GULP energy per Si atom -12395.771638 kJ/mol
# Density = 2.060573 g / cm^3
# Si number density = 20.652737 Si / 1000 Ang^3
#
#
#
# Elastic Constant Matrix: (Units=GPa)
#
#
# Indices 1 2 3 4 5 6 
#
# 1 69.7685 38.8549 41.3350 0.0000 -3.6839 0.0000
# 2 38.8549 106.2844 50.4055 0.0000 -1.1901 0.0000
# 3 41.3350 50.4055 120.3183 0.0000 0.6487 0.0000
# 4 0.0000 0.0000 0.0000 43.4169 0.0000 -0.2306
# 5 -3.6839 -1.1901 0.6487 0.0000 21.0059 0.0000
# 6 0.0000 0.0000 0.0000 -0.2306 0.0000 40.8018
#
#
#
# Elastic Compliance Matrix: (Units=1/GPa)
#
#
# Indices 1 2 3 4 5 6 
#
# 1 0.020192 -0.005048 -0.004840 0.000000 0.003405 0.000000
# 2 -0.005048 0.013018 -0.003719 0.000000 -0.000033 0.000000
# 3 -0.004840 -0.003719 0.011540 0.000000 -0.001416 0.000000
# 4 0.000000 0.000000 0.000000 0.023033 0.000000 0.000130
# 5 0.003405 -0.000033 -0.001416 0.000000 0.048245 0.000000
# 6 0.000000 0.000000 0.000000 0.000130 0.000000 0.024509
#
#
# Mechanical properties :
#
#
# Convention : Reuss Voigt Hill
#
# Bulk Modulus (GPa) = 57.03100 61.95134 59.49117
# Shear Modulus (GPa) = 28.80243 32.09665 30.44954
#
# Velocity S-wave (km/s) = 3.73849 3.94650 3.84390
# Velocity P-wave (km/s) = 6.80510 7.12939 6.96913
#
# Compressibility (1/GPa) = 0.01753432
#
# Stress axis : x y z
#
# Youngs Moduli (GPa) = 49.52473 76.81943 86.65568
#
# Poissons Ratio (x) = 0.38778 0.41946
# Poissons Ratio (y) = 0.25000 0.32228
# Poissons Ratio (z) = 0.23972 0.28570
#
# Static dielectric constant tensor:
#      x y z
#    x 3.762270 0.000000 0.177280 
#    y 0.000000 4.096410 0.000000 
#    z 0.177280 0.000000 4.008800 
# 
# 
# High freq. dielectric constant tensor:
#      x y z
#    x 1.797870 0.000000 0.011580 
#    y 0.000000 1.811130 0.000000 
#    z 0.011580 0.000000 1.817210 
# 
# From -- ./inp_files/48588.got.cif
#   From: 2010.03.12/outbox.cif.g09.slc.cpg/sg14_25_cif.got.tgz:48588.got - 2010.03.31 13:35:05.
