data_PCOD8126252
_publ_section_title
;
Structure prediction by ZEFSAII (Michael W. Deem and Ramdas Pophale) SiO2 
 PCOD8126252
Probable space group: P 21/C
;
_chemical_formula_sum "Si O2"
_cell_formula_units_Z 24
_cell_length_a 6.848228
_cell_length_b 13.424590
_cell_length_c 17.535592
_cell_angle_alpha 90.000000
_cell_angle_beta 45.198620
_cell_angle_gamma 90.000000
_cell_volume 1143.891895
_symmetry_space_group_name_H-M "P 21/C"
_symmetry_group_IT_number 14
_symmetry_cell_setting 'monoclinic'
loop_
_space_group_symop_operation_xyz
x,y,z
-x,1/2+y,1/2-z
-x,-y,-z
x,1/2-y,1/2+z
loop_
_atom_site_type_symbol
_atom_site_label
_atom_site_fract_x
_atom_site_fract_y
_atom_site_fract_z
Si Si1 0.608138 0.197395 0.322045
Si Si2 0.965885 0.617744 0.013189
Si Si3 0.711037 0.440255 0.493792
Si Si4 0.026676 0.753135 0.642218
Si Si5 0.708902 0.045312 0.165334
Si Si6 0.530779 0.347488 0.224498
O O1 0.852331 0.196772 0.315396
O O2 0.549840 0.308957 0.306984
O O3 0.335066 0.149618 0.435241
O O4 0.703939 0.142016 0.219063
O O5 0.194387 0.673181 0.899312
O O6 0.991872 0.656865 0.092321
O O7 0.000000 0.500000 0.000000
O O8 0.500000 0.500000 0.500000
O O9 0.763060 0.330638 0.445722
O O10 0.599682 0.427484 0.610810
O O11 0.985830 0.504006 0.421508
O O12 0.731770 0.704649 0.743501
O O13 0.506174 0.965921 0.260276
#
# Coordination Sequence:
#
# PCOD8126252 Si02
#       6
#     4   4   4   4   4   4
#     4  11  23  41  66  94 127 173 212 264 330 381
#     4  11  23  43  66  92 131 176 215 269 324 387
#     4  10  21  39  65  90 124 167 215 264 320 382
#     4  10  24  41  61  97 130 166 220 266 322 394
#     4  10  21  39  61  90 125 163 212 264 318 378
#     4  10  22  42  62  91 129 165 213 269 323 382
#
# _framework density 20.981003000000001
#
# number of rings (size 3 to 8) (size 9 to 14) (size 15 to 20)
#    0.000    1.667    1.667    2.000    0.000   10.000 
#    6.000    0.000    0.000    0.000    0.000    0.000 
#    0.000    0.000    0.000    0.000    0.000    0.000 
#
# Total GULP energy -297658.086237 kJ/mol
# GULP energy per Si atom -12402.420260 kJ/mol
# Density = 2.093325 g / cm^3
# Si number density = 20.981003 Si / 1000 Ang^3
#
#
#
# Elastic Constant Matrix: (Units=GPa)
#
#
# Indices 1 2 3 4 5 6 
#
# 1 106.3053 34.3638 39.5741 0.0000 23.8456 0.0000
# 2 34.3638 94.8622 26.0599 0.0000 7.5931 0.0000
# 3 39.5741 26.0599 109.6438 0.0000 1.7854 0.0000
# 4 0.0000 0.0000 0.0000 26.9591 0.0000 2.4989
# 5 23.8456 7.5931 1.7854 0.0000 29.6863 0.0000
# 6 0.0000 0.0000 0.0000 2.4989 0.0000 29.5210
#
#
#
# Elastic Compliance Matrix: (Units=1/GPa)
#
#
# Indices 1 2 3 4 5 6 
#
# 1 0.014375 -0.003200 -0.004257 0.000000 -0.010472 0.000000
# 2 -0.003200 0.012215 -0.001741 0.000000 -0.000450 0.000000
# 3 -0.004257 -0.001741 0.011019 0.000000 0.003202 0.000000
# 4 0.000000 0.000000 0.000000 0.037387 0.000000 -0.003165
# 5 -0.010472 -0.000450 0.003202 0.000000 0.042020 0.000000
# 6 0.000000 0.000000 0.000000 -0.003165 0.000000 0.034142
#
#
# Mechanical properties :
#
#
# Convention : Reuss Voigt Hill
#
# Bulk Modulus (GPa) = 52.04905 56.75632 54.40268
# Shear Modulus (GPa) = 28.41587 31.28751 29.85169
#
# Velocity S-wave (km/s) = 3.68416 3.86583 3.77609
# Velocity P-wave (km/s) = 6.55431 6.85830 6.70802
#
# Compressibility (1/GPa) = 0.01921265
#
# Stress axis : x y z
#
# Youngs Moduli (GPa) = 69.56434 81.86702 90.75409
#
# Poissons Ratio (x) = 0.26194 0.38639
# Poissons Ratio (y) = 0.22258 0.15801
# Poissons Ratio (z) = 0.29617 0.14254
#
# Static dielectric constant tensor:
#      x y z
#    x 3.774430 0.000000 -0.129180 
#    y 0.000000 3.835290 0.000000 
#    z -0.129180 0.000000 3.808720 
# 
# 
# High freq. dielectric constant tensor:
#      x y z
#    x 1.815380 0.000000 -0.009210 
#    y 0.000000 1.834370 0.000000 
#    z -0.009210 0.000000 1.823920 
# 
# From -- ./inp_files/37256.got.cif
#   From: 2010.03.12/outbox.cif.g09.slc.cpg/sg14_19_cif.got.tgz:37256.got - 2010.03.31 13:35:05.
