data_PCOD8126216
_publ_section_title
;
Structure prediction by ZEFSAII (Michael W. Deem and Ramdas Pophale) SiO2 
 PCOD8126216
Probable space group: P 21/C
;
_chemical_formula_sum "Si O2"
_cell_formula_units_Z 24
_cell_length_a 19.271435
_cell_length_b 5.213002
_cell_length_c 12.781015
_cell_angle_alpha 90.000000
_cell_angle_beta 63.623846
_cell_angle_gamma 90.000000
_cell_volume 1150.337413
_symmetry_space_group_name_H-M "P 21/C"
_symmetry_group_IT_number 14
_symmetry_cell_setting 'monoclinic'
loop_
_space_group_symop_operation_xyz
x,y,z
-x,1/2+y,1/2-z
-x,-y,-z
x,1/2-y,1/2+z
loop_
_atom_site_type_symbol
_atom_site_label
_atom_site_fract_x
_atom_site_fract_y
_atom_site_fract_z
Si Si1 0.123720 0.465198 0.353487
Si Si2 0.226072 0.144401 0.966903
Si Si3 0.403120 0.448868 0.360160
Si Si4 0.161463 0.860691 0.612894
Si Si5 0.976958 0.197724 0.429368
Si Si6 0.473868 0.953624 0.400662
O O1 0.190165 0.315899 0.374141
O O2 0.163088 0.642214 0.238588
O O3 0.077266 0.599013 0.477278
O O4 0.060380 0.296924 0.331913
O O5 0.218080 0.415640 0.032127
O O6 0.186851 0.921108 0.061455
O O7 0.313368 0.051639 0.891899
O O8 0.426922 0.688114 0.418026
O O9 0.449514 0.460022 0.221029
O O10 0.417776 0.185916 0.410419
O O11 0.073352 0.917990 0.631994
O O12 0.000000 0.000000 0.500000
O O13 0.500000 0.000000 0.500000
#
# Coordination Sequence:
#
# PCOD8126216 Si02
#       6
#     4   4   4   4   4   4
#     4  10  24  39  60  86 120 160 205 257 307 358
#     4  11  24  42  57  93 126 158 201 249 308 366
#     4  10  22  39  64  91 128 156 197 253 293 359
#     4  11  25  39  63  87 123 163 209 251 306 366
#     4  10  21  39  59  85 115 157 209 259 296 354
#     4  10  21  41  66  95 119 160 204 240 296 360
#
# _framework density 20.863444999999999
#
# number of rings (size 3 to 8) (size 9 to 14) (size 15 to 20)
#    0.000    1.667    1.667    1.500    4.667    2.667 
#    0.000    0.000    0.000    0.000    0.000    0.000 
#    0.000    0.000    0.000    0.000    0.000    0.000 
#
# Total GULP energy -297450.970837 kJ/mol
# GULP energy per Si atom -12393.790452 kJ/mol
# Density = 2.081596 g / cm^3
# Si number density = 20.863445 Si / 1000 Ang^3
#
#
#
# Elastic Constant Matrix: (Units=GPa)
#
#
# Indices 1 2 3 4 5 6 
#
# 1 116.9433 6.3171 44.0982 0.0000 -11.6434 0.0000
# 2 6.3171 75.3206 12.0306 0.0000 -9.0164 0.0000
# 3 44.0982 12.0306 79.2560 0.0000 16.1855 0.0000
# 4 0.0000 0.0000 0.0000 18.5242 0.0000 -0.0787
# 5 -11.6434 -9.0164 16.1855 0.0000 23.1222 0.0000
# 6 0.0000 0.0000 0.0000 -0.0787 0.0000 31.0402
#
#
#
# Elastic Compliance Matrix: (Units=1/GPa)
#
#
# Indices 1 2 3 4 5 6 
#
# 1 0.014574 0.002688 -0.011936 0.000000 0.016742 0.000000
# 2 0.002688 0.015454 -0.006241 0.000000 0.011749 0.000000
# 3 -0.011936 -0.006241 0.025588 0.000000 -0.026356 0.000000
# 4 0.000000 0.000000 0.000000 0.053984 0.000000 0.000137
# 5 0.016742 0.011749 -0.026356 0.000000 0.074710 0.000000
# 6 0.000000 0.000000 0.000000 0.000137 0.000000 0.032217
#
#
# Mechanical properties :
#
#
# Convention : Reuss Voigt Hill
#
# Bulk Modulus (GPa) = 40.58594 44.04573 42.31583
# Shear Modulus (GPa) = 19.55282 28.47558 24.01420
#
# Velocity S-wave (km/s) = 3.06466 3.69840 3.39635
# Velocity P-wave (km/s) = 5.65847 6.27653 5.97549
#
# Compressibility (1/GPa) = 0.02463907
#
# Stress axis : x y z
#
# Youngs Moduli (GPa) = 68.61594 64.70664 39.08033
#
# Poissons Ratio (x) = -0.17396 0.46647
# Poissons Ratio (y) = -0.18447 0.24390
# Poissons Ratio (z) = 0.81901 0.40384
#
# Static dielectric constant tensor:
#      x y z
#    x 3.591140 0.000000 0.357570 
#    y 0.000000 3.796250 0.000000 
#    z 0.357570 0.000000 3.089430 
# 
# 
# High freq. dielectric constant tensor:
#      x y z
#    x 1.822840 0.000000 0.005380 
#    y 0.000000 1.820690 0.000000 
#    z 0.005380 0.000000 1.808790 
# 
# From -- ./inp_files/33346.got.cif
#   From: 2010.03.12/outbox.cif.g09.slc.cpg/sg14_17_cif.got.tgz:33346.got - 2010.03.31 13:35:05.
