data_PCOD8126176
_publ_section_title
;
Structure prediction by ZEFSAII (Michael W. Deem and Ramdas Pophale) SiO2 
 PCOD8126176
Probable space group: P 21/C
;
_chemical_formula_sum "Si O2"
_cell_formula_units_Z 24
_cell_length_a 11.510830
_cell_length_b 14.013596
_cell_length_c 15.198342
_cell_angle_alpha 90.000000
_cell_angle_beta 27.420626
_cell_angle_gamma 90.000000
_cell_volume 1129.016631
_symmetry_space_group_name_H-M "P 21/C"
_symmetry_group_IT_number 14
_symmetry_cell_setting 'monoclinic'
loop_
_space_group_symop_operation_xyz
x,y,z
-x,1/2+y,1/2-z
-x,-y,-z
x,1/2-y,1/2+z
loop_
_atom_site_type_symbol
_atom_site_label
_atom_site_fract_x
_atom_site_fract_y
_atom_site_fract_z
Si Si1 0.365786 0.865491 0.852640
Si Si2 0.978498 0.651685 0.468564
Si Si3 0.294189 0.442696 0.490786
Si Si4 0.935822 0.944525 0.674077
Si Si5 0.926357 0.863034 0.492065
Si Si6 0.578842 0.154192 0.657457
O O1 0.654841 0.862610 0.626031
O O2 0.295292 0.759061 0.932535
O O3 0.184682 0.895653 0.893503
O O4 0.332957 0.943877 0.951142
O O5 0.959333 0.590425 0.391500
O O6 0.057341 0.760367 0.391722
O O7 0.696465 0.651575 0.704544
O O8 0.532265 0.382164 0.291147
O O9 0.264616 0.423216 0.614252
O O10 0.219144 0.919779 0.518949
O O11 0.879315 0.878945 0.627908
O O12 0.906918 0.054976 0.665336
#
# Coordination Sequence:
#
# PCOD8126176 Si02
#       6
#     4   4   4   4   4   4
#     4  11  19  41  62  87 124 160 197 246 309 347
#     4   9  20  39  63  86 120 162 195 245 307 349
#     4  10  23  37  65  93 115 160 202 244 297 366
#     4  11  21  41  62  93 121 154 211 237 299 359
#     4  10  21  38  65  83 127 164 184 259 300 341
#     4   9  21  39  61  84 124 158 190 257 292 345
#
# _framework density 21.257438
#
# number of rings (size 3 to 8) (size 9 to 14) (size 15 to 20)
#    1.000    1.000    3.333    0.500    0.000    2.000 
#    0.000    6.667    0.000    0.000    0.000    0.000 
#    0.000    0.000    0.000    0.000    0.000    0.000 
#
# Total GULP energy -297350.298316 kJ/mol
# GULP energy per Si atom -12389.595763 kJ/mol
# Density = 2.120905 g / cm^3
# Si number density = 21.257438 Si / 1000 Ang^3
#
#
#
# Elastic Constant Matrix: (Units=GPa)
#
#
# Indices 1 2 3 4 5 6 
#
# 1 49.5927 0.9938 5.1750 0.0000 0.6930 0.0000
# 2 0.9938 109.9878 22.1434 0.0000 18.2953 0.0000
# 3 5.1750 22.1434 56.1315 0.0000 21.1368 0.0000
# 4 0.0000 0.0000 0.0000 19.9564 0.0000 -8.2898
# 5 0.6930 18.2953 21.1368 0.0000 31.0857 0.0000
# 6 0.0000 0.0000 0.0000 -8.2898 0.0000 26.1563
#
#
#
# Elastic Compliance Matrix: (Units=1/GPa)
#
#
# Indices 1 2 3 4 5 6 
#
# 1 0.020390 0.000107 -0.002321 0.000000 0.001061 0.000000
# 2 0.000107 0.010314 -0.002409 0.000000 -0.004435 0.000000
# 3 -0.002321 -0.002409 0.024768 0.000000 -0.015372 0.000000
# 4 0.000000 0.000000 0.000000 0.057706 0.000000 0.018289
# 5 0.001061 -0.004435 -0.015372 0.000000 0.045207 0.000000
# 6 0.000000 0.000000 0.000000 0.018289 0.000000 0.044028
#
#
# Mechanical properties :
#
#
# Convention : Reuss Voigt Hill
#
# Bulk Modulus (GPa) = 21.63371 30.25961 25.94666
# Shear Modulus (GPa) = 22.01985 27.93300 24.97642
#
# Velocity S-wave (km/s) = 3.22198 3.62889 3.43147
# Velocity P-wave (km/s) = 4.90312 5.64130 5.28511
#
# Compressibility (1/GPa) = 0.04622416
#
# Stress axis : x y z
#
# Youngs Moduli (GPa) = 49.04478 96.96020 40.37493
#
# Poissons Ratio (x) = -0.01034 0.09373
# Poissons Ratio (y) = -0.00523 0.09724
# Poissons Ratio (z) = 0.11386 0.23353
#
# Static dielectric constant tensor:
#      x y z
#    x 3.701830 0.000000 -0.352930 
#    y 0.000000 4.019730 0.000000 
#    z -0.352930 0.000000 3.375210 
# 
# 
# High freq. dielectric constant tensor:
#      x y z
#    x 1.817930 0.000000 -0.036620 
#    y 0.000000 1.848860 0.000000 
#    z -0.036620 0.000000 1.787970 
# 
# From -- ./inp_files/45017.got.cif
#   From: 2010.03.12/outbox.cif.g09.slc.cpg/sg14_23_cif.got.tgz:45017.got - 2010.03.31 13:35:05.
