data_PCOD8126128
_publ_section_title
;
Structure prediction by ZEFSAII (Michael W. Deem and Ramdas Pophale) SiO2 
 PCOD8126128
Probable space group: P 21/C
;
_chemical_formula_sum "Si O2"
_cell_formula_units_Z 32
_cell_length_a 16.220525
_cell_length_b 8.909494
_cell_length_c 23.469723
_cell_angle_alpha 90.000000
_cell_angle_beta 151.139420
_cell_angle_gamma 90.000000
_cell_volume 1637.137520
_symmetry_space_group_name_H-M "P 21/C"
_symmetry_group_IT_number 14
_symmetry_cell_setting 'monoclinic'
loop_
_space_group_symop_operation_xyz
x,y,z
-x,1/2+y,1/2-z
-x,-y,-z
x,1/2-y,1/2+z
loop_
_atom_site_type_symbol
_atom_site_label
_atom_site_fract_x
_atom_site_fract_y
_atom_site_fract_z
Si Si1 0.881881 0.948936 0.177408
Si Si2 0.500277 0.567171 0.862608
Si Si3 0.337045 0.182804 0.324083
Si Si4 0.887642 0.954301 0.311870
Si Si5 0.350648 0.886711 0.747402
Si Si6 0.221745 0.115879 0.376776
Si Si7 0.381102 0.873331 0.059107
Si Si8 0.265180 0.612583 0.067730
O O1 0.074686 0.992879 0.278520
O O2 0.838560 0.988823 0.216748
O O3 0.863715 0.771879 0.155180
O O4 0.756107 0.035845 0.059727
O O5 0.340047 0.464299 0.785541
O O6 0.442801 0.735794 0.821772
O O7 0.578699 0.500333 0.851793
O O8 0.650249 0.551717 0.999343
O O9 0.175427 0.286530 0.209427
O O10 0.330137 0.134782 0.385220
O O11 0.512388 0.274281 0.421116
O O12 0.089337 0.965142 0.442470
O O13 0.796121 0.077515 0.295651
O O14 0.261718 0.862088 0.633000
O O15 0.492674 0.016009 0.830618
O O16 0.286358 0.771015 0.048393
#
# Coordination Sequence:
#
# PCOD8126128 Si02
#       8
#     4   4   4   4   4   4   4   4
#     4  11  22  37  61  90 123 152 196 249 305 362
#     4  11  22  40  58  92 116 156 203 243 293 352
#     4   9  22  36  59  83 123 154 192 243 304 359
#     4  10  22  40  60  88 117 163 198 247 303 356
#     4  11  23  39  63  89 119 159 208 250 284 357
#     4  11  22  37  58  89 123 153 189 240 305 361
#     4  10  21  38  62  87 119 161 199 249 301 352
#     4  11  22  43  61  84 124 165 202 241 301 353
#
# _framework density 19.546312
#
# number of rings (size 3 to 8) (size 9 to 14) (size 15 to 20)
#    0.000    1.500    2.500    3.000    3.500    2.500 
#    0.000    0.625    0.000    0.000    0.000    0.000 
#    0.000    0.000    0.000    0.000    0.000    0.000 
#
# Total GULP energy -396919.112582 kJ/mol
# GULP energy per Si atom -12403.722268 kJ/mol
# Density = 1.950182 g / cm^3
# Si number density = 19.546312 Si / 1000 Ang^3
#
#
#
# Elastic Constant Matrix: (Units=GPa)
#
#
# Indices 1 2 3 4 5 6 
#
# 1 74.2541 22.8071 26.3884 0.0000 -7.2166 0.0000
# 2 22.8071 87.5807 18.6249 0.0000 9.5175 0.0000
# 3 26.3884 18.6249 66.4261 0.0000 -3.4871 0.0000
# 4 0.0000 0.0000 0.0000 26.9335 0.0000 1.9590
# 5 -7.2166 9.5175 -3.4871 0.0000 23.4237 0.0000
# 6 0.0000 0.0000 0.0000 1.9590 0.0000 22.3857
#
#
#
# Elastic Compliance Matrix: (Units=1/GPa)
#
#
# Indices 1 2 3 4 5 6 
#
# 1 0.017207 -0.004000 -0.005393 0.000000 0.006124 0.000000
# 2 -0.004000 0.013813 -0.002664 0.000000 -0.007241 0.000000
# 3 -0.005393 -0.002664 0.018054 0.000000 0.002109 0.000000
# 4 0.000000 0.000000 0.000000 0.037366 0.000000 -0.003270
# 5 0.006124 -0.007241 0.002109 0.000000 0.047835 0.000000
# 6 0.000000 0.000000 0.000000 -0.003270 0.000000 0.044958
#
#
# Mechanical properties :
#
#
# Convention : Reuss Voigt Hill
#
# Bulk Modulus (GPa) = 40.06188 40.43352 40.24770
# Shear Modulus (GPa) = 23.62195 25.24462 24.43328
#
# Velocity S-wave (km/s) = 3.48014 3.59768 3.53940
# Velocity P-wave (km/s) = 6.05713 6.16350 6.11055
#
# Compressibility (1/GPa) = 0.02496138
#
# Stress axis : x y z
#
# Youngs Moduli (GPa) = 58.11439 72.39498 55.38806
#
# Poissons Ratio (x) = 0.28955 0.29870
# Poissons Ratio (y) = 0.23244 0.14757
# Poissons Ratio (z) = 0.31341 0.19288
#
# Static dielectric constant tensor:
#      x y z
#    x 3.684970 0.000000 0.096280 
#    y 0.000000 3.710810 0.000000 
#    z 0.096280 0.000000 3.430960 
# 
# 
# High freq. dielectric constant tensor:
#      x y z
#    x 1.767330 0.000000 0.007400 
#    y 0.000000 1.768920 0.000000 
#    z 0.007400 0.000000 1.752370 
# 
# From -- ./inp_files/57294.got.cif
#   From: 2010.03.12/outbox.cif.g09.slc.cpg/sg14_29_cif.got.tgz:57294.got - 2010.03.31 13:35:05.
