data_PCOD8126185
_publ_section_title
;
Structure prediction by ZEFSAII (Michael W. Deem and Ramdas Pophale) SiO2 
 PCOD8126185
Probable space group: P 21/C
;
_chemical_formula_sum "Si O2"
_cell_formula_units_Z 32
_cell_length_a 8.883789
_cell_length_b 21.526979
_cell_length_c 15.021199
_cell_angle_alpha 90.000000
_cell_angle_beta 148.658158
_cell_angle_gamma 90.000000
_cell_volume 1494.199729
_symmetry_space_group_name_H-M "P 21/C"
_symmetry_group_IT_number 14
_symmetry_cell_setting 'monoclinic'
loop_
_space_group_symop_operation_xyz
x,y,z
-x,1/2+y,1/2-z
-x,-y,-z
x,1/2-y,1/2+z
loop_
_atom_site_type_symbol
_atom_site_label
_atom_site_fract_x
_atom_site_fract_y
_atom_site_fract_z
Si Si1 0.233262 0.564660 0.705267
Si Si2 0.608073 0.383465 0.907075
Si Si3 0.845299 0.987013 0.514535
Si Si4 0.244270 0.826319 0.346306
Si Si5 0.316923 0.938634 0.885140
Si Si6 0.003086 0.572616 0.398981
Si Si7 0.644956 0.334383 0.731729
Si Si8 0.203621 0.264473 0.954348
O O1 0.574968 0.558197 0.863381
O O2 0.162578 0.612651 0.748195
O O3 0.120561 0.591477 0.554896
O O4 0.071204 0.500509 0.645337
O O5 0.734397 0.449379 0.999516
O O6 0.665478 0.371827 0.833075
O O7 0.268831 0.383774 0.756066
O O8 0.760355 0.335536 0.049917
O O9 0.042552 0.956640 0.688285
O O10 0.000000 0.000000 0.500000
O O11 0.567278 0.805119 0.483939
O O12 0.996419 0.775530 0.211656
O O13 0.231387 0.910394 0.937505
O O14 0.459951 0.882209 0.900026
O O15 0.500000 0.000000 0.000000
O O16 0.400941 0.280544 0.616771
O O17 0.972997 0.308073 0.888866
#
# Coordination Sequence:
#
# PCOD8126185 Si02
#       8
#     4   4   4   4   4   4   4   4
#     4  10  21  38  66  88 135 169 206 261 317 397
#     4  11  23  38  69  93 130 167 210 271 321 397
#     4  11  21  37  58 100 134 167 205 252 330 395
#     4  11  23  43  66  91 123 174 220 272 321 378
#     4  12  25  39  66  97 138 173 212 272 332 401
#     4  10  22  38  61 102 128 169 210 251 335 392
#     4  11  24  45  65  96 131 168 222 272 327 391
#     4  10  25  45  66  88 125 175 225 275 322 380
#
# _framework density 21.416146000000001
#
# number of rings (size 3 to 8) (size 9 to 14) (size 15 to 20)
#    0.000    1.250    1.250    4.500    7.000    3.000 
#    0.000    5.000    0.000    0.000    0.000    0.000 
#    0.000    0.000    0.000    0.000    0.000    0.000 
#
# Total GULP energy -396657.595382 kJ/mol
# GULP energy per Si atom -12395.549856 kJ/mol
# Density = 2.136740 g / cm^3
# Si number density = 21.416146 Si / 1000 Ang^3
#
#
#
# Elastic Constant Matrix: (Units=GPa)
#
#
# Indices 1 2 3 4 5 6 
#
# 1 91.8667 17.0056 21.7763 0.0000 -19.5559 0.0000
# 2 17.0056 71.8517 25.3998 0.0000 -5.7967 0.0000
# 3 21.7763 25.3998 70.4885 0.0000 0.7789 0.0000
# 4 0.0000 0.0000 0.0000 40.3333 0.0000 1.5222
# 5 -19.5559 -5.7967 0.7789 0.0000 41.5816 0.0000
# 6 0.0000 0.0000 0.0000 1.5222 0.0000 17.8731
#
#
#
# Elastic Compliance Matrix: (Units=1/GPa)
#
#
# Indices 1 2 3 4 5 6 
#
# 1 0.013320 -0.001350 -0.003696 0.000000 0.006145 0.000000
# 2 -0.001350 0.016315 -0.005481 0.000000 0.001742 0.000000
# 3 -0.003696 -0.005481 0.017335 0.000000 -0.002827 0.000000
# 4 0.000000 0.000000 0.000000 0.024873 0.000000 -0.002118
# 5 0.006145 0.001742 -0.002827 0.000000 0.027235 0.000000
# 6 0.000000 0.000000 0.000000 -0.002118 0.000000 0.056130
#
#
# Mechanical properties :
#
#
# Convention : Reuss Voigt Hill
#
# Bulk Modulus (GPa) = 38.58808 40.28557 39.43682
# Shear Modulus (GPa) = 27.04139 31.29263 29.16701
#
# Velocity S-wave (km/s) = 3.55725 3.82667 3.69442
# Velocity P-wave (km/s) = 5.91011 6.19486 6.05416
#
# Compressibility (1/GPa) = 0.02591474
#
# Stress axis : x y z
#
# Youngs Moduli (GPa) = 75.07744 61.29241 57.68693
#
# Poissons Ratio (x) = 0.08274 0.21323
# Poissons Ratio (y) = 0.10135 0.31619
# Poissons Ratio (z) = 0.27751 0.33596
#
# Static dielectric constant tensor:
#      x y z
#    x 3.966750 0.000000 0.041010 
#    y 0.000000 5.286970 0.000000 
#    z 0.041010 0.000000 4.117570 
# 
# 
# High freq. dielectric constant tensor:
#      x y z
#    x 1.837070 0.000000 0.005190 
#    y 0.000000 1.837090 0.000000 
#    z 0.005190 0.000000 1.853870 
# 
# From -- ./inp_files/42243.got.cif
#   From: 2010.03.12/outbox.cif.g09.slc.cpg/sg14_22_cif.got.tgz:42243.got - 2010.03.31 13:35:05.
