data_PCOD8126431
_publ_section_title
;
Structure prediction by ZEFSAII (Michael W. Deem and Ramdas Pophale) SiO2 
 PCOD8126431
Probable space group: P 21/C
;
_chemical_formula_sum "Si O2"
_cell_formula_units_Z 20
_cell_length_a 26.996428
_cell_length_b 6.250187
_cell_length_c 18.061236
_cell_angle_alpha 90.000000
_cell_angle_beta 160.778080
_cell_angle_gamma 90.000000
_cell_volume 1003.329172
_symmetry_space_group_name_H-M "P 21/C"
_symmetry_group_IT_number 14
_symmetry_cell_setting 'monoclinic'
loop_
_space_group_symop_operation_xyz
x,y,z
-x,1/2+y,1/2-z
-x,-y,-z
x,1/2-y,1/2+z
loop_
_atom_site_type_symbol
_atom_site_label
_atom_site_fract_x
_atom_site_fract_y
_atom_site_fract_z
Si Si1 0.150118 0.376990 0.414601
Si Si2 0.302319 0.294489 0.410115
Si Si3 0.378867 0.877263 0.143384
Si Si4 0.834798 0.499861 0.169620
Si Si5 0.086702 0.294730 0.978908
O O1 0.300968 0.499906 0.601965
O O2 0.149022 0.137768 0.381877
O O3 0.149916 0.356405 0.502849
O O4 0.001233 0.501030 0.177120
O O5 0.444048 0.143356 0.591053
O O6 0.350628 0.498610 0.526589
O O7 0.177536 0.156414 0.277805
O O8 0.225196 0.374471 0.225211
O O9 0.316730 0.638037 0.049584
O O10 0.976936 0.343294 0.376651
#
# Coordination Sequence:
#
# PCOD8126431 Si02
#       5
#     4   4   4   4   4
#     4  10  22  40  61  89 125 154 199 246 293 354
#     4  11  22  39  64  90 118 159 199 241 300 356
#     4  10  22  40  61  89 125 154 199 246 293 354
#     4  10  21  40  63  88 122 152 195 260 293 346
#     4  11  22  39  64  90 118 159 199 241 300 356
#
# _framework density 19.933638999999999
#
# number of rings (size 3 to 8) (size 9 to 14) (size 15 to 20)
#    0.000    1.600    4.000    0.600    0.000    9.600 
#    0.000    1.000    0.000    0.000    0.000    0.000 
#    0.000    0.000    0.000    0.000    0.000    0.000 
#
# Total GULP energy -248022.557409 kJ/mol
# GULP energy per Si atom -12401.127870 kJ/mol
# Density = 1.988827 g / cm^3
# Si number density = 19.933639 Si / 1000 Ang^3
#
#
#
# Elastic Constant Matrix: (Units=GPa)
#
#
# Indices 1 2 3 4 5 6 
#
# 1 102.2076 28.5469 69.3141 0.0000 0.5282 0.0000
# 2 28.5469 85.4465 29.2950 0.0000 -0.6281 0.0000
# 3 69.3141 29.2950 110.1457 0.0000 -7.3619 0.0000
# 4 0.0000 0.0000 0.0000 24.5497 0.0000 7.0215
# 5 0.5282 -0.6281 -7.3619 0.0000 23.1269 0.0000
# 6 0.0000 0.0000 0.0000 7.0215 0.0000 32.4992
#
#
#
# Elastic Compliance Matrix: (Units=1/GPa)
#
#
# Indices 1 2 3 4 5 6 
#
# 1 0.017803 -0.002251 -0.010867 0.000000 -0.003927 0.000000
# 2 -0.002251 0.013175 -0.002105 0.000000 -0.000261 0.000000
# 3 -0.010867 -0.002105 0.016848 0.000000 0.005554 0.000000
# 4 0.000000 0.000000 0.000000 0.043417 0.000000 -0.009380
# 5 -0.003927 -0.000261 0.005554 0.000000 0.045090 0.000000
# 6 0.000000 0.000000 0.000000 -0.009380 0.000000 0.032797
#
#
# Mechanical properties :
#
#
# Convention : Reuss Voigt Hill
#
# Bulk Modulus (GPa) = 57.53608 61.34577 59.44092
# Shear Modulus (GPa) = 24.34647 27.41143 25.87895
#
# Velocity S-wave (km/s) = 3.49861 3.71230 3.60704
# Velocity P-wave (km/s) = 6.72658 7.01546 6.87254
#
# Compressibility (1/GPa) = 0.01738040
#
# Stress axis : x y z
#
# Youngs Moduli (GPa) = 56.17169 75.90113 59.35255
#
# Poissons Ratio (x) = 0.17084 0.64498
# Poissons Ratio (y) = 0.12644 0.12494
# Poissons Ratio (z) = 0.61041 0.15978
#
# Static dielectric constant tensor:
#      x y z
#    x 3.701790 0.000000 0.267910 
#    y 0.000000 3.616120 0.000000 
#    z 0.267910 0.000000 3.397830 
# 
# 
# High freq. dielectric constant tensor:
#      x y z
#    x 1.781090 0.000000 0.019810 
#    y 0.000000 1.782360 0.000000 
#    z 0.019810 0.000000 1.758620 
# 
# From -- ./inp_files/36812.got.cif
#   From: 2010.03.12/outbox.cif.g09.slc.cpg/sg14_19_cif.got.tgz:36812.got - 2010.03.31 13:35:05.
