data_PCOD8126008
_publ_section_title
;
Structure prediction by ZEFSAII (Michael W. Deem and Ramdas Pophale) SiO2 
 PCOD8126008
Probable space group: P 21/C
;
_chemical_formula_sum "Si O2"
_cell_formula_units_Z 20
_cell_length_a 8.967143
_cell_length_b 6.356513
_cell_length_c 22.703948
_cell_angle_alpha 90.000000
_cell_angle_beta 128.576538
_cell_angle_gamma 90.000000
_cell_volume 1011.711496
_symmetry_space_group_name_H-M "P 21/C"
_symmetry_group_IT_number 14
_symmetry_cell_setting 'monoclinic'
loop_
_space_group_symop_operation_xyz
x,y,z
-x,1/2+y,1/2-z
-x,-y,-z
x,1/2-y,1/2+z
loop_
_atom_site_type_symbol
_atom_site_label
_atom_site_fract_x
_atom_site_fract_y
_atom_site_fract_z
Si Si1 0.793441 0.104221 0.093682
Si Si2 0.312412 0.879603 0.330591
Si Si3 0.480182 0.236018 0.927282
Si Si4 0.531056 0.504878 0.694925
Si Si5 0.786754 0.637067 0.298575
O O1 0.816572 0.236162 0.159603
O O2 0.007028 0.109012 0.119631
O O3 0.705744 0.875119 0.088343
O O4 0.659844 0.219804 0.014163
O O5 0.428745 0.733276 0.314253
O O6 0.447059 0.017326 0.407043
O O7 0.187825 0.036162 0.260243
O O8 0.536018 0.130505 0.879172
O O9 0.359121 0.499280 0.698768
O O10 0.711268 0.623069 0.770655
#
# Coordination Sequence:
#
# PCOD8126008 Si02
#       5
#     4   4   4   4   4
#     4  10  22  37  62  89 116 151 194 239 296 352
#     4  10  21  37  60  82 120 151 190 245 289 343
#     4   9  21  41  59  87 119 151 191 242 295 349
#     4  10  21  39  57  82 119 156 196 239 289 343
#     4  11  22  36  59  86 116 156 197 240 290 343
#
# _framework density 19.768481999999999
#
# number of rings (size 3 to 8) (size 9 to 14) (size 15 to 20)
#    0.000    2.000    2.000    0.600    8.400    0.800 
#    0.000    1.000    0.000    0.000    0.000    0.000 
#    0.000    0.000    0.000    0.000    0.000    0.000 
#
# Total GULP energy -247883.128031 kJ/mol
# GULP energy per Si atom -12394.156402 kJ/mol
# Density = 1.972349 g / cm^3
# Si number density = 19.768482 Si / 1000 Ang^3
#
#
#
# Elastic Constant Matrix: (Units=GPa)
#
#
# Indices 1 2 3 4 5 6 
#
# 1 86.5572 37.2273 55.9339 0.0000 21.9372 0.0000
# 2 37.2273 91.8368 28.8417 0.0000 14.8417 0.0000
# 3 55.9339 28.8417 85.8075 0.0000 23.4051 0.0000
# 4 0.0000 0.0000 0.0000 28.9597 0.0000 -10.6135
# 5 21.9372 14.8417 23.4051 0.0000 33.5033 0.0000
# 6 0.0000 0.0000 0.0000 -10.6135 0.0000 25.4328
#
#
#
# Elastic Compliance Matrix: (Units=1/GPa)
#
#
# Indices 1 2 3 4 5 6 
#
# 1 0.022234 -0.004624 -0.011770 0.000000 -0.004288 0.000000
# 2 -0.004624 0.013407 -0.000863 0.000000 -0.002309 0.000000
# 3 -0.011770 -0.000863 0.021508 0.000000 -0.006937 0.000000
# 4 0.000000 0.000000 0.000000 0.040766 0.000000 0.017012
# 5 -0.004288 -0.002309 -0.006937 0.000000 0.038524 0.000000
# 6 0.000000 0.000000 0.000000 0.017012 0.000000 0.046419
#
#
# Mechanical properties :
#
#
# Convention : Reuss Voigt Hill
#
# Bulk Modulus (GPa) = 44.17441 56.46745 50.32093
# Shear Modulus (GPa) = 22.23056 27.05907 24.64481
#
# Velocity S-wave (km/s) = 3.35706 3.70374 3.53465
# Velocity P-wave (km/s) = 6.11726 6.84957 6.49375
#
# Compressibility (1/GPa) = 0.02263754
#
# Stress axis : x y z
#
# Youngs Moduli (GPa) = 44.97632 74.58660 46.49413
#
# Poissons Ratio (x) = 0.34486 0.54722
# Poissons Ratio (y) = 0.20795 0.04011
# Poissons Ratio (z) = 0.52935 0.06435
#
# Static dielectric constant tensor:
#      x y z
#    x 3.482740 0.000000 -0.188050 
#    y 0.000000 3.757150 0.000000 
#    z -0.188050 0.000000 3.517320 
# 
# 
# High freq. dielectric constant tensor:
#      x y z
#    x 1.757030 0.000000 -0.018860 
#    y 0.000000 1.777750 0.000000 
#    z -0.018860 0.000000 1.763470 
# 
# From -- ./inp_files/53956.got.cif
#   From: 2010.03.12/outbox.cif.g09.slc.cpg/sg14_27_cif.got.tgz:53956.got - 2010.03.31 13:35:05.
