data_PCOD8126352
_publ_section_title
;
Structure prediction by ZEFSAII (Michael W. Deem and Ramdas Pophale) SiO2 
 PCOD8126352
Probable space group: P 21/C
;
_chemical_formula_sum "Si O2"
_cell_formula_units_Z 28
_cell_length_a 13.593385
_cell_length_b 16.447268
_cell_length_c 11.926155
_cell_angle_alpha 90.000000
_cell_angle_beta 150.292997
_cell_angle_gamma 90.000000
_cell_volume 1321.363531
_symmetry_space_group_name_H-M "P 21/C"
_symmetry_group_IT_number 14
_symmetry_cell_setting 'monoclinic'
loop_
_space_group_symop_operation_xyz
x,y,z
-x,1/2+y,1/2-z
-x,-y,-z
x,1/2-y,1/2+z
loop_
_atom_site_type_symbol
_atom_site_label
_atom_site_fract_x
_atom_site_fract_y
_atom_site_fract_z
Si Si1 0.350238 0.585841 0.064210
Si Si2 0.479992 0.097702 0.491159
Si Si3 0.106384 0.047671 0.204160
Si Si4 0.060058 0.824979 0.431575
Si Si5 0.215552 0.652939 0.524772
Si Si6 0.664273 0.921024 0.069878
Si Si7 0.687768 0.104814 0.122350
O O1 0.447667 0.634910 0.055961
O O2 0.256865 0.501969 0.930669
O O3 0.169712 0.636150 0.934624
O O4 0.519968 0.567951 0.321613
O O5 0.247133 0.116517 0.284940
O O6 0.605790 0.139713 0.712786
O O7 0.500000 0.000000 0.500000
O O8 0.939226 0.079537 0.121671
O O9 0.000000 0.000000 0.000000
O O10 0.084627 0.729839 0.432603
O O11 0.158673 0.849295 0.646115
O O12 0.831507 0.854018 0.208503
O O13 0.305526 0.652642 0.489024
O O14 0.756369 0.010258 0.183249
O O15 0.536444 0.890508 0.050492
#
# Coordination Sequence:
#
# PCOD8126352 Si02
#       7
#     4   4   4   4   4   4   4
#     4  10  22  40  69  95 131 172 222 278 336 401
#     4  10  21  39  66  98 130 169 217 277 332 398
#     4  11  22  38  68 103 127 174 224 276 334 404
#     4  11  26  42  65  98 137 181 218 282 348 409
#     4  12  25  41  67 101 141 173 223 283 353 410
#     4  10  22  45  72  97 127 185 232 281 336 410
#     4  10  23  43  69  96 132 177 237 280 332 420
#
# _framework density 21.190231000000001
#
# number of rings (size 3 to 8) (size 9 to 14) (size 15 to 20)
#    0.000    1.429    2.857    3.000    4.000    5.714 
#    0.000    0.000    0.000    0.000    0.000    0.000 
#    0.000    0.000    0.000    0.000    0.000    0.000 
#
# Total GULP energy -347053.249548 kJ/mol
# GULP energy per Si atom -12394.758912 kJ/mol
# Density = 2.114200 g / cm^3
# Si number density = 21.190231 Si / 1000 Ang^3
#
#
#
# Elastic Constant Matrix: (Units=GPa)
#
#
# Indices 1 2 3 4 5 6 
#
# 1 161.2073 30.2151 79.1800 0.0000 -10.8748 0.0000
# 2 30.2151 74.5708 48.1792 0.0000 -3.7949 0.0000
# 3 79.1800 48.1792 109.3534 0.0000 1.2010 0.0000
# 4 0.0000 0.0000 0.0000 20.4855 0.0000 8.4342
# 5 -10.8748 -3.7949 1.2010 0.0000 38.9555 0.0000
# 6 0.0000 0.0000 0.0000 8.4342 0.0000 28.4402
#
#
#
# Elastic Compliance Matrix: (Units=1/GPa)
#
#
# Indices 1 2 3 4 5 6 
#
# 1 0.010034 0.001134 -0.007800 0.000000 0.003152 0.000000
# 2 0.001134 0.019045 -0.009239 0.000000 0.002457 0.000000
# 3 -0.007800 -0.009239 0.018903 0.000000 -0.003660 0.000000
# 4 0.000000 0.000000 0.000000 0.055604 0.000000 -0.016490
# 5 0.003152 0.002457 -0.003660 0.000000 0.026902 0.000000
# 6 0.000000 0.000000 0.000000 -0.016490 0.000000 0.040052
#
#
# Mechanical properties :
#
#
# Convention : Reuss Voigt Hill
#
# Bulk Modulus (GPa) = 61.83270 73.36444 67.59857
# Shear Modulus (GPa) = 24.06849 30.08006 27.07428
#
# Velocity S-wave (km/s) = 3.37386 3.77175 3.57834
# Velocity P-wave (km/s) = 6.66487 7.32564 7.00305
#
# Compressibility (1/GPa) = 0.01617267
#
# Stress axis : x y z
#
# Youngs Moduli (GPa) = 99.65801 52.50800 52.90167
#
# Poissons Ratio (x) = -0.05954 0.41262
# Poissons Ratio (y) = -0.11301 0.48875
# Poissons Ratio (z) = 0.77732 0.48511
#
# Static dielectric constant tensor:
#      x y z
#    x 4.928180 0.000000 0.186650 
#    y 0.000000 3.676980 0.000000 
#    z 0.186650 0.000000 3.734080 
# 
# 
# High freq. dielectric constant tensor:
#      x y z
#    x 1.861390 0.000000 0.003110 
#    y 0.000000 1.801950 0.000000 
#    z 0.003110 0.000000 1.829570 
# 
# From -- ./inp_files/32933.got.cif
#   From: 2010.03.12/outbox.cif.g09.slc.cpg/sg14_17_cif.got.tgz:32933.got - 2010.03.31 13:35:05.
