data_PCOD8126726
_publ_section_title
;
Structure prediction by ZEFSAII (Michael W. Deem and Ramdas Pophale) SiO2 
 PCOD8126726
Probable space group: P 21/C
;
_chemical_formula_sum "Si O2"
_cell_formula_units_Z 24
_cell_length_a 11.764305
_cell_length_b 8.752544
_cell_length_c 24.411528
_cell_angle_alpha 90.000000
_cell_angle_beta 154.477799
_cell_angle_gamma 90.000000
_cell_volume 1083.010144
_symmetry_space_group_name_H-M "P 21/C"
_symmetry_group_IT_number 14
_symmetry_cell_setting 'monoclinic'
loop_
_space_group_symop_operation_xyz
x,y,z
-x,1/2+y,1/2-z
-x,-y,-z
x,1/2-y,1/2+z
loop_
_atom_site_type_symbol
_atom_site_label
_atom_site_fract_x
_atom_site_fract_y
_atom_site_fract_z
Si Si1 0.297080 0.395620 0.771939
Si Si2 0.149617 0.092430 0.886615
Si Si3 0.583394 0.636706 0.605638
Si Si4 0.813712 0.588624 0.813091
Si Si5 0.485514 0.867435 0.273995
Si Si6 0.924294 0.792057 0.543866
O O1 0.479566 0.304111 0.895303
O O2 0.099913 0.267427 0.658250
O O3 0.467416 0.471515 0.798085
O O4 0.148122 0.531398 0.738919
O O5 0.204530 0.163431 0.851012
O O6 0.198753 0.217993 0.954960
O O7 0.324964 0.940967 0.969795
O O8 0.705985 0.528654 0.707043
O O9 0.569579 0.590589 0.749401
O O10 0.042911 0.475075 0.932689
O O11 0.205906 0.780564 0.150791
O O12 0.714409 0.767298 0.403600
#
# Coordination Sequence:
#
# PCOD8126726 Si02
#       6
#     4   4   4   4   4   4
#     4   9  23  37  65  90 125 165 218 264 326 384
#     4  10  21  42  62  92 127 168 221 266 330 392
#     4   9  22  39  63  88 126 168 211 271 323 387
#     4  10  22  38  66  92 128 169 212 273 323 387
#     4  11  23  44  63 100 132 175 221 270 331 394
#     4  11  24  40  68  95 131 171 219 272 326 393
#
# _framework density 22.160457999999998
#
# number of rings (size 3 to 8) (size 9 to 14) (size 15 to 20)
#    1.000    1.000    0.000    2.500    4.667    1.333 
#    3.000    5.000    0.000    0.000    0.000    0.000 
#    0.000    0.000    0.000    0.000    0.000    0.000 
#
# Total GULP energy -297340.797023 kJ/mol
# GULP energy per Si atom -12389.199876 kJ/mol
# Density = 2.211002 g / cm^3
# Si number density = 22.160458 Si / 1000 Ang^3
#
#
#
# Elastic Constant Matrix: (Units=GPa)
#
#
# Indices 1 2 3 4 5 6 
#
# 1 145.0086 20.6884 16.1864 0.0000 -15.3930 0.0000
# 2 20.6884 83.1168 5.5849 0.0000 4.9055 0.0000
# 3 16.1864 5.5849 70.1608 0.0000 -2.5577 0.0000
# 4 0.0000 0.0000 0.0000 27.7867 0.0000 3.0024
# 5 -15.3930 4.9055 -2.5577 0.0000 23.5413 0.0000
# 6 0.0000 0.0000 0.0000 3.0024 0.0000 31.7989
#
#
#
# Elastic Compliance Matrix: (Units=1/GPa)
#
#
# Indices 1 2 3 4 5 6 
#
# 1 0.007958 -0.002208 -0.001460 0.000000 0.005505 0.000000
# 2 -0.002208 0.012874 -0.000668 0.000000 -0.004199 0.000000
# 3 -0.001460 -0.000668 0.014671 0.000000 0.000779 0.000000
# 4 0.000000 0.000000 0.000000 0.036359 0.000000 -0.003433
# 5 0.005505 -0.004199 0.000779 0.000000 0.047038 0.000000
# 6 0.000000 0.000000 0.000000 -0.003433 0.000000 0.031772
#
#
# Mechanical properties :
#
#
# Convention : Reuss Voigt Hill
#
# Bulk Modulus (GPa) = 37.26952 42.57841 39.92397
# Shear Modulus (GPa) = 29.71098 33.68047 31.69572
#
# Velocity S-wave (km/s) = 3.66556 3.90275 3.78601
# Velocity P-wave (km/s) = 5.89658 6.28999 6.09646
#
# Compressibility (1/GPa) = 0.02683157
#
# Stress axis : x y z
#
# Youngs Moduli (GPa) = 125.65250 77.67879 68.16020
#
# Poissons Ratio (x) = 0.17150 0.09949
# Poissons Ratio (y) = 0.27741 0.04556
# Poissons Ratio (z) = 0.18340 0.05193
#
# Static dielectric constant tensor:
#      x y z
#    x 4.180740 0.000000 -0.111550 
#    y 0.000000 3.937920 0.000000 
#    z -0.111550 0.000000 3.519480 
# 
# 
# High freq. dielectric constant tensor:
#      x y z
#    x 1.885450 0.000000 -0.004850 
#    y 0.000000 1.869770 0.000000 
#    z -0.004850 0.000000 1.839640 
# 
# From -- ./inp_files/73147.got.cif
#   From: 2010.03.12/outbox.cif.g09.slc.cpg/sg14_37_cif.got.tgz:73147.got - 2010.03.31 13:35:05.
