data_PCOD8126839
_publ_section_title
;
Structure prediction by ZEFSAII (Michael W. Deem and Ramdas Pophale) SiO2 
 PCOD8126839
Probable space group: P 21/C
;
_chemical_formula_sum "Si O2"
_cell_formula_units_Z 28
_cell_length_a 9.527874
_cell_length_b 12.129608
_cell_length_c 13.652303
_cell_angle_alpha 90.000000
_cell_angle_beta 119.007371
_cell_angle_gamma 90.000000
_cell_volume 1379.866190
_symmetry_space_group_name_H-M "P 21/C"
_symmetry_group_IT_number 14
_symmetry_cell_setting 'monoclinic'
loop_
_space_group_symop_operation_xyz
x,y,z
-x,1/2+y,1/2-z
-x,-y,-z
x,1/2-y,1/2+z
loop_
_atom_site_type_symbol
_atom_site_label
_atom_site_fract_x
_atom_site_fract_y
_atom_site_fract_z
Si Si1 0.068826 0.133793 0.877154
Si Si2 0.930153 0.952075 0.337750
Si Si3 0.853476 0.865538 0.514150
Si Si4 0.277815 0.634482 0.678382
Si Si5 0.527982 0.962109 0.401732
Si Si6 0.607930 0.523876 0.443086
Si Si7 0.357587 0.886503 0.722060
O O1 0.054169 0.118020 0.755681
O O2 0.087649 0.262290 0.904480
O O3 0.906350 0.093898 0.876064
O O4 0.218253 0.068051 0.970385
O O5 0.918985 0.865806 0.424425
O O6 0.775970 0.031849 0.278472
O O7 0.087926 0.025577 0.408287
O O8 0.661209 0.866030 0.444706
O O9 0.366022 0.587601 0.803397
O O10 0.363660 0.588019 0.609697
O O11 0.285152 0.766295 0.681871
O O12 0.500000 0.000000 0.500000
O O13 0.588271 0.069752 0.364739
O O14 0.500000 0.500000 0.500000
O O15 0.512095 0.613756 0.345910
#
# Coordination Sequence:
#
# PCOD8126839 Si02
#       7
#     4   4   4   4   4   4   4
#     4  12  23  43  68 100 128 174 218 271 337 382
#     4  10  21  43  66  93 135 167 219 272 324 386
#     4  10  22  42  66  94 129 176 218 265 326 395
#     4  11  24  42  65 100 129 168 221 270 327 389
#     4  10  22  42  64  92 129 169 220 266 316 400
#     4  11  24  44  65  95 138 170 214 274 327 397
#     4  10  21  43  66  90 130 174 215 269 321 389
#
# _framework density 20.291822
#
# number of rings (size 3 to 8) (size 9 to 14) (size 15 to 20)
#    0.000    1.429    2.857    2.143    0.000    2.286 
#   12.857    0.000    0.000    0.000    0.000    0.000 
#    0.000    0.000    0.000    0.000    0.000    0.000 
#
# Total GULP energy -347237.285589 kJ/mol
# GULP energy per Si atom -12401.331628 kJ/mol
# Density = 2.024564 g / cm^3
# Si number density = 20.291822 Si / 1000 Ang^3
#
#
#
# Elastic Constant Matrix: (Units=GPa)
#
#
# Indices 1 2 3 4 5 6 
#
# 1 133.8964 52.2261 68.0805 0.0000 -0.0212 0.0000
# 2 52.2261 96.2659 46.8002 0.0000 -13.3236 0.0000
# 3 68.0805 46.8002 132.7521 0.0000 -5.1885 0.0000
# 4 0.0000 0.0000 0.0000 33.7128 0.0000 1.4662
# 5 -0.0212 -13.3236 -5.1885 0.0000 48.8743 0.0000
# 6 0.0000 0.0000 0.0000 1.4662 0.0000 19.6194
#
#
#
# Elastic Compliance Matrix: (Units=1/GPa)
#
#
# Indices 1 2 3 4 5 6 
#
# 1 0.011359 -0.004253 -0.004389 0.000000 -0.001620 0.000000
# 2 -0.004253 0.014570 -0.002812 0.000000 0.003672 0.000000
# 3 -0.004389 -0.002812 0.010790 0.000000 0.000377 0.000000
# 4 0.000000 0.000000 0.000000 0.029759 0.000000 -0.002224
# 5 -0.001620 0.003672 0.000377 0.000000 0.021501 0.000000
# 6 0.000000 0.000000 0.000000 -0.002224 0.000000 0.051136
#
#
# Mechanical properties :
#
#
# Convention : Reuss Voigt Hill
#
# Bulk Modulus (GPa) = 72.40733 77.45866 74.93300
# Shear Modulus (GPa) = 30.00716 33.49516 31.75116
#
# Velocity S-wave (km/s) = 3.84966 4.06725 3.95995
# Velocity P-wave (km/s) = 7.45120 7.76608 7.61027
#
# Compressibility (1/GPa) = 0.01381076
#
# Stress axis : x y z
#
# Youngs Moduli (GPa) = 88.03808 68.63241 92.67877
#
# Poissons Ratio (x) = 0.29187 0.40679
# Poissons Ratio (y) = 0.37440 0.26063
# Poissons Ratio (z) = 0.38642 0.19301
#
# Static dielectric constant tensor:
#      x y z
#    x 3.710480 0.000000 0.259870 
#    y 0.000000 3.363780 0.000000 
#    z 0.259870 0.000000 3.926550 
# 
# 
# High freq. dielectric constant tensor:
#      x y z
#    x 1.802880 0.000000 0.013290 
#    y 0.000000 1.774800 0.000000 
#    z 0.013290 0.000000 1.811580 
# 
# From -- ./inp_files/39941.got.cif
#   From: 2010.03.12/outbox.cif.g09.slc.cpg/sg14_20_cif.got.tgz:39941.got - 2010.03.31 13:35:05.
