data_PCOD8126801
_publ_section_title
;
Structure prediction by ZEFSAII (Michael W. Deem and Ramdas Pophale) SiO2 
 PCOD8126801
Probable space group: P 21/C
;
_chemical_formula_sum "Si O2"
_cell_formula_units_Z 32
_cell_length_a 15.433455
_cell_length_b 8.289434
_cell_length_c 10.829905
_cell_angle_alpha 90.000000
_cell_angle_beta 90.200949
_cell_angle_gamma 90.000000
_cell_volume 1385.511114
_symmetry_space_group_name_H-M "P 21/C"
_symmetry_group_IT_number 14
_symmetry_cell_setting 'monoclinic'
loop_
_space_group_symop_operation_xyz
x,y,z
-x,1/2+y,1/2-z
-x,-y,-z
x,1/2-y,1/2+z
loop_
_atom_site_type_symbol
_atom_site_label
_atom_site_fract_x
_atom_site_fract_y
_atom_site_fract_z
Si Si1 0.748137 0.940497 0.592188
Si Si2 0.667334 0.038768 0.027036
Si Si3 0.452591 0.039380 0.763314
Si Si4 0.065059 0.172432 0.390862
Si Si5 0.202642 0.791927 0.813258
Si Si6 0.377936 0.134052 0.204197
Si Si7 0.674282 0.360424 0.895815
Si Si8 0.986076 0.193589 0.650186
O O1 0.833450 0.833724 0.576306
O O2 0.686309 0.841105 0.682197
O O3 0.768382 0.118784 0.639309
O O4 0.697827 0.970640 0.463554
O O5 0.641300 0.218150 0.983653
O O6 0.681023 0.914152 0.914034
O O7 0.755859 0.060267 0.106847
O O8 0.587467 0.960179 0.100186
O O9 0.433548 0.203710 0.688601
O O10 0.555577 0.013153 0.769166
O O11 0.406184 0.890586 0.694317
O O12 0.021424 0.247601 0.514854
O O13 0.050356 0.279722 0.267301
O O14 0.030244 0.995925 0.357695
O O15 0.237365 0.806329 0.673729
O O16 0.098952 0.800678 0.819672
#
# Coordination Sequence:
#
# PCOD8126801 Si02
#       8
#     4   4   4   4   4   4   4   4
#     4  10  23  41  67  96 133 177 213 278 332 397
#     4  10  22  44  66  96 130 168 221 277 323 403
#     4  11  27  42  65  97 129 175 218 280 333 393
#     4  10  24  44  66 102 139 176 225 275 339 397
#     4   9  20  39  71  99 124 179 220 264 331 394
#     4  12  25  44  65  95 135 170 225 271 338 393
#     4  10  21  42  70  94 128 170 231 268 329 394
#     4  10  23  42  70 102 138 177 222 280 331 404
#
# _framework density 23.096170000000001
#
# number of rings (size 3 to 8) (size 9 to 14) (size 15 to 20)
#    0.000    1.750    1.250    1.125   12.250    2.000 
#    2.250    0.000    0.000    0.000    0.000    0.000 
#    0.000    0.000    0.000    0.000    0.000    0.000 
#
# Total GULP energy -396754.442956 kJ/mol
# GULP energy per Si atom -12398.576342 kJ/mol
# Density = 2.304360 g / cm^3
# Si number density = 23.096170 Si / 1000 Ang^3
#
#
#
# Elastic Constant Matrix: (Units=GPa)
#
#
# Indices 1 2 3 4 5 6 
#
# 1 79.2794 4.2482 14.2841 0.0000 -5.6017 0.0000
# 2 4.2482 52.1362 0.4825 0.0000 3.7665 0.0000
# 3 14.2841 0.4825 100.3153 0.0000 2.5570 0.0000
# 4 0.0000 0.0000 0.0000 24.5997 0.0000 5.4274
# 5 -5.6017 3.7665 2.5570 0.0000 23.8972 0.0000
# 6 0.0000 0.0000 0.0000 5.4274 0.0000 30.0703
#
#
#
# Elastic Compliance Matrix: (Units=1/GPa)
#
#
# Indices 1 2 3 4 5 6 
#
# 1 0.013290 -0.001320 -0.001976 0.000000 0.003535 0.000000
# 2 -0.001320 0.019533 0.000181 0.000000 -0.003407 0.000000
# 3 -0.001976 0.000181 0.010290 0.000000 -0.001593 0.000000
# 4 0.000000 0.000000 0.000000 0.042337 0.000000 -0.007641
# 5 0.003535 -0.003407 -0.001593 0.000000 0.043382 0.000000
# 6 0.000000 0.000000 0.000000 -0.007641 0.000000 0.034635
#
#
# Mechanical properties :
#
#
# Convention : Reuss Voigt Hill
#
# Bulk Modulus (GPa) = 27.11366 29.97342 28.54354
# Shear Modulus (GPa) = 27.47399 29.89451 28.68425
#
# Velocity S-wave (km/s) = 3.45272 3.60161 3.52795
# Velocity P-wave (km/s) = 5.25928 5.50466 5.38337
#
# Compressibility (1/GPa) = 0.03688178
#
# Stress axis : x y z
#
# Youngs Moduli (GPa) = 75.24360 51.19656 97.18464
#
# Poissons Ratio (x) = 0.06758 0.19205
# Poissons Ratio (y) = 0.09932 -0.01758
# Poissons Ratio (z) = 0.14869 -0.00926
#
# Static dielectric constant tensor:
#      x y z
#    x 4.110260 0.000000 0.073540 
#    y 0.000000 3.898480 0.000000 
#    z 0.073540 0.000000 4.288010 
# 
# 
# High freq. dielectric constant tensor:
#      x y z
#    x 1.903160 0.000000 0.005620 
#    y 0.000000 1.903290 0.000000 
#    z 0.005620 0.000000 1.920310 
# 
# From -- ./inp_files/31828.got.cif
#   From: 2010.03.12/outbox.cif.g09.slc.cpg/sg14_16_cif.got.tgz:31828.got - 2010.03.31 13:35:05.
