data_PCOD8126389
_publ_section_title
;
Structure prediction by ZEFSAII (Michael W. Deem and Ramdas Pophale) SiO2 
 PCOD8126389
Probable space group: P 21/C
;
_chemical_formula_sum "Si O2"
_cell_formula_units_Z 28
_cell_length_a 20.792481
_cell_length_b 5.317282
_cell_length_c 12.817351
_cell_angle_alpha 90.000000
_cell_angle_beta 60.048265
_cell_angle_gamma 90.000000
_cell_volume 1227.823468
_symmetry_space_group_name_H-M "P 21/C"
_symmetry_group_IT_number 14
_symmetry_cell_setting 'monoclinic'
loop_
_space_group_symop_operation_xyz
x,y,z
-x,1/2+y,1/2-z
-x,-y,-z
x,1/2-y,1/2+z
loop_
_atom_site_type_symbol
_atom_site_label
_atom_site_fract_x
_atom_site_fract_y
_atom_site_fract_z
Si Si1 0.170860 0.311515 0.383289
Si Si2 0.617118 0.940412 0.905914
Si Si3 0.073415 0.862948 0.085703
Si Si4 0.082971 0.336839 0.775588
Si Si5 0.288840 0.566440 0.155539
Si Si6 0.813156 0.992342 0.445401
Si Si7 0.499185 0.980387 0.820773
O O1 0.091875 0.411746 0.491931
O O2 0.141884 0.105683 0.321049
O O3 0.221937 0.522959 0.289801
O O4 0.217860 0.202104 0.442526
O O5 0.675219 0.167074 0.845526
O O6 0.568427 0.939892 0.841049
O O7 0.654967 0.668085 0.883568
O O8 0.572765 0.986944 0.048574
O O9 0.147848 0.699560 0.014681
O O10 0.996385 0.742179 0.112831
O O11 0.068906 0.926247 0.213070
O O12 0.120539 0.114277 0.679355
O O13 0.256727 0.587597 0.064177
O O14 0.510584 0.231713 0.742468
#
# Coordination Sequence:
#
# PCOD8126389 Si02
#       7
#     4   4   4   4   4   4   4
#     4  10  25  39  61  93 124 173 232 279 341 415
#     4  11  26  47  73 108 143 187 223 274 337 400
#     4  11  21  40  62  86 121 171 226 290 355 405
#     4  10  21  40  60  86 121 163 225 294 355 398
#     4  11  26  45  68  97 149 181 220 275 337 404
#     4  10  24  40  61  90 126 174 225 283 339 414
#     4  11  24  47  78 112 143 177 231 277 324 396
#
# _framework density 22.804582
#
# number of rings (size 3 to 8) (size 9 to 14) (size 15 to 20)
#    0.000    1.429    1.429    2.143    8.000    7.429 
#    0.000    0.000    0.000    0.000    0.000    0.000 
#    0.000    0.000    0.000    0.000    0.000    0.000 
#
# Total GULP energy -346995.030911 kJ/mol
# GULP energy per Si atom -12392.679675 kJ/mol
# Density = 2.275268 g / cm^3
# Si number density = 22.804582 Si / 1000 Ang^3
#
#
#
# Elastic Constant Matrix: (Units=GPa)
#
#
# Indices 1 2 3 4 5 6 
#
# 1 101.1153 9.2267 27.3291 0.0000 8.7029 0.0000
# 2 9.2267 59.7469 0.6244 0.0000 7.5081 0.0000
# 3 27.3291 0.6244 95.8659 0.0000 11.3240 0.0000
# 4 0.0000 0.0000 0.0000 26.8066 0.0000 -2.7180
# 5 8.7029 7.5081 11.3240 0.0000 25.4063 0.0000
# 6 0.0000 0.0000 0.0000 -2.7180 0.0000 35.6840
#
#
#
# Elastic Compliance Matrix: (Units=1/GPa)
#
#
# Indices 1 2 3 4 5 6 
#
# 1 0.010973 -0.001405 -0.002875 0.000000 -0.002062 0.000000
# 2 -0.001405 0.017588 0.000890 0.000000 -0.005113 0.000000
# 3 -0.002875 0.000890 0.011780 0.000000 -0.004529 0.000000
# 4 0.000000 0.000000 0.000000 0.037595 0.000000 0.002863
# 5 -0.002062 -0.005113 -0.004529 0.000000 0.043596 0.000000
# 6 0.000000 0.000000 0.000000 0.002863 0.000000 0.028242
#
#
# Mechanical properties :
#
#
# Convention : Reuss Voigt Hill
#
# Bulk Modulus (GPa) = 29.79845 36.78762 33.29303
# Shear Modulus (GPa) = 29.80803 32.21591 31.01197
#
# Velocity S-wave (km/s) = 3.61932 3.76266 3.69168
# Velocity P-wave (km/s) = 5.52822 5.91976 5.72733
#
# Compressibility (1/GPa) = 0.03355880
#
# Stress axis : x y z
#
# Youngs Moduli (GPa) = 91.13674 56.85852 84.88918
#
# Poissons Ratio (x) = 0.07991 0.24408
# Poissons Ratio (y) = 0.12808 -0.07555
# Poissons Ratio (z) = 0.26205 -0.05061
#
# Static dielectric constant tensor:
#      x y z
#    x 4.121970 0.000000 0.157490 
#    y 0.000000 3.983820 0.000000 
#    z 0.157490 0.000000 4.236760 
# 
# 
# High freq. dielectric constant tensor:
#      x y z
#    x 1.902860 0.000000 0.012190 
#    y 0.000000 1.893030 0.000000 
#    z 0.012190 0.000000 1.912460 
# 
# From -- ./inp_files/34682.got.cif
#   From: 2010.03.12/outbox.cif.g09.slc.cpg/sg14_18_cif.got.tgz:34682.got - 2010.03.31 13:35:05.
