data_PCOD8126480
_publ_section_title
;
Structure prediction by ZEFSAII (Michael W. Deem and Ramdas Pophale) SiO2 
 PCOD8126480
Probable space group: P 21/C
;
_chemical_formula_sum "Si O2"
_cell_formula_units_Z 28
_cell_length_a 7.982741
_cell_length_b 18.266290
_cell_length_c 9.355444
_cell_angle_alpha 90.000000
_cell_angle_beta 101.581666
_cell_angle_gamma 90.000000
_cell_volume 1336.389631
_symmetry_space_group_name_H-M "P 21/C"
_symmetry_group_IT_number 14
_symmetry_cell_setting 'monoclinic'
loop_
_space_group_symop_operation_xyz
x,y,z
-x,1/2+y,1/2-z
-x,-y,-z
x,1/2-y,1/2+z
loop_
_atom_site_type_symbol
_atom_site_label
_atom_site_fract_x
_atom_site_fract_y
_atom_site_fract_z
Si Si1 0.877633 0.185847 0.497258
Si Si2 0.330919 0.458271 0.918858
Si Si3 0.019428 0.198544 0.206602
Si Si4 0.953291 0.530255 0.337663
Si Si5 0.502427 0.808429 0.525912
Si Si6 0.871902 0.569915 0.846067
Si Si7 0.346498 0.203042 0.744629
O O1 0.978972 0.201199 0.368038
O O2 0.873395 0.259171 0.593101
O O3 0.679818 0.164915 0.445395
O O4 0.961513 0.118842 0.596804
O O5 0.240123 0.487612 0.756601
O O6 0.365221 0.371786 0.902588
O O7 0.500000 0.500000 0.000000
O O8 0.189072 0.467256 0.017532
O O9 0.022226 0.116504 0.151390
O O10 0.192621 0.240235 0.191128
O O11 0.000000 0.500000 0.500000
O O12 0.092057 0.495562 0.255674
O O13 0.552450 0.729691 0.599253
O O14 0.514665 0.797330 0.358761
O O15 0.725098 0.620927 0.749785
#
# Coordination Sequence:
#
# PCOD8126480 Si02
#       7
#     4   4   4   4   4   4   4
#     4  11  23  41  70  97 129 178 240 276 332 413
#     4  11  23  44  70  95 131 181 225 270 345 412
#     4  11  23  42  66  95 133 178 225 280 333 410
#     4  12  26  42  66 104 137 175 228 281 350 401
#     4  11  22  39  65  94 127 169 221 285 330 399
#     4  10  23  42  67  92 132 184 223 275 335 427
#     4  10  21  40  65  89 129 170 224 273 342 384
#
# _framework density 20.951975000000001
#
# number of rings (size 3 to 8) (size 9 to 14) (size 15 to 20)
#    0.000    1.143    2.857    3.857    8.000    0.000 
#    5.143    0.714    0.000    0.000    0.000    0.000 
#    0.000    0.000    0.000    0.000    0.000    0.000 
#
# Total GULP energy -347140.834746 kJ/mol
# GULP energy per Si atom -12397.886955 kJ/mol
# Density = 2.090429 g / cm^3
# Si number density = 20.951975 Si / 1000 Ang^3
#
#
#
# Elastic Constant Matrix: (Units=GPa)
#
#
# Indices 1 2 3 4 5 6 
#
# 1 94.9981 12.3742 26.9735 0.0000 -3.1793 0.0000
# 2 12.3742 84.9528 26.9593 0.0000 -4.7249 0.0000
# 3 26.9735 26.9593 85.7317 0.0000 6.2796 0.0000
# 4 0.0000 0.0000 0.0000 36.3672 0.0000 -2.3446
# 5 -3.1793 -4.7249 6.2796 0.0000 27.8832 0.0000
# 6 0.0000 0.0000 0.0000 -2.3446 0.0000 28.1317
#
#
#
# Elastic Compliance Matrix: (Units=1/GPa)
#
#
# Indices 1 2 3 4 5 6 
#
# 1 0.011703 -0.000412 -0.003706 0.000000 0.002099 0.000000
# 2 -0.000412 0.013377 -0.004311 0.000000 0.003191 0.000000
# 3 -0.003706 -0.004311 0.014510 0.000000 -0.004421 0.000000
# 4 0.000000 0.000000 0.000000 0.027646 0.000000 0.002304
# 5 0.002099 0.003191 -0.004421 0.000000 0.037640 0.000000
# 6 0.000000 0.000000 0.000000 0.002304 0.000000 0.035739
#
#
# Mechanical properties :
#
#
# Convention : Reuss Voigt Hill
#
# Bulk Modulus (GPa) = 43.99103 44.25518 44.12310
# Shear Modulus (GPa) = 30.29418 31.76811 31.03114
#
# Velocity S-wave (km/s) = 3.80661 3.89811 3.85263
# Velocity P-wave (km/s) = 6.35311 6.43649 6.39494
#
# Compressibility (1/GPa) = 0.02273191
#
# Stress axis : x y z
#
# Youngs Moduli (GPa) = 85.44985 74.75741 68.91925
#
# Poissons Ratio (x) = 0.03078 0.25544
# Poissons Ratio (y) = 0.03518 0.29708
# Poissons Ratio (z) = 0.31670 0.32225
#
# Static dielectric constant tensor:
#      x y z
#    x 3.881600 0.000000 0.166890 
#    y 0.000000 3.977760 0.000000 
#    z 0.166890 0.000000 3.887910 
# 
# 
# High freq. dielectric constant tensor:
#      x y z
#    x 1.820690 0.000000 -0.000380 
#    y 0.000000 1.829850 0.000000 
#    z -0.000380 0.000000 1.809820 
# 
# From -- ./inp_files/9448.got.cif
#   From: 2010.03.12/outbox.cif.g09.slc.cpg/sg14_5_cif.got.tgz:9448.got - 2010.03.31 13:35:05.
