data_PCOD8126127
_publ_section_title
;
Structure prediction by ZEFSAII (Michael W. Deem and Ramdas Pophale) SiO2 
 PCOD8126127
Probable space group: P 21/C
;
_chemical_formula_sum "Si O2"
_cell_formula_units_Z 32
_cell_length_a 15.103970
_cell_length_b 18.038290
_cell_length_c 13.502327
_cell_angle_alpha 90.000000
_cell_angle_beta 152.115466
_cell_angle_gamma 90.000000
_cell_volume 1720.498650
_symmetry_space_group_name_H-M "P 21/C"
_symmetry_group_IT_number 14
_symmetry_cell_setting 'monoclinic'
loop_
_space_group_symop_operation_xyz
x,y,z
-x,1/2+y,1/2-z
-x,-y,-z
x,1/2-y,1/2+z
loop_
_atom_site_type_symbol
_atom_site_label
_atom_site_fract_x
_atom_site_fract_y
_atom_site_fract_z
Si Si1 0.979175 0.419458 0.933662
Si Si2 0.727483 0.579275 0.943449
Si Si3 0.272517 0.079275 0.056551
Si Si4 0.999175 0.164135 0.650751
Si Si5 0.295678 0.586871 0.512032
Si Si6 0.999175 0.164135 0.150751
Si Si7 0.020825 0.580542 0.566338
Si Si8 0.704322 0.086871 0.487968
O O1 0.786557 0.416389 0.679920
O O2 0.159034 0.399969 0.043278
O O3 0.000000 0.500000 0.000000
O O4 0.964281 0.357329 0.002727
O O5 0.514826 0.608828 0.722009
O O6 0.734926 0.491182 0.963758
O O7 0.822728 0.617731 0.132327
O O8 0.485174 0.108828 0.277991
O O9 0.265074 0.991181 0.036242
O O10 0.159034 0.100031 0.043278
O O11 0.177272 0.117730 0.867673
O O12 0.048990 0.250000 0.707233
O O13 0.811037 0.148276 0.528438
O O14 0.188963 0.648276 0.471562
O O15 0.964281 0.142671 0.002727
O O16 0.000000 0.500000 0.500000
O O17 0.213443 0.583611 0.820080
#
# Coordination Sequence:
#
# PCOD8126127 Si02
#       8
#     4   4   4   4   4   4   4   4
#     4  11  19  36  60  90 115 148 195 239 284 342
#     4  10  21  38  62  87 113 151 196 239 285 345
#     4  10  21  38  62  87 113 151 196 239 285 345
#     4  11  23  39  57  83 121 155 187 241 300 340
#     4  10  21  38  62  87 113 151 196 239 285 345
#     4  11  23  39  57  83 121 155 187 241 300 340
#     4  11  19  36  60  90 115 148 195 239 284 342
#     4  10  21  38  62  87 113 151 196 239 285 345
#
# _framework density 18.599259
#
# number of rings (size 3 to 8) (size 9 to 14) (size 15 to 20)
#    0.000    1.500    5.000    1.500    0.000    8.000 
#    0.000    0.000    0.000    0.000    0.000    0.000 
#    0.000    0.000    0.000    0.000    0.000    0.000 
#
# Total GULP energy -396965.338192 kJ/mol
# GULP energy per Si atom -12405.166819 kJ/mol
# Density = 1.855693 g / cm^3
# Si number density = 18.599259 Si / 1000 Ang^3
#
#
#
# Elastic Constant Matrix: (Units=GPa)
#
#
# Indices 1 2 3 4 5 6 
#
# 1 79.5855 6.7829 64.3491 0.0000 -6.2846 0.0000
# 2 6.7829 53.9551 3.7491 0.0000 1.1419 0.0000
# 3 64.3491 3.7491 137.7715 0.0000 14.2688 0.0000
# 4 0.0000 0.0000 0.0000 14.9961 0.0000 -6.9444
# 5 -6.2846 1.1419 14.2688 0.0000 38.8708 0.0000
# 6 0.0000 0.0000 0.0000 -6.9444 0.0000 22.3285
#
#
#
# Elastic Compliance Matrix: (Units=1/GPa)
#
#
# Indices 1 2 3 4 5 6 
#
# 1 0.022459 -0.002208 -0.011240 0.000000 0.007822 0.000000
# 2 -0.002208 0.018791 0.000638 0.000000 -0.001143 0.000000
# 3 -0.011240 0.000638 0.013182 0.000000 -0.006675 0.000000
# 4 0.000000 0.000000 0.000000 0.077904 0.000000 0.024229
# 5 0.007822 -0.001143 -0.006675 0.000000 0.029475 0.000000
# 6 0.000000 0.000000 0.000000 0.024229 0.000000 0.052321
#
#
# Mechanical properties :
#
#
# Convention : Reuss Voigt Hill
#
# Bulk Modulus (GPa) = 34.70613 46.78603 40.74608
# Shear Modulus (GPa) = 20.05157 28.33449 24.19303
#
# Velocity S-wave (km/s) = 3.28698 3.90734 3.61051
# Velocity P-wave (km/s) = 5.75379 6.75024 6.27184
#
# Compressibility (1/GPa) = 0.02881336
#
# Stress axis : x y z
#
# Youngs Moduli (GPa) = 44.52533 53.21602 75.85968
#
# Poissons Ratio (x) = 0.11750 0.85267
# Poissons Ratio (y) = 0.09831 -0.04842
# Poissons Ratio (z) = 0.50047 -0.03397
#
# Static dielectric constant tensor:
#      x y z
#    x 3.514150 0.000000 -0.077640 
#    y 0.000000 3.204120 0.000000 
#    z -0.077640 0.000000 3.613580 
# 
# 
# High freq. dielectric constant tensor:
#      x y z
#    x 1.725930 0.000000 -0.005160 
#    y 0.000000 1.705860 0.000000 
#    z -0.005160 0.000000 1.731200 
# 
# From -- ./inp_files/33073.got.cif
#   From: 2010.03.12/outbox.cif.g09.slc.cpg/sg14_17_cif.got.tgz:33073.got - 2010.03.31 13:35:05.
