data_PCOD8126274
_publ_section_title
;
Structure prediction by ZEFSAII (Michael W. Deem and Ramdas Pophale) SiO2 
 PCOD8126274
Probable space group: P 21/C
;
_chemical_formula_sum "Si O2"
_cell_formula_units_Z 32
_cell_length_a 22.356404
_cell_length_b 9.281743
_cell_length_c 14.660278
_cell_angle_alpha 90.000000
_cell_angle_beta 28.000611
_cell_angle_gamma 90.000000
_cell_volume 1428.208769
_symmetry_space_group_name_H-M "P 21/C"
_symmetry_group_IT_number 14
_symmetry_cell_setting 'monoclinic'
loop_
_space_group_symop_operation_xyz
x,y,z
-x,1/2+y,1/2-z
-x,-y,-z
x,1/2-y,1/2+z
loop_
_atom_site_type_symbol
_atom_site_label
_atom_site_fract_x
_atom_site_fract_y
_atom_site_fract_z
Si Si1 0.943650 0.859599 0.665082
Si Si2 0.645991 0.342726 0.351654
Si Si3 0.144883 0.165652 0.035363
Si Si4 0.651226 0.694767 0.506298
Si Si5 0.753687 0.352994 0.556101
Si Si6 0.642335 0.837197 0.817663
Si Si7 0.565167 0.111266 0.151823
Si Si8 0.031038 0.693669 0.863606
O O1 0.955691 0.788014 0.749149
O O2 0.027270 0.771374 0.478064
O O3 0.996804 0.022396 0.600876
O O4 0.789893 0.853904 0.855588
O O5 0.732630 0.232719 0.178235
O O6 0.500714 0.325192 0.520682
O O7 0.693911 0.500655 0.259100
O O8 0.653927 0.318961 0.451099
O O9 0.082446 0.209328 0.023744
O O10 0.274910 0.255876 0.870307
O O11 0.178320 0.998415 0.002528
O O12 0.661637 0.744745 0.387660
O O13 0.578422 0.823705 0.657769
O O14 0.555080 0.557901 0.641699
O O15 0.622921 0.372120 0.675855
O O16 0.841877 0.268861 0.363304
#
# Coordination Sequence:
#
# PCOD8126274 Si02
#       8
#     4   4   4   4   4   4   4   4
#     4  10  21  41  67  94 129 176 220 270 323 392
#     4  10  23  39  62  94 138 174 211 267 329 404
#     4  11  22  39  69  97 124 168 225 276 325 380
#     4  11  20  41  68  96 135 175 216 269 333 397
#     4  11  24  43  62  98 132 169 218 280 332 378
#     4  10  21  39  62  97 129 173 224 258 326 404
#     4  11  23  40  66  99 133 175 217 265 337 399
#     4  10  22  40  65  93 125 177 225 265 320 393
#
# _framework density 22.405688000000001
#
# number of rings (size 3 to 8) (size 9 to 14) (size 15 to 20)
#    0.000    1.500    5.000    0.750    0.000    4.500 
#    0.000    0.000    0.000    4.500    0.000    0.000 
#    0.000    0.000    0.000    0.000    0.000    0.000 
#
# Total GULP energy -396459.861262 kJ/mol
# GULP energy per Si atom -12389.370664 kJ/mol
# Density = 2.235469 g / cm^3
# Si number density = 22.405688 Si / 1000 Ang^3
#
#
#
# Elastic Constant Matrix: (Units=GPa)
#
#
# Indices 1 2 3 4 5 6 
#
# 1 49.5433 20.8520 9.0243 0.0000 17.3002 0.0000
# 2 20.8520 61.1431 45.7678 0.0000 7.4712 0.0000
# 3 9.0243 45.7678 95.3922 0.0000 21.3288 0.0000
# 4 0.0000 0.0000 0.0000 29.1495 0.0000 -0.0490
# 5 17.3002 7.4712 21.3288 0.0000 42.2942 0.0000
# 6 0.0000 0.0000 0.0000 -0.0490 0.0000 29.5462
#
#
#
# Elastic Compliance Matrix: (Units=1/GPa)
#
#
# Indices 1 2 3 4 5 6 
#
# 1 0.029005 -0.013131 0.006413 0.000000 -0.012779 0.000000
# 2 -0.013131 0.031598 -0.015634 0.000000 0.007674 0.000000
# 3 0.006413 -0.015634 0.019551 0.000000 -0.009721 0.000000
# 4 0.000000 0.000000 0.000000 0.034306 0.000000 0.000057
# 5 -0.012779 0.007674 -0.009721 0.000000 0.032418 0.000000
# 6 0.000000 0.000000 0.000000 0.000057 0.000000 0.033845
#
#
# Mechanical properties :
#
#
# Convention : Reuss Voigt Hill
#
# Bulk Modulus (GPa) = 28.20782 39.70744 33.95763
# Shear Modulus (GPa) = 21.07541 28.89359 24.98450
#
# Velocity S-wave (km/s) = 3.07029 3.59495 3.34293
# Velocity P-wave (km/s) = 5.01855 5.91541 5.48534
#
# Compressibility (1/GPa) = 0.03545116
#
# Stress axis : x y z
#
# Youngs Moduli (GPa) = 34.47657 31.64748 51.14900
#
# Poissons Ratio (x) = 0.41556 -0.32804
# Poissons Ratio (y) = 0.45271 0.79965
# Poissons Ratio (z) = -0.22111 0.49477
#
# Static dielectric constant tensor:
#      x y z
#    x 4.181920 0.000000 0.441290 
#    y 0.000000 3.707680 0.000000 
#    z 0.441290 0.000000 4.362090 
# 
# 
# High freq. dielectric constant tensor:
#      x y z
#    x 1.886600 0.000000 0.019630 
#    y 0.000000 1.842160 0.000000 
#    z 0.019630 0.000000 1.897150 
# 
# From -- ./inp_files/51369.got.cif
#   From: 2010.03.12/outbox.cif.g09.slc.cpg/sg14_26_cif.got.tgz:51369.got - 2010.03.31 13:35:05.
