data_PCOD8126355
_publ_section_title
;
Structure prediction by ZEFSAII (Michael W. Deem and Ramdas Pophale) SiO2 
 PCOD8126355
Probable space group: P 21/C
;
_chemical_formula_sum "Si O2"
_cell_formula_units_Z 32
_cell_length_a 28.634617
_cell_length_b 5.387646
_cell_length_c 12.327708
_cell_angle_alpha 90.000000
_cell_angle_beta 49.720095
_cell_angle_gamma 90.000000
_cell_volume 1450.900435
_symmetry_space_group_name_H-M "P 21/C"
_symmetry_group_IT_number 14
_symmetry_cell_setting 'monoclinic'
loop_
_space_group_symop_operation_xyz
x,y,z
-x,1/2+y,1/2-z
-x,-y,-z
x,1/2-y,1/2+z
loop_
_atom_site_type_symbol
_atom_site_label
_atom_site_fract_x
_atom_site_fract_y
_atom_site_fract_z
Si Si1 0.471964 0.482457 0.924413
Si Si2 0.084085 0.811380 0.084882
Si Si3 0.880068 0.624340 0.662036
Si Si4 0.028122 0.403507 0.848237
Si Si5 0.575672 0.479553 0.588809
Si Si6 0.804583 0.009730 0.637350
Si Si7 0.712726 0.440441 0.455826
Si Si8 0.765393 0.954427 0.464477
O O1 0.526409 0.481782 0.757399
O O2 0.431886 0.229686 0.972419
O O3 0.430741 0.729043 0.972306
O O4 0.500000 0.500000 0.000000
O O5 0.027170 0.625665 0.153942
O O6 0.076475 0.917770 0.216504
O O7 0.153720 0.723139 0.976672
O O8 0.078815 0.993561 0.990304
O O9 0.928525 0.674153 0.685656
O O10 0.825639 0.474332 0.802734
O O11 0.849627 0.858874 0.648239
O O12 0.000000 0.500000 0.000000
O O13 0.641385 0.471421 0.544639
O O14 0.747510 0.117002 0.790472
O O15 0.778740 0.874792 0.568988
O O16 0.733987 0.706720 0.467535
O O17 0.723604 0.203668 0.519396
#
# Coordination Sequence:
#
# PCOD8126355 Si02
#       8
#     4   4   4   4   4   4   4   4
#     4  10  21  39  67 103 139 186 220 275 335 374
#     4  12  26  44  65  92 126 159 217 268 350 411
#     4  11  24  46  65  91 123 168 211 275 341 410
#     4  12  26  42  66  92 121 163 211 273 344 416
#     4  10  22  40  66  98 143 176 233 275 318 397
#     4  11  26  43  65  94 126 171 216 275 337 404
#     4  11  25  46  65 101 133 182 227 276 328 389
#     4  11  26  41  70  92 131 175 224 273 336 393
#
# _framework density 22.055267000000001
#
# number of rings (size 3 to 8) (size 9 to 14) (size 15 to 20)
#    0.000    1.000    2.500    3.000    8.750    2.000 
#    0.000    0.000    0.000    0.000    0.000    0.000 
#    0.000    0.000    0.000    0.000    0.000    0.000 
#
# Total GULP energy -396588.548757 kJ/mol
# GULP energy per Si atom -12393.392149 kJ/mol
# Density = 2.200507 g / cm^3
# Si number density = 22.055267 Si / 1000 Ang^3
#
#
#
# Elastic Constant Matrix: (Units=GPa)
#
#
# Indices 1 2 3 4 5 6 
#
# 1 112.6275 36.1072 17.5929 0.0000 -3.2774 0.0000
# 2 36.1072 118.7237 9.4715 0.0000 -3.0155 0.0000
# 3 17.5929 9.4715 35.8038 0.0000 6.8281 0.0000
# 4 0.0000 0.0000 0.0000 25.9632 0.0000 2.2969
# 5 -3.2774 -3.0155 6.8281 0.0000 39.2379 0.0000
# 6 0.0000 0.0000 0.0000 2.2969 0.0000 37.6606
#
#
#
# Elastic Compliance Matrix: (Units=1/GPa)
#
#
# Indices 1 2 3 4 5 6 
#
# 1 0.010558 -0.002795 -0.004732 0.000000 0.001491 0.000000
# 2 -0.002795 0.009390 -0.001245 0.000000 0.000705 0.000000
# 3 -0.004732 -0.001245 0.031731 0.000000 -0.006013 0.000000
# 4 0.000000 0.000000 0.000000 0.038725 0.000000 -0.002362
# 5 0.001491 0.000705 -0.006013 0.000000 0.026711 0.000000
# 6 0.000000 0.000000 0.000000 -0.002362 0.000000 0.026697
#
#
# Mechanical properties :
#
#
# Convention : Reuss Voigt Hill
#
# Bulk Modulus (GPa) = 29.29655 43.72204 36.50930
# Shear Modulus (GPa) = 28.94598 34.17122 31.55860
#
# Velocity S-wave (km/s) = 3.62668 3.94044 3.78681
# Velocity P-wave (km/s) = 5.55420 6.36943 5.97573
#
# Compressibility (1/GPa) = 0.03413371
#
# Stress axis : x y z
#
# Youngs Moduli (GPa) = 94.71822 106.49272 31.51449
#
# Poissons Ratio (x) = 0.29770 0.14914
# Poissons Ratio (y) = 0.26478 0.03923
# Poissons Ratio (z) = 0.44825 0.13257
#
# Static dielectric constant tensor:
#      x y z
#    x 13.933390 0.000000 4.524190 
#    y 0.000000 3.980220 0.000000 
#    z 4.524190 0.000000 6.254780 
# 
# 
# High freq. dielectric constant tensor:
#      x y z
#    x 1.874120 0.000000 0.004800 
#    y 0.000000 1.866020 0.000000 
#    z 0.004800 0.000000 1.873360 
# 
# From -- ./inp_files/36040.got.cif
#   From: 2010.03.12/outbox.cif.g09.slc.cpg/sg14_19_cif.got.tgz:36040.got - 2010.03.31 13:35:05.
