data_PCOD8126770
_publ_section_title
;
Structure prediction by ZEFSAII (Michael W. Deem and Ramdas Pophale) SiO2 
 PCOD8126770
Probable space group: P 21/C
;
_chemical_formula_sum "Si O2"
_cell_formula_units_Z 32
_cell_length_a 9.030933
_cell_length_b 14.998797
_cell_length_c 11.775274
_cell_angle_alpha 90.000000
_cell_angle_beta 112.149974
_cell_angle_gamma 90.000000
_cell_volume 1477.287107
_symmetry_space_group_name_H-M "P 21/C"
_symmetry_group_IT_number 14
_symmetry_cell_setting 'monoclinic'
loop_
_space_group_symop_operation_xyz
x,y,z
-x,1/2+y,1/2-z
-x,-y,-z
x,1/2-y,1/2+z
loop_
_atom_site_type_symbol
_atom_site_label
_atom_site_fract_x
_atom_site_fract_y
_atom_site_fract_z
Si Si1 0.482119 0.984463 0.128958
Si Si2 0.070688 0.134552 0.477969
Si Si3 0.504655 0.643308 0.189111
Si Si4 0.260370 0.027320 0.365580
Si Si5 0.294291 0.319925 0.237289
Si Si6 0.216938 0.853548 0.458446
Si Si7 0.985575 0.211004 0.790636
Si Si8 0.864632 0.042136 0.886286
O O1 0.603169 0.908832 0.209118
O O2 0.302949 0.948670 0.096157
O O3 0.515908 0.077025 0.208315
O O4 0.500000 0.000000 0.000000
O O5 0.149171 0.052690 0.437374
O O6 0.211075 0.179316 0.591056
O O7 0.993091 0.198345 0.361372
O O8 0.931903 0.099874 0.520412
O O9 0.586699 0.589429 0.109041
O O10 0.601349 0.731348 0.245897
O O11 0.338027 0.681423 0.089705
O O12 0.310280 0.925624 0.407387
O O13 0.156433 0.028766 0.221058
O O14 0.163473 0.312645 0.299062
O O15 0.140620 0.778763 0.351707
O O16 0.923821 0.137120 0.859826
O O17 0.000000 0.000000 0.000000
#
# Coordination Sequence:
#
# PCOD8126770 Si02
#       8
#     4   4   4   4   4   4   4   4
#     4  11  26  46  69 107 144 183 235 289 350 421
#     4  11  23  40  69  92 137 170 231 276 340 406
#     4  11  24  44  68 100 136 183 224 282 359 405
#     4  10  21  42  66  95 123 183 215 277 342 410
#     4  11  25  44  68  99 139 184 230 281 345 422
#     4  10  23  41  64  98 134 165 237 278 341 412
#     4  10  23  43  65  96 131 178 222 284 339 402
#     4  10  23  40  70  93 139 173 225 273 345 404
#
# _framework density 21.661328000000001
#
# number of rings (size 3 to 8) (size 9 to 14) (size 15 to 20)
#    0.000    1.500    1.250    2.250    7.000    5.000 
#    2.250    0.000    0.000    0.000    0.000    0.000 
#    0.000    0.000    0.000    0.000    0.000    0.000 
#
# Total GULP energy -396576.823865 kJ/mol
# GULP energy per Si atom -12393.025746 kJ/mol
# Density = 2.161203 g / cm^3
# Si number density = 21.661328 Si / 1000 Ang^3
#
#
#
# Elastic Constant Matrix: (Units=GPa)
#
#
# Indices 1 2 3 4 5 6 
#
# 1 84.3453 38.3469 59.3949 0.0000 8.7901 0.0000
# 2 38.3469 90.3192 43.7882 0.0000 3.5548 0.0000
# 3 59.3949 43.7882 141.2182 0.0000 9.4387 0.0000
# 4 0.0000 0.0000 0.0000 23.3639 0.0000 -6.8894
# 5 8.7901 3.5548 9.4387 0.0000 42.9359 0.0000
# 6 0.0000 0.0000 0.0000 -6.8894 0.0000 32.0624
#
#
#
# Elastic Compliance Matrix: (Units=1/GPa)
#
#
# Indices 1 2 3 4 5 6 
#
# 1 0.018630 -0.004822 -0.006204 0.000000 -0.002051 0.000000
# 2 -0.004822 0.014280 -0.002423 0.000000 0.000337 0.000000
# 3 -0.006204 -0.002423 0.010498 0.000000 -0.000837 0.000000
# 4 0.000000 0.000000 0.000000 0.045696 0.000000 0.009819
# 5 -0.002051 0.000337 -0.000837 0.000000 0.023867 0.000000
# 6 0.000000 0.000000 0.000000 0.009819 0.000000 0.033299
#
#
# Mechanical properties :
#
#
# Convention : Reuss Voigt Hill
#
# Bulk Modulus (GPa) = 60.55984 66.54921 63.55453
# Shear Modulus (GPa) = 27.98459 31.29595 29.64027
#
# Velocity S-wave (km/s) = 3.59822 3.80516 3.70313
# Velocity P-wave (km/s) = 6.72913 7.07778 6.90565
#
# Compressibility (1/GPa) = 0.01651259
#
# Stress axis : x y z
#
# Youngs Moduli (GPa) = 53.67577 70.02713 95.26044
#
# Poissons Ratio (x) = 0.33764 0.59096
# Poissons Ratio (y) = 0.25880 0.23077
# Poissons Ratio (z) = 0.33298 0.16965
#
# Static dielectric constant tensor:
#      x y z
#    x 4.058890 0.000000 -0.105140 
#    y 0.000000 3.782490 0.000000 
#    z -0.105140 0.000000 4.140470 
# 
# 
# High freq. dielectric constant tensor:
#      x y z
#    x 1.861970 0.000000 -0.000010 
#    y 0.000000 1.839440 0.000000 
#    z -0.000010 0.000000 1.865650 
# 
# From -- ./inp_files/26133.got.cif
#   From: 2010.03.12/outbox.cif.g09.slc.cpg/sg14_14_cif.got.tgz:26133.got - 2010.03.31 13:35:05.
