data_PCOD8126897
_publ_section_title
;
Structure prediction by ZEFSAII (Michael W. Deem and Ramdas Pophale) SiO2 
 PCOD8126897
Probable space group: P 21/C
;
_chemical_formula_sum "Si O2"
_cell_formula_units_Z 32
_cell_length_a 5.260768
_cell_length_b 29.582628
_cell_length_c 9.330018
_cell_angle_alpha 90.000000
_cell_angle_beta 104.910677
_cell_angle_gamma 90.000000
_cell_volume 1403.114178
_symmetry_space_group_name_H-M "P 21/C"
_symmetry_group_IT_number 14
_symmetry_cell_setting 'monoclinic'
loop_
_space_group_symop_operation_xyz
x,y,z
-x,1/2+y,1/2-z
-x,-y,-z
x,1/2-y,1/2+z
loop_
_atom_site_type_symbol
_atom_site_label
_atom_site_fract_x
_atom_site_fract_y
_atom_site_fract_z
Si Si1 0.442988 0.322350 0.916933
Si Si2 0.539440 0.098224 0.238664
Si Si3 0.602061 0.610850 0.602586
Si Si4 0.045288 0.047314 0.664143
Si Si5 0.906691 0.947393 0.645986
Si Si6 0.015835 0.770945 0.517583
Si Si7 0.683577 0.118872 0.667518
Si Si8 0.915264 0.694590 0.709613
O O1 0.475582 0.350258 0.774843
O O2 0.681747 0.286419 0.954032
O O3 0.160914 0.298404 0.891693
O O4 0.438469 0.360009 0.044666
O O5 0.847412 0.087079 0.307093
O O6 0.339381 0.064928 0.290871
O O7 0.484512 0.094190 0.063452
O O8 0.826361 0.576868 0.690922
O O9 0.360343 0.605031 0.675105
O O10 0.670837 0.664485 0.619499
O O11 0.198039 0.048781 0.533946
O O12 0.769909 0.073521 0.595666
O O13 0.008120 0.996461 0.712435
O O14 0.026449 0.720595 0.586292
O O15 0.865801 0.771841 0.340160
O O16 0.890289 0.159112 0.690349
#
# Coordination Sequence:
#
# PCOD8126897 Si02
#       8
#     4   4   4   4   4   4   4   4
#     4  11  23  44  67  93 131 178 220 275 328 400
#     4  12  27  43  68 103 140 176 228 282 338 399
#     4  11  25  43  70  96 143 180 221 279 350 403
#     4  10  24  44  72  98 136 184 228 283 330 414
#     4  11  26  45  71 104 132 181 237 277 335 400
#     4  11  25  42  68  94 131 168 227 276 328 400
#     4  10  21  44  68  94 133 182 224 266 346 403
#     4  10  25  42  64 100 126 178 218 279 335 401
#
# _framework density 22.80641
#
# number of rings (size 3 to 8) (size 9 to 14) (size 15 to 20)
#    0.000    1.250    2.500    1.500   10.500    3.000 
#    0.000    0.000    0.000    0.000    0.000    0.000 
#    0.000    0.000    0.000    0.000    0.000    0.000 
#
# Total GULP energy -396539.839369 kJ/mol
# GULP energy per Si atom -12391.869980 kJ/mol
# Density = 2.275450 g / cm^3
# Si number density = 22.806410 Si / 1000 Ang^3
#
#
#
# Elastic Constant Matrix: (Units=GPa)
#
#
# Indices 1 2 3 4 5 6 
#
# 1 67.9900 -2.5305 -1.8033 0.0000 -13.7894 0.0000
# 2 -2.5305 60.2738 11.6998 0.0000 -13.0990 0.0000
# 3 -1.8033 11.6998 98.1468 0.0000 -13.5715 0.0000
# 4 0.0000 0.0000 0.0000 28.5144 0.0000 -14.9039
# 5 -13.7894 -13.0990 -13.5715 0.0000 30.4239 0.0000
# 6 0.0000 0.0000 0.0000 -14.9039 0.0000 24.4709
#
#
#
# Elastic Compliance Matrix: (Units=1/GPa)
#
#
# Indices 1 2 3 4 5 6 
#
# 1 0.016699 0.002450 0.001287 0.000000 0.009197 0.000000
# 2 0.002450 0.018789 -0.000983 0.000000 0.008761 0.000000
# 3 0.001287 -0.000983 0.011032 0.000000 0.005081 0.000000
# 4 0.000000 0.000000 0.000000 0.051448 0.000000 0.031334
# 5 0.009197 0.008761 0.005081 0.000000 0.043076 0.000000
# 6 0.000000 0.000000 0.000000 0.031334 0.000000 0.059949
#
#
# Mechanical properties :
#
#
# Convention : Reuss Voigt Hill
#
# Bulk Modulus (GPa) = 19.22090 26.79359 23.00725
# Shear Modulus (GPa) = 23.49315 31.28481 27.38898
#
# Velocity S-wave (km/s) = 3.21302 3.70774 3.46921
# Velocity P-wave (km/s) = 4.71283 5.48667 5.11441
#
# Compressibility (1/GPa) = 0.05202670
#
# Stress axis : x y z
#
# Youngs Moduli (GPa) = 59.88477 53.22333 90.64326
#
# Poissons Ratio (x) = -0.13041 -0.11661
# Poissons Ratio (y) = -0.14673 0.08912
# Poissons Ratio (z) = -0.07704 0.05233
#
# Static dielectric constant tensor:
#      x y z
#    x 4.006790 0.000000 -0.054320 
#    y 0.000000 4.186460 0.000000 
#    z -0.054320 0.000000 4.042270 
# 
# 
# High freq. dielectric constant tensor:
#      x y z
#    x 1.895920 0.000000 -0.011350 
#    y 0.000000 1.903530 0.000000 
#    z -0.011350 0.000000 1.892140 
# 
# From -- ./inp_files/6989.got.cif
#   From: 2010.03.12/outbox.cif.g09.slc.cpg/sg14_4_cif.got.tgz:6989.got - 2010.03.31 13:35:05.
