data_PCOD8126942
_publ_section_title
;
Structure prediction by ZEFSAII (Michael W. Deem and Ramdas Pophale) SiO2 
 PCOD8126942
Probable space group: P 21/C
;
_chemical_formula_sum "Si O2"
_cell_formula_units_Z 24
_cell_length_a 22.915470
_cell_length_b 6.462925
_cell_length_c 22.457791
_cell_angle_alpha 90.000000
_cell_angle_beta 160.832002
_cell_angle_gamma 90.000000
_cell_volume 1092.062653
_symmetry_space_group_name_H-M "P 21/C"
_symmetry_group_IT_number 14
_symmetry_cell_setting 'monoclinic'
loop_
_space_group_symop_operation_xyz
x,y,z
-x,1/2+y,1/2-z
-x,-y,-z
x,1/2-y,1/2+z
loop_
_atom_site_type_symbol
_atom_site_label
_atom_site_fract_x
_atom_site_fract_y
_atom_site_fract_z
Si Si1 0.555175 0.305081 0.892342
Si Si2 0.054489 0.620947 0.611846
Si Si3 0.362996 0.567293 0.417283
Si Si4 0.874536 0.467814 0.653171
Si Si5 0.253626 0.186286 0.390241
Si Si6 0.838374 0.710420 0.510327
O O1 0.371697 0.257184 0.681975
O O2 0.536449 0.218553 0.940951
O O3 0.718117 0.194780 0.015559
O O4 0.585305 0.552535 0.925786
O O5 0.187467 0.810872 0.723462
O O6 0.134619 0.473707 0.739288
O O7 0.000000 0.500000 0.500000
O O8 0.880546 0.702021 0.479899
O O9 0.500000 0.500000 0.500000
O O10 0.313709 0.355647 0.401236
O O11 0.839548 0.698018 0.644840
O O12 0.895874 0.502306 0.602592
O O13 0.056687 0.402096 0.860019
#
# Coordination Sequence:
#
# PCOD8126942 Si02
#       6
#     4   4   4   4   4   4
#     4  10  25  44  66 103 135 178 235 282 353 415
#     4  11  25  43  65 103 137 179 234 277 347 414
#     4  10  23  43  67  98 141 184 227 285 342 414
#     4  11  25  47  67 103 136 176 235 282 349 420
#     4  10  21  47  66  92 146 173 227 291 331 419
#     4  12  25  45  72  98 140 183 224 294 348 409
#
# _framework density 21.976759000000001
#
# number of rings (size 3 to 8) (size 9 to 14) (size 15 to 20)
#    0.000    1.333    5.000    1.000    7.000    3.333 
#    6.000    0.000    0.000    0.000    0.000    0.000 
#    0.000    0.000    0.000    0.000    0.000    0.000 
#
# Total GULP energy -297437.813165 kJ/mol
# GULP energy per Si atom -12393.242215 kJ/mol
# Density = 2.192674 g / cm^3
# Si number density = 21.976759 Si / 1000 Ang^3
#
#
#
# Elastic Constant Matrix: (Units=GPa)
#
#
# Indices 1 2 3 4 5 6 
#
# 1 116.1890 35.4120 22.9018 0.0000 -0.3709 0.0000
# 2 35.4120 123.5215 44.4223 0.0000 19.1003 0.0000
# 3 22.9018 44.4223 129.8130 0.0000 7.3844 0.0000
# 4 0.0000 0.0000 0.0000 26.1010 0.0000 -7.7713
# 5 -0.3709 19.1003 7.3844 0.0000 16.8012 0.0000
# 6 0.0000 0.0000 0.0000 -7.7713 0.0000 26.0236
#
#
#
# Elastic Compliance Matrix: (Units=1/GPa)
#
#
# Indices 1 2 3 4 5 6 
#
# 1 0.009745 -0.003115 -0.000889 0.000000 0.004147 0.000000
# 2 -0.003115 0.011919 -0.002825 0.000000 -0.012377 0.000000
# 3 -0.000889 -0.002825 0.008867 0.000000 -0.000705 0.000000
# 4 0.000000 0.000000 0.000000 0.042052 0.000000 0.012558
# 5 0.004147 -0.012377 -0.000705 0.000000 0.073991 0.000000
# 6 0.000000 0.000000 0.000000 0.012558 0.000000 0.042177
#
#
# Mechanical properties :
#
#
# Convention : Reuss Voigt Hill
#
# Bulk Modulus (GPa) = 59.27034 63.88841 61.57938
# Shear Modulus (GPa) = 24.03476 31.57101 27.80288
#
# Velocity S-wave (km/s) = 3.31062 3.79431 3.56069
# Velocity P-wave (km/s) = 6.45304 6.95196 6.70714
#
# Compressibility (1/GPa) = 0.01687185
#
# Stress axis : x y z
#
# Youngs Moduli (GPa) = 102.62091 83.90242 112.77706
#
# Poissons Ratio (x) = 0.26138 0.10026
# Poissons Ratio (y) = 0.31969 0.31859
# Poissons Ratio (z) = 0.09123 0.23702
#
# Static dielectric constant tensor:
#      x y z
#    x 5.122840 0.000000 0.295820 
#    y 0.000000 4.453280 0.000000 
#    z 0.295820 0.000000 3.998180 
# 
# 
# High freq. dielectric constant tensor:
#      x y z
#    x 1.875570 0.000000 0.005250 
#    y 0.000000 1.874060 0.000000 
#    z 0.005250 0.000000 1.854200 
# 
# From -- ./inp_files/74816.got.cif
#   From: 2010.03.12/outbox.cif.g09.slc.cpg/sg14_38_cif.got.tgz:74816.got - 2010.03.31 13:35:05.
