data_PCOD8126272
_publ_section_title
;
Structure prediction by ZEFSAII (Michael W. Deem and Ramdas Pophale) SiO2 
 PCOD8126272
Probable space group: P 21/C
;
_chemical_formula_sum "Si O2"
_cell_formula_units_Z 28
_cell_length_a 21.812422
_cell_length_b 8.188178
_cell_length_c 10.560911
_cell_angle_alpha 90.000000
_cell_angle_beta 40.270846
_cell_angle_gamma 90.000000
_cell_volume 1219.256244
_symmetry_space_group_name_H-M "P 21/C"
_symmetry_group_IT_number 14
_symmetry_cell_setting 'monoclinic'
loop_
_space_group_symop_operation_xyz
x,y,z
-x,1/2+y,1/2-z
-x,-y,-z
x,1/2-y,1/2+z
loop_
_atom_site_type_symbol
_atom_site_label
_atom_site_fract_x
_atom_site_fract_y
_atom_site_fract_z
Si Si1 0.224592 0.099178 0.309130
Si Si2 0.866266 0.088706 0.773481
Si Si3 0.923372 0.340816 0.508188
Si Si4 0.256953 0.746717 0.843933
Si Si5 0.436149 0.353015 0.443780
Si Si6 0.067248 0.153839 0.123211
Si Si7 0.532047 0.274644 0.541936
O O1 0.162197 0.238909 0.473181
O O2 0.163776 0.034658 0.288169
O O3 0.245807 0.950484 0.372492
O O4 0.323606 0.177837 0.109160
O O5 0.940270 0.231799 0.607781
O O6 0.922298 0.985796 0.787612
O O7 0.771394 0.174250 0.977325
O O8 0.811107 0.317902 0.658349
O O9 0.947083 0.536905 0.480701
O O10 0.977037 0.262038 0.301411
O O11 0.363079 0.799224 0.641572
O O12 0.476105 0.244657 0.497769
O O13 0.462428 0.537280 0.432068
O O14 0.481352 0.314867 0.237262
#
# Coordination Sequence:
#
# PCOD8126272 Si02
#       7
#     4   4   4   4   4   4   4
#     4  10  23  42  62  95 131 165 219 275 329 392
#     4  10  22  40  65  91 128 173 217 262 333 387
#     4  10  21  39  62  93 126 166 213 263 324 389
#     4   9  21  40  63  88 126 166 217 271 322 391
#     4  10  24  42  65  98 133 175 224 274 330 396
#     4  11  23  41  65  94 131 167 213 270 324 392
#     4  10  23  42  66  97 133 175 223 274 333 393
#
# _framework density 22.96482
#
# number of rings (size 3 to 8) (size 9 to 14) (size 15 to 20)
#    0.000    2.000    0.000    2.143    8.000    5.143 
#    2.571    4.286    0.000    0.000    0.000    0.000 
#    0.000    0.000    0.000    0.000    0.000    0.000 
#
# Total GULP energy -347086.167050 kJ/mol
# GULP energy per Si atom -12395.934538 kJ/mol
# Density = 2.291255 g / cm^3
# Si number density = 22.964820 Si / 1000 Ang^3
#
#
#
# Elastic Constant Matrix: (Units=GPa)
#
#
# Indices 1 2 3 4 5 6 
#
# 1 14.3889 4.8382 6.9402 0.0000 5.1585 0.0000
# 2 4.8382 66.8082 23.4615 0.0000 1.8332 0.0000
# 3 6.9402 23.4615 106.4764 0.0000 0.8523 0.0000
# 4 0.0000 0.0000 0.0000 46.4315 0.0000 -0.5572
# 5 5.1585 1.8332 0.8523 0.0000 32.7910 0.0000
# 6 0.0000 0.0000 0.0000 -0.5572 0.0000 21.8000
#
#
#
# Elastic Compliance Matrix: (Units=1/GPa)
#
#
# Indices 1 2 3 4 5 6 
#
# 1 0.076978 -0.003818 -0.004082 0.000000 -0.011790 0.000000
# 2 -0.003818 0.016435 -0.003371 0.000000 -0.000231 0.000000
# 3 -0.004082 -0.003371 0.010396 0.000000 0.000560 0.000000
# 4 0.000000 0.000000 0.000000 0.021544 0.000000 0.000551
# 5 -0.011790 -0.000231 0.000560 0.000000 0.032349 0.000000
# 6 0.000000 0.000000 0.000000 0.000551 0.000000 0.045886
#
#
# Mechanical properties :
#
#
# Convention : Reuss Voigt Hill
#
# Bulk Modulus (GPa) = 12.30497 28.68371 20.49434
# Shear Modulus (GPa) = 19.74593 30.36672 25.05633
#
# Velocity S-wave (km/s) = 2.93547 3.64031 3.30673
# Velocity P-wave (km/s) = 4.10599 5.49423 4.85004
#
# Compressibility (1/GPa) = 0.08126798
#
# Stress axis : x y z
#
# Youngs Moduli (GPa) = 12.99079 60.84685 96.19061
#
# Poissons Ratio (x) = 0.23229 0.39264
# Poissons Ratio (y) = 0.04959 0.32422
# Poissons Ratio (z) = 0.05303 0.20509
#
# Static dielectric constant tensor:
#      x y z
#    x 4.066860 0.000000 0.106350 
#    y 0.000000 4.404370 0.000000 
#    z 0.106350 0.000000 4.361390 
# 
# 
# High freq. dielectric constant tensor:
#      x y z
#    x 1.900880 0.000000 0.000300 
#    y 0.000000 1.912250 0.000000 
#    z 0.000300 0.000000 1.912010 
# 
# From -- ./inp_files/36134.got.cif
#   From: 2010.03.12/outbox.cif.g09.slc.cpg/sg14_19_cif.got.tgz:36134.got - 2010.03.31 13:35:05.
