data_PCOD8126771
_publ_section_title
;
Structure prediction by ZEFSAII (Michael W. Deem and Ramdas Pophale) SiO2 
 PCOD8126771
Probable space group: P 21/C
;
_chemical_formula_sum "Si O2"
_cell_formula_units_Z 24
_cell_length_a 10.812769
_cell_length_b 11.669535
_cell_length_c 14.613678
_cell_angle_alpha 90.000000
_cell_angle_beta 42.170672
_cell_angle_gamma 90.000000
_cell_volume 1237.922277
_symmetry_space_group_name_H-M "P 21/C"
_symmetry_group_IT_number 14
_symmetry_cell_setting 'monoclinic'
loop_
_space_group_symop_operation_xyz
x,y,z
-x,1/2+y,1/2-z
-x,-y,-z
x,1/2-y,1/2+z
loop_
_atom_site_type_symbol
_atom_site_label
_atom_site_fract_x
_atom_site_fract_y
_atom_site_fract_z
Si Si1 0.703691 0.739691 0.236791
Si Si2 0.228188 0.539947 0.610488
Si Si3 0.610609 0.234594 0.729100
Si Si4 0.440729 0.314579 0.502535
Si Si5 0.826651 0.010138 0.658378
Si Si6 0.059079 0.613532 0.519542
O O1 0.534912 0.787630 0.271131
O O2 0.669115 0.763639 0.363962
O O3 0.705380 0.603886 0.217957
O O4 0.895980 0.794677 0.100982
O O5 0.313450 0.417656 0.533947
O O6 0.387800 0.633024 0.536024
O O7 0.114456 0.528578 0.767930
O O8 0.090965 0.583677 0.607960
O O9 0.704773 0.112760 0.688983
O O10 0.756827 0.334213 0.626858
O O11 0.505566 0.264493 0.882056
O O12 0.000000 0.000000 0.500000
O O13 0.000000 0.500000 0.500000
#
# Coordination Sequence:
#
# PCOD8126771 Si02
#       6
#     4   4   4   4   4   4
#     4  11  23  40  67  91 126 166 207 258 314 370
#     4   9  19  39  64  86 128 158 208 256 311 378
#     4  11  23  41  64  90 129 161 210 260 302 382
#     4   9  19  40  66  86 115 175 203 247 316 367
#     4  10  21  42  66  96 117 170 216 251 312 373
#     4  12  25  41  61  98 129 162 206 266 321 364
#
# _framework density 19.387324
#
# number of rings (size 3 to 8) (size 9 to 14) (size 15 to 20)
#    0.000    1.667    3.333    2.000    2.333    1.333 
#   15.000    0.833    0.000    0.000    0.000    0.000 
#    0.000    0.000    0.000    0.000    0.000    0.000 
#
# Total GULP energy -297606.517129 kJ/mol
# GULP energy per Si atom -12400.271547 kJ/mol
# Density = 1.934320 g / cm^3
# Si number density = 19.387324 Si / 1000 Ang^3
#
#
#
# Elastic Constant Matrix: (Units=GPa)
#
#
# Indices 1 2 3 4 5 6 
#
# 1 109.9302 51.4765 41.6469 0.0000 4.6082 0.0000
# 2 51.4765 71.6046 32.3285 0.0000 11.8835 0.0000
# 3 41.6469 32.3285 144.8942 0.0000 12.5155 0.0000
# 4 0.0000 0.0000 0.0000 25.6340 0.0000 2.7376
# 5 4.6082 11.8835 12.5155 0.0000 26.2063 0.0000
# 6 0.0000 0.0000 0.0000 2.7376 0.0000 25.4187
#
#
#
# Elastic Compliance Matrix: (Units=1/GPa)
#
#
# Indices 1 2 3 4 5 6 
#
# 1 0.014430 -0.009876 -0.002203 0.000000 0.002993 0.000000
# 2 -0.009876 0.023125 -0.001633 0.000000 -0.007970 0.000000
# 3 -0.002203 -0.001633 0.008137 0.000000 -0.002759 0.000000
# 4 0.000000 0.000000 0.000000 0.039465 0.000000 -0.004250
# 5 0.002993 -0.007970 -0.002759 0.000000 0.042564 0.000000
# 6 0.000000 0.000000 0.000000 -0.004250 0.000000 0.039799
#
#
# Mechanical properties :
#
#
# Convention : Reuss Voigt Hill
#
# Bulk Modulus (GPa) = 54.73420 64.14809 59.44115
# Shear Modulus (GPa) = 24.87148 28.85027 26.86088
#
# Velocity S-wave (km/s) = 3.58561 3.86177 3.72625
# Velocity P-wave (km/s) = 6.74058 7.28312 7.01709
#
# Compressibility (1/GPa) = 0.01827011
#
# Stress axis : x y z
#
# Youngs Moduli (GPa) = 69.29811 43.24251 122.89207
#
# Poissons Ratio (x) = 0.42707 0.27069
# Poissons Ratio (y) = 0.68441 0.20063
# Poissons Ratio (z) = 0.15264 0.07060
#
# Static dielectric constant tensor:
#      x y z
#    x 3.356120 0.000000 0.196040 
#    y 0.000000 3.427240 0.000000 
#    z 0.196040 0.000000 3.934870 
# 
# 
# High freq. dielectric constant tensor:
#      x y z
#    x 1.748630 0.000000 0.008080 
#    y 0.000000 1.739830 0.000000 
#    z 0.008080 0.000000 1.772110 
# 
# From -- ./inp_files/44277.got.cif
#   From: 2010.03.12/outbox.cif.g09.slc.cpg/sg14_23_cif.got.tgz:44277.got - 2010.03.31 13:35:05.
