data_PCOD8126598
_publ_section_title
;
Structure prediction by ZEFSAII (Michael W. Deem and Ramdas Pophale) SiO2 
 PCOD8126598
Probable space group: P 21/C
;
_chemical_formula_sum "Si O2"
_cell_formula_units_Z 16
_cell_length_a 10.435234
_cell_length_b 5.181843
_cell_length_c 13.228935
_cell_angle_alpha 90.000000
_cell_angle_beta 80.350801
_cell_angle_gamma 90.000000
_cell_volume 705.217783
_symmetry_space_group_name_H-M "P 21/C"
_symmetry_group_IT_number 14
_symmetry_cell_setting 'monoclinic'
loop_
_space_group_symop_operation_xyz
x,y,z
-x,1/2+y,1/2-z
-x,-y,-z
x,1/2-y,1/2+z
loop_
_atom_site_type_symbol
_atom_site_label
_atom_site_fract_x
_atom_site_fract_y
_atom_site_fract_z
Si Si1 0.306586 0.079931 0.560410
Si Si2 0.696600 0.674267 0.641158
Si Si3 0.440331 0.829358 0.369400
Si Si4 0.917156 0.556496 0.761693
O O1 0.277092 0.307110 0.483145
O O2 0.403482 0.174936 0.637243
O O3 0.172504 0.995627 0.629615
O O4 0.374812 0.842289 0.491298
O O5 0.607925 0.427984 0.679574
O O6 0.834675 0.657188 0.677440
O O7 0.611509 0.923378 0.688025
O O8 0.985010 0.287862 0.723092
#
# Coordination Sequence:
#
# PCOD8126598 Si02
#       4
#     4   4   4   4
#     4   9  23  40  67  89 128 148 204 255 301 368
#     4  10  21  41  63  92 119 159 200 249 312 345
#     4   9  20  40  67  94 114 153 199 256 321 343
#     4  12  28  41  58  91 125 168 209 239 290 363
#
# _framework density 22.688025
#
# number of rings (size 3 to 8) (size 9 to 14) (size 15 to 20)
#    1.500    0.500    0.000    2.250    3.500    4.000 
#    0.000    0.000    0.000    0.000    0.000    0.000 
#    0.000    0.000    0.000    0.000    0.000    0.000 
#
# Total GULP energy -198340.924385 kJ/mol
# GULP energy per Si atom -12396.307774 kJ/mol
# Density = 2.263639 g / cm^3
# Si number density = 22.688025 Si / 1000 Ang^3
#
#
#
# Elastic Constant Matrix: (Units=GPa)
#
#
# Indices 1 2 3 4 5 6 
#
# 1 105.9477 12.9020 28.0567 0.0000 -11.1898 0.0000
# 2 12.9020 113.3503 -1.0586 0.0000 -3.8200 0.0000
# 3 28.0567 -1.0586 42.5115 0.0000 -9.9253 0.0000
# 4 0.0000 0.0000 0.0000 -43.6034 0.0000 29.7040
# 5 -11.1898 -3.8200 -9.9253 0.0000 48.3325 0.0000
# 6 0.0000 0.0000 0.0000 29.7040 0.0000 25.3692
#
#
#
# Elastic Compliance Matrix: (Units=1/GPa)
#
#
# Indices 1 2 3 4 5 6 
#
# 1 0.011706 -0.001367 -0.007513 0.000000 0.001059 0.000000
# 2 -0.001367 0.009012 0.001280 0.000000 0.000659 0.000000
# 3 -0.007513 0.001280 0.029547 0.000000 0.004430 0.000000
# 4 0.000000 0.000000 0.000000 -0.012758 0.000000 0.014938
# 5 0.001059 0.000659 0.004430 0.000000 0.021897 0.000000
# 6 0.000000 0.000000 0.000000 0.014938 0.000000 0.021928
#
#
# Mechanical properties :
#
#
# Convention : Reuss Voigt Hill
#
# Bulk Modulus (GPa) = 28.51671 37.95663 33.23667
# Shear Modulus (GPa) = 46.20216 20.81363 33.50790
#
# Velocity S-wave (km/s) = 4.51756 3.03212 3.84721
# Velocity P-wave (km/s) = 6.30931 5.38744 5.86651
#
# Compressibility (1/GPa) = 0.03506716
#
# Stress axis : x y z
#
# Youngs Moduli (GPa) = 85.42296 110.96374 33.84404
#
# Poissons Ratio (x) = 0.15168 0.25426
# Poissons Ratio (y) = 0.11677 -0.04333
# Poissons Ratio (z) = 0.64176 -0.14207
#
# Static dielectric constant tensor:
#      x y z
#    x 3.928010 0.000000 0.052420 
#    y 0.000000 3.754990 0.000000 
#    z 0.052420 0.000000 3.856360 
# 
# 
# High freq. dielectric constant tensor:
#      x y z
#    x 1.892080 0.000000 0.001350 
#    y 0.000000 1.882020 0.000000 
#    z 0.001350 0.000000 1.900800 
# 
# From -- ./inp_files/38418.got.cif
#   From: 2010.03.12/outbox.cif.g09.slc.cpg/sg14_20_cif.got.tgz:38418.got - 2010.03.31 13:35:05.
