data_PCOD8126730
_publ_section_title
;
Structure prediction by ZEFSAII (Michael W. Deem and Ramdas Pophale) SiO2 
 PCOD8126730
Probable space group: P 21/C
;
_chemical_formula_sum "Si O2"
_cell_formula_units_Z 28
_cell_length_a 5.925939
_cell_length_b 20.571439
_cell_length_c 8.998195
_cell_angle_alpha 90.000000
_cell_angle_beta 88.321946
_cell_angle_gamma 90.000000
_cell_volume 1096.455378
_symmetry_space_group_name_H-M "P 21/C"
_symmetry_group_IT_number 14
_symmetry_cell_setting 'monoclinic'
loop_
_space_group_symop_operation_xyz
x,y,z
-x,1/2+y,1/2-z
-x,-y,-z
x,1/2-y,1/2+z
loop_
_atom_site_type_symbol
_atom_site_label
_atom_site_fract_x
_atom_site_fract_y
_atom_site_fract_z
Si Si1 0.365185 0.583259 0.614907
Si Si2 0.259989 0.752850 0.952547
Si Si3 0.964295 0.698878 0.192467
Si Si4 0.564797 0.700028 0.705765
Si Si5 0.243897 0.071394 0.403975
Si Si6 0.026125 0.452708 0.195990
Si Si7 0.603569 0.459651 0.691123
O O1 0.580614 0.621484 0.689590
O O2 0.403802 0.506468 0.636456
O O3 0.355538 0.595703 0.435870
O O4 0.122595 0.597928 0.701163
O O5 0.107779 0.793187 0.839764
O O6 0.468601 0.718389 0.867758
O O7 0.366810 0.795440 0.082752
O O8 0.112744 0.698704 0.039860
O O9 0.786197 0.758101 0.172633
O O10 0.856849 0.627569 0.201498
O O11 0.190749 0.087694 0.578545
O O12 0.510511 0.070891 0.349797
O O13 0.147564 0.999022 0.388601
O O14 0.167104 0.501328 0.295672
#
# Coordination Sequence:
#
# PCOD8126730 Si02
#       7
#     4   4   4   4   4   4   4
#     4  10  23  39  61  92 125 165 216 258 327 384
#     4  10  25  42  61  98 124 177 226 260 338 391
#     4  11  24  43  66  95 134 175 221 276 327 392
#     4  11  24  42  66  92 134 173 222 275 327 395
#     4  10  23  38  65  93 127 164 218 260 329 386
#     4  10  21  42  62  94 128 168 208 269 322 392
#     4  10  22  38  63  96 123 165 210 264 322 382
#
# _framework density 25.536836000000001
#
# number of rings (size 3 to 8) (size 9 to 14) (size 15 to 20)
#    0.000    1.714    0.000    2.571    6.000    5.714 
#    0.000    0.000    0.000    0.000    0.000    0.000 
#    0.000    0.000    0.000    0.000    0.000    0.000 
#
# Total GULP energy -346906.785239 kJ/mol
# GULP energy per Si atom -12389.528044 kJ/mol
# Density = 2.547871 g / cm^3
# Si number density = 25.536836 Si / 1000 Ang^3
#
#
#
# Elastic Constant Matrix: (Units=GPa)
#
#
# Indices 1 2 3 4 5 6 
#
# 1 53.7723 -9.7805 32.5343 0.0000 -7.9077 0.0000
# 2 -9.7805 46.6541 10.4956 0.0000 -11.3519 0.0000
# 3 32.5343 10.4956 164.9439 0.0000 -32.2704 0.0000
# 4 0.0000 0.0000 0.0000 24.3021 0.0000 -2.1325
# 5 -7.9077 -11.3519 -32.2704 0.0000 40.5193 0.0000
# 6 0.0000 0.0000 0.0000 -2.1325 0.0000 36.2016
#
#
#
# Elastic Compliance Matrix: (Units=1/GPa)
#
#
# Indices 1 2 3 4 5 6 
#
# 1 0.022820 0.006443 -0.004367 0.000000 0.002781 0.000000
# 2 0.006443 0.024830 -0.001473 0.000000 0.007040 0.000000
# 3 -0.004367 -0.001473 0.008020 0.000000 0.005122 0.000000
# 4 0.000000 0.000000 0.000000 0.041363 0.000000 0.002437
# 5 0.002781 0.007040 0.005122 0.000000 0.031274 0.000000
# 6 0.000000 0.000000 0.000000 0.002437 0.000000 0.027767
#
#
# Mechanical properties :
#
#
# Convention : Reuss Voigt Hill
#
# Bulk Modulus (GPa) = 17.58258 36.87433 27.22845
# Shear Modulus (GPa) = 28.76440 35.67931 32.22185
#
# Velocity S-wave (km/s) = 3.35981 3.74193 3.55601
# Velocity P-wave (km/s) = 4.68522 5.75677 5.24841
#
# Compressibility (1/GPa) = 0.05687447
#
# Stress axis : x y z
#
# Youngs Moduli (GPa) = 43.82116 40.27460 124.68923
#
# Poissons Ratio (x) = -0.25949 0.54453
# Poissons Ratio (y) = -0.28234 0.18372
# Poissons Ratio (z) = 0.19137 0.05934
#
# Static dielectric constant tensor:
#      x y z
#    x 4.372560 0.000000 -0.357730 
#    y 0.000000 4.458780 0.000000 
#    z -0.357730 0.000000 5.119950 
# 
# 
# High freq. dielectric constant tensor:
#      x y z
#    x 2.006450 0.000000 -0.011610 
#    y 0.000000 2.009680 0.000000 
#    z -0.011610 0.000000 2.039570 
# 
# From -- ./inp_files/21749.got.cif
#   From: 2010.03.12/outbox.cif.g09.slc.cpg/sg14_11_cif.got.tgz:21749.got - 2010.03.31 13:35:05.
