data_PCOD8126075
_publ_section_title
;
Structure prediction by ZEFSAII (Michael W. Deem and Ramdas Pophale) SiO2 
 PCOD8126075
Probable space group: P 21/C
;
_chemical_formula_sum "Si O2"
_cell_formula_units_Z 28
_cell_length_a 13.960359
_cell_length_b 19.253011
_cell_length_c 7.879552
_cell_angle_alpha 90.000000
_cell_angle_beta 44.498069
_cell_angle_gamma 90.000000
_cell_volume 1484.375156
_symmetry_space_group_name_H-M "P 21/C"
_symmetry_group_IT_number 14
_symmetry_cell_setting 'monoclinic'
loop_
_space_group_symop_operation_xyz
x,y,z
-x,1/2+y,1/2-z
-x,-y,-z
x,1/2-y,1/2+z
loop_
_atom_site_type_symbol
_atom_site_label
_atom_site_fract_x
_atom_site_fract_y
_atom_site_fract_z
Si Si1 0.016725 0.576560 0.409439
Si Si2 0.497132 0.343814 0.909406
Si Si3 0.277312 0.065653 0.818461
Si Si4 0.217829 0.159572 0.179901
Si Si5 0.644306 0.772516 0.697054
Si Si6 0.784295 0.406466 0.555825
Si Si7 0.049967 0.577216 0.982821
O O1 0.102089 0.617854 0.447225
O O2 0.094041 0.577692 0.127084
O O3 0.000000 0.500000 0.500000
O O4 0.860781 0.603984 0.581173
O O5 0.469565 0.315564 0.758296
O O6 0.656864 0.355562 0.736783
O O7 0.409802 0.414850 0.041364
O O8 0.444089 0.286583 0.104688
O O9 0.262993 0.983708 0.838594
O O10 0.295249 0.096553 0.985412
O O11 0.285454 0.169295 0.276795
O O12 0.061437 0.137570 0.402871
O O13 0.236377 0.234139 0.061895
O O14 0.831735 0.403025 0.299729
O O15 0.000000 0.500000 0.000000
#
# Coordination Sequence:
#
# PCOD8126075 Si02
#       7
#     4   4   4   4   4   4   4
#     4   9  18  33  56  82 118 151 174 221 288 348
#     4  10  21  38  59  79 113 153 197 237 285 341
#     4   9  18  35  59  87 113 143 193 234 283 357
#     4   9  18  35  60  83 105 148 202 237 271 348
#     4   9  20  39  59  75 110 160 198 237 277 339
#     4  11  21  36  57  90 122 150 175 243 309 336
#     4  11  19  35  59  90 122 144 191 239 297 349
#
# _framework density 18.863154999999999
#
# number of rings (size 3 to 8) (size 9 to 14) (size 15 to 20)
#    0.000    2.286    4.286    0.429    2.000    0.000 
#    7.714    2.143    0.000    0.000    0.000    0.000 
#    0.000    0.000    0.000    0.000    0.000    0.000 
#
# Total GULP energy -346894.552523 kJ/mol
# GULP energy per Si atom -12389.091162 kJ/mol
# Density = 1.882022 g / cm^3
# Si number density = 18.863155 Si / 1000 Ang^3
#
#
#
# Elastic Constant Matrix: (Units=GPa)
#
#
# Indices 1 2 3 4 5 6 
#
# 1 123.8565 35.4482 52.6009 0.0000 6.3334 0.0000
# 2 35.4482 51.2730 17.9869 0.0000 -7.8031 0.0000
# 3 52.6009 17.9869 100.0973 0.0000 -2.8672 0.0000
# 4 0.0000 0.0000 0.0000 16.0665 0.0000 -6.3984
# 5 6.3334 -7.8031 -2.8672 0.0000 31.4947 0.0000
# 6 0.0000 0.0000 0.0000 -6.3984 0.0000 28.4422
#
#
#
# Elastic Compliance Matrix: (Units=1/GPa)
#
#
# Indices 1 2 3 4 5 6 
#
# 1 0.012892 -0.007737 -0.005528 0.000000 -0.005013 0.000000
# 2 -0.007737 0.026218 -0.000416 0.000000 0.008014 0.000000
# 3 -0.005528 -0.000416 0.013033 0.000000 0.002195 0.000000
# 4 0.000000 0.000000 0.000000 0.068366 0.000000 0.015380
# 5 -0.005013 0.008014 0.002195 0.000000 0.034945 0.000000
# 6 0.000000 0.000000 0.000000 0.015380 0.000000 0.038619
#
#
# Mechanical properties :
#
#
# Convention : Reuss Voigt Hill
#
# Bulk Modulus (GPa) = 40.35317 54.14430 47.24874
# Shear Modulus (GPa) = 21.76801 26.48008 24.12405
#
# Velocity S-wave (km/s) = 3.40074 3.75080 3.58005
# Velocity P-wave (km/s) = 6.07117 6.89377 6.49550
#
# Compressibility (1/GPa) = 0.02478120
#
# Stress axis : x y z
#
# Youngs Moduli (GPa) = 77.56599 38.14192 76.72853
#
# Poissons Ratio (x) = 0.29509 0.42417
# Poissons Ratio (y) = 0.60011 0.03192
# Poissons Ratio (z) = 0.42880 0.01587
#
# Static dielectric constant tensor:
#      x y z
#    x 3.906210 0.000000 0.153960 
#    y 0.000000 3.304030 0.000000 
#    z 0.153960 0.000000 3.590450 
# 
# 
# High freq. dielectric constant tensor:
#      x y z
#    x 1.728690 0.000000 0.016080 
#    y 0.000000 1.714610 0.000000 
#    z 0.016080 0.000000 1.728650 
# 
# From -- ./inp_files/16755.got.cif
#   From: 2010.03.12/outbox.cif.g09.slc.cpg/sg14_9_cif.got.tgz:16755.got - 2010.03.31 13:35:05.
