data_PCOD8126198
_publ_section_title
;
Structure prediction by ZEFSAII (Michael W. Deem and Ramdas Pophale) SiO2 
 PCOD8126198
Probable space group: P 21/C
;
_chemical_formula_sum "Si O2"
_cell_formula_units_Z 32
_cell_length_a 24.937733
_cell_length_b 8.204547
_cell_length_c 20.510733
_cell_angle_alpha 90.000000
_cell_angle_beta 160.125833
_cell_angle_gamma 90.000000
_cell_volume 1426.641709
_symmetry_space_group_name_H-M "P 21/C"
_symmetry_group_IT_number 14
_symmetry_cell_setting 'monoclinic'
loop_
_space_group_symop_operation_xyz
x,y,z
-x,1/2+y,1/2-z
-x,-y,-z
x,1/2-y,1/2+z
loop_
_atom_site_type_symbol
_atom_site_label
_atom_site_fract_x
_atom_site_fract_y
_atom_site_fract_z
Si Si1 0.725821 0.000705 0.267365
Si Si2 0.473564 0.320182 0.554484
Si Si3 0.333596 0.671376 0.872029
Si Si4 0.550070 0.942118 0.833592
Si Si5 0.351659 0.012609 0.271545
Si Si6 0.712207 0.283247 0.034270
Si Si7 0.189700 0.358467 0.467339
Si Si8 0.981216 0.600206 0.155625
O O1 0.606037 0.043092 0.189301
O O2 0.734995 0.156405 0.230102
O O3 0.894753 0.952955 0.490229
O O4 0.669976 0.846087 0.160591
O O5 0.412557 0.345869 0.557627
O O6 0.542141 0.140303 0.628883
O O7 0.275411 0.528115 0.755463
O O8 0.274059 0.643550 0.877202
O O9 0.526977 0.666825 0.088932
O O10 0.366242 0.921129 0.602010
O O11 0.650133 0.857680 0.890362
O O12 0.594532 0.129191 0.895403
O O13 0.213315 0.041232 0.061828
O O14 0.884753 0.234320 0.206669
O O15 0.139581 0.176784 0.430224
O O16 0.051499 0.438385 0.267314
#
# Coordination Sequence:
#
# PCOD8126198 Si02
#       8
#     4   4   4   4   4   4   4   4
#     4  10  23  40  69  96 133 176 217 271 331 400
#     4  10  21  38  68 104 123 172 226 268 323 383
#     4  10  21  41  70  94 130 167 222 277 323 374
#     4  11  23  40  71  93 132 165 232 268 318 387
#     4  10  22  41  68  98 130 165 227 277 322 384
#     4  11  24  44  64 105 125 178 217 281 321 399
#     4  11  26  46  63  98 132 183 212 273 336 397
#     4  11  28  44  63  95 143 172 217 269 348 399
#
# _framework density 22.430298000000001
#
# number of rings (size 3 to 8) (size 9 to 14) (size 15 to 20)
#    0.000    1.500    2.500    1.500   14.000    0.500 
#    0.000    0.625    0.000    0.000    0.000    0.000 
#    0.000    0.000    0.000    0.000    0.000    0.000 
#
# Total GULP energy -396716.794193 kJ/mol
# GULP energy per Si atom -12397.399819 kJ/mol
# Density = 2.237925 g / cm^3
# Si number density = 22.430298 Si / 1000 Ang^3
#
#
#
# Elastic Constant Matrix: (Units=GPa)
#
#
# Indices 1 2 3 4 5 6 
#
# 1 94.4557 8.7399 21.6112 0.0000 -23.9106 0.0000
# 2 8.7399 54.8032 23.5116 0.0000 0.1639 0.0000
# 3 21.6112 23.5116 135.6800 0.0000 -23.4855 0.0000
# 4 0.0000 0.0000 0.0000 41.8424 0.0000 -0.2311
# 5 -23.9106 0.1639 -23.4855 0.0000 25.6581 0.0000
# 6 0.0000 0.0000 0.0000 -0.2311 0.0000 27.8193
#
#
#
# Elastic Compliance Matrix: (Units=1/GPa)
#
#
# Indices 1 2 3 4 5 6 
#
# 1 0.014171 -0.002542 0.000561 0.000000 0.013735 0.000000
# 2 -0.002542 0.020496 -0.004253 0.000000 -0.006393 0.000000
# 3 0.000561 -0.004253 0.009641 0.000000 0.009374 0.000000
# 4 0.000000 0.000000 0.000000 0.023900 0.000000 0.000199
# 5 0.013735 -0.006393 0.009374 0.000000 0.060395 0.000000
# 6 0.000000 0.000000 0.000000 0.000199 0.000000 0.035948
#
#
# Mechanical properties :
#
#
# Convention : Reuss Voigt Hill
#
# Bulk Modulus (GPa) = 31.40782 43.62939 37.51861
# Shear Modulus (GPa) = 26.64785 34.46906 30.55846
#
# Velocity S-wave (km/s) = 3.45052 3.92435 3.69504
# Velocity P-wave (km/s) = 5.46878 6.32672 5.91333
#
# Compressibility (1/GPa) = 0.03183921
#
# Stress axis : x y z
#
# Youngs Moduli (GPa) = 70.56776 48.78911 103.72769
#
# Poissons Ratio (x) = 0.12400 -0.05817
# Poissons Ratio (y) = 0.17935 0.44120
# Poissons Ratio (z) = -0.03957 0.20752
#
# Static dielectric constant tensor:
#      x y z
#    x 4.093460 0.000000 -0.298490 
#    y 0.000000 3.956550 0.000000 
#    z -0.298490 0.000000 4.027760 
# 
# 
# High freq. dielectric constant tensor:
#      x y z
#    x 1.880050 0.000000 -0.030950 
#    y 0.000000 1.881370 0.000000 
#    z -0.030950 0.000000 1.872310 
# 
# From -- ./inp_files/70514.got.cif
#   From: 2010.03.12/outbox.cif.g09.slc.cpg/sg14_36_cif.got.tgz:70514.got - 2010.03.31 13:35:05.
