data_PCOD8126430
_publ_section_title
;
Structure prediction by ZEFSAII (Michael W. Deem and Ramdas Pophale) SiO2 
 PCOD8126430
Probable space group: P 21/C
;
_chemical_formula_sum "Si O2"
_cell_formula_units_Z 32
_cell_length_a 18.948304
_cell_length_b 5.354684
_cell_length_c 30.936354
_cell_angle_alpha 90.000000
_cell_angle_beta 152.345818
_cell_angle_gamma 90.000000
_cell_volume 1456.855846
_symmetry_space_group_name_H-M "P 21/C"
_symmetry_group_IT_number 14
_symmetry_cell_setting 'monoclinic'
loop_
_space_group_symop_operation_xyz
x,y,z
-x,1/2+y,1/2-z
-x,-y,-z
x,1/2-y,1/2+z
loop_
_atom_site_type_symbol
_atom_site_label
_atom_site_fract_x
_atom_site_fract_y
_atom_site_fract_z
Si Si1 0.042403 0.171913 0.938108
Si Si2 0.060975 0.271221 0.261585
Si Si3 0.487467 0.413865 0.796195
Si Si4 0.582028 0.746805 0.560949
Si Si5 0.646761 0.807049 0.193693
Si Si6 0.010034 0.300726 0.136320
Si Si7 0.731899 0.617749 0.878127
Si Si8 0.739937 0.297166 0.807326
O O1 0.040935 0.440471 0.913366
O O2 0.874692 0.114629 0.865721
O O3 0.158892 0.176900 0.041510
O O4 0.090725 0.937387 0.934312
O O5 0.243606 0.249796 0.360304
O O6 0.992358 0.335324 0.177650
O O7 0.009136 0.504162 0.262833
O O8 0.458359 0.350821 0.830788
O O9 0.666211 0.450806 0.882599
O O10 0.422116 0.212191 0.727914
O O11 0.391081 0.665179 0.736469
O O12 0.500000 0.500000 0.500000
O O13 0.566378 0.716780 0.603987
O O14 0.500000 0.000000 0.500000
O O15 0.819465 0.713584 0.282756
O O16 0.662615 0.084252 0.222364
O O17 0.818466 0.484127 0.885159
#
# Coordination Sequence:
#
# PCOD8126430 Si02
#       8
#     4   4   4   4   4   4   4   4
#     4  11  23  40  63  96 122 162 219 271 306 371
#     4  11  23  45  72  98 137 180 217 274 350 414
#     4  11  21  40  60  85 126 173 214 251 331 386
#     4  11  25  45  72 106 137 174 229 285 336 408
#     4   9  22  41  66  89 124 175 213 262 323 401
#     4  10  22  42  66  92 126 167 214 259 327 390
#     4  11  24  37  59  89 124 168 210 269 313 376
#     4  10  21  40  63  86 122 169 218 254 320 387
#
# _framework density 21.965108000000001
#
# number of rings (size 3 to 8) (size 9 to 14) (size 15 to 20)
#    0.000    1.500    2.500    1.875    3.500    2.500 
#    6.750    0.000    0.000    0.000    0.000    0.000 
#    0.000    0.000    0.000    0.000    0.000    0.000 
#
# Total GULP energy -396423.195325 kJ/mol
# GULP energy per Si atom -12388.224854 kJ/mol
# Density = 2.191511 g / cm^3
# Si number density = 21.965108 Si / 1000 Ang^3
#
#
#
# Elastic Constant Matrix: (Units=GPa)
#
#
# Indices 1 2 3 4 5 6 
#
# 1 109.3990 26.9861 32.3843 0.0000 -15.2305 0.0000
# 2 26.9861 104.7772 25.7156 0.0000 -5.1507 0.0000
# 3 32.3843 25.7156 62.5719 0.0000 -16.7982 0.0000
# 4 0.0000 0.0000 0.0000 24.5419 0.0000 3.6088
# 5 -15.2305 -5.1507 -16.7982 0.0000 30.9805 0.0000
# 6 0.0000 0.0000 0.0000 3.6088 0.0000 28.8661
#
#
#
# Elastic Compliance Matrix: (Units=1/GPa)
#
#
# Indices 1 2 3 4 5 6 
#
# 1 0.011248 -0.001687 -0.004352 0.000000 0.002889 0.000000
# 2 -0.001687 0.010881 -0.003904 0.000000 -0.001137 0.000000
# 3 -0.004352 -0.003904 0.022342 0.000000 0.009326 0.000000
# 4 0.000000 0.000000 0.000000 0.041510 0.000000 -0.005190
# 5 0.002889 -0.001137 0.009326 0.000000 0.038566 0.000000
# 6 0.000000 0.000000 0.000000 -0.005190 0.000000 0.035291
#
#
# Mechanical properties :
#
#
# Convention : Reuss Voigt Hill
#
# Bulk Modulus (GPa) = 40.67630 49.65778 45.16704
# Shear Modulus (GPa) = 26.60720 29.65518 28.13119
#
# Velocity S-wave (km/s) = 3.48421 3.67836 3.58260
# Velocity P-wave (km/s) = 5.89449 6.37943 6.14175
#
# Compressibility (1/GPa) = 0.02458434
#
# Stress axis : x y z
#
# Youngs Moduli (GPa) = 88.90854 91.90542 44.75812
#
# Poissons Ratio (x) = 0.15501 0.19481
# Poissons Ratio (y) = 0.14996 0.17474
# Poissons Ratio (z) = 0.38697 0.35881
#
# Static dielectric constant tensor:
#      x y z
#    x 4.132230 0.000000 -0.121580 
#    y 0.000000 4.008080 0.000000 
#    z -0.121580 0.000000 3.770860 
# 
# 
# High freq. dielectric constant tensor:
#      x y z
#    x 1.875890 0.000000 -0.006970 
#    y 0.000000 1.869250 0.000000 
#    z -0.006970 0.000000 1.845940 
# 
# From -- ./inp_files/80339.got.cif
#   From: 2010.03.12/outbox.cif.g09.slc.cpg/sg14_41_cif.got.tgz:80339.got - 2010.03.31 13:35:05.
