data_PCOD8126203
_publ_section_title
;
Structure prediction by ZEFSAII (Michael W. Deem and Ramdas Pophale) SiO2 
 PCOD8126203
Probable space group: P 21/C
;
_chemical_formula_sum "Si O2"
_cell_formula_units_Z 28
_cell_length_a 8.759783
_cell_length_b 16.605833
_cell_length_c 17.847221
_cell_angle_alpha 90.000000
_cell_angle_beta 150.183134
_cell_angle_gamma 90.000000
_cell_volume 1290.866703
_symmetry_space_group_name_H-M "P 21/C"
_symmetry_group_IT_number 14
_symmetry_cell_setting 'monoclinic'
loop_
_space_group_symop_operation_xyz
x,y,z
-x,1/2+y,1/2-z
-x,-y,-z
x,1/2-y,1/2+z
loop_
_atom_site_type_symbol
_atom_site_label
_atom_site_fract_x
_atom_site_fract_y
_atom_site_fract_z
Si Si1 0.423021 0.700997 0.195642
Si Si2 0.866164 0.719460 0.171965
Si Si3 0.483371 0.035661 0.657447
Si Si4 0.077191 0.103710 0.173292
Si Si5 0.986123 0.579959 0.924544
Si Si6 0.455702 0.714597 0.864410
Si Si7 0.465434 0.165121 0.864668
O O1 0.747091 0.664984 0.306971
O O2 0.450314 0.718705 0.296041
O O3 0.378542 0.787343 0.137767
O O4 0.142984 0.641667 0.051848
O O5 0.879154 0.634266 0.222055
O O6 0.608313 0.774282 0.100200
O O7 0.194134 0.763028 0.312837
O O8 0.776376 0.711849 0.046096
O O9 0.311134 0.037298 0.664598
O O10 0.590112 0.123768 0.681653
O O11 0.798060 0.985560 0.788742
O O12 0.232704 0.986386 0.499947
O O13 0.716500 0.100999 0.999924
O O14 0.857050 0.624799 0.796785
#
# Coordination Sequence:
#
# PCOD8126203 Si02
#       7
#     4   4   4   4   4   4   4
#     4  10  21  38  70  94 124 170 222 273 305 382
#     4  11  25  42  65  95 131 173 216 265 321 398
#     4  10  23  41  65  98 129 170 213 271 329 384
#     4  10  23  43  65  94 128 175 218 256 331 389
#     4  10  21  41  67 100 129 166 220 264 331 379
#     4  12  24  42  66 100 130 164 223 273 328 367
#     4  11  21  41  67  93 123 177 219 261 307 398
#
# _framework density 21.690854000000002
#
# number of rings (size 3 to 8) (size 9 to 14) (size 15 to 20)
#    0.000    1.429    2.857    2.571    6.000    1.143 
#    0.000    3.571    0.000    0.000    0.000    0.000 
#    0.000    0.000    0.000    0.000    0.000    0.000 
#
# Total GULP energy -347016.963597 kJ/mol
# GULP energy per Si atom -12393.462986 kJ/mol
# Density = 2.164148 g / cm^3
# Si number density = 21.690854 Si / 1000 Ang^3
#
#
#
# Elastic Constant Matrix: (Units=GPa)
#
#
# Indices 1 2 3 4 5 6 
#
# 1 64.0753 14.4650 19.2758 0.0000 -9.4451 0.0000
# 2 14.4650 84.6756 24.5415 0.0000 -3.0177 0.0000
# 3 19.2758 24.5415 104.7920 0.0000 -18.6966 0.0000
# 4 0.0000 0.0000 0.0000 26.8923 0.0000 14.6044
# 5 -9.4451 -3.0177 -18.6966 0.0000 27.2793 0.0000
# 6 0.0000 0.0000 0.0000 14.6044 0.0000 26.5531
#
#
#
# Elastic Compliance Matrix: (Units=1/GPa)
#
#
# Indices 1 2 3 4 5 6 
#
# 1 0.017337 -0.002263 -0.001860 0.000000 0.004477 0.000000
# 2 -0.002263 0.012978 -0.002856 0.000000 -0.001305 0.000000
# 3 -0.001860 -0.002856 0.011829 0.000000 0.007147 0.000000
# 4 0.000000 0.000000 0.000000 0.053023 0.000000 -0.029163
# 5 0.004477 -0.001305 0.007147 0.000000 0.042962 0.000000
# 6 0.000000 0.000000 0.000000 -0.029163 0.000000 0.053700
#
#
# Mechanical properties :
#
#
# Convention : Reuss Voigt Hill
#
# Bulk Modulus (GPa) = 35.47927 41.12305 38.30116
# Shear Modulus (GPa) = 23.23610 29.16231 26.19921
#
# Velocity S-wave (km/s) = 3.27653 3.67065 3.47918
# Velocity P-wave (km/s) = 5.54134 6.07987 5.81684
#
# Compressibility (1/GPa) = 0.02818548
#
# Stress axis : x y z
#
# Youngs Moduli (GPa) = 57.67964 77.05610 84.53866
#
# Poissons Ratio (x) = 0.17437 0.15726
# Poissons Ratio (y) = 0.13053 0.24143
# Poissons Ratio (z) = 0.10730 0.22006
#
# Static dielectric constant tensor:
#      x y z
#    x 3.769580 0.000000 0.086510 
#    y 0.000000 3.881400 0.000000 
#    z 0.086510 0.000000 3.860540 
# 
# 
# High freq. dielectric constant tensor:
#      x y z
#    x 1.841470 0.000000 0.012790 
#    y 0.000000 1.841300 0.000000 
#    z 0.012790 0.000000 1.852620 
# 
# From -- ./inp_files/56160.got.cif
#   From: 2010.03.12/outbox.cif.g09.slc.cpg/sg14_29_cif.got.tgz:56160.got - 2010.03.31 13:35:05.
