data_PCOD8126599
_publ_section_title
;
Structure prediction by ZEFSAII (Michael W. Deem and Ramdas Pophale) SiO2 
 PCOD8126599
Probable space group: P 21/C
;
_chemical_formula_sum "Si O2"
_cell_formula_units_Z 16
_cell_length_a 6.491758
_cell_length_b 5.192857
_cell_length_c 20.521337
_cell_angle_alpha 90.000000
_cell_angle_beta 79.437543
_cell_angle_gamma 90.000000
_cell_volume 680.068173
_symmetry_space_group_name_H-M "P 21/C"
_symmetry_group_IT_number 14
_symmetry_cell_setting 'monoclinic'
loop_
_space_group_symop_operation_xyz
x,y,z
-x,1/2+y,1/2-z
-x,-y,-z
x,1/2-y,1/2+z
loop_
_atom_site_type_symbol
_atom_site_label
_atom_site_fract_x
_atom_site_fract_y
_atom_site_fract_z
Si Si1 0.322207 0.352684 0.092018
Si Si2 0.463942 0.678784 0.291244
Si Si3 0.903273 0.139004 0.096749
Si Si4 0.280630 0.850831 0.027259
O O1 0.386870 0.291995 0.161458
O O2 0.399123 0.627985 0.061428
O O3 0.068614 0.364795 0.103492
O O4 0.402528 0.124891 0.036683
O O5 0.565781 0.417606 0.256798
O O6 0.237687 0.592241 0.331462
O O7 0.744730 0.222928 0.047622
O O8 0.040830 0.887956 0.068692
#
# Coordination Sequence:
#
# PCOD8126599 Si02
#       4
#     4   4   4   4
#     4  10  21  41  63  93 121 162 205 261 318 363
#     4  12  28  41  60  91 128 176 215 246 304 379
#     4   9  23  40  67  91 129 152 209 266 311 381
#     4   9  20  40  68  96 117 156 205 265 333 353
#
# _framework density 23.527051
#
# number of rings (size 3 to 8) (size 9 to 14) (size 15 to 20)
#    1.500    0.500    0.000    2.250    3.500    4.000 
#    0.000    0.000    0.000    0.000    0.000    0.000 
#    0.000    0.000    0.000    0.000    0.000    0.000 
#
# Total GULP energy -198334.366588 kJ/mol
# GULP energy per Si atom -12395.897912 kJ/mol
# Density = 2.347350 g / cm^3
# Si number density = 23.527051 Si / 1000 Ang^3
#
#
#
# Elastic Constant Matrix: (Units=GPa)
#
#
# Indices 1 2 3 4 5 6 
#
# 1 94.0776 23.1867 40.9086 0.0000 0.0916 0.0000
# 2 23.1867 133.3558 53.6972 0.0000 -10.3404 0.0000
# 3 40.9086 53.6972 125.9807 0.0000 -16.1391 0.0000
# 4 0.0000 0.0000 0.0000 41.9259 0.0000 4.8798
# 5 0.0916 -10.3404 -16.1391 0.0000 40.6844 0.0000
# 6 0.0000 0.0000 0.0000 4.8798 0.0000 30.5736
#
#
#
# Elastic Compliance Matrix: (Units=1/GPa)
#
#
# Indices 1 2 3 4 5 6 
#
# 1 0.012546 -0.000709 -0.004002 0.000000 -0.001796 0.000000
# 2 -0.000709 0.009118 -0.003539 0.000000 0.000915 0.000000
# 3 -0.004002 -0.003539 0.011201 0.000000 0.003553 0.000000
# 4 0.000000 0.000000 0.000000 0.024303 0.000000 -0.003879
# 5 -0.001796 0.000915 0.003553 0.000000 0.026225 0.000000
# 6 0.000000 0.000000 0.000000 -0.003879 0.000000 0.033327
#
#
# Mechanical properties :
#
#
# Convention : Reuss Voigt Hill
#
# Bulk Modulus (GPa) = 61.10572 65.44433 63.27502
# Shear Modulus (GPa) = 36.05546 38.34489 37.20018
#
# Velocity S-wave (km/s) = 3.91898 4.04148 3.98070
# Velocity P-wave (km/s) = 6.81959 7.04664 6.93404
#
# Compressibility (1/GPa) = 0.01636508
#
# Stress axis : x y z
#
# Youngs Moduli (GPa) = 79.70528 109.67349 89.28037
#
# Poissons Ratio (x) = 0.07779 0.35728
# Poissons Ratio (y) = 0.05654 0.31595
# Poissons Ratio (z) = 0.31896 0.38811
#
# Static dielectric constant tensor:
#      x y z
#    x 4.374280 0.000000 -0.187580 
#    y 0.000000 3.953350 0.000000 
#    z -0.187580 0.000000 4.106820 
# 
# 
# High freq. dielectric constant tensor:
#      x y z
#    x 1.960720 0.000000 -0.014490 
#    y 0.000000 1.922090 0.000000 
#    z -0.014490 0.000000 1.928160 
# 
# From -- ./inp_files/53826.got.cif
#   From: 2010.03.12/outbox.cif.g09.slc.cpg/sg14_27_cif.got.tgz:53826.got - 2010.03.31 13:35:05.
