data_PCOD8126211
_publ_section_title
;
Structure prediction by ZEFSAII (Michael W. Deem and Ramdas Pophale) SiO2 
 PCOD8126211
Probable space group: P 21/C
;
_chemical_formula_sum "Si O2"
_cell_formula_units_Z 24
_cell_length_a 8.068379
_cell_length_b 18.712938
_cell_length_c 13.954586
_cell_angle_alpha 90.000000
_cell_angle_beta 145.660504
_cell_angle_gamma 90.000000
_cell_volume 1188.496107
_symmetry_space_group_name_H-M "P 21/C"
_symmetry_group_IT_number 14
_symmetry_cell_setting 'monoclinic'
loop_
_space_group_symop_operation_xyz
x,y,z
-x,1/2+y,1/2-z
-x,-y,-z
x,1/2-y,1/2+z
loop_
_atom_site_type_symbol
_atom_site_label
_atom_site_fract_x
_atom_site_fract_y
_atom_site_fract_z
Si Si1 0.709833 0.343968 0.893165
Si Si2 0.790998 0.752675 0.278276
Si Si3 0.297009 0.846930 0.975321
Si Si4 0.691111 0.035231 0.872121
Si Si5 0.733568 0.063154 0.224589
Si Si6 0.349806 0.990168 0.530255
O O1 0.430652 0.291360 0.759695
O O2 0.757955 0.371214 0.809165
O O3 0.640603 0.407435 0.934809
O O4 0.010308 0.304305 0.062795
O O5 0.004683 0.700566 0.319955
O O6 0.590779 0.798681 0.109548
O O7 0.313790 0.907220 0.903516
O O8 0.276410 0.884946 0.069952
O O9 0.509645 0.038755 0.686527
O O10 0.539364 0.986283 0.879602
O O11 0.000000 0.000000 0.000000
O O12 0.016179 0.013478 0.364645
O O13 0.500000 0.000000 0.500000
#
# Coordination Sequence:
#
# PCOD8126211 Si02
#       6
#     4   4   4   4   4   4
#     4  10  21  39  58  84 116 154 194 234 293 344
#     4  10  22  39  58  78 120 160 192 237 278 355
#     4  11  22  39  59  87 117 154 197 236 294 348
#     4  11  22  38  62  91 119 150 194 250 297 345
#     4  11  22  38  62  87 117 151 195 248 295 346
#     4  11  22  39  63  89 118 153 195 249 299 344
#
# _framework density 20.193588999999999
#
# number of rings (size 3 to 8) (size 9 to 14) (size 15 to 20)
#    0.000    1.333    0.000    8.500    0.000    2.667 
#    0.000    6.667    0.000    0.000    0.000    0.000 
#    0.000    0.000    0.000    0.000    0.000    0.000 
#
# Total GULP energy -297686.933760 kJ/mol
# GULP energy per Si atom -12403.622240 kJ/mol
# Density = 2.014763 g / cm^3
# Si number density = 20.193589 Si / 1000 Ang^3
#
#
#
# Elastic Constant Matrix: (Units=GPa)
#
#
# Indices 1 2 3 4 5 6 
#
# 1 96.9224 35.4878 53.9262 0.0000 2.8855 0.0000
# 2 35.4878 88.7795 53.3423 0.0000 -2.9158 0.0000
# 3 53.9262 53.3423 116.8934 0.0000 20.4028 0.0000
# 4 0.0000 0.0000 0.0000 40.1690 0.0000 3.0826
# 5 2.8855 -2.9158 20.4028 0.0000 42.6423 0.0000
# 6 0.0000 0.0000 0.0000 3.0826 0.0000 31.3829
#
#
#
# Elastic Compliance Matrix: (Units=1/GPa)
#
#
# Indices 1 2 3 4 5 6 
#
# 1 0.014354 -0.002093 -0.005971 0.000000 0.001743 0.000000
# 2 -0.002093 0.016803 -0.007559 0.000000 0.004907 0.000000
# 3 -0.005971 -0.007559 0.016125 0.000000 -0.007828 0.000000
# 4 0.000000 0.000000 0.000000 0.025084 0.000000 -0.002464
# 5 0.001743 0.004907 -0.007828 0.000000 0.027414 0.000000
# 6 0.000000 0.000000 0.000000 -0.002464 0.000000 0.032107
#
#
# Mechanical properties :
#
#
# Convention : Reuss Voigt Hill
#
# Bulk Modulus (GPa) = 62.35633 65.34534 63.85083
# Shear Modulus (GPa) = 29.67737 33.49476 31.58606
#
# Velocity S-wave (km/s) = 3.83775 4.07711 3.95924
# Velocity P-wave (km/s) = 7.11225 7.38874 7.25181
#
# Compressibility (1/GPa) = 0.01603686
#
# Stress axis : x y z
#
# Youngs Moduli (GPa) = 69.66616 59.51195 62.01493
#
# Poissons Ratio (x) = 0.12455 0.37029
# Poissons Ratio (y) = 0.14581 0.46877
# Poissons Ratio (z) = 0.41598 0.44985
#
# Static dielectric constant tensor:
#      x y z
#    x 3.464600 0.000000 0.189030 
#    y 0.000000 4.193690 0.000000 
#    z 0.189030 0.000000 3.739780 
# 
# 
# High freq. dielectric constant tensor:
#      x y z
#    x 1.783570 0.000000 0.018010 
#    y 0.000000 1.799930 0.000000 
#    z 0.018010 0.000000 1.801320 
# 
# From -- ./inp_files/9329.got.cif
#   From: 2010.03.12/outbox.cif.g09.slc.cpg/sg14_5_cif.got.tgz:9329.got - 2010.03.31 13:35:05.
