data_PCOD8126013
_publ_section_title
;
Structure prediction by ZEFSAII (Michael W. Deem and Ramdas Pophale) SiO2 
 PCOD8126013
Probable space group: P 21/C
;
_chemical_formula_sum "Si O2"
_cell_formula_units_Z 20
_cell_length_a 8.893072
_cell_length_b 21.449528
_cell_length_c 8.895625
_cell_angle_alpha 90.000000
_cell_angle_beta 32.649276
_cell_angle_gamma 90.000000
_cell_volume 915.447693
_symmetry_space_group_name_H-M "P 21/C"
_symmetry_group_IT_number 14
_symmetry_cell_setting 'monoclinic'
loop_
_space_group_symop_operation_xyz
x,y,z
-x,1/2+y,1/2-z
-x,-y,-z
x,1/2-y,1/2+z
loop_
_atom_site_type_symbol
_atom_site_label
_atom_site_fract_x
_atom_site_fract_y
_atom_site_fract_z
Si Si1 0.308672 0.987567 0.799569
Si Si2 0.939994 0.707868 0.923974
Si Si3 0.884891 0.175384 0.401069
Si Si4 0.392203 0.400899 0.437948
Si Si5 0.587937 0.130874 0.099160
O O1 0.410833 0.031190 0.850402
O O2 0.500000 0.000000 0.500000
O O3 0.365123 0.917230 0.805570
O O4 0.000000 0.000000 0.000000
O O5 0.056418 0.775109 0.778882
O O6 0.106714 0.655967 0.692515
O O7 0.613872 0.688354 0.177448
O O8 0.997329 0.708355 0.051224
O O9 0.569891 0.151020 0.693474
O O10 0.066833 0.115549 0.203802
O O11 0.479584 0.403104 0.539152
#
# Coordination Sequence:
#
# PCOD8126013 Si02
#       5
#     4   4   4   4   4
#     4  12  25  40  61  92 120 152 200 254 299 340
#     4  10  21  37  60  88 117 154 197 240 291 349
#     4  10  21  37  60  88 117 154 197 240 291 349
#     4  10  22  41  61  84 119 161 197 235 294 361
#     4  10  22  41  61  84 119 161 197 235 294 361
#
# _framework density 21.847234
#
# number of rings (size 3 to 8) (size 9 to 14) (size 15 to 20)
#    0.000    1.600    0.000    4.200    0.000    4.800 
#    0.000    8.000    0.000    0.000    0.000    0.000 
#    0.000    0.000    0.000    0.000    0.000    0.000 
#
# Total GULP energy -247890.844518 kJ/mol
# GULP energy per Si atom -12394.542226 kJ/mol
# Density = 2.179751 g / cm^3
# Si number density = 21.847234 Si / 1000 Ang^3
#
#
#
# Elastic Constant Matrix: (Units=GPa)
#
#
# Indices 1 2 3 4 5 6 
#
# 1 35.0987 4.7253 18.0029 0.0000 -6.3789 0.0000
# 2 4.7253 40.9299 -7.5626 0.0000 6.0373 0.0000
# 3 18.0029 -7.5626 112.0423 0.0000 -1.6388 0.0000
# 4 0.0000 0.0000 0.0000 40.3370 0.0000 15.2493
# 5 -6.3789 6.0373 -1.6388 0.0000 29.4542 0.0000
# 6 0.0000 0.0000 0.0000 15.2493 0.0000 21.6929
#
#
#
# Elastic Compliance Matrix: (Units=1/GPa)
#
#
# Indices 1 2 3 4 5 6 
#
# 1 0.033757 -0.006172 -0.005720 0.000000 0.008258 0.000000
# 2 -0.006172 0.026622 0.002691 0.000000 -0.006644 0.000000
# 3 -0.005720 0.002691 0.010008 0.000000 -0.001234 0.000000
# 4 0.000000 0.000000 0.000000 0.033764 0.000000 -0.023735
# 5 0.008258 -0.006644 -0.001234 0.000000 0.037033 0.000000
# 6 0.000000 0.000000 0.000000 -0.023735 0.000000 0.062783
#
#
# Mechanical properties :
#
#
# Convention : Reuss Voigt Hill
#
# Bulk Modulus (GPa) = 19.23612 24.26691 21.75152
# Shear Modulus (GPa) = 20.85983 29.82382 25.34182
#
# Velocity S-wave (km/s) = 3.09334 3.69874 3.40951
# Velocity P-wave (km/s) = 4.64568 5.41965 5.04752
#
# Compressibility (1/GPa) = 0.05198553
#
# Stress axis : x y z
#
# Youngs Moduli (GPa) = 29.62382 37.56316 99.92115
#
# Poissons Ratio (x) = 0.23184 0.57153
# Poissons Ratio (y) = 0.18284 -0.26893
# Poissons Ratio (z) = 0.16944 -0.10110
#
# Static dielectric constant tensor:
#      x y z
#    x 3.819760 0.000000 0.077450 
#    y 0.000000 3.790020 0.000000 
#    z 0.077450 0.000000 4.268210 
# 
# 
# High freq. dielectric constant tensor:
#      x y z
#    x 1.847080 0.000000 0.006710 
#    y 0.000000 1.852180 0.000000 
#    z 0.006710 0.000000 1.885020 
# 
# From -- ./inp_files/5682.got.cif
#   From: 2010.03.12/outbox.cif.g09.slc.cpg/sg14_3_cif.got.tgz:5682.got - 2010.03.31 13:35:05.
