data_PCOD8126257
_publ_section_title
;
Structure prediction by ZEFSAII (Michael W. Deem and Ramdas Pophale) SiO2 
 PCOD8126257
Probable space group: P 21/C
;
_chemical_formula_sum "Si O2"
_cell_formula_units_Z 32
_cell_length_a 14.740964
_cell_length_b 9.263912
_cell_length_c 22.062269
_cell_angle_alpha 90.000000
_cell_angle_beta 151.942880
_cell_angle_gamma 90.000000
_cell_volume 1417.075790
_symmetry_space_group_name_H-M "P 21/C"
_symmetry_group_IT_number 14
_symmetry_cell_setting 'monoclinic'
loop_
_space_group_symop_operation_xyz
x,y,z
-x,1/2+y,1/2-z
-x,-y,-z
x,1/2-y,1/2+z
loop_
_atom_site_type_symbol
_atom_site_label
_atom_site_fract_x
_atom_site_fract_y
_atom_site_fract_z
Si Si1 0.879440 0.922455 0.842721
Si Si2 0.268346 0.444962 0.611123
Si Si3 0.642867 0.149895 0.184243
Si Si4 0.213318 0.326558 0.393307
Si Si5 0.750721 0.519089 0.043086
Si Si6 0.120385 0.111962 0.706497
Si Si7 0.498425 0.824159 0.299848
Si Si8 0.799188 0.386363 0.191298
O O1 0.766068 0.931566 0.837995
O O2 0.917056 0.755121 0.853469
O O3 0.750694 0.991981 0.713000
O O4 0.077566 0.014043 0.962009
O O5 0.346795 0.293382 0.631998
O O6 0.418355 0.581218 0.696118
O O7 0.673071 0.240209 0.264647
O O8 0.730153 0.232190 0.176977
O O9 0.751840 0.999202 0.257339
O O10 0.411493 0.124498 0.042556
O O11 0.169421 0.157797 0.374336
O O12 0.236837 0.361682 0.336771
O O13 0.027895 0.403674 0.312951
O O14 0.687340 0.411617 0.061092
O O15 0.910632 0.450714 0.094758
O O16 0.581516 0.563720 0.898358
#
# Coordination Sequence:
#
# PCOD8126257 Si02
#       8
#     4   4   4   4   4   4   4   4
#     4  11  24  45  67  97 136 185 235 276 351 411
#     4  11  27  47  69  95 138 186 232 298 333 414
#     4  11  23  40  69  99 137 179 229 284 343 417
#     4  10  21  39  62 101 141 175 221 283 342 421
#     4  10  22  40  67 100 138 177 219 288 347 414
#     4  11  23  39  67 103 134 183 230 274 352 416
#     4  11  26  46  68 100 133 178 242 286 354 401
#     4  11  21  43  69  96 142 182 219 282 359 416
#
# _framework density 22.581714000000002
#
# number of rings (size 3 to 8) (size 9 to 14) (size 15 to 20)
#    0.000    1.250    3.750    1.875    3.500    3.000 
#    0.000    2.500    0.000    0.000    0.000    0.000 
#    0.000    0.000    0.000    0.000    0.000    0.000 
#
# Total GULP energy -396701.731757 kJ/mol
# GULP energy per Si atom -12396.929117 kJ/mol
# Density = 2.253032 g / cm^3
# Si number density = 22.581714 Si / 1000 Ang^3
#
#
#
# Elastic Constant Matrix: (Units=GPa)
#
#
# Indices 1 2 3 4 5 6 
#
# 1 56.0745 20.6391 30.2902 0.0000 5.3256 0.0000
# 2 20.6391 88.2881 18.4971 0.0000 15.5697 0.0000
# 3 30.2902 18.4971 55.2875 0.0000 4.5171 0.0000
# 4 0.0000 0.0000 0.0000 36.9691 0.0000 2.0580
# 5 5.3256 15.5697 4.5171 0.0000 22.1367 0.0000
# 6 0.0000 0.0000 0.0000 2.0580 0.0000 40.4984
#
#
#
# Elastic Compliance Matrix: (Units=1/GPa)
#
#
# Indices 1 2 3 4 5 6 
#
# 1 0.026262 -0.003116 -0.013229 0.000000 -0.001427 0.000000
# 2 -0.003116 0.014065 -0.002290 0.000000 -0.008675 0.000000
# 3 -0.013229 -0.002290 0.026145 0.000000 -0.000542 0.000000
# 4 0.000000 0.000000 0.000000 0.027126 0.000000 -0.001378
# 5 -0.001427 -0.008675 -0.000542 0.000000 0.051729 0.000000
# 6 0.000000 0.000000 0.000000 -0.001378 0.000000 0.024762
#
#
# Mechanical properties :
#
#
# Convention : Reuss Voigt Hill
#
# Bulk Modulus (GPa) = 34.24333 37.61141 35.92737
# Shear Modulus (GPa) = 23.03162 28.60244 25.81703
#
# Velocity S-wave (km/s) = 3.19709 3.56282 3.38490
# Velocity P-wave (km/s) = 5.36895 5.79800 5.58759
#
# Compressibility (1/GPa) = 0.02920277
#
# Stress axis : x y z
#
# Youngs Moduli (GPa) = 38.07812 71.10068 38.24790
#
# Poissons Ratio (x) = 0.22155 0.50598
# Poissons Ratio (y) = 0.11865 0.08757
# Poissons Ratio (z) = 0.50373 0.16279
#
# Static dielectric constant tensor:
#      x y z
#    x 4.137180 0.000000 -0.022010 
#    y 0.000000 4.201870 0.000000 
#    z -0.022010 0.000000 3.797040 
# 
# 
# High freq. dielectric constant tensor:
#      x y z
#    x 1.898350 0.000000 0.002050 
#    y 0.000000 1.891900 0.000000 
#    z 0.002050 0.000000 1.873960 
# 
# From -- ./inp_files/73869.got.cif
#   From: 2010.03.12/outbox.cif.g09.slc.cpg/sg14_37_cif.got.tgz:73869.got - 2010.03.31 13:35:05.
