data_PCOD8126527
_publ_section_title
;
Structure prediction by ZEFSAII (Michael W. Deem and Ramdas Pophale) SiO2 
 PCOD8126527
Probable space group: P 21/C
;
_chemical_formula_sum "Si O2"
_cell_formula_units_Z 24
_cell_length_a 8.736082
_cell_length_b 17.327647
_cell_length_c 8.773203
_cell_angle_alpha 90.000000
_cell_angle_beta 117.952064
_cell_angle_gamma 90.000000
_cell_volume 1173.119895
_symmetry_space_group_name_H-M "P 21/C"
_symmetry_group_IT_number 14
_symmetry_cell_setting 'monoclinic'
loop_
_space_group_symop_operation_xyz
x,y,z
-x,1/2+y,1/2-z
-x,-y,-z
x,1/2-y,1/2+z
loop_
_atom_site_type_symbol
_atom_site_label
_atom_site_fract_x
_atom_site_fract_y
_atom_site_fract_z
Si Si1 0.705364 0.804413 0.791352
Si Si2 0.584358 0.918044 0.508818
Si Si3 0.851142 0.209847 0.348838
Si Si4 0.887944 0.689045 0.677725
Si Si5 0.907730 0.581167 0.953142
Si Si6 0.624457 0.222722 0.520444
O O1 0.693201 0.889616 0.709202
O O2 0.864183 0.755173 0.795639
O O3 0.532379 0.754408 0.667679
O O4 0.725669 0.811743 0.983146
O O5 0.711691 0.923222 0.423641
O O6 0.432941 0.854182 0.410763
O O7 0.500000 0.000000 0.500000
O O8 0.795583 0.205459 0.499079
O O9 0.942716 0.291097 0.344705
O O10 0.983077 0.138918 0.386529
O O11 0.678514 0.207589 0.160507
O O12 0.902170 0.608186 0.773552
O O13 0.000000 0.500000 0.000000
#
# Coordination Sequence:
#
# PCOD8126527 Si02
#       6
#     4   4   4   4   4   4
#     4  10  21  40  67  96 127 178 227 273 338 399
#     4  10  23  44  64  94 141 184 220 281 351 394
#     4  12  20  40  66 101 126 170 225 273 334 403
#     4  12  21  42  69  99 129 178 230 279 333 407
#     4  12  26  44  68  98 144 182 223 291 346 397
#     4  10  23  36  66  98 128 166 225 273 327 402
#
# _framework density 20.458265999999998
#
# number of rings (size 3 to 8) (size 9 to 14) (size 15 to 20)
#    1.000    0.000    5.000    2.000    2.333    0.000 
#    0.000    3.333    0.000    0.000    0.000    0.000 
#    0.000    0.000    0.000    0.000    0.000    0.000 
#
# Total GULP energy -297378.518541 kJ/mol
# GULP energy per Si atom -12390.771606 kJ/mol
# Density = 2.041170 g / cm^3
# Si number density = 20.458266 Si / 1000 Ang^3
#
#
#
# Elastic Constant Matrix: (Units=GPa)
#
#
# Indices 1 2 3 4 5 6 
#
# 1 126.9135 43.5011 17.2451 0.0000 -16.9566 0.0000
# 2 43.5011 101.9851 42.7852 0.0000 -7.6300 0.0000
# 3 17.2451 42.7852 116.5755 0.0000 -3.0016 0.0000
# 4 0.0000 0.0000 0.0000 33.4836 0.0000 5.2004
# 5 -16.9566 -7.6300 -3.0016 0.0000 29.7963 0.0000
# 6 0.0000 0.0000 0.0000 5.2004 0.0000 42.1527
#
#
#
# Elastic Compliance Matrix: (Units=1/GPa)
#
#
# Indices 1 2 3 4 5 6 
#
# 1 0.009811 -0.003879 0.000091 0.000000 0.004599 0.000000
# 2 -0.003879 0.013319 -0.004295 0.000000 0.000771 0.000000
# 3 0.000091 -0.004295 0.010140 0.000000 -0.000027 0.000000
# 4 0.000000 0.000000 0.000000 0.030449 0.000000 -0.003756
# 5 0.004599 0.000771 -0.000027 0.000000 0.036373 0.000000
# 6 0.000000 0.000000 0.000000 -0.003756 0.000000 0.024187
#
#
# Mechanical properties :
#
#
# Convention : Reuss Voigt Hill
#
# Bulk Modulus (GPa) = 58.46316 61.39301 59.92809
# Shear Modulus (GPa) = 34.21220 37.21603 35.71411
#
# Velocity S-wave (km/s) = 4.09380 4.26974 4.18270
# Velocity P-wave (km/s) = 7.14034 7.37439 7.25831
#
# Compressibility (1/GPa) = 0.01710479
#
# Stress axis : x y z
#
# Youngs Moduli (GPa) = 101.92582 75.07942 98.61664
#
# Poissons Ratio (x) = 0.29122 -0.00894
# Poissons Ratio (y) = 0.39535 0.42353
# Poissons Ratio (z) = -0.00924 0.32245
#
# Static dielectric constant tensor:
#      x y z
#    x 3.870130 0.000000 0.020820 
#    y 0.000000 3.323880 0.000000 
#    z 0.020820 0.000000 3.845340 
# 
# 
# High freq. dielectric constant tensor:
#      x y z
#    x 1.823390 0.000000 0.002310 
#    y 0.000000 1.753180 0.000000 
#    z 0.002310 0.000000 1.799600 
# 
# From -- ./inp_files/9210.got.cif
#   From: 2010.03.12/outbox.cif.g09.slc.cpg/sg14_5_cif.got.tgz:9210.got - 2010.03.31 13:35:05.
