data_PCOD8126079
_publ_section_title
;
Structure prediction by ZEFSAII (Michael W. Deem and Ramdas Pophale) SiO2 
 PCOD8126079
Probable space group: P 21/C
;
_chemical_formula_sum "Si O2"
_cell_formula_units_Z 32
_cell_length_a 20.510679
_cell_length_b 13.369250
_cell_length_c 5.161697
_cell_angle_alpha 90.000000
_cell_angle_beta 79.827928
_cell_angle_gamma 90.000000
_cell_volume 1393.153749
_symmetry_space_group_name_H-M "P 21/C"
_symmetry_group_IT_number 14
_symmetry_cell_setting 'monoclinic'
loop_
_space_group_symop_operation_xyz
x,y,z
-x,1/2+y,1/2-z
-x,-y,-z
x,1/2-y,1/2+z
loop_
_atom_site_type_symbol
_atom_site_label
_atom_site_fract_x
_atom_site_fract_y
_atom_site_fract_z
Si Si1 0.913578 0.312622 0.041139
Si Si2 0.531132 0.698374 0.770153
Si Si3 0.613435 0.514206 0.745330
Si Si4 0.951436 0.686729 0.913320
Si Si5 0.769359 0.184395 0.728174
Si Si6 0.697226 0.980176 0.700028
Si Si7 0.807616 0.817206 0.593388
Si Si8 0.387683 0.713029 0.340956
O O1 0.916419 0.217551 0.237318
O O2 0.843122 0.365068 0.147022
O O3 0.980906 0.376470 0.065361
O O4 0.563954 0.744112 0.489497
O O5 0.546747 0.580681 0.780889
O O6 0.452048 0.715151 0.831129
O O7 0.663753 0.554635 0.492371
O O8 0.591513 0.401320 0.693142
O O9 0.644669 0.522360 0.005255
O O10 0.953339 0.718602 0.611249
O O11 0.881149 0.632404 0.017951
O O12 0.759814 0.273925 0.526967
O O13 0.719337 0.093779 0.720571
O O14 0.756512 0.906503 0.589860
O O15 0.797345 0.766135 0.879251
O O16 0.345675 0.742125 0.628616
#
# Coordination Sequence:
#
# PCOD8126079 Si02
#       8
#     4   4   4   4   4   4   4   4
#     4   8  14  27  50  78 107 146 194 243 297 344
#     4  10  23  42  67  94 121 153 189 233 291 350
#     4  12  26  42  63  92 123 154 194 245 286 349
#     4   8  14  27  50  78 107 146 194 243 297 344
#     4  10  21  38  59  83 119 160 199 249 296 344
#     4  12  26  40  60  90 122 160 204 237 288 355
#     4  10  21  38  59  83 119 160 199 249 296 344
#     4  10  23  42  67  94 121 153 189 233 291 350
#
# _framework density 22.969467000000002
#
# number of rings (size 3 to 8) (size 9 to 14) (size 15 to 20)
#    0.000    2.000    0.000    3.000    0.000   10.000 
#    0.000    0.625    0.000    0.000    0.000   19.250 
#    0.000    0.000    0.000    0.000    0.000    0.000 
#
# Total GULP energy -396505.862571 kJ/mol
# GULP energy per Si atom -12390.808205 kJ/mol
# Density = 2.291719 g / cm^3
# Si number density = 22.969467 Si / 1000 Ang^3
#
#
#
# Elastic Constant Matrix: (Units=GPa)
#
#
# Indices 1 2 3 4 5 6 
#
# 1 97.9278 25.5559 9.4548 0.0000 6.1781 0.0000
# 2 25.5559 60.2606 22.2627 0.0000 1.9692 0.0000
# 3 9.4548 22.2627 137.2793 0.0000 17.8562 0.0000
# 4 0.0000 0.0000 0.0000 22.9732 0.0000 1.8902
# 5 6.1781 1.9692 17.8562 0.0000 20.6525 0.0000
# 6 0.0000 0.0000 0.0000 1.8902 0.0000 10.1529
#
#
#
# Elastic Compliance Matrix: (Units=1/GPa)
#
#
# Indices 1 2 3 4 5 6 
#
# 1 0.011692 -0.005014 0.000451 0.000000 -0.003410 0.000000
# 2 -0.005014 0.019817 -0.003175 0.000000 0.002355 0.000000
# 3 0.000451 -0.003175 0.008728 0.000000 -0.007378 0.000000
# 4 0.000000 0.000000 0.000000 0.044206 0.000000 -0.008230
# 5 -0.003410 0.002355 -0.007378 0.000000 0.055595 0.000000
# 6 0.000000 0.000000 0.000000 -0.008230 0.000000 0.100026
#
#
# Mechanical properties :
#
#
# Convention : Reuss Voigt Hill
#
# Bulk Modulus (GPa) = 40.38414 45.55715 42.97064
# Shear Modulus (GPa) = 18.95435 26.63536 22.79485
#
# Velocity S-wave (km/s) = 2.87574 3.40898 3.15365
# Velocity P-wave (km/s) = 5.35223 5.94741 5.65765
#
# Compressibility (1/GPa) = 0.02476220
#
# Stress axis : x y z
#
# Youngs Moduli (GPa) = 85.53216 50.46252 114.57488
#
# Poissons Ratio (x) = 0.25300 -0.05171
# Poissons Ratio (y) = 0.42882 0.36374
# Poissons Ratio (z) = -0.03860 0.16020
#
# Static dielectric constant tensor:
#      x y z
#    x 4.652010 0.000000 -0.109150 
#    y 0.000000 3.535510 0.000000 
#    z -0.109150 0.000000 6.229870 
# 
# 
# High freq. dielectric constant tensor:
#      x y z
#    x 1.934930 0.000000 -0.002630 
#    y 0.000000 1.847920 0.000000 
#    z -0.002630 0.000000 1.943580 
# 
# From -- ./inp_files/4369.got.cif
#   From: 2010.03.12/outbox.cif.g09.slc.cpg/sg14_3_cif.got.tgz:4369.got - 2010.03.31 13:35:05.
