data_PCOD8126857
_publ_section_title
;
Structure prediction by ZEFSAII (Michael W. Deem and Ramdas Pophale) SiO2 
 PCOD8126857
Probable space group: P 21/C
;
_chemical_formula_sum "Si O2"
_cell_formula_units_Z 32
_cell_length_a 10.991436
_cell_length_b 11.306304
_cell_length_c 13.100121
_cell_angle_alpha 90.000000
_cell_angle_beta 117.574286
_cell_angle_gamma 90.000000
_cell_volume 1443.064493
_symmetry_space_group_name_H-M "P 21/C"
_symmetry_group_IT_number 14
_symmetry_cell_setting 'monoclinic'
loop_
_space_group_symop_operation_xyz
x,y,z
-x,1/2+y,1/2-z
-x,-y,-z
x,1/2-y,1/2+z
loop_
_atom_site_type_symbol
_atom_site_label
_atom_site_fract_x
_atom_site_fract_y
_atom_site_fract_z
Si Si1 0.723151 0.078831 0.497395
Si Si2 0.366404 0.053889 0.348441
Si Si3 0.299376 0.910592 0.877978
Si Si4 0.480242 0.775770 0.099197
Si Si5 0.103777 0.383486 0.634341
Si Si6 0.109562 0.077525 0.916223
Si Si7 0.936125 0.285370 0.190798
Si Si8 0.408301 0.472952 0.222535
O O1 0.653116 0.197037 0.421474
O O2 0.873403 0.107536 0.598356
O O3 0.625373 0.036476 0.553385
O O4 0.721114 0.976880 0.408456
O O5 0.402961 0.187592 0.399597
O O6 0.212682 0.048797 0.246426
O O7 0.463333 0.021003 0.291903
O O8 0.182418 0.808643 0.823983
O O9 0.237213 0.034602 0.896392
O O10 0.366668 0.937146 0.795619
O O11 0.427803 0.871649 0.997544
O O12 0.550547 0.842971 0.222349
O O13 0.159891 0.360174 0.541026
O O14 0.964786 0.458288 0.577248
O O15 0.061157 0.261502 0.671080
O O16 0.004808 0.165221 0.819628
#
# Coordination Sequence:
#
# PCOD8126857 Si02
#       8
#     4   4   4   4   4   4   4   4
#     4  10  23  43  65  94 137 172 220 269 327 401
#     4  11  23  43  63  97 135 176 217 269 327 405
#     4  10  23  41  63  97 129 169 219 280 321 392
#     4  10  22  39  62  92 129 172 213 262 337 384
#     4  10  22  40  67  98 123 175 219 261 330 389
#     4  10  21  43  68  90 132 169 218 272 317 395
#     4  10  22  42  68  96 129 175 218 272 334 384
#     4  11  23  39  65  96 131 170 221 274 324 389
#
# _framework density 22.17503
#
# number of rings (size 3 to 8) (size 9 to 14) (size 15 to 20)
#    0.000    1.750    1.250    2.625    3.500    7.000 
#    4.500    0.625    0.000    0.000    0.000    0.000 
#    0.000    0.000    0.000    0.000    0.000    0.000 
#
# Total GULP energy -396537.229624 kJ/mol
# GULP energy per Si atom -12391.788426 kJ/mol
# Density = 2.212456 g / cm^3
# Si number density = 22.175030 Si / 1000 Ang^3
#
#
#
# Elastic Constant Matrix: (Units=GPa)
#
#
# Indices 1 2 3 4 5 6 
#
# 1 57.1759 27.4235 24.0989 0.0000 -21.1059 0.0000
# 2 27.4235 92.0920 55.7524 0.0000 -7.7749 0.0000
# 3 24.0989 55.7524 121.4686 0.0000 -18.8144 0.0000
# 4 0.0000 0.0000 0.0000 42.7818 0.0000 8.6579
# 5 -21.1059 -7.7749 -18.8144 0.0000 28.5862 0.0000
# 6 0.0000 0.0000 0.0000 8.6579 0.0000 26.9404
#
#
#
# Elastic Compliance Matrix: (Units=1/GPa)
#
#
# Indices 1 2 3 4 5 6 
#
# 1 0.027534 -0.007019 0.000681 0.000000 0.018869 0.000000
# 2 -0.007019 0.016833 -0.007157 0.000000 -0.005314 0.000000
# 3 0.000681 -0.007157 0.012425 0.000000 0.006735 0.000000
# 4 0.000000 0.000000 0.000000 0.025000 0.000000 -0.008034
# 5 0.018869 -0.005314 0.006735 0.000000 0.051900 0.000000
# 6 0.000000 0.000000 0.000000 -0.008034 0.000000 0.039701
#
#
# Mechanical properties :
#
#
# Convention : Reuss Voigt Hill
#
# Bulk Modulus (GPa) = 33.55209 53.92067 43.73638
# Shear Modulus (GPa) = 23.77365 30.55913 27.16639
#
# Velocity S-wave (km/s) = 3.27783 3.71629 3.50392
# Velocity P-wave (km/s) = 5.43038 6.54088 6.01133
#
# Compressibility (1/GPa) = 0.02980440
#
# Stress axis : x y z
#
# Youngs Moduli (GPa) = 36.31831 59.40802 80.48097
#
# Poissons Ratio (x) = 0.41697 -0.05484
# Poissons Ratio (y) = 0.25491 0.57597
# Poissons Ratio (z) = -0.02475 0.42516
#
# Static dielectric constant tensor:
#      x y z
#    x 3.849090 0.000000 0.101120 
#    y 0.000000 4.041100 0.000000 
#    z 0.101120 0.000000 4.232040 
# 
# 
# High freq. dielectric constant tensor:
#      x y z
#    x 1.858330 0.000000 0.011400 
#    y 0.000000 1.862890 0.000000 
#    z 0.011400 0.000000 1.885450 
# 
# From -- ./inp_files/29145.got.cif
#   From: 2010.03.12/outbox.cif.g09.slc.cpg/sg14_15_cif.got.tgz:29145.got - 2010.03.31 13:35:05.
