data_PCOD8126413
_publ_section_title
;
Structure prediction by ZEFSAII (Michael W. Deem and Ramdas Pophale) SiO2 
 PCOD8126413
Probable space group: P 21/C
;
_chemical_formula_sum "Si O2"
_cell_formula_units_Z 28
_cell_length_a 11.358891
_cell_length_b 8.400453
_cell_length_c 27.772377
_cell_angle_alpha 90.000000
_cell_angle_beta 149.920137
_cell_angle_gamma 90.000000
_cell_volume 1328.215392
_symmetry_space_group_name_H-M "P 21/C"
_symmetry_group_IT_number 14
_symmetry_cell_setting 'monoclinic'
loop_
_space_group_symop_operation_xyz
x,y,z
-x,1/2+y,1/2-z
-x,-y,-z
x,1/2-y,1/2+z
loop_
_atom_site_type_symbol
_atom_site_label
_atom_site_fract_x
_atom_site_fract_y
_atom_site_fract_z
Si Si1 0.314073 0.243194 0.510167
Si Si2 0.411915 0.951480 0.821626
Si Si3 0.570613 0.692950 0.202837
Si Si4 0.947000 0.729199 0.178034
Si Si5 0.280727 0.991068 0.331410
Si Si6 0.228125 0.110967 0.129359
Si Si7 0.084033 0.735930 0.561252
O O1 0.440698 0.396309 0.579123
O O2 0.210574 0.292496 0.421854
O O3 0.501594 0.103268 0.568607
O O4 0.104577 0.179191 0.470792
O O5 0.532220 0.877500 0.816776
O O6 0.147687 0.888240 0.729306
O O7 0.416976 0.141938 0.821753
O O8 0.644227 0.550053 0.194566
O O9 0.745058 0.697661 0.310051
O O10 0.310308 0.654279 0.131446
O O11 0.780006 0.636111 0.155530
O O12 0.054365 0.878335 0.244641
O O13 0.162445 0.927291 0.115012
O O14 0.019306 0.199410 0.027995
#
# Coordination Sequence:
#
# PCOD8126413 Si02
#       7
#     4   4   4   4   4   4   4
#     4  10  21  40  62  86 118 156 191 243 298 346
#     4   9  21  38  61  90 119 156 205 236 283 357
#     4  11  21  36  59  91 123 156 196 242 291 346
#     4  11  22  44  62  81 119 155 194 253 297 337
#     4  11  25  39  61  89 113 150 206 242 292 362
#     4   9  18  34  57  87 121 158 188 230 288 345
#     4   9  19  35  56  86 122 153 193 232 283 351
#
# _framework density 21.080918
#
# number of rings (size 3 to 8) (size 9 to 14) (size 15 to 20)
#    0.000    2.000    0.000    3.857    0.000    7.429 
#    0.000   10.714    0.000    0.000    0.000    0.000 
#    0.000    0.000    0.000    0.000    0.000    0.000 
#
# Total GULP energy -347282.551012 kJ/mol
# GULP energy per Si atom -12402.948250 kJ/mol
# Density = 2.103294 g / cm^3
# Si number density = 21.080918 Si / 1000 Ang^3
#
#
#
# Elastic Constant Matrix: (Units=GPa)
#
#
# Indices 1 2 3 4 5 6 
#
# 1 80.5833 33.0367 52.8351 0.0000 -3.6565 0.0000
# 2 33.0367 60.1536 31.6072 0.0000 0.9312 0.0000
# 3 52.8351 31.6072 120.1623 0.0000 -8.2332 0.0000
# 4 0.0000 0.0000 0.0000 23.3140 0.0000 1.5638
# 5 -3.6565 0.9312 -8.2332 0.0000 24.8074 0.0000
# 6 0.0000 0.0000 0.0000 1.5638 0.0000 38.3938
#
#
#
# Elastic Compliance Matrix: (Units=1/GPa)
#
#
# Indices 1 2 3 4 5 6 
#
# 1 0.019909 -0.007409 -0.006738 0.000000 0.000976 0.000000
# 2 -0.007409 0.022196 -0.002776 0.000000 -0.002846 0.000000
# 3 -0.006738 -0.002776 0.012232 0.000000 0.003171 0.000000
# 4 0.000000 0.000000 0.000000 0.043010 0.000000 -0.001752
# 5 0.000976 -0.002846 0.003171 0.000000 0.041614 0.000000
# 6 0.000000 0.000000 0.000000 -0.001752 0.000000 0.026117
#
#
# Mechanical properties :
#
#
# Convention : Reuss Voigt Hill
#
# Bulk Modulus (GPa) = 48.80081 55.09523 51.94802
# Shear Modulus (GPa) = 24.30084 26.86440 25.58262
#
# Velocity S-wave (km/s) = 3.39889 3.57367 3.48737
# Velocity P-wave (km/s) = 6.21311 6.57419 6.39620
#
# Compressibility (1/GPa) = 0.02049146
#
# Stress axis : x y z
#
# Youngs Moduli (GPa) = 50.22790 45.05406 81.75092
#
# Poissons Ratio (x) = 0.33380 0.55087
# Poissons Ratio (y) = 0.37213 0.22691
# Poissons Ratio (z) = 0.33845 0.12506
#
# Static dielectric constant tensor:
#      x y z
#    x 3.789240 0.000000 0.156240 
#    y 0.000000 3.522380 0.000000 
#    z 0.156240 0.000000 3.856910 
# 
# 
# High freq. dielectric constant tensor:
#      x y z
#    x 1.825250 0.000000 0.005530 
#    y 0.000000 1.805940 0.000000 
#    z 0.005530 0.000000 1.834870 
# 
# From -- ./inp_files/77149.got.cif
#   From: 2010.03.12/outbox.cif.g09.slc.cpg/sg14_39_cif.got.tgz:77149.got - 2010.03.31 13:35:05.
