data_PCOD8126958
_publ_section_title
;
Structure prediction by ZEFSAII (Michael W. Deem and Ramdas Pophale) SiO2 
 PCOD8126958
Probable space group: P 21/C
;
_chemical_formula_sum "Si O2"
_cell_formula_units_Z 28
_cell_length_a 26.185193
_cell_length_b 10.662365
_cell_length_c 8.778443
_cell_angle_alpha 90.000000
_cell_angle_beta 144.934049
_cell_angle_gamma 90.000000
_cell_volume 1408.092473
_symmetry_space_group_name_H-M "P 21/C"
_symmetry_group_IT_number 14
_symmetry_cell_setting 'monoclinic'
loop_
_space_group_symop_operation_xyz
x,y,z
-x,1/2+y,1/2-z
-x,-y,-z
x,1/2-y,1/2+z
loop_
_atom_site_type_symbol
_atom_site_label
_atom_site_fract_x
_atom_site_fract_y
_atom_site_fract_z
Si Si1 0.586006 0.080281 0.669970
Si Si2 0.432302 0.395969 0.290969
Si Si3 0.938606 0.899460 0.658679
Si Si4 0.936177 0.630108 0.512489
Si Si5 0.753621 0.642298 0.226250
Si Si6 0.479172 0.748250 0.250939
Si Si7 0.248379 0.101764 0.928683
O O1 0.571815 0.141394 0.468838
O O2 0.595069 0.186737 0.822605
O O3 0.500000 0.000000 0.500000
O O4 0.676823 0.003828 0.893582
O O5 0.500000 0.500000 0.500000
O O6 0.466929 0.346431 0.215798
O O7 0.439356 0.296886 0.444468
O O8 0.331253 0.445334 0.022806
O O9 0.967495 0.768355 0.646836
O O10 0.843045 0.948060 0.368123
O O11 0.935609 0.868616 0.829590
O O12 0.003817 0.015186 0.779603
O O13 0.838201 0.599590 0.336298
O O14 0.775329 0.642025 0.457401
O O15 0.720498 0.780825 0.096849
#
# Coordination Sequence:
#
# PCOD8126958 Si02
#       7
#     4   4   4   4   4   4   4
#     4  11  22  38  57  81 116 156 194 241 290 344
#     4  11  21  35  54  79 111 148 187 231 279 329
#     4  10  22  41  63  91 118 153 196 245 300 362
#     4  10  22  40  64  90 120 151 194 246 302 360
#     4  11  21  35  59  88 112 147 195 239 285 345
#     4  10  22  36  53  79 113 150 193 234 281 338
#     4  11  22  37  60  86 115 149 192 238 290 347
#
# _framework density 19.885058999999998
#
# number of rings (size 3 to 8) (size 9 to 14) (size 15 to 20)
#    0.000    1.429    0.000    8.571    0.000    5.714 
#    0.000    7.143    0.000    0.000    0.000    0.000 
#    0.000    0.000    0.000    0.000    0.000    0.000 
#
# Total GULP energy -347066.719699 kJ/mol
# GULP energy per Si atom -12395.239989 kJ/mol
# Density = 1.983980 g / cm^3
# Si number density = 19.885059 Si / 1000 Ang^3
#
#
#
# Elastic Constant Matrix: (Units=GPa)
#
#
# Indices 1 2 3 4 5 6 
#
# 1 96.3189 43.0616 54.0194 0.0000 -12.1376 0.0000
# 2 43.0616 90.1052 60.9603 0.0000 9.9799 0.0000
# 3 54.0194 60.9603 134.7378 0.0000 6.6750 0.0000
# 4 0.0000 0.0000 0.0000 27.8830 0.0000 23.9607
# 5 -12.1376 9.9799 6.6750 0.0000 39.0300 0.0000
# 6 0.0000 0.0000 0.0000 23.9607 0.0000 -3.6380
#
#
#
# Elastic Compliance Matrix: (Units=1/GPa)
#
#
# Indices 1 2 3 4 5 6 
#
# 1 0.016235 -0.005640 -0.004315 0.000000 0.007229 0.000000
# 2 -0.005640 0.018280 -0.005739 0.000000 -0.005446 0.000000
# 3 -0.004315 -0.005739 0.011843 0.000000 -0.001900 0.000000
# 4 0.000000 0.000000 0.000000 0.005385 0.000000 0.035468
# 5 0.007229 -0.005446 -0.001900 0.000000 0.029587 0.000000
# 6 0.000000 0.000000 0.000000 0.035468 0.000000 -0.041274
#
#
# Mechanical properties :
#
#
# Convention : Reuss Voigt Hill
#
# Bulk Modulus (GPa) = 66.80901 70.80492 68.80696
# Shear Modulus (GPa) = 65.41647 23.52971 44.47309
#
# Velocity S-wave (km/s) = 5.74184 3.44362 4.73430
# Velocity P-wave (km/s) = 8.81072 7.17606 8.03507
#
# Compressibility (1/GPa) = 0.01496804
#
# Stress axis : x y z
#
# Youngs Moduli (GPa) = 61.59648 54.70579 84.43961
#
# Poissons Ratio (x) = 0.30853 0.36439
# Poissons Ratio (y) = 0.34739 0.48464
# Poissons Ratio (z) = 0.26581 0.31398
#
# Static dielectric constant tensor:
#      x y z
#    x 3.776100 0.000000 -0.198880 
#    y 0.000000 3.632780 0.000000 
#    z -0.198880 0.000000 3.722530 
# 
# 
# High freq. dielectric constant tensor:
#      x y z
#    x 1.786500 0.000000 -0.020480 
#    y 0.000000 1.768770 0.000000 
#    z -0.020480 0.000000 1.785140 
# 
# From -- ./inp_files/19825.got.cif
#   From: 2010.03.12/outbox.cif.g09.slc.cpg/sg14_10_cif.got.tgz:19825.got - 2010.03.31 13:35:05.
