data_PCOD8126434
_publ_section_title
;
Structure prediction by ZEFSAII (Michael W. Deem and Ramdas Pophale) SiO2 
 PCOD8126434
Probable space group: P 21/C
;
_chemical_formula_sum "Si O2"
_cell_formula_units_Z 28
_cell_length_a 7.699265
_cell_length_b 9.588284
_cell_length_c 26.957309
_cell_angle_alpha 90.000000
_cell_angle_beta 134.681907
_cell_angle_gamma 90.000000
_cell_volume 1414.977267
_symmetry_space_group_name_H-M "P 21/C"
_symmetry_group_IT_number 14
_symmetry_cell_setting 'monoclinic'
loop_
_space_group_symop_operation_xyz
x,y,z
-x,1/2+y,1/2-z
-x,-y,-z
x,1/2-y,1/2+z
loop_
_atom_site_type_symbol
_atom_site_label
_atom_site_fract_x
_atom_site_fract_y
_atom_site_fract_z
Si Si1 0.396348 0.305539 0.838001
Si Si2 0.487741 0.529918 0.692675
Si Si3 0.825234 0.309159 0.714167
Si Si4 0.493319 0.084625 0.688894
Si Si5 0.854912 0.809825 0.919745
Si Si6 0.477393 0.144690 0.059566
Si Si7 0.569300 0.323655 0.468463
O O1 0.521373 0.450862 0.849432
O O2 0.436662 0.282430 0.904631
O O3 0.112791 0.312502 0.767926
O O4 0.524319 0.184498 0.831942
O O5 0.726336 0.449573 0.720363
O O6 0.499992 0.532871 0.753855
O O7 0.242028 0.449861 0.626560
O O8 0.715082 0.299189 0.636504
O O9 0.737388 0.174364 0.727442
O O10 0.252792 0.176199 0.630455
O O11 0.765836 0.811017 0.959252
O O12 0.142311 0.803201 0.975531
O O13 0.501866 0.978585 0.061710
O O14 0.470155 0.211383 0.003483
#
# Coordination Sequence:
#
# PCOD8126434 Si02
#       7
#     4   4   4   4   4   4   4
#     4  12  22  38  62  95 122 156 214 250 305 376
#     4  10  21  40  63  91 116 167 210 247 308 362
#     4  10  22  41  61  90 126 159 202 264 300 362
#     4  10  23  38  61  92 125 161 201 256 319 361
#     4  10  22  43  60  89 131 159 202 261 306 368
#     4   9  21  40  61  91 116 163 213 251 301 361
#     4  11  22  38  67  92 118 168 207 255 308 367
#
# _framework density 19.788305000000001
#
# number of rings (size 3 to 8) (size 9 to 14) (size 15 to 20)
#    0.000    2.000    2.857    3.000    4.000    1.714 
#    2.571    2.857    0.000    0.000    0.000    0.000 
#    0.000    0.000    0.000    0.000    0.000    0.000 
#
# Total GULP energy -347267.616298 kJ/mol
# GULP energy per Si atom -12402.414868 kJ/mol
# Density = 1.974327 g / cm^3
# Si number density = 19.788305 Si / 1000 Ang^3
#
#
#
# Elastic Constant Matrix: (Units=GPa)
#
#
# Indices 1 2 3 4 5 6 
#
# 1 66.9216 17.7628 34.5416 0.0000 -24.1800 0.0000
# 2 17.7628 90.8052 21.2643 0.0000 -2.1042 0.0000
# 3 34.5416 21.2643 71.9655 0.0000 -21.5329 0.0000
# 4 0.0000 0.0000 0.0000 21.2562 0.0000 -2.7216
# 5 -24.1800 -2.1042 -21.5329 0.0000 36.6512 0.0000
# 6 0.0000 0.0000 0.0000 -2.7216 0.0000 6.4472
#
#
#
# Elastic Compliance Matrix: (Units=1/GPa)
#
#
# Indices 1 2 3 4 5 6 
#
# 1 0.023299 -0.002640 -0.007097 0.000000 0.011050 0.000000
# 2 -0.002640 0.012215 -0.003219 0.000000 -0.002932 0.000000
# 3 -0.007097 -0.003219 0.020379 0.000000 0.007106 0.000000
# 4 0.000000 0.000000 0.000000 0.049733 0.000000 0.020995
# 5 0.011050 -0.002932 0.007106 0.000000 0.038581 0.000000
# 6 0.000000 0.000000 0.000000 0.020995 0.000000 0.163970
#
#
# Mechanical properties :
#
#
# Convention : Reuss Voigt Hill
#
# Bulk Modulus (GPa) = 33.35361 41.86998 37.61179
# Shear Modulus (GPa) = 14.53138 23.27914 18.90526
#
# Velocity S-wave (km/s) = 2.71281 3.43360 3.09427
# Velocity P-wave (km/s) = 5.16762 6.07654 5.64042
#
# Compressibility (1/GPa) = 0.02998176
#
# Stress axis : x y z
#
# Youngs Moduli (GPa) = 42.92005 81.86701 49.06935
#
# Poissons Ratio (x) = 0.21611 0.34823
# Poissons Ratio (y) = 0.11330 0.15798
# Poissons Ratio (z) = 0.30459 0.26357
#
# Static dielectric constant tensor:
#      x y z
#    x 3.589060 0.000000 -0.238490 
#    y 0.000000 3.646600 0.000000 
#    z -0.238490 0.000000 3.640800 
# 
# 
# High freq. dielectric constant tensor:
#      x y z
#    x 1.769410 0.000000 -0.013760 
#    y 0.000000 1.769440 0.000000 
#    z -0.013760 0.000000 1.772450 
# 
# From -- ./inp_files/65028.got.cif
#   From: 2010.03.12/outbox.cif.g09.slc.cpg/sg14_33_cif.got.tgz:65028.got - 2010.03.31 13:35:05.
