data_PCOD8126806
_publ_section_title
;
Structure prediction by ZEFSAII (Michael W. Deem and Ramdas Pophale) SiO2 
 PCOD8126806
Probable space group: P 21/C
;
_chemical_formula_sum "Si O2"
_cell_formula_units_Z 32
_cell_length_a 11.384425
_cell_length_b 10.881672
_cell_length_c 12.509911
_cell_angle_alpha 90.000000
_cell_angle_beta 71.977951
_cell_angle_gamma 90.000000
_cell_volume 1473.713080
_symmetry_space_group_name_H-M "P 21/C"
_symmetry_group_IT_number 14
_symmetry_cell_setting 'monoclinic'
loop_
_space_group_symop_operation_xyz
x,y,z
-x,1/2+y,1/2-z
-x,-y,-z
x,1/2-y,1/2+z
loop_
_atom_site_type_symbol
_atom_site_label
_atom_site_fract_x
_atom_site_fract_y
_atom_site_fract_z
Si Si1 0.991050 0.855412 0.846734
Si Si2 0.938536 0.258286 0.959506
Si Si3 0.651699 0.559950 0.260907
Si Si4 0.831934 0.776526 0.239065
Si Si5 0.787542 0.440051 0.409769
Si Si6 0.626865 0.137659 0.137352
Si Si7 0.284907 0.597360 0.953891
Si Si8 0.765884 0.449187 0.797623
O O1 0.909921 0.740685 0.826860
O O2 0.096091 0.891483 0.729859
O O3 0.899902 0.967510 0.889714
O O4 0.061053 0.828153 0.936415
O O5 0.850993 0.194697 0.893391
O O6 0.078961 0.271023 0.881925
O O7 0.864408 0.381239 0.015337
O O8 0.714428 0.689995 0.265265
O O9 0.708788 0.457238 0.323996
O O10 0.510042 0.584909 0.323545
O O11 0.672155 0.512387 0.134938
O O12 0.783649 0.914184 0.244726
O O13 0.697841 0.453304 0.536607
O O14 0.636601 0.279143 0.094361
O O15 0.682908 0.129028 0.239862
O O16 0.306621 0.551337 0.069393
#
# Coordination Sequence:
#
# PCOD8126806 Si02
#       8
#     4   4   4   4   4   4   4   4
#     4  11  21  39  65 103 140 178 230 288 350 427
#     4  11  21  37  69 101 138 180 223 284 365 416
#     4  11  28  48  65 107 141 189 241 292 350 421
#     4  11  26  41  68 105 145 180 232 294 359 424
#     4  10  21  42  70  99 133 183 237 285 350 420
#     4  11  26  48  74  95 140 196 241 295 347 427
#     4  11  27  44  72 104 141 187 237 297 355 418
#     4  12  24  46  72 106 142 189 236 293 363 423
#
# _framework density 21.71386
#
# number of rings (size 3 to 8) (size 9 to 14) (size 15 to 20)
#    0.000    1.000    5.000    1.500    8.750    1.000 
#    0.000    0.000    0.000    0.000    0.000    0.000 
#    0.000    0.000    0.000    0.000    0.000    0.000 
#
# Total GULP energy -396748.283441 kJ/mol
# GULP energy per Si atom -12398.383858 kJ/mol
# Density = 2.166444 g / cm^3
# Si number density = 21.713860 Si / 1000 Ang^3
#
#
#
# Elastic Constant Matrix: (Units=GPa)
#
#
# Indices 1 2 3 4 5 6 
#
# 1 96.0910 23.6630 40.4457 0.0000 -16.7327 0.0000
# 2 23.6630 61.0396 15.5281 0.0000 -7.2295 0.0000
# 3 40.4457 15.5281 119.7004 0.0000 -5.9278 0.0000
# 4 0.0000 0.0000 0.0000 31.2735 0.0000 -4.1434
# 5 -16.7327 -7.2295 -5.9278 0.0000 27.7858 0.0000
# 6 0.0000 0.0000 0.0000 -4.1434 0.0000 14.5893
#
#
#
# Elastic Compliance Matrix: (Units=1/GPa)
#
#
# Indices 1 2 3 4 5 6 
#
# 1 0.014155 -0.003681 -0.003973 0.000000 0.006719 0.000000
# 2 -0.003681 0.018346 -0.001020 0.000000 0.002339 0.000000
# 3 -0.003973 -0.001020 0.009801 0.000000 -0.000567 0.000000
# 4 0.000000 0.000000 0.000000 0.033226 0.000000 0.009436
# 5 0.006719 0.002339 -0.000567 0.000000 0.040523 0.000000
# 6 0.000000 0.000000 0.000000 0.009436 0.000000 0.071223
#
#
# Mechanical properties :
#
#
# Convention : Reuss Voigt Hill
#
# Bulk Modulus (GPa) = 40.07319 48.45608 44.26464
# Shear Modulus (GPa) = 23.48057 27.87602 25.67829
#
# Velocity S-wave (km/s) = 3.29198 3.58689 3.44259
# Velocity P-wave (km/s) = 5.73974 6.28638 6.01927
#
# Compressibility (1/GPa) = 0.02495434
#
# Stress axis : x y z
#
# Youngs Moduli (GPa) = 70.64397 54.50644 102.03225
#
# Poissons Ratio (x) = 0.20065 0.40535
# Poissons Ratio (y) = 0.26005 0.10411
# Poissons Ratio (z) = 0.28065 0.05561
#
# Static dielectric constant tensor:
#      x y z
#    x 3.839680 0.000000 -0.061660 
#    y 0.000000 3.761340 0.000000 
#    z -0.061660 0.000000 4.079220 
# 
# 
# High freq. dielectric constant tensor:
#      x y z
#    x 1.847940 0.000000 -0.005280 
#    y 0.000000 1.843360 0.000000 
#    z -0.005280 0.000000 1.865470 
# 
# From -- ./inp_files/29338.got.cif
#   From: 2010.03.12/outbox.cif.g09.slc.cpg/sg14_15_cif.got.tgz:29338.got - 2010.03.31 13:35:05.
