data_PCOD8126400
_publ_section_title
;
Structure prediction by ZEFSAII (Michael W. Deem and Ramdas Pophale) SiO2 
 PCOD8126400
Probable space group: P 21/C
;
_chemical_formula_sum "Si O2"
_cell_formula_units_Z 32
_cell_length_a 10.786407
_cell_length_b 9.942763
_cell_length_c 27.361542
_cell_angle_alpha 90.000000
_cell_angle_beta 31.913535
_cell_angle_gamma 90.000000
_cell_volume 1551.256289
_symmetry_space_group_name_H-M "P 21/C"
_symmetry_group_IT_number 14
_symmetry_cell_setting 'monoclinic'
loop_
_space_group_symop_operation_xyz
x,y,z
-x,1/2+y,1/2-z
-x,-y,-z
x,1/2-y,1/2+z
loop_
_atom_site_type_symbol
_atom_site_label
_atom_site_fract_x
_atom_site_fract_y
_atom_site_fract_z
Si Si1 0.235726 0.847221 0.853169
Si Si2 0.836751 0.558576 0.700008
Si Si3 0.956015 0.590887 0.911767
Si Si4 0.663371 0.387787 0.466779
Si Si5 0.186462 0.698838 0.477539
Si Si6 0.625597 0.867669 0.441748
Si Si7 0.234027 0.183281 0.329818
Si Si8 0.469163 0.953936 0.396698
O O1 0.212929 0.885461 0.918363
O O2 0.501147 0.848597 0.743481
O O3 0.111793 0.703842 0.885472
O O4 0.113159 0.968557 0.865076
O O5 0.743674 0.709753 0.721490
O O6 0.647347 0.482393 0.797491
O O7 0.087401 0.581168 0.641958
O O8 0.878706 0.644871 0.883728
O O9 0.101417 0.452913 0.857661
O O10 0.711245 0.567008 0.023045
O O11 0.500000 0.500000 0.500000
O O12 0.701503 0.379932 0.513314
O O13 0.552143 0.250781 0.484475
O O14 0.317122 0.838152 0.422669
O O15 0.914978 0.740737 0.578198
O O16 0.644091 0.882594 0.377280
O O17 0.500000 0.000000 0.500000
#
# Coordination Sequence:
#
# PCOD8126400 Si02
#       8
#     4   4   4   4   4   4   4   4
#     4  12  23  37  62  94 130 160 213 260 311 381
#     4  11  22  38  62  92 121 161 205 261 319 372
#     4  10  22  40  64  90 120 167 214 259 308 376
#     4  10  21  40  61  86 124 158 195 253 321 368
#     4   9  21  39  62  85 121 171 200 252 322 371
#     4   9  18  40  65  84 113 158 207 251 301 367
#     4  10  22  39  61  88 124 163 207 256 311 373
#     4   9  19  39  65  88 116 164 212 253 316 373
#
# _framework density 20.628440999999999
#
# number of rings (size 3 to 8) (size 9 to 14) (size 15 to 20)
#    0.000    2.000    1.250    3.750    1.750    3.000 
#    2.250    7.500    0.000    0.000    0.000    0.000 
#    0.000    0.000    0.000    0.000    0.000    0.000 
#
# Total GULP energy -396427.753303 kJ/mol
# GULP energy per Si atom -12388.367291 kJ/mol
# Density = 2.058149 g / cm^3
# Si number density = 20.628441 Si / 1000 Ang^3
#
#
#
# Elastic Constant Matrix: (Units=GPa)
#
#
# Indices 1 2 3 4 5 6 
#
# 1 96.2804 42.1580 53.0442 0.0000 -13.6217 0.0000
# 2 42.1580 108.6500 40.4109 0.0000 -10.9055 0.0000
# 3 53.0442 40.4109 117.1618 0.0000 -5.3327 0.0000
# 4 0.0000 0.0000 0.0000 24.8273 0.0000 -10.1729
# 5 -13.6217 -10.9055 -5.3327 0.0000 26.0459 0.0000
# 6 0.0000 0.0000 0.0000 -10.1729 0.0000 35.0654
#
#
#
# Elastic Compliance Matrix: (Units=1/GPa)
#
#
# Indices 1 2 3 4 5 6 
#
# 1 0.015858 -0.003452 -0.005731 0.000000 0.005675 0.000000
# 2 -0.003452 0.011677 -0.002346 0.000000 0.002604 0.000000
# 3 -0.005731 -0.002346 0.011868 0.000000 -0.001549 0.000000
# 4 0.000000 0.000000 0.000000 0.045712 0.000000 0.013262
# 5 0.005675 0.002604 -0.001549 0.000000 0.042134 0.000000
# 6 0.000000 0.000000 0.000000 0.013262 0.000000 0.032365
#
#
# Mechanical properties :
#
#
# Convention : Reuss Voigt Hill
#
# Bulk Modulus (GPa) = 61.17801 65.92428 63.55115
# Shear Modulus (GPa) = 26.57842 29.61965 28.09904
#
# Velocity S-wave (km/s) = 3.59337 3.79339 3.69474
# Velocity P-wave (km/s) = 6.85113 7.15638 7.00542
#
# Compressibility (1/GPa) = 0.01634574
#
# Stress axis : x y z
#
# Youngs Moduli (GPa) = 63.05975 85.63592 84.25708
#
# Poissons Ratio (x) = 0.29563 0.48284
# Poissons Ratio (y) = 0.21769 0.19769
# Poissons Ratio (z) = 0.36137 0.20092
#
# Static dielectric constant tensor:
#      x y z
#    x 4.784970 0.000000 -0.020390 
#    y 0.000000 3.653720 0.000000 
#    z -0.020390 0.000000 3.790140 
# 
# 
# High freq. dielectric constant tensor:
#      x y z
#    x 1.805680 0.000000 -0.015260 
#    y 0.000000 1.803800 0.000000 
#    z -0.015260 0.000000 1.797660 
# 
# From -- ./inp_files/79938.got.cif
#   From: 2010.03.12/outbox.cif.g09.slc.cpg/sg14_40_cif.got.tgz:79938.got - 2010.03.31 13:35:05.
