data_PCOD8126247
_publ_section_title
;
Structure prediction by ZEFSAII (Michael W. Deem and Ramdas Pophale) SiO2 
 PCOD8126247
Probable space group: P 21/C
;
_chemical_formula_sum "Si O2"
_cell_formula_units_Z 24
_cell_length_a 8.604732
_cell_length_b 13.360010
_cell_length_c 9.674917
_cell_angle_alpha 90.000000
_cell_angle_beta 83.357032
_cell_angle_gamma 90.000000
_cell_volume 1104.754607
_symmetry_space_group_name_H-M "P 21/C"
_symmetry_group_IT_number 14
_symmetry_cell_setting 'monoclinic'
loop_
_space_group_symop_operation_xyz
x,y,z
-x,1/2+y,1/2-z
-x,-y,-z
x,1/2-y,1/2+z
loop_
_atom_site_type_symbol
_atom_site_label
_atom_site_fract_x
_atom_site_fract_y
_atom_site_fract_z
Si Si1 0.633336 0.035620 0.685277
Si Si2 0.863640 0.429278 0.667130
Si Si3 0.212410 0.438525 0.573886
Si Si4 0.403588 0.254249 0.492690
Si Si5 0.384381 0.763424 0.780818
Si Si6 0.295695 0.450907 0.103879
O O1 0.670186 0.148735 0.726898
O O2 0.451664 0.015430 0.670383
O O3 0.680459 0.964045 0.806055
O O4 0.728893 0.010855 0.536395
O O5 0.806366 0.465600 0.522565
O O6 0.765162 0.333635 0.728553
O O7 0.846819 0.519231 0.780862
O O8 0.044794 0.399092 0.643474
O O9 0.294518 0.350105 0.478142
O O10 0.548198 0.284575 0.574694
O O11 0.477051 0.213636 0.342901
O O12 0.299812 0.167404 0.573973
#
# Coordination Sequence:
#
# PCOD8126247 Si02
#       6
#     4   4   4   4   4   4
#     4  10  21  39  63  88 117 155 200 249 296 346
#     4  11  24  40  58  87 125 160 197 242 294 356
#     4  11  24  40  60  88 124 160 194 242 301 354
#     4  11  22  38  63  89 116 155 201 249 295 345
#     4  11  22  38  63  90 116 155 204 247 290 348
#     4  10  21  39  61  88 118 151 200 250 294 350
#
# _framework density 21.724281000000001
#
# number of rings (size 3 to 8) (size 9 to 14) (size 15 to 20)
#    0.000    1.333    0.000    8.000    0.000    4.000 
#    0.000    8.333    0.000    0.000    0.000    0.000 
#    0.000    0.000    0.000    0.000    0.000    0.000 
#
# Total GULP energy -297720.138071 kJ/mol
# GULP energy per Si atom -12405.005753 kJ/mol
# Density = 2.167484 g / cm^3
# Si number density = 21.724281 Si / 1000 Ang^3
#
#
#
# Elastic Constant Matrix: (Units=GPa)
#
#
# Indices 1 2 3 4 5 6 
#
# 1 59.0948 42.1061 23.7267 0.0000 -15.0814 0.0000
# 2 42.1061 96.3255 17.9089 0.0000 -8.5631 0.0000
# 3 23.7267 17.9089 94.1852 0.0000 -4.8949 0.0000
# 4 0.0000 0.0000 0.0000 38.2938 0.0000 -5.4135
# 5 -15.0814 -8.5631 -4.8949 0.0000 31.1885 0.0000
# 6 0.0000 0.0000 0.0000 -5.4135 0.0000 28.6975
#
#
#
# Elastic Compliance Matrix: (Units=1/GPa)
#
#
# Indices 1 2 3 4 5 6 
#
# 1 0.029337 -0.011014 -0.004755 0.000000 0.010416 0.000000
# 2 -0.011014 0.015119 -0.000163 0.000000 -0.001200 0.000000
# 3 -0.004755 -0.000163 0.011821 0.000000 -0.000489 0.000000
# 4 0.000000 0.000000 0.000000 0.026829 0.000000 0.005061
# 5 0.010416 -0.001200 -0.000489 0.000000 0.036693 0.000000
# 6 0.000000 0.000000 0.000000 0.005061 0.000000 0.035801
#
#
# Mechanical properties :
#
#
# Convention : Reuss Voigt Hill
#
# Bulk Modulus (GPa) = 40.95983 46.34322 43.65152
# Shear Modulus (GPa) = 25.56219 30.69355 28.12787
#
# Velocity S-wave (km/s) = 3.43398 3.76289 3.60219
# Velocity P-wave (km/s) = 5.88373 6.34491 6.11867
#
# Compressibility (1/GPa) = 0.02441417
#
# Stress axis : x y z
#
# Youngs Moduli (GPa) = 34.08698 66.14002 84.59713
#
# Poissons Ratio (x) = 0.72845 0.40224
# Poissons Ratio (y) = 0.37543 0.01377
# Poissons Ratio (z) = 0.16208 0.01076
#
# Static dielectric constant tensor:
#      x y z
#    x 3.577460 0.000000 -0.055440 
#    y 0.000000 3.852370 0.000000 
#    z -0.055440 0.000000 4.029360 
# 
# 
# High freq. dielectric constant tensor:
#      x y z
#    x 1.820280 0.000000 -0.001930 
#    y 0.000000 1.859630 0.000000 
#    z -0.001930 0.000000 1.869650 
# 
# From -- ./inp_files/8440.got.cif
#   From: 2010.03.12/outbox.cif.g09.slc.cpg/sg14_5_cif.got.tgz:8440.got - 2010.03.31 13:35:05.
