data_PCOD8126855
_publ_section_title
;
Structure prediction by ZEFSAII (Michael W. Deem and Ramdas Pophale) SiO2 
 PCOD8126855
Probable space group: P 21/C
;
_chemical_formula_sum "Si O2"
_cell_formula_units_Z 28
_cell_length_a 11.113995
_cell_length_b 7.463407
_cell_length_c 17.112820
_cell_angle_alpha 90.000000
_cell_angle_beta 113.663690
_cell_angle_gamma 90.000000
_cell_volume 1300.124939
_symmetry_space_group_name_H-M "P 21/C"
_symmetry_group_IT_number 14
_symmetry_cell_setting 'monoclinic'
loop_
_space_group_symop_operation_xyz
x,y,z
-x,1/2+y,1/2-z
-x,-y,-z
x,1/2-y,1/2+z
loop_
_atom_site_type_symbol
_atom_site_label
_atom_site_fract_x
_atom_site_fract_y
_atom_site_fract_z
Si Si1 0.831605 0.219554 0.704500
Si Si2 0.035573 0.188270 0.044342
Si Si3 0.557651 0.514975 0.428657
Si Si4 0.295780 0.135470 0.576570
Si Si5 0.883893 0.825169 0.758763
Si Si6 0.242136 0.719831 0.989440
Si Si7 0.312490 0.471860 0.260118
O O1 0.818524 0.007367 0.711569
O O2 0.768831 0.266154 0.604625
O O3 0.747884 0.328013 0.747131
O O4 0.982889 0.280116 0.752949
O O5 0.147649 0.290761 0.025016
O O6 0.902574 0.304740 0.010731
O O7 0.089745 0.151245 0.143835
O O8 0.000000 0.000000 0.000000
O O9 0.500000 0.500000 0.500000
O O10 0.599493 0.718219 0.423114
O O11 0.681753 0.384068 0.450480
O O12 0.454333 0.457102 0.336029
O O13 0.323874 0.077312 0.672583
O O14 0.317284 0.965817 0.525456
O O15 0.782171 0.664391 0.717640
#
# Coordination Sequence:
#
# PCOD8126855 Si02
#       7
#     4   4   4   4   4   4   4
#     4  11  22  41  69 102 132 176 221 285 344 400
#     4  10  21  43  68 101 133 176 221 288 345 388
#     4  12  27  48  67  99 143 185 227 279 339 407
#     4  11  27  45  71 102 134 183 232 280 343 401
#     4  10  23  39  68  98 137 174 220 280 347 400
#     4  11  25  43  71 100 138 176 227 283 342 411
#     4  11  26  45  66 101 137 179 233 280 340 407
#
# _framework density 21.536390999999998
#
# number of rings (size 3 to 8) (size 9 to 14) (size 15 to 20)
#    0.000    1.143    4.286    0.429    6.000    2.857 
#    0.000    0.000    0.000    0.000    0.000    0.000 
#    0.000    0.000    0.000    0.000    0.000    0.000 
#
# Total GULP energy -347339.641515 kJ/mol
# GULP energy per Si atom -12404.987197 kJ/mol
# Density = 2.148737 g / cm^3
# Si number density = 21.536391 Si / 1000 Ang^3
#
#
#
# Elastic Constant Matrix: (Units=GPa)
#
#
# Indices 1 2 3 4 5 6 
#
# 1 79.3928 26.5057 44.3467 0.0000 2.0124 0.0000
# 2 26.5057 128.2013 49.9906 0.0000 4.1627 0.0000
# 3 44.3467 49.9906 83.2945 0.0000 22.5195 0.0000
# 4 0.0000 0.0000 0.0000 39.0704 0.0000 2.2473
# 5 2.0124 4.1627 22.5195 0.0000 31.6400 0.0000
# 6 0.0000 0.0000 0.0000 2.2473 0.0000 43.7300
#
#
#
# Elastic Compliance Matrix: (Units=1/GPa)
#
#
# Indices 1 2 3 4 5 6 
#
# 1 0.019328 0.000767 -0.012867 0.000000 0.007828 0.000000
# 2 0.000767 0.010582 -0.007887 0.000000 0.004173 0.000000
# 3 -0.012867 -0.007887 0.028590 0.000000 -0.018492 0.000000
# 4 0.000000 0.000000 0.000000 0.025671 0.000000 -0.001319
# 5 0.007828 0.004173 -0.018492 0.000000 0.043720 0.000000
# 6 0.000000 0.000000 0.000000 -0.001319 0.000000 0.022935
#
#
# Mechanical properties :
#
#
# Convention : Reuss Voigt Hill
#
# Bulk Modulus (GPa) = 53.98258 59.17496 56.57877
# Shear Modulus (GPa) = 25.38371 34.22444 29.80408
#
# Velocity S-wave (km/s) = 3.43686 3.99073 3.72411
# Velocity P-wave (km/s) = 6.39293 6.98362 6.69479
#
# Compressibility (1/GPa) = 0.01852449
#
# Stress axis : x y z
#
# Youngs Moduli (GPa) = 51.73717 94.50236 34.97761
#
# Poissons Ratio (x) = -0.07250 0.45007
# Poissons Ratio (y) = -0.03969 0.27588
# Poissons Ratio (z) = 0.66573 0.74538
#
# Static dielectric constant tensor:
#      x y z
#    x 3.804210 0.000000 0.104210 
#    y 0.000000 3.943190 0.000000 
#    z 0.104210 0.000000 3.777380 
# 
# 
# High freq. dielectric constant tensor:
#      x y z
#    x 1.840480 0.000000 0.010210 
#    y 0.000000 1.858150 0.000000 
#    z 0.010210 0.000000 1.846210 
# 
# From -- ./inp_files/66548.got.cif
#   From: 2010.03.12/outbox.cif.g09.slc.cpg/sg14_34_cif.got.tgz:66548.got - 2010.03.31 13:35:05.
