data_PCOD8126026
_publ_section_title
;
Structure prediction by ZEFSAII (Michael W. Deem and Ramdas Pophale) SiO2 
 PCOD8126026
Probable space group: P 21/C
;
_chemical_formula_sum "Si O2"
_cell_formula_units_Z 28
_cell_length_a 11.023070
_cell_length_b 19.408182
_cell_length_c 16.318133
_cell_angle_alpha 90.000000
_cell_angle_beta 22.495256
_cell_angle_gamma 90.000000
_cell_volume 1335.705542
_symmetry_space_group_name_H-M "P 21/C"
_symmetry_group_IT_number 14
_symmetry_cell_setting 'monoclinic'
loop_
_space_group_symop_operation_xyz
x,y,z
-x,1/2+y,1/2-z
-x,-y,-z
x,1/2-y,1/2+z
loop_
_atom_site_type_symbol
_atom_site_label
_atom_site_fract_x
_atom_site_fract_y
_atom_site_fract_z
Si Si1 0.339663 0.358821 0.214400
Si Si2 0.011925 0.443441 0.087465
Si Si3 0.426569 0.816311 0.602640
Si Si4 0.344798 0.881253 0.819108
Si Si5 0.894327 0.311188 0.264697
Si Si6 0.629302 0.702548 0.277274
Si Si7 0.120765 0.909879 0.508157
O O1 0.258601 0.280969 0.291535
O O2 0.551634 0.395624 0.150169
O O3 0.995071 0.397260 0.425775
O O4 0.529427 0.359497 0.009528
O O5 0.898148 0.387977 0.224897
O O6 0.818567 0.427729 0.125089
O O7 0.399184 0.442889 0.833000
O O8 0.946815 0.522458 0.156478
O O9 0.276889 0.864840 0.765902
O O10 0.214557 0.747931 0.729701
O O11 0.763902 0.787858 0.419232
O O12 0.541805 0.818394 0.738991
O O13 0.683709 0.311523 0.476267
O O14 0.903783 0.657671 0.148850
#
# Coordination Sequence:
#
# PCOD8126026 Si02
#       7
#     4   4   4   4   4   4   4
#     4  11  22  37  61  94 118 155 204 254 302 358
#     4   9  22  42  60  88 122 166 203 247 300 371
#     4  10  23  36  57  94 120 153 201 255 295 363
#     4  10  21  38  61  85 123 159 198 250 312 346
#     4  10  21  38  59  87 126 152 203 253 302 356
#     4  10  21  37  62  87 121 158 199 254 305 357
#     4  10  22  40  62  88 123 161 208 244 298 375
#
# _framework density 20.962705
#
# number of rings (size 3 to 8) (size 9 to 14) (size 15 to 20)
#    0.000    2.000    1.429    0.857   14.000    1.143 
#    0.000    2.857    0.000    0.000    0.000    0.000 
#    0.000    0.000    0.000    0.000    0.000    0.000 
#
# Total GULP energy -347030.940035 kJ/mol
# GULP energy per Si atom -12393.962144 kJ/mol
# Density = 2.091499 g / cm^3
# Si number density = 20.962705 Si / 1000 Ang^3
#
#
#
# Elastic Constant Matrix: (Units=GPa)
#
#
# Indices 1 2 3 4 5 6 
#
# 1 104.2738 32.6107 15.6809 0.0000 -16.2531 0.0000
# 2 32.6107 70.0964 2.0787 0.0000 -0.3668 0.0000
# 3 15.6809 2.0787 54.9225 0.0000 -9.0035 0.0000
# 4 0.0000 0.0000 0.0000 23.6788 0.0000 1.7132
# 5 -16.2531 -0.3668 -9.0035 0.0000 28.3262 0.0000
# 6 0.0000 0.0000 0.0000 1.7132 0.0000 17.6267
#
#
#
# Elastic Compliance Matrix: (Units=1/GPa)
#
#
# Indices 1 2 3 4 5 6 
#
# 1 0.012788 -0.005845 -0.002363 0.000000 0.006511 0.000000
# 2 -0.005845 0.016954 0.000542 0.000000 -0.002962 0.000000
# 3 -0.002363 0.000542 0.019665 0.000000 0.004902 0.000000
# 4 0.000000 0.000000 0.000000 0.042531 0.000000 -0.004134
# 5 0.006511 -0.002962 0.004902 0.000000 0.040559 0.000000
# 6 0.000000 0.000000 0.000000 -0.004134 0.000000 0.057134
#
#
# Mechanical properties :
#
#
# Convention : Reuss Voigt Hill
#
# Bulk Modulus (GPa) = 29.34725 36.67037 33.00881
# Shear Modulus (GPa) = 23.11369 25.85450 24.48409
#
# Velocity S-wave (km/s) = 3.32416 3.51573 3.42128
# Velocity P-wave (km/s) = 5.36316 5.83195 5.60246
#
# Compressibility (1/GPa) = 0.03407474
#
# Stress axis : x y z
#
# Youngs Moduli (GPa) = 78.19592 58.98344 50.85151
#
# Poissons Ratio (x) = 0.34478 0.12014
# Poissons Ratio (y) = 0.45708 -0.02754
# Poissons Ratio (z) = 0.18475 -0.03195
#
# Static dielectric constant tensor:
#      x y z
#    x 4.009270 0.000000 0.036130 
#    y 0.000000 3.731060 0.000000 
#    z 0.036130 0.000000 3.733030 
# 
# 
# High freq. dielectric constant tensor:
#      x y z
#    x 1.832440 0.000000 -0.009150 
#    y 0.000000 1.802710 0.000000 
#    z -0.009150 0.000000 1.810020 
# 
# From -- ./inp_files/9366.got.cif
#   From: 2010.03.12/outbox.cif.g09.slc.cpg/sg14_5_cif.got.tgz:9366.got - 2010.03.31 13:35:05.
