data_PCOD8126098
_publ_section_title
;
Structure prediction by ZEFSAII (Michael W. Deem and Ramdas Pophale) SiO2 
 PCOD8126098
Probable space group: P 21/C
;
_chemical_formula_sum "Si O2"
_cell_formula_units_Z 32
_cell_length_a 13.929168
_cell_length_b 27.907548
_cell_length_c 9.917118
_cell_angle_alpha 90.000000
_cell_angle_beta 153.510891
_cell_angle_gamma 90.000000
_cell_volume 1719.468251
_symmetry_space_group_name_H-M "P 21/C"
_symmetry_group_IT_number 14
_symmetry_cell_setting 'monoclinic'
loop_
_space_group_symop_operation_xyz
x,y,z
-x,1/2+y,1/2-z
-x,-y,-z
x,1/2-y,1/2+z
loop_
_atom_site_type_symbol
_atom_site_label
_atom_site_fract_x
_atom_site_fract_y
_atom_site_fract_z
Si Si1 0.323683 0.507033 0.666030
Si Si2 0.344568 0.756197 0.698339
Si Si3 0.024291 0.075103 0.182367
Si Si4 0.365325 0.252421 0.693237
Si Si5 0.017410 0.177228 0.836911
Si Si6 0.380283 0.003962 0.709264
Si Si7 0.016302 0.566662 0.683238
Si Si8 0.008056 0.814359 0.878307
O O1 0.428403 0.512104 0.653483
O O2 0.198939 0.556171 0.538508
O O3 0.162183 0.462251 0.458852
O O4 0.500000 0.500000 0.000000
O O5 0.445165 0.756590 0.676492
O O6 0.167983 0.798019 0.484562
O O7 0.228424 0.705703 0.589198
O O8 0.532233 0.767005 0.040037
O O9 0.026761 0.131361 0.211119
O O10 0.223049 0.049982 0.508448
O O11 0.036662 0.061369 0.040846
O O12 0.194472 0.213738 0.432187
O O13 0.248949 0.303524 0.575775
O O14 0.998539 0.121059 0.786509
O O15 0.982927 0.190706 0.949537
O O16 0.250557 0.955234 0.510741
O O17 0.500000 0.000000 0.000000
#
# Coordination Sequence:
#
# PCOD8126098 Si02
#       8
#     4   4   4   4   4   4   4   4
#     4  11  19  37  63  86 111 157 191 236 287 337
#     4  11  22  39  59  85 117 154 192 241 295 343
#     4  10  21  38  60  89 116 150 201 239 278 348
#     4  11  22  39  59  85 117 154 192 241 295 343
#     4  10  22  38  60  88 117 152 198 244 286 345
#     4  11  23  39  59  87 125 151 187 241 294 340
#     4  10  21  38  60  89 116 150 201 239 278 348
#     4  10  22  38  60  88 117 152 198 244 286 345
#
# _framework density 18.610405
#
# number of rings (size 3 to 8) (size 9 to 14) (size 15 to 20)
#    0.000    1.500    5.000    0.750    0.000    6.000 
#    0.000    2.500    0.000    0.000    0.000    0.000 
#    0.000    0.000    0.000    0.000    0.000    0.000 
#
# Total GULP energy -396887.030495 kJ/mol
# GULP energy per Si atom -12402.719703 kJ/mol
# Density = 1.856805 g / cm^3
# Si number density = 18.610405 Si / 1000 Ang^3
#
#
#
# Elastic Constant Matrix: (Units=GPa)
#
#
# Indices 1 2 3 4 5 6 
#
# 1 70.6214 10.9191 -5.7212 0.0000 19.3620 0.0000
# 2 10.9191 114.3365 18.9787 0.0000 8.0229 0.0000
# 3 -5.7212 18.9787 70.5163 0.0000 0.8504 0.0000
# 4 0.0000 0.0000 0.0000 18.7799 0.0000 -1.3146
# 5 19.3620 8.0229 0.8504 0.0000 37.0358 0.0000
# 6 0.0000 0.0000 0.0000 -1.3146 0.0000 23.3888
#
#
#
# Elastic Compliance Matrix: (Units=1/GPa)
#
#
# Indices 1 2 3 4 5 6 
#
# 1 0.016861 -0.001312 0.001824 0.000000 -0.008573 0.000000
# 2 -0.001312 0.009397 -0.002620 0.000000 -0.001290 0.000000
# 3 0.001824 -0.002620 0.015043 0.000000 -0.000732 0.000000
# 4 0.000000 0.000000 0.000000 0.053459 0.000000 0.003005
# 5 -0.008573 -0.001290 -0.000732 0.000000 0.031779 0.000000
# 6 0.000000 0.000000 0.000000 0.003005 0.000000 0.042924
#
#
# Mechanical properties :
#
#
# Convention : Reuss Voigt Hill
#
# Bulk Modulus (GPa) = 26.96394 33.75862 30.36128
# Shear Modulus (GPa) = 26.87611 31.26074 29.06843
#
# Velocity S-wave (km/s) = 3.80431 4.10292 3.95643
# Velocity P-wave (km/s) = 5.81525 6.37372 6.10088
#
# Compressibility (1/GPa) = 0.03708656
#
# Stress axis : x y z
#
# Youngs Moduli (GPa) = 59.30887 106.41993 66.47579
#
# Poissons Ratio (x) = 0.13957 -0.12127
# Poissons Ratio (y) = 0.07778 0.17416
# Poissons Ratio (z) = -0.10820 0.27881
#
# Static dielectric constant tensor:
#      x y z
#    x 3.360470 0.000000 0.122880 
#    y 0.000000 3.394610 0.000000 
#    z 0.122880 0.000000 3.507090 
# 
# 
# High freq. dielectric constant tensor:
#      x y z
#    x 1.723760 0.000000 0.009000 
#    y 0.000000 1.719010 0.000000 
#    z 0.009000 0.000000 1.734350 
# 
# From -- ./inp_files/14676.got.cif
#   From: 2010.03.12/outbox.cif.g09.slc.cpg/sg14_8_cif.got.tgz:14676.got - 2010.03.31 13:35:05.
