data_PCOD8126118
_publ_section_title
;
Structure prediction by ZEFSAII (Michael W. Deem and Ramdas Pophale) SiO2 
 PCOD8126118
Probable space group: P 21/C
;
_chemical_formula_sum "Si O2"
_cell_formula_units_Z 32
_cell_length_a 8.762138
_cell_length_b 21.049116
_cell_length_c 14.083771
_cell_angle_alpha 90.000000
_cell_angle_beta 140.973632
_cell_angle_gamma 90.000000
_cell_volume 1635.616213
_symmetry_space_group_name_H-M "P 21/C"
_symmetry_group_IT_number 14
_symmetry_cell_setting 'monoclinic'
loop_
_space_group_symop_operation_xyz
x,y,z
-x,1/2+y,1/2-z
-x,-y,-z
x,1/2-y,1/2+z
loop_
_atom_site_type_symbol
_atom_site_label
_atom_site_fract_x
_atom_site_fract_y
_atom_site_fract_z
Si Si1 0.199407 0.408184 0.438355
Si Si2 0.195847 0.822993 0.333049
Si Si3 0.739856 0.128765 0.161632
Si Si4 0.670182 0.236727 0.265088
Si Si5 0.305913 0.351021 0.674495
Si Si6 0.120920 0.787400 0.937995
Si Si7 0.908683 0.983682 0.699939
Si Si8 0.436108 0.929026 0.558462
O O1 0.483136 0.405283 0.551473
O O2 0.164473 0.398609 0.535142
O O3 0.061361 0.349838 0.323768
O O4 0.092923 0.475018 0.352610
O O5 0.349746 0.789903 0.324767
O O6 0.113454 0.778853 0.379939
O O7 0.382183 0.877790 0.451224
O O8 0.809144 0.177732 0.280556
O O9 0.722722 0.163578 0.050253
O O10 0.951160 0.077047 0.270458
O O11 0.406605 0.209999 0.165682
O O12 0.789141 0.270788 0.413138
O O13 0.532280 0.390872 0.827702
O O14 0.137762 0.322774 0.676435
O O15 0.686762 0.965180 0.660726
O O16 0.793161 0.022168 0.553826
#
# Coordination Sequence:
#
# PCOD8126118 Si02
#       8
#     4   4   4   4   4   4   4   4
#     4  10  22  38  62  88 120 158 201 250 294 351
#     4  10  21  38  61  89 124 158 195 243 307 362
#     4  10  22  39  61  88 122 159 199 245 304 356
#     4  10  22  37  58  93 122 152 194 246 301 363
#     4  11  21  37  60  91 121 152 205 249 299 358
#     4  11  21  36  61  88 124 155 194 243 310 358
#     4  10  21  41  62  82 118 162 204 245 302 346
#     4  10  21  38  62  86 116 161 201 249 296 352
#
# _framework density 19.564492000000001
#
# number of rings (size 3 to 8) (size 9 to 14) (size 15 to 20)
#    0.000    1.750    3.750    0.375    1.750    2.500 
#    0.000    2.500    2.750    0.000    0.000    0.000 
#    0.000    0.000    0.000    0.000    0.000    0.000 
#
# Total GULP energy -396528.464527 kJ/mol
# GULP energy per Si atom -12391.514516 kJ/mol
# Density = 1.951996 g / cm^3
# Si number density = 19.564492 Si / 1000 Ang^3
#
#
#
# Elastic Constant Matrix: (Units=GPa)
#
#
# Indices 1 2 3 4 5 6 
#
# 1 87.2756 37.4505 30.4411 0.0000 -7.2490 0.0000
# 2 37.4505 101.8967 46.9397 0.0000 -3.0936 0.0000
# 3 30.4411 46.9397 97.4729 0.0000 -7.4001 0.0000
# 4 0.0000 0.0000 0.0000 31.9629 0.0000 2.5777
# 5 -7.2490 -3.0936 -7.4001 0.0000 29.2831 0.0000
# 6 0.0000 0.0000 0.0000 2.5777 0.0000 27.9674
#
#
#
# Elastic Compliance Matrix: (Units=1/GPa)
#
#
# Indices 1 2 3 4 5 6 
#
# 1 0.014220 -0.004102 -0.002275 0.000000 0.002512 0.000000
# 2 -0.004102 0.013796 -0.005433 0.000000 -0.000931 0.000000
# 3 -0.002275 -0.005433 0.013764 0.000000 0.002341 0.000000
# 4 0.000000 0.000000 0.000000 0.031521 0.000000 -0.002905
# 5 0.002512 -0.000931 0.002341 0.000000 0.035265 0.000000
# 6 0.000000 0.000000 0.000000 -0.002905 0.000000 0.036024
#
#
# Mechanical properties :
#
#
# Convention : Reuss Voigt Hill
#
# Bulk Modulus (GPa) = 55.06718 57.36756 56.21737
# Shear Modulus (GPa) = 28.69220 29.29694 28.99457
#
# Velocity S-wave (km/s) = 3.83370 3.87389 3.85385
# Velocity P-wave (km/s) = 6.91404 7.02818 6.97135
#
# Compressibility (1/GPa) = 0.01815964
#
# Stress axis : x y z
#
# Youngs Moduli (GPa) = 70.32175 72.48351 72.65355
#
# Poissons Ratio (x) = 0.29735 0.16527
# Poissons Ratio (y) = 0.28848 0.39475
# Poissons Ratio (z) = 0.15997 0.39383
#
# Static dielectric constant tensor:
#      x y z
#    x 3.491100 0.000000 -0.115200 
#    y 0.000000 3.816310 0.000000 
#    z -0.115200 0.000000 3.610520 
# 
# 
# High freq. dielectric constant tensor:
#      x y z
#    x 1.752220 0.000000 -0.005320 
#    y 0.000000 1.774500 0.000000 
#    z -0.005320 0.000000 1.758580 
# 
# From -- ./inp_files/42012.got.cif
#   From: 2010.03.12/outbox.cif.g09.slc.cpg/sg14_22_cif.got.tgz:42012.got - 2010.03.31 13:35:05.
