data_PCOD8126424
_publ_section_title
;
Structure prediction by ZEFSAII (Michael W. Deem and Ramdas Pophale) SiO2 
 PCOD8126424
Probable space group: P 21/C
;
_chemical_formula_sum "Si O2"
_cell_formula_units_Z 20
_cell_length_a 8.758530
_cell_length_b 7.901513
_cell_length_c 17.772769
_cell_angle_alpha 90.000000
_cell_angle_beta 136.119777
_cell_angle_gamma 90.000000
_cell_volume 852.561524
_symmetry_space_group_name_H-M "P 21/C"
_symmetry_group_IT_number 14
_symmetry_cell_setting 'monoclinic'
loop_
_space_group_symop_operation_xyz
x,y,z
-x,1/2+y,1/2-z
-x,-y,-z
x,1/2-y,1/2+z
loop_
_atom_site_type_symbol
_atom_site_label
_atom_site_fract_x
_atom_site_fract_y
_atom_site_fract_z
Si Si1 0.448057 0.437766 0.347788
Si Si2 0.713517 0.281460 0.166334
Si Si3 0.724425 0.493578 0.306790
Si Si4 0.010847 0.195210 0.635999
Si Si5 0.563199 0.090818 0.424430
O O1 0.438591 0.615130 0.387746
O O2 0.657911 0.437430 0.366340
O O3 0.221920 0.423053 0.220593
O O4 0.483443 0.281973 0.419551
O O5 0.795398 0.333547 0.279519
O O6 0.562928 0.435377 0.077126
O O7 0.922545 0.252937 0.187436
O O8 0.922196 0.630759 0.382423
O O9 0.509963 0.578685 0.189657
O O10 0.827647 0.086048 0.526054
#
# Coordination Sequence:
#
# PCOD8126424 Si02
#       5
#     4   4   4   4   4
#     4  11  22  42  62  85 133 159 200 261 300 366
#     4  10  21  40  62  91 122 163 203 249 307 365
#     4   9  22  41  59  90 125 159 201 254 300 362
#     4  11  21  41  64  88 125 164 203 256 306 359
#     4   9  23  39  62  93 122 154 214 248 303 368
#
# _framework density 23.45872
#
# number of rings (size 3 to 8) (size 9 to 14) (size 15 to 20)
#    1.200    0.800    0.000    4.200    0.000    2.400 
#    3.600    0.000    0.000    0.000    0.000    0.000 
#    0.000    0.000    0.000    0.000    0.000    0.000 
#
# Total GULP energy -247800.415506 kJ/mol
# GULP energy per Si atom -12390.020775 kJ/mol
# Density = 2.340533 g / cm^3
# Si number density = 23.458720 Si / 1000 Ang^3
#
#
#
# Elastic Constant Matrix: (Units=GPa)
#
#
# Indices 1 2 3 4 5 6 
#
# 1 113.5200 42.9927 -5.7551 0.0000 25.8797 0.0000
# 2 42.9927 168.5312 13.4693 0.0000 16.1816 0.0000
# 3 -5.7551 13.4693 68.3791 0.0000 28.3863 0.0000
# 4 0.0000 0.0000 0.0000 24.7531 0.0000 -1.5648
# 5 25.8797 16.1816 28.3863 0.0000 22.9427 0.0000
# 6 0.0000 0.0000 0.0000 -1.5648 0.0000 -52.8098
#
#
#
# Elastic Compliance Matrix: (Units=1/GPa)
#
#
# Indices 1 2 3 4 5 6 
#
# 1 0.025316 -0.002810 0.028201 0.000000 -0.061467 0.000000
# 2 -0.002810 0.006729 -0.001866 0.000000 0.000733 0.000000
# 3 0.028201 -0.001866 0.061733 0.000000 -0.106875 0.000000
# 4 0.000000 0.000000 0.000000 0.040323 0.000000 -0.001195
# 5 -0.061467 0.000733 -0.106875 0.000000 0.244638 0.000000
# 6 0.000000 0.000000 0.000000 -0.001195 0.000000 -0.018900
#
#
# Mechanical properties :
#
#
# Convention : Reuss Voigt Hill
#
# Bulk Modulus (GPa) = 7.10091 50.20490 28.65291
# Shear Modulus (GPa) = 13.89922 18.95876 16.42899
#
# Velocity S-wave (km/s) = 2.43677 2.84593 2.64926
# Velocity P-wave (km/s) = 3.30918 5.67864 4.64745
#
# Compressibility (1/GPa) = 0.14082704
#
# Stress axis : x y z
#
# Youngs Moduli (GPa) = 39.50074 148.60373 16.19891
#
# Poissons Ratio (x) = 0.41761 -0.45683
# Poissons Ratio (y) = 0.11101 0.03023
# Poissons Ratio (z) = -1.11397 0.27734
#
# Static dielectric constant tensor:
#      x y z
#    x 3.808090 0.000000 0.098490 
#    y 0.000000 4.334600 0.000000 
#    z 0.098490 0.000000 3.833040 
# 
# 
# High freq. dielectric constant tensor:
#      x y z
#    x 1.909230 0.000000 0.002730 
#    y 0.000000 1.938610 0.000000 
#    z 0.002730 0.000000 1.906760 
# 
# From -- ./inp_files/38727.got.cif
#   From: 2010.03.12/outbox.cif.g09.slc.cpg/sg14_20_cif.got.tgz:38727.got - 2010.03.31 13:35:05.
