data_PCOD8126680
_publ_section_title
;
Structure prediction by ZEFSAII (Michael W. Deem and Ramdas Pophale) SiO2 
 PCOD8126680
Probable space group: P 21/C
;
_chemical_formula_sum "Si O2"
_cell_formula_units_Z 28
_cell_length_a 8.408353
_cell_length_b 14.041336
_cell_length_c 12.741743
_cell_angle_alpha 90.000000
_cell_angle_beta 120.129266
_cell_angle_gamma 90.000000
_cell_volume 1301.102966
_symmetry_space_group_name_H-M "P 21/C"
_symmetry_group_IT_number 14
_symmetry_cell_setting 'monoclinic'
loop_
_space_group_symop_operation_xyz
x,y,z
-x,1/2+y,1/2-z
-x,-y,-z
x,1/2-y,1/2+z
loop_
_atom_site_type_symbol
_atom_site_label
_atom_site_fract_x
_atom_site_fract_y
_atom_site_fract_z
Si Si1 0.648320 0.463031 0.467813
Si Si2 0.951105 0.414094 0.144893
Si Si3 0.072035 0.372440 0.404088
Si Si4 0.633588 0.888506 0.277216
Si Si5 0.752030 0.772965 0.688551
Si Si6 0.340367 0.434707 0.982049
Si Si7 0.095121 0.793035 0.940599
O O1 0.500000 0.500000 0.500000
O O2 0.813259 0.538949 0.509023
O O3 0.535676 0.451573 0.321754
O O4 0.731747 0.360428 0.531704
O O5 0.849831 0.507784 0.070032
O O6 0.864730 0.320670 0.057761
O O7 0.930967 0.406713 0.265436
O O8 0.167123 0.428540 0.191979
O O9 0.207456 0.297034 0.395387
O O10 0.960678 0.319874 0.458964
O O11 0.620010 0.780756 0.227868
O O12 0.617895 0.881915 0.396122
O O13 0.648800 0.861709 0.608925
O O14 0.933500 0.813410 0.804821
O O15 0.500000 0.500000 0.000000
#
# Coordination Sequence:
#
# PCOD8126680 Si02
#       7
#     4   4   4   4   4   4   4
#     4  12  22  40  66  99 133 168 222 286 332 399
#     4  10  23  46  66  93 137 180 220 276 338 404
#     4  10  21  41  68  93 127 178 227 274 328 403
#     4  10  24  44  65  96 136 176 218 269 342 398
#     4  10  22  44  66  89 133 173 224 273 330 396
#     4  12  27  42  68 101 133 174 223 278 332 403
#     4  10  23  39  69  93 128 178 226 273 333 398
#
# _framework density 21.520201
#
# number of rings (size 3 to 8) (size 9 to 14) (size 15 to 20)
#    0.000    1.714    2.857    3.429    6.000    0.000 
#    2.571    0.000    0.000    0.000    0.000    0.000 
#    0.000    0.000    0.000    0.000    0.000    0.000 
#
# Total GULP energy -347039.981734 kJ/mol
# GULP energy per Si atom -12394.285062 kJ/mol
# Density = 2.147122 g / cm^3
# Si number density = 21.520201 Si / 1000 Ang^3
#
#
#
# Elastic Constant Matrix: (Units=GPa)
#
#
# Indices 1 2 3 4 5 6 
#
# 1 68.3735 39.8074 38.8350 0.0000 -11.3751 0.0000
# 2 39.8074 117.0182 65.5814 0.0000 -6.6217 0.0000
# 3 38.8350 65.5814 129.1129 0.0000 -15.7689 0.0000
# 4 0.0000 0.0000 0.0000 40.4135 0.0000 5.8034
# 5 -11.3751 -6.6217 -15.7689 0.0000 26.0723 0.0000
# 6 0.0000 0.0000 0.0000 5.8034 0.0000 28.8175
#
#
#
# Elastic Compliance Matrix: (Units=1/GPa)
#
#
# Indices 1 2 3 4 5 6 
#
# 1 0.020055 -0.004907 -0.002832 0.000000 0.005790 0.000000
# 2 -0.004907 0.013159 -0.005465 0.000000 -0.002104 0.000000
# 3 -0.002832 -0.005465 0.011934 0.000000 0.004594 0.000000
# 4 0.000000 0.000000 0.000000 0.025481 0.000000 -0.005131
# 5 0.005790 -0.002104 0.004594 0.000000 0.043125 0.000000
# 6 0.000000 0.000000 0.000000 -0.005131 0.000000 0.035735
#
#
# Mechanical properties :
#
#
# Convention : Reuss Voigt Hill
#
# Bulk Modulus (GPa) = 53.36590 66.99468 60.18029
# Shear Modulus (GPa) = 27.45099 30.41272 28.93185
#
# Velocity S-wave (km/s) = 3.57542 3.76336 3.67059
# Velocity P-wave (km/s) = 6.47277 7.07690 6.78156
#
# Compressibility (1/GPa) = 0.01873856
#
# Stress axis : x y z
#
# Youngs Moduli (GPa) = 49.86388 75.99597 83.79466
#
# Poissons Ratio (x) = 0.37293 0.23734
# Poissons Ratio (y) = 0.24469 0.45792
# Poissons Ratio (z) = 0.14123 0.41530
#
# Static dielectric constant tensor:
#      x y z
#    x 3.909330 0.000000 -0.041480 
#    y 0.000000 4.289980 0.000000 
#    z -0.041480 0.000000 4.198590 
# 
# 
# High freq. dielectric constant tensor:
#      x y z
#    x 1.827390 0.000000 0.000560 
#    y 0.000000 1.847130 0.000000 
#    z 0.000560 0.000000 1.856650 
# 
# From -- ./inp_files/25585.got.cif
#   From: 2010.03.12/outbox.cif.g09.slc.cpg/sg14_13_cif.got.tgz:25585.got - 2010.03.31 13:35:05.
