data_PCOD8126521
_publ_section_title
;
Structure prediction by ZEFSAII (Michael W. Deem and Ramdas Pophale) SiO2 
 PCOD8126521
Probable space group: P 21/C
;
_chemical_formula_sum "Si O2"
_cell_formula_units_Z 24
_cell_length_a 22.897613
_cell_length_b 8.350077
_cell_length_c 15.008194
_cell_angle_alpha 90.000000
_cell_angle_beta 157.950454
_cell_angle_gamma 90.000000
_cell_volume 1077.241093
_symmetry_space_group_name_H-M "P 21/C"
_symmetry_group_IT_number 14
_symmetry_cell_setting 'monoclinic'
loop_
_space_group_symop_operation_xyz
x,y,z
-x,1/2+y,1/2-z
-x,-y,-z
x,1/2-y,1/2+z
loop_
_atom_site_type_symbol
_atom_site_label
_atom_site_fract_x
_atom_site_fract_y
_atom_site_fract_z
Si Si1 0.366654 0.006187 0.462641
Si Si2 0.553333 0.206810 0.008996
Si Si3 0.740882 0.971935 0.382441
Si Si4 0.852283 0.351558 0.206272
Si Si5 0.323680 0.555099 0.495672
Si Si6 0.822004 0.698153 0.824573
O O1 0.400747 0.894823 0.424444
O O2 0.220559 0.947635 0.314539
O O3 0.521480 0.990335 0.740172
O O4 0.329026 0.185580 0.375868
O O5 0.625967 0.119836 0.197396
O O6 0.367829 0.176138 0.740041
O O7 0.633425 0.138248 0.035043
O O8 0.842392 0.911894 0.441750
O O9 0.851649 0.034897 0.617872
O O10 0.028640 0.308154 0.479858
O O11 0.761805 0.183650 0.061702
O O12 0.207852 0.408504 0.306178
#
# Coordination Sequence:
#
# PCOD8126521 Si02
#       6
#     4   4   4   4   4   4
#     4  11  22  40  66  95 118 169 224 267 314 383
#     4   9  20  38  62  88 123 162 216 273 310 372
#     4  10  22  41  60  88 134 168 209 267 327 378
#     4  11  23  42  64  91 130 172 210 265 321 383
#     4  10  21  40  67  93 120 168 220 263 314 376
#     4  11  24  41  63  96 134 166 210 268 331 381
#
# _framework density 22.279133999999999
#
# number of rings (size 3 to 8) (size 9 to 14) (size 15 to 20)
#    0.000    1.667    1.667    3.000    4.667    2.000 
#    3.000    1.667    0.000    0.000    0.000    0.000 
#    0.000    0.000    0.000    0.000    0.000    0.000 
#
# Total GULP energy -297560.167782 kJ/mol
# GULP energy per Si atom -12398.340324 kJ/mol
# Density = 2.222843 g / cm^3
# Si number density = 22.279134 Si / 1000 Ang^3
#
#
#
# Elastic Constant Matrix: (Units=GPa)
#
#
# Indices 1 2 3 4 5 6 
#
# 1 53.2599 31.7361 25.2122 0.0000 -3.9771 0.0000
# 2 31.7361 99.3429 22.5788 0.0000 -5.7283 0.0000
# 3 25.2122 22.5788 97.5009 0.0000 5.0950 0.0000
# 4 0.0000 0.0000 0.0000 41.6969 0.0000 -1.2805
# 5 -3.9771 -5.7283 5.0950 0.0000 17.2483 0.0000
# 6 0.0000 0.0000 0.0000 -1.2805 0.0000 35.3374
#
#
#
# Elastic Compliance Matrix: (Units=1/GPa)
#
#
# Indices 1 2 3 4 5 6 
#
# 1 0.025697 -0.006683 -0.005374 0.000000 0.005293 0.000000
# 2 -0.006683 0.012690 -0.001372 0.000000 0.003079 0.000000
# 3 -0.005374 -0.001372 0.012241 0.000000 -0.005311 0.000000
# 4 0.000000 0.000000 0.000000 0.024009 0.000000 0.000870
# 5 0.005293 0.003079 -0.005311 0.000000 0.061789 0.000000
# 6 0.000000 0.000000 0.000000 0.000870 0.000000 0.028330
#
#
# Mechanical properties :
#
#
# Convention : Reuss Voigt Hill
#
# Bulk Modulus (GPa) = 42.06619 45.46200 43.76409
# Shear Modulus (GPa) = 25.05805 30.22827 27.64316
#
# Velocity S-wave (km/s) = 3.35734 3.68747 3.52627
# Velocity P-wave (km/s) = 5.82678 6.21127 6.02209
#
# Compressibility (1/GPa) = 0.02377206
#
# Stress axis : x y z
#
# Youngs Moduli (GPa) = 38.91510 78.80075 81.69214
#
# Poissons Ratio (x) = 0.52659 0.43901
# Poissons Ratio (y) = 0.26005 0.11205
# Poissons Ratio (z) = 0.20913 0.10809
#
# Static dielectric constant tensor:
#      x y z
#    x 3.824600 0.000000 0.018700 
#    y 0.000000 4.551370 0.000000 
#    z 0.018700 0.000000 3.721960 
# 
# 
# High freq. dielectric constant tensor:
#      x y z
#    x 1.859640 0.000000 0.002490 
#    y 0.000000 1.890730 0.000000 
#    z 0.002490 0.000000 1.861930 
# 
# From -- ./inp_files/62260.got.cif
#   From: 2010.03.12/outbox.cif.g09.slc.cpg/sg14_32_cif.got.tgz:62260.got - 2010.03.31 13:35:05.
