data_PCOD8126230
_publ_section_title
;
Structure prediction by ZEFSAII (Michael W. Deem and Ramdas Pophale) SiO2 
 PCOD8126230
Probable space group: P 21/C
;
_chemical_formula_sum "Si O2"
_cell_formula_units_Z 28
_cell_length_a 14.862846
_cell_length_b 11.502668
_cell_length_c 10.798940
_cell_angle_alpha 90.000000
_cell_angle_beta 44.961760
_cell_angle_gamma 90.000000
_cell_volume 1304.597811
_symmetry_space_group_name_H-M "P 21/C"
_symmetry_group_IT_number 14
_symmetry_cell_setting 'monoclinic'
loop_
_space_group_symop_operation_xyz
x,y,z
-x,1/2+y,1/2-z
-x,-y,-z
x,1/2-y,1/2+z
loop_
_atom_site_type_symbol
_atom_site_label
_atom_site_fract_x
_atom_site_fract_y
_atom_site_fract_z
Si Si1 0.680784 0.500046 0.713961
Si Si2 0.801884 0.445134 0.198928
Si Si3 0.854841 0.790685 0.010057
Si Si4 0.957078 0.846995 0.646524
Si Si5 0.595830 0.071835 0.548934
Si Si6 0.642998 0.320725 0.537137
Si Si7 0.364661 0.391895 0.791698
O O1 0.807605 0.578914 0.585179
O O2 0.555976 0.581391 0.824463
O O3 0.685716 0.402162 0.605895
O O4 0.675525 0.428086 0.845345
O O5 0.868971 0.539363 0.222970
O O6 0.747841 0.337699 0.328983
O O7 0.682064 0.510332 0.256839
O O8 0.897726 0.392061 0.003639
O O9 0.930511 0.740632 0.055989
O O10 0.731106 0.714361 0.104148
O O11 0.937752 0.788799 0.801276
O O12 0.640639 0.185760 0.581689
O O13 0.628170 0.950280 0.581019
O O14 0.504486 0.351051 0.615306
#
# Coordination Sequence:
#
# PCOD8126230 Si02
#       7
#     4   4   4   4   4   4   4
#     4  10  21  39  60  89 131 164 210 258 321 386
#     4  10  22  41  59  90 123 167 216 260 308 385
#     4  11  20  43  67  95 124 177 213 265 324 388
#     4  10  23  40  68  87 128 168 220 262 313 377
#     4  10  22  37  57  96 129 162 204 265 319 389
#     4  11  21  38  62  91 127 169 201 264 327 379
#     4  10  22  38  63  94 127 163 212 262 323 384
#
# _framework density 21.462551999999999
#
# number of rings (size 3 to 8) (size 9 to 14) (size 15 to 20)
#    0.000    1.714    2.857    1.286    2.000    1.143 
#    0.000    0.000    0.000    5.143    0.000    0.000 
#    0.000    0.000    0.000    0.000    0.000    0.000 
#
# Total GULP energy -347112.824910 kJ/mol
# GULP energy per Si atom -12396.886604 kJ/mol
# Density = 2.141370 g / cm^3
# Si number density = 21.462552 Si / 1000 Ang^3
#
#
#
# Elastic Constant Matrix: (Units=GPa)
#
#
# Indices 1 2 3 4 5 6 
#
# 1 36.2772 13.7636 16.7104 0.0000 1.1490 0.0000
# 2 13.7636 100.4898 24.7754 0.0000 4.6971 0.0000
# 3 16.7104 24.7754 100.9741 0.0000 18.3535 0.0000
# 4 0.0000 0.0000 0.0000 27.5410 0.0000 -0.7823
# 5 1.1490 4.6971 18.3535 0.0000 20.2826 0.0000
# 6 0.0000 0.0000 0.0000 -0.7823 0.0000 14.9548
#
#
#
# Elastic Compliance Matrix: (Units=1/GPa)
#
#
# Indices 1 2 3 4 5 6 
#
# 1 0.030952 -0.003175 -0.004977 0.000000 0.003485 0.000000
# 2 -0.003175 0.010918 -0.002066 0.000000 -0.000479 0.000000
# 3 -0.004977 -0.002066 0.013280 0.000000 -0.011257 0.000000
# 4 0.000000 0.000000 0.000000 0.036363 0.000000 0.001902
# 5 0.003485 -0.000479 -0.011257 0.000000 0.059403 0.000000
# 6 0.000000 0.000000 0.000000 0.001902 0.000000 0.066968
#
#
# Mechanical properties :
#
#
# Convention : Reuss Voigt Hill
#
# Bulk Modulus (GPa) = 28.80716 38.69333 33.75025
# Shear Modulus (GPa) = 20.00858 24.72179 22.36518
#
# Velocity S-wave (km/s) = 3.05660 3.39758 3.23159
# Velocity P-wave (km/s) = 5.09001 5.78436 5.44826
#
# Compressibility (1/GPa) = 0.03471359
#
# Stress axis : x y z
#
# Youngs Moduli (GPa) = 32.30781 91.59194 75.29989
#
# Poissons Ratio (x) = 0.29083 0.37475
# Poissons Ratio (y) = 0.10259 0.15560
# Poissons Ratio (z) = 0.16079 0.18927
#
# Static dielectric constant tensor:
#      x y z
#    x 3.738520 0.000000 -0.037630 
#    y 0.000000 3.864160 0.000000 
#    z -0.037630 0.000000 3.797990 
# 
# 
# High freq. dielectric constant tensor:
#      x y z
#    x 1.824710 0.000000 -0.001310 
#    y 0.000000 1.848100 0.000000 
#    z -0.001310 0.000000 1.843760 
# 
# From -- ./inp_files/33799.got.cif
#   From: 2010.03.12/outbox.cif.g09.slc.cpg/sg14_17_cif.got.tgz:33799.got - 2010.03.31 13:35:05.
