data_PCOD8126515
_publ_section_title
;
Structure prediction by ZEFSAII (Michael W. Deem and Ramdas Pophale) SiO2 
 PCOD8126515
Probable space group: P 21/C
;
_chemical_formula_sum "Si O2"
_cell_formula_units_Z 32
_cell_length_a 17.416264
_cell_length_b 13.721866
_cell_length_c 12.205369
_cell_angle_alpha 90.000000
_cell_angle_beta 148.720322
_cell_angle_gamma 90.000000
_cell_volume 1514.492638
_symmetry_space_group_name_H-M "P 21/C"
_symmetry_group_IT_number 14
_symmetry_cell_setting 'monoclinic'
loop_
_space_group_symop_operation_xyz
x,y,z
-x,1/2+y,1/2-z
-x,-y,-z
x,1/2-y,1/2+z
loop_
_atom_site_type_symbol
_atom_site_label
_atom_site_fract_x
_atom_site_fract_y
_atom_site_fract_z
Si Si1 0.481115 0.375276 0.385821
Si Si2 0.279605 0.471603 0.297106
Si Si3 0.159807 0.020743 0.242896
Si Si4 0.847458 0.407007 0.045077
Si Si5 0.658626 0.034175 0.730231
Si Si6 0.607510 0.248466 0.212333
Si Si7 0.670196 0.707140 0.996186
Si Si8 0.819085 0.608228 0.596088
O O1 0.335673 0.385409 0.285545
O O2 0.570269 0.475807 0.481730
O O3 0.587128 0.289718 0.562718
O O4 0.436236 0.357399 0.207636
O O5 0.185725 0.435005 0.286606
O O6 0.176500 0.542913 0.101321
O O7 0.210999 0.135127 0.299364
O O8 0.177404 0.984234 0.388297
O O9 0.257974 0.956572 0.282354
O O10 0.000000 0.000000 0.000000
O O11 0.016876 0.373315 0.249609
O O12 0.733358 0.317370 0.924648
O O13 0.659604 0.140651 0.784939
O O14 0.500000 0.000000 0.500000
O O15 0.731230 0.959486 0.904193
O O16 0.442421 0.236260 0.061043
O O17 0.750591 0.784472 0.016385
#
# Coordination Sequence:
#
# PCOD8126515 Si02
#       8
#     4   4   4   4   4   4   4   4
#     4  10  21  40  67 102 127 172 226 289 331 403
#     4  10  21  43  70  92 135 173 230 276 341 399
#     4  12  27  49  69  98 145 188 225 288 357 415
#     4  11  26  47  67 100 139 181 228 284 346 418
#     4  12  26  45  72 104 142 182 233 288 344 415
#     4  11  25  43  70 105 132 178 232 286 344 410
#     4  12  25  42  71  99 135 180 232 279 349 410
#     4  12  26  43  68 102 138 184 229 280 348 416
#
# _framework density 21.129187999999999
#
# number of rings (size 3 to 8) (size 9 to 14) (size 15 to 20)
#    0.000    0.750    5.000    1.875    5.250    0.000 
#    0.000    0.000    0.000    0.000    0.000    0.000 
#    0.000    0.000    0.000    0.000    0.000    0.000 
#
# Total GULP energy -396679.895978 kJ/mol
# GULP energy per Si atom -12396.246749 kJ/mol
# Density = 2.108110 g / cm^3
# Si number density = 21.129188 Si / 1000 Ang^3
#
#
#
# Elastic Constant Matrix: (Units=GPa)
#
#
# Indices 1 2 3 4 5 6 
#
# 1 94.5138 13.4311 20.1165 0.0000 15.5014 0.0000
# 2 13.4311 99.9358 36.0865 0.0000 11.8859 0.0000
# 3 20.1165 36.0865 110.6678 0.0000 12.4733 0.0000
# 4 0.0000 0.0000 0.0000 36.3497 0.0000 -0.8243
# 5 15.5014 11.8859 12.4733 0.0000 41.7328 0.0000
# 6 0.0000 0.0000 0.0000 -0.8243 0.0000 35.0388
#
#
#
# Elastic Compliance Matrix: (Units=1/GPa)
#
#
# Indices 1 2 3 4 5 6 
#
# 1 0.011587 -0.000576 -0.001503 0.000000 -0.003691 0.000000
# 2 -0.000576 0.011569 -0.003436 0.000000 -0.002054 0.000000
# 3 -0.001503 -0.003436 0.010614 0.000000 -0.001636 0.000000
# 4 0.000000 0.000000 0.000000 0.027525 0.000000 0.000648
# 5 -0.003691 -0.002054 -0.001636 0.000000 0.026407 0.000000
# 6 0.000000 0.000000 0.000000 0.000648 0.000000 0.028555
#
#
# Mechanical properties :
#
#
# Convention : Reuss Voigt Hill
#
# Bulk Modulus (GPa) = 43.97280 49.37617 46.67449
# Shear Modulus (GPa) = 37.07358 38.32315 37.69836
#
# Velocity S-wave (km/s) = 4.19336 4.26344 4.22854
# Velocity P-wave (km/s) = 6.65599 6.90328 6.78077
#
# Compressibility (1/GPa) = 0.02274133
#
# Stress axis : x y z
#
# Youngs Moduli (GPa) = 86.30018 86.43854 94.21525
#
# Poissons Ratio (x) = 0.04977 0.14156
# Poissons Ratio (y) = 0.04969 0.32374
# Poissons Ratio (z) = 0.12967 0.29702
#
# Static dielectric constant tensor:
#      x y z
#    x 4.007990 0.000000 0.034210 
#    y 0.000000 3.724870 0.000000 
#    z 0.034210 0.000000 3.820960 
# 
# 
# High freq. dielectric constant tensor:
#      x y z
#    x 1.834520 0.000000 -0.001420 
#    y 0.000000 1.828050 0.000000 
#    z -0.001420 0.000000 1.831850 
# 
# From -- ./inp_files/34193.got.cif
#   From: 2010.03.12/outbox.cif.g09.slc.cpg/sg14_18_cif.got.tgz:34193.got - 2010.03.31 13:35:05.
