data_PCOD8126311
_publ_section_title
;
Structure prediction by ZEFSAII (Michael W. Deem and Ramdas Pophale) SiO2 
 PCOD8126311
Probable space group: P 21/C
;
_chemical_formula_sum "Si O2"
_cell_formula_units_Z 32
_cell_length_a 7.648675
_cell_length_b 16.120920
_cell_length_c 13.715640
_cell_angle_alpha 90.000000
_cell_angle_beta 121.565434
_cell_angle_gamma 90.000000
_cell_volume 1440.965448
_symmetry_space_group_name_H-M "P 21/C"
_symmetry_group_IT_number 14
_symmetry_cell_setting 'monoclinic'
loop_
_space_group_symop_operation_xyz
x,y,z
-x,1/2+y,1/2-z
-x,-y,-z
x,1/2-y,1/2+z
loop_
_atom_site_type_symbol
_atom_site_label
_atom_site_fract_x
_atom_site_fract_y
_atom_site_fract_z
Si Si1 0.014387 0.490143 0.655381
Si Si2 0.167782 0.832042 0.249700
Si Si3 0.718675 0.043800 0.456222
Si Si4 0.724441 0.018707 0.242917
Si Si5 0.917059 0.861993 0.353044
Si Si6 0.276997 0.426928 0.573902
Si Si7 0.440852 0.370407 0.025411
Si Si8 0.125143 0.248145 0.972786
O O1 0.910554 0.455031 0.724146
O O2 0.835586 0.505017 0.525168
O O3 0.143775 0.572479 0.714025
O O4 0.181323 0.427780 0.656048
O O5 0.011979 0.810125 0.291886
O O6 0.402023 0.822809 0.354492
O O7 0.099880 0.770704 0.140764
O O8 0.932776 0.062674 0.570697
O O9 0.544528 0.100114 0.455711
O O10 0.743347 0.068225 0.350396
O O11 0.663944 0.947079 0.448979
O O12 0.722954 0.917523 0.259739
O O13 0.511818 0.046938 0.134846
O O14 0.883497 0.795444 0.427099
O O15 0.248276 0.336711 0.520563
O O16 0.264270 0.305602 0.943341
#
# Coordination Sequence:
#
# PCOD8126311 Si02
#       8
#     4   4   4   4   4   4   4   4
#     4   9  20  40  65  89 124 173 225 272 320 392
#     4   9  21  42  63  88 131 174 207 276 340 381
#     4  10  21  39  64  93 121 165 223 265 321 396
#     4  11  20  37  67  95 122 171 223 272 322 385
#     4  10  22  41  62  93 129 166 218 272 326 392
#     4  10  22  40  61  94 129 172 226 268 325 409
#     4  10  21  40  65  92 128 168 214 268 325 397
#     4  11  23  41  62  96 137 167 212 273 340 393
#
# _framework density 22.207332000000001
#
# number of rings (size 3 to 8) (size 9 to 14) (size 15 to 20)
#    0.000    2.000    1.250    1.500    0.000    3.000 
#    6.750    1.250    0.000    0.000    0.000    0.000 
#    0.000    0.000    0.000    0.000    0.000    0.000 
#
# Total GULP energy -396618.799914 kJ/mol
# GULP energy per Si atom -12394.337497 kJ/mol
# Density = 2.215679 g / cm^3
# Si number density = 22.207332 Si / 1000 Ang^3
#
#
#
# Elastic Constant Matrix: (Units=GPa)
#
#
# Indices 1 2 3 4 5 6 
#
# 1 78.7520 29.2408 12.1693 0.0000 -12.5077 0.0000
# 2 29.2408 74.9302 18.6094 0.0000 3.9812 0.0000
# 3 12.1693 18.6094 62.1318 0.0000 -8.8266 0.0000
# 4 0.0000 0.0000 0.0000 36.2039 0.0000 0.8682
# 5 -12.5077 3.9812 -8.8266 0.0000 36.5638 0.0000
# 6 0.0000 0.0000 0.0000 0.8682 0.0000 28.8822
#
#
#
# Elastic Compliance Matrix: (Units=1/GPa)
#
#
# Indices 1 2 3 4 5 6 
#
# 1 0.016160 -0.006553 -0.000327 0.000000 0.006163 0.000000
# 2 -0.006553 0.017338 -0.004656 0.000000 -0.005253 0.000000
# 3 -0.000327 -0.004656 0.018235 0.000000 0.004797 0.000000
# 4 0.000000 0.000000 0.000000 0.027641 0.000000 -0.000831
# 5 0.006163 -0.005253 0.004797 0.000000 0.031188 0.000000
# 6 0.000000 0.000000 0.000000 -0.000831 0.000000 0.034648
#
#
# Mechanical properties :
#
#
# Convention : Reuss Voigt Hill
#
# Bulk Modulus (GPa) = 34.88921 37.31700 36.10311
# Shear Modulus (GPa) = 28.11574 30.71628 29.41601
#
# Velocity S-wave (km/s) = 3.56203 3.72312 3.64346
# Velocity P-wave (km/s) = 5.71508 5.94328 5.83030
#
# Compressibility (1/GPa) = 0.02866216
#
# Stress axis : x y z
#
# Youngs Moduli (GPa) = 61.87961 57.67576 54.83991
#
# Poissons Ratio (x) = 0.37793 0.01794
# Poissons Ratio (y) = 0.40547 0.25533
# Poissons Ratio (z) = 0.02024 0.26854
#
# Static dielectric constant tensor:
#      x y z
#    x 4.154840 0.000000 -0.149970 
#    y 0.000000 3.718590 0.000000 
#    z -0.149970 0.000000 4.212240 
# 
# 
# High freq. dielectric constant tensor:
#      x y z
#    x 1.879090 0.000000 -0.006150 
#    y 0.000000 1.844570 0.000000 
#    z -0.006150 0.000000 1.878380 
# 
# From -- ./inp_files/41240.got.cif
#   From: 2010.03.12/outbox.cif.g09.slc.cpg/sg14_21_cif.got.tgz:41240.got - 2010.03.31 13:35:05.
