data_PCOD8126438
_publ_section_title
;
Structure prediction by ZEFSAII (Michael W. Deem and Ramdas Pophale) SiO2 
 PCOD8126438
Probable space group: P 21/C
;
_chemical_formula_sum "Si O2"
_cell_formula_units_Z 32
_cell_length_a 26.948908
_cell_length_b 5.484699
_cell_length_c 14.306827
_cell_angle_alpha 90.000000
_cell_angle_beta 138.739450
_cell_angle_gamma 90.000000
_cell_volume 1394.574496
_symmetry_space_group_name_H-M "P 21/C"
_symmetry_group_IT_number 14
_symmetry_cell_setting 'monoclinic'
loop_
_space_group_symop_operation_xyz
x,y,z
-x,1/2+y,1/2-z
-x,-y,-z
x,1/2-y,1/2+z
loop_
_atom_site_type_symbol
_atom_site_label
_atom_site_fract_x
_atom_site_fract_y
_atom_site_fract_z
Si Si1 0.776027 0.472817 0.703718
Si Si2 0.333176 0.222381 0.083068
Si Si3 0.930638 0.261779 0.940570
Si Si4 0.342164 0.899007 0.444219
Si Si5 0.543805 0.416611 0.315654
Si Si6 0.013098 0.852190 0.665114
Si Si7 0.276271 0.221143 0.200318
Si Si8 0.115155 0.459496 0.458330
O O1 0.745008 0.644942 0.577516
O O2 0.865974 0.462255 0.823697
O O3 0.739563 0.205335 0.643386
O O4 0.750349 0.562964 0.770268
O O5 0.317784 0.318152 0.166066
O O6 0.393938 0.999745 0.173773
O O7 0.369446 0.433343 0.069892
O O8 0.964932 0.166878 0.889614
O O9 0.996893 0.386888 0.094587
O O10 0.890338 0.054462 0.943098
O O11 0.405759 0.684417 0.524616
O O12 0.334697 0.044488 0.336728
O O13 0.501560 0.672698 0.283764
O O14 0.939607 0.775580 0.620204
O O15 0.083650 0.856065 0.835543
O O16 0.201693 0.083595 0.058114
#
# Coordination Sequence:
#
# PCOD8126438 Si02
#       8
#     4   4   4   4   4   4   4   4
#     4  10  21  40  63  91 131 175 224 281 343 405
#     4  10  23  42  68 102 134 179 228 275 338 413
#     4  11  22  41  58  83 123 171 220 279 343 406
#     4  10  22  43  68  99 141 176 224 274 336 404
#     4  11  22  45  77 103 143 191 223 274 338 409
#     4  11  24  38  59  85 120 169 225 282 343 410
#     4  11  23  41  67  99 133 175 228 289 339 410
#     4  12  22  42  58  88 126 167 225 283 349 398
#
# _framework density 22.946065999999998
#
# number of rings (size 3 to 8) (size 9 to 14) (size 15 to 20)
#    0.000    1.250    5.000    1.125    0.000    2.000 
#    4.500    1.250    0.000    0.000    0.000    0.000 
#    0.000    0.000    0.000    0.000    0.000    0.000 
#
# Total GULP energy -396445.893047 kJ/mol
# GULP energy per Si atom -12388.934158 kJ/mol
# Density = 2.289384 g / cm^3
# Si number density = 22.946066 Si / 1000 Ang^3
#
#
#
# Elastic Constant Matrix: (Units=GPa)
#
#
# Indices 1 2 3 4 5 6 
#
# 1 90.9784 14.9986 47.7064 0.0000 -14.5502 0.0000
# 2 14.9986 68.4656 23.3832 0.0000 -0.8771 0.0000
# 3 47.7064 23.3832 95.0479 0.0000 2.1243 0.0000
# 4 0.0000 0.0000 0.0000 31.1758 0.0000 5.2092
# 5 -14.5502 -0.8771 2.1243 0.0000 41.7675 0.0000
# 6 0.0000 0.0000 0.0000 5.2092 0.0000 31.5369
#
#
#
# Elastic Compliance Matrix: (Units=1/GPa)
#
#
# Indices 1 2 3 4 5 6 
#
# 1 0.016375 -0.000715 -0.008179 0.000000 0.006105 0.000000
# 2 -0.000715 0.015989 -0.003580 0.000000 0.000269 0.000000
# 3 -0.008179 -0.003580 0.015590 0.000000 -0.003717 0.000000
# 4 0.000000 0.000000 0.000000 0.032987 0.000000 -0.005449
# 5 0.006105 0.000269 -0.003717 0.000000 0.026264 0.000000
# 6 0.000000 0.000000 0.000000 -0.005449 0.000000 0.032609
#
#
# Mechanical properties :
#
#
# Convention : Reuss Voigt Hill
#
# Bulk Modulus (GPa) = 43.47127 47.40759 45.43943
# Shear Modulus (GPa) = 28.99699 32.12296 30.55998
#
# Velocity S-wave (km/s) = 3.55872 3.74563 3.65337
# Velocity P-wave (km/s) = 5.98933 6.27787 6.13529
#
# Compressibility (1/GPa) = 0.02300370
#
# Stress axis : x y z
#
# Youngs Moduli (GPa) = 61.06860 62.54354 64.14244
#
# Poissons Ratio (x) = 0.04475 0.52465
# Poissons Ratio (y) = 0.04369 0.22965
# Poissons Ratio (z) = 0.49950 0.22393
#
# Static dielectric constant tensor:
#      x y z
#    x 3.947370 0.000000 0.148410 
#    y 0.000000 4.065880 0.000000 
#    z 0.148410 0.000000 4.370370 
# 
# 
# High freq. dielectric constant tensor:
#      x y z
#    x 1.879700 0.000000 0.013600 
#    y 0.000000 1.897060 0.000000 
#    z 0.013600 0.000000 1.916090 
# 
# From -- ./inp_files/52174.got.cif
#   From: 2010.03.12/outbox.cif.g09.slc.cpg/sg14_27_cif.got.tgz:52174.got - 2010.03.31 13:35:05.
