data_PCOD8126053
_publ_section_title
;
Structure prediction by ZEFSAII (Michael W. Deem and Ramdas Pophale) SiO2 
 PCOD8126053
Probable space group: P 21/C
;
_chemical_formula_sum "Si O2"
_cell_formula_units_Z 16
_cell_length_a 8.579493
_cell_length_b 4.934195
_cell_length_c 22.159236
_cell_angle_alpha 90.000000
_cell_angle_beta 130.305773
_cell_angle_gamma 90.000000
_cell_volume 715.370974
_symmetry_space_group_name_H-M "P 21/C"
_symmetry_group_IT_number 14
_symmetry_cell_setting 'monoclinic'
loop_
_space_group_symop_operation_xyz
x,y,z
-x,1/2+y,1/2-z
-x,-y,-z
x,1/2-y,1/2+z
loop_
_atom_site_type_symbol
_atom_site_label
_atom_site_fract_x
_atom_site_fract_y
_atom_site_fract_z
Si Si1 0.770739 0.694229 0.806245
Si Si2 0.388836 0.809921 0.295602
Si Si3 0.396225 0.387646 0.033482
Si Si4 0.872022 0.383778 0.523645
O O1 0.768650 0.405402 0.772452
O O2 0.608893 0.718699 0.819532
O O3 0.990891 0.757835 0.888920
O O4 0.714536 0.901959 0.739661
O O5 0.429793 0.778190 0.377083
O O6 0.270749 0.634096 0.034081
O O7 0.255279 0.132661 0.980490
O O8 0.500000 0.500000 0.000000
O O9 0.000000 0.500000 0.500000
#
# Coordination Sequence:
#
# PCOD8126053 Si02
#       4
#     4   4   4   4
#     4  10  21  37  65  99 127 168 226 285 321 383
#     4  10  21  38  63  97 133 170 217 277 341 388
#     4  12  26  44  67 101 143 181 217 279 353 407
#     4  12  24  42  71 103 131 174 240 280 323 400
#
# _framework density 22.366018
#
# number of rings (size 3 to 8) (size 9 to 14) (size 15 to 20)
#    0.000    1.000    2.500    4.500    7.000    0.000 
#    0.000    5.000    0.000    0.000    0.000    0.000 
#    0.000    0.000    0.000    0.000    0.000    0.000 
#
# Total GULP energy -198443.976580 kJ/mol
# GULP energy per Si atom -12402.748536 kJ/mol
# Density = 2.231511 g / cm^3
# Si number density = 22.366018 Si / 1000 Ang^3
#
#
#
# Elastic Constant Matrix: (Units=GPa)
#
#
# Indices 1 2 3 4 5 6 
#
# 1 45.3042 19.6507 43.7285 0.0000 -4.1861 0.0000
# 2 19.6507 109.7257 27.3458 0.0000 0.3860 0.0000
# 3 43.7285 27.3458 145.4840 0.0000 -11.3660 0.0000
# 4 0.0000 0.0000 0.0000 42.4741 0.0000 6.2029
# 5 -4.1861 0.3860 -11.3660 0.0000 24.9007 0.0000
# 6 0.0000 0.0000 0.0000 6.2029 0.0000 34.9748
#
#
#
# Elastic Compliance Matrix: (Units=1/GPa)
#
#
# Indices 1 2 3 4 5 6 
#
# 1 0.032399 -0.003575 -0.008956 0.000000 0.001414 0.000000
# 2 -0.003575 0.009980 -0.000892 0.000000 -0.001163 0.000000
# 3 -0.008956 -0.000892 0.009972 0.000000 0.003060 0.000000
# 4 0.000000 0.000000 0.000000 0.024170 0.000000 -0.004287
# 5 0.001414 -0.001163 0.003060 0.000000 0.041812 0.000000
# 6 0.000000 0.000000 0.000000 -0.004287 0.000000 0.029352
#
#
# Mechanical properties :
#
#
# Convention : Reuss Voigt Hill
#
# Bulk Modulus (GPa) = 39.20805 53.55155 46.37980
# Shear Modulus (GPa) = 27.31746 34.45585 30.88665
#
# Velocity S-wave (km/s) = 3.49862 3.92924 3.72016
# Velocity P-wave (km/s) = 5.82140 6.67686 6.26375
#
# Compressibility (1/GPa) = 0.02550496
#
# Stress axis : x y z
#
# Youngs Moduli (GPa) = 30.86556 100.19664 100.27896
#
# Poissons Ratio (x) = 0.35823 0.89806
# Poissons Ratio (y) = 0.11035 0.08947
# Poissons Ratio (z) = 0.27642 0.08939
#
# Static dielectric constant tensor:
#      x y z
#    x 3.742750 0.000000 0.241880 
#    y 0.000000 4.424870 0.000000 
#    z 0.241880 0.000000 4.077850 
# 
# 
# High freq. dielectric constant tensor:
#      x y z
#    x 1.843140 0.000000 0.009070 
#    y 0.000000 1.904960 0.000000 
#    z 0.009070 0.000000 1.890890 
# 
# From -- ./inp_files/38338.got.cif
#   From: 2010.03.12/outbox.cif.g09.slc.cpg/sg14_20_cif.got.tgz:38338.got - 2010.03.31 13:35:05.
