data_PCOD8126212
_publ_section_title
;
Structure prediction by ZEFSAII (Michael W. Deem and Ramdas Pophale) SiO2 
 PCOD8126212
Probable space group: P 21/C
;
_chemical_formula_sum "Si O2"
_cell_formula_units_Z 28
_cell_length_a 22.027215
_cell_length_b 10.180605
_cell_length_c 13.081233
_cell_angle_alpha 90.000000
_cell_angle_beta 27.254245
_cell_angle_gamma 90.000000
_cell_volume 1343.353252
_symmetry_space_group_name_H-M "P 21/C"
_symmetry_group_IT_number 14
_symmetry_cell_setting 'monoclinic'
loop_
_space_group_symop_operation_xyz
x,y,z
-x,1/2+y,1/2-z
-x,-y,-z
x,1/2-y,1/2+z
loop_
_atom_site_type_symbol
_atom_site_label
_atom_site_fract_x
_atom_site_fract_y
_atom_site_fract_z
Si Si1 0.348219 0.857685 0.683471
Si Si2 0.630254 0.584245 0.701757
Si Si3 0.285346 0.127195 0.365218
Si Si4 0.679048 0.847017 0.914031
Si Si5 0.163636 0.647259 0.278642
Si Si6 0.387756 0.860135 0.281996
Si Si7 0.876904 0.642911 0.703972
O O1 0.470032 0.923928 0.438505
O O2 0.230803 0.813959 0.784448
O O3 0.386405 0.722343 0.680501
O O4 0.302899 0.968929 0.832268
O O5 0.657452 0.726736 0.709858
O O6 0.690162 0.560663 0.498062
O O7 0.260414 0.094872 0.282087
O O8 0.150787 0.122777 0.632872
O O9 0.385918 0.015940 0.258531
O O10 0.758019 0.716519 0.824953
O O11 0.522693 0.818589 0.136295
O O12 0.124558 0.495642 0.349763
O O13 0.019478 0.717338 0.479149
O O14 0.261054 0.679871 0.039515
#
# Coordination Sequence:
#
# PCOD8126212 Si02
#       7
#     4   4   4   4   4   4   4
#     4  11  22  36  58  90 123 152 197 253 296 353
#     4  10  22  35  58  90 117 158 198 239 303 353
#     4  10  21  39  58  89 122 159 197 243 304 361
#     4  11  20  36  60  91 121 151 198 255 294 361
#     4  10  21  42  59  87 123 164 204 247 293 372
#     4  11  23  35  62  94 121 154 199 252 311 344
#     4   9  22  39  64  83 119 171 207 232 303 374
#
# _framework density 20.843364000000001
#
# number of rings (size 3 to 8) (size 9 to 14) (size 15 to 20)
#    0.000    1.714    2.857    1.286    2.000    3.429 
#    0.000    4.286    0.000    5.143    0.000    0.000 
#    0.000    0.000    0.000    0.000    0.000    0.000 
#
# Total GULP energy -346951.515992 kJ/mol
# GULP energy per Si atom -12391.125571 kJ/mol
# Density = 2.079592 g / cm^3
# Si number density = 20.843364 Si / 1000 Ang^3
#
#
#
# Elastic Constant Matrix: (Units=GPa)
#
#
# Indices 1 2 3 4 5 6 
#
# 1 70.0752 6.8788 10.3797 0.0000 24.5102 0.0000
# 2 6.8788 62.0821 -4.1562 0.0000 2.3135 0.0000
# 3 10.3797 -4.1562 76.4044 0.0000 14.4695 0.0000
# 4 0.0000 0.0000 0.0000 23.8916 0.0000 3.9765
# 5 24.5102 2.3135 14.4695 0.0000 37.9647 0.0000
# 6 0.0000 0.0000 0.0000 3.9765 0.0000 27.8867
#
#
#
# Elastic Compliance Matrix: (Units=1/GPa)
#
#
# Indices 1 2 3 4 5 6 
#
# 1 0.018604 -0.001649 -0.000390 0.000000 -0.011762 0.000000
# 2 -0.001649 0.016384 0.001189 0.000000 -0.000387 0.000000
# 3 -0.000390 0.001189 0.014197 0.000000 -0.005232 0.000000
# 4 0.000000 0.000000 0.000000 0.042873 0.000000 -0.006113
# 5 -0.011762 -0.000387 -0.005232 0.000000 0.035951 0.000000
# 6 0.000000 0.000000 0.000000 -0.006113 0.000000 0.036731
#
#
# Mechanical properties :
#
#
# Convention : Reuss Voigt Hill
#
# Bulk Modulus (GPa) = 21.05952 26.08514 23.57233
# Shear Modulus (GPa) = 27.43199 30.97924 29.20561
#
# Velocity S-wave (km/s) = 3.63175 3.85942 3.74731
# Velocity P-wave (km/s) = 5.26420 5.69229 5.48242
#
# Compressibility (1/GPa) = 0.04748447
#
# Stress axis : x y z
#
# Youngs Moduli (GPa) = 53.75223 61.03362 70.43944
#
# Poissons Ratio (x) = 0.10065 0.02745
# Poissons Ratio (y) = 0.08864 -0.08372
# Poissons Ratio (z) = 0.02094 -0.07254
#
# Static dielectric constant tensor:
#      x y z
#    x 3.858240 0.000000 0.096840 
#    y 0.000000 3.529190 0.000000 
#    z 0.096840 0.000000 4.112050 
# 
# 
# High freq. dielectric constant tensor:
#      x y z
#    x 1.810460 0.000000 0.017920 
#    y 0.000000 1.794470 0.000000 
#    z 0.017920 0.000000 1.818330 
# 
# From -- ./inp_files/35132.got.cif
#   From: 2010.03.12/outbox.cif.g09.slc.cpg/sg14_18_cif.got.tgz:35132.got - 2010.03.31 13:35:05.
