data_PCOD8126039
_publ_section_title
;
Structure prediction by ZEFSAII (Michael W. Deem and Ramdas Pophale) SiO2 
 PCOD8126039
Probable space group: P 21/C
;
_chemical_formula_sum "Si O2"
_cell_formula_units_Z 20
_cell_length_a 14.458618
_cell_length_b 16.841903
_cell_length_c 11.969208
_cell_angle_alpha 90.000000
_cell_angle_beta 160.190165
_cell_angle_gamma 90.000000
_cell_volume 987.766256
_symmetry_space_group_name_H-M "P 21/C"
_symmetry_group_IT_number 14
_symmetry_cell_setting 'monoclinic'
loop_
_space_group_symop_operation_xyz
x,y,z
-x,1/2+y,1/2-z
-x,-y,-z
x,1/2-y,1/2+z
loop_
_atom_site_type_symbol
_atom_site_label
_atom_site_fract_x
_atom_site_fract_y
_atom_site_fract_z
Si Si1 0.400776 0.641166 0.855725
Si Si2 0.602528 0.326693 0.680874
Si Si3 0.903162 0.582818 0.842307
Si Si4 0.549684 0.087820 0.332875
Si Si5 0.131958 0.053884 0.243004
O O1 0.416614 0.734870 0.867012
O O2 0.108753 0.608374 0.478145
O O3 0.449163 0.613746 0.037704
O O4 0.638948 0.609863 0.048554
O O5 0.318657 0.372924 0.329329
O O6 0.671440 0.342638 0.891029
O O7 0.837139 0.360529 0.868990
O O8 0.761987 0.569727 0.559941
O O9 0.000000 0.500000 0.000000
O O10 0.724778 0.007229 0.508374
O O11 0.000000 0.000000 0.000000
#
# Coordination Sequence:
#
# PCOD8126039 Si02
#       5
#     4   4   4   4   4
#     4  11  22  40  62  94 123 156 209 258 303 355
#     4  10  23  40  60  89 130 158 201 257 303 356
#     4  10  22  42  62  85 125 165 201 241 304 369
#     4   9  23  38  66  85 128 161 202 249 307 355
#     4  10  21  37  64  89 118 160 208 252 297 366
#
# _framework density 20.247703999999999
#
# number of rings (size 3 to 8) (size 9 to 14) (size 15 to 20)
#    1.200    0.800    0.000    4.200    8.400    0.000 
#    3.600    0.000    0.000    0.000    0.000    0.000 
#    0.000    0.000    0.000    0.000    0.000    0.000 
#
# Total GULP energy -247795.633980 kJ/mol
# GULP energy per Si atom -12389.781699 kJ/mol
# Density = 2.020162 g / cm^3
# Si number density = 20.247704 Si / 1000 Ang^3
#
#
#
# Elastic Constant Matrix: (Units=GPa)
#
#
# Indices 1 2 3 4 5 6 
#
# 1 29.5138 22.0973 41.7486 0.0000 14.0432 0.0000
# 2 22.0973 167.9342 80.5008 0.0000 13.7734 0.0000
# 3 41.7486 80.5008 116.6479 0.0000 37.4140 0.0000
# 4 0.0000 0.0000 0.0000 31.6250 0.0000 7.9345
# 5 14.0432 13.7734 37.4140 0.0000 44.1531 0.0000
# 6 0.0000 0.0000 0.0000 7.9345 0.0000 38.1643
#
#
#
# Elastic Compliance Matrix: (Units=1/GPa)
#
#
# Indices 1 2 3 4 5 6 
#
# 1 0.070569 0.004233 -0.028227 0.000000 0.000153 0.000000
# 2 0.004233 0.009525 -0.009205 0.000000 0.003483 0.000000
# 3 -0.028227 -0.009205 0.029150 0.000000 -0.012852 0.000000
# 4 0.000000 0.000000 0.000000 0.033361 0.000000 -0.006936
# 5 0.000153 0.003483 -0.012852 0.000000 0.032403 0.000000
# 6 0.000000 0.000000 0.000000 -0.006936 0.000000 0.027645
#
#
# Mechanical properties :
#
#
# Convention : Reuss Voigt Hill
#
# Bulk Modulus (GPa) = 23.34019 66.97659 45.15839
# Shear Modulus (GPa) = 17.64712 34.10507 25.87610
#
# Velocity S-wave (km/s) = 2.95542 4.10859 3.57876
# Velocity P-wave (km/s) = 4.81647 7.46041 6.27918
#
# Compressibility (1/GPa) = 0.04284456
#
# Stress axis : x y z
#
# Youngs Moduli (GPa) = 14.17056 104.99060 34.30538
#
# Poissons Ratio (x) = -0.44439 0.96834
# Poissons Ratio (y) = -0.05998 0.31578
# Poissons Ratio (z) = 0.39999 0.96644
#
# Static dielectric constant tensor:
#      x y z
#    x 3.603880 0.000000 0.529260 
#    y 0.000000 3.865170 0.000000 
#    z 0.529260 0.000000 4.320570 
# 
# 
# High freq. dielectric constant tensor:
#      x y z
#    x 1.767240 0.000000 0.025800 
#    y 0.000000 1.797220 0.000000 
#    z 0.025800 0.000000 1.798840 
# 
# From -- ./inp_files/33019.got.cif
#   From: 2010.03.12/outbox.cif.g09.slc.cpg/sg14_17_cif.got.tgz:33019.got - 2010.03.31 13:35:05.
