data_PCOD8126091
_publ_section_title
;
Structure prediction by ZEFSAII (Michael W. Deem and Ramdas Pophale) SiO2 
 PCOD8126091
Probable space group: P 21/C
;
_chemical_formula_sum "Si O2"
_cell_formula_units_Z 28
_cell_length_a 19.715511
_cell_length_b 8.573300
_cell_length_c 15.191483
_cell_angle_alpha 90.000000
_cell_angle_beta 148.928354
_cell_angle_gamma 90.000000
_cell_volume 1325.250889
_symmetry_space_group_name_H-M "P 21/C"
_symmetry_group_IT_number 14
_symmetry_cell_setting 'monoclinic'
loop_
_space_group_symop_operation_xyz
x,y,z
-x,1/2+y,1/2-z
-x,-y,-z
x,1/2-y,1/2+z
loop_
_atom_site_type_symbol
_atom_site_label
_atom_site_fract_x
_atom_site_fract_y
_atom_site_fract_z
Si Si1 0.259932 0.842202 0.365580
Si Si2 0.556176 0.672893 0.420364
Si Si3 0.517305 0.826720 0.552193
Si Si4 0.926262 0.094639 0.990717
Si Si5 0.240176 0.375037 0.574864
Si Si6 0.619086 0.112484 0.893250
Si Si7 0.185729 0.181534 0.350220
O O1 0.415355 0.815864 0.519004
O O2 0.248162 0.700245 0.422271
O O3 0.223190 0.999854 0.376363
O O4 0.188421 0.816567 0.191505
O O5 0.491219 0.706612 0.442888
O O6 0.485096 0.770046 0.264802
O O7 0.544708 0.488578 0.386775
O O8 0.711505 0.718711 0.592917
O O9 0.666876 0.796210 0.748837
O O10 0.500000 0.000000 0.500000
O O11 0.034194 0.211980 0.152038
O O12 0.875476 0.973577 0.007670
O O13 0.000000 0.000000 0.000000
O O14 0.331678 0.493866 0.624781
O O15 0.186591 0.236287 0.453071
#
# Coordination Sequence:
#
# PCOD8126091 Si02
#       7
#     4   4   4   4   4   4   4
#     4  11  21  39  62  88 120 161 201 249 307 361
#     4  11  21  38  59  91 119 161 199 247 309 357
#     4  12  19  36  64  87 118 159 196 248 306 365
#     4  10  21  38  60  85 118 161 202 244 305 368
#     4  11  22  39  62  89 117 161 204 253 306 360
#     4  11  23  37  62  90 124 151 202 255 301 365
#     4  10  21  38  61  85 116 159 206 245 295 365
#
# _framework density 21.128074000000002
#
# number of rings (size 3 to 8) (size 9 to 14) (size 15 to 20)
#    0.000    1.143    4.286    3.429    0.000    2.857 
#    0.000    7.143    0.000    0.000    0.000    0.000 
#    0.000    0.000    0.000    0.000    0.000    0.000 
#
# Total GULP energy -346957.538502 kJ/mol
# GULP energy per Si atom -12391.340661 kJ/mol
# Density = 2.107999 g / cm^3
# Si number density = 21.128074 Si / 1000 Ang^3
#
#
#
# Elastic Constant Matrix: (Units=GPa)
#
#
# Indices 1 2 3 4 5 6 
#
# 1 70.4416 6.1704 32.8710 0.0000 -4.7906 0.0000
# 2 6.1704 85.0134 52.3516 0.0000 -11.8831 0.0000
# 3 32.8710 52.3516 152.3672 0.0000 -10.7389 0.0000
# 4 0.0000 0.0000 0.0000 34.9600 0.0000 -7.4883
# 5 -4.7906 -11.8831 -10.7389 0.0000 33.5593 0.0000
# 6 0.0000 0.0000 0.0000 -7.4883 0.0000 30.6547
#
#
#
# Elastic Compliance Matrix: (Units=1/GPa)
#
#
# Indices 1 2 3 4 5 6 
#
# 1 0.015960 0.001410 -0.003818 0.000000 0.001556 0.000000
# 2 0.001410 0.015514 -0.005354 0.000000 0.003981 0.000000
# 3 -0.003818 -0.005354 0.009263 0.000000 0.000523 0.000000
# 4 0.000000 0.000000 0.000000 0.030183 0.000000 0.007373
# 5 0.001556 0.003981 0.000523 0.000000 0.031597 0.000000
# 6 0.000000 0.000000 0.000000 0.007373 0.000000 0.034423
#
#
# Mechanical properties :
#
#
# Convention : Reuss Voigt Hill
#
# Bulk Modulus (GPa) = 39.66099 54.51202 47.08650
# Shear Modulus (GPa) = 31.08116 34.26342 32.67229
#
# Velocity S-wave (km/s) = 3.83963 4.03140 3.93669
# Velocity P-wave (km/s) = 6.20238 6.89394 6.55728
#
# Compressibility (1/GPa) = 0.02521369
#
# Stress axis : x y z
#
# Youngs Moduli (GPa) = 62.65625 64.45750 107.95328
#
# Poissons Ratio (x) = -0.09090 0.41217
# Poissons Ratio (y) = -0.08836 0.57799
# Poissons Ratio (z) = 0.23922 0.34511
#
# Static dielectric constant tensor:
#      x y z
#    x 2.499630 0.000000 -1.000640 
#    y 0.000000 3.618220 0.000000 
#    z -1.000640 0.000000 5.539810 
# 
# 
# High freq. dielectric constant tensor:
#      x y z
#    x 1.827200 0.000000 -0.014190 
#    y 0.000000 1.809050 0.000000 
#    z -0.014190 0.000000 1.837010 
# 
# From -- ./inp_files/50251.got.cif
#   From: 2010.03.12/outbox.cif.g09.slc.cpg/sg14_26_cif.got.tgz:50251.got - 2010.03.31 13:35:05.
