data_PCOD8126154
_publ_section_title
;
Structure prediction by ZEFSAII (Michael W. Deem and Ramdas Pophale) SiO2 
 PCOD8126154
Probable space group: P 21/C
;
_chemical_formula_sum "Si O2"
_cell_formula_units_Z 32
_cell_length_a 11.674439
_cell_length_b 18.725700
_cell_length_c 14.119010
_cell_angle_alpha 90.000000
_cell_angle_beta 148.875432
_cell_angle_gamma 90.000000
_cell_volume 1595.457468
_symmetry_space_group_name_H-M "P 21/C"
_symmetry_group_IT_number 14
_symmetry_cell_setting 'monoclinic'
loop_
_space_group_symop_operation_xyz
x,y,z
-x,1/2+y,1/2-z
-x,-y,-z
x,1/2-y,1/2+z
loop_
_atom_site_type_symbol
_atom_site_label
_atom_site_fract_x
_atom_site_fract_y
_atom_site_fract_z
Si Si1 0.471960 0.279266 0.305651
Si Si2 0.030888 0.183750 0.386530
Si Si3 0.983895 0.339065 0.306698
Si Si4 0.874364 0.573542 0.414647
Si Si5 0.597779 0.381161 0.893060
Si Si6 0.051645 0.824827 0.882024
Si Si7 0.801270 0.814993 0.223645
Si Si8 0.927070 0.419951 0.970776
O O1 0.500002 0.196599 0.299500
O O2 0.683222 0.327522 0.432273
O O3 0.423988 0.287693 0.385714
O O4 0.273869 0.310396 0.103247
O O5 0.913271 0.262011 0.300045
O O6 0.050189 0.155911 0.292707
O O7 0.890475 0.126903 0.349109
O O8 0.055693 0.391878 0.437873
O O9 0.200521 0.328307 0.390843
O O10 0.778545 0.373252 0.104344
O O11 0.606446 0.568020 0.219379
O O12 0.000000 0.500000 0.500000
O O13 0.957183 0.617389 0.384620
O O14 0.702414 0.417271 0.873524
O O15 0.988489 0.745733 0.873437
O O16 0.874525 0.887165 0.327164
O O17 0.000000 0.500000 0.000000
#
# Coordination Sequence:
#
# PCOD8126154 Si02
#       8
#     4   4   4   4   4   4   4   4
#     4  11  19  38  67  95 125 153 206 276 331 365
#     4  10  21  38  67  99 118 165 213 272 321 380
#     4  10  21  41  65  96 121 162 216 272 321 369
#     4  12  27  43  60  92 139 174 215 260 321 408
#     4  11  22  41  68  93 125 170 214 273 329 375
#     4  11  22  40  59  96 124 162 219 267 310 386
#     4   9  19  37  61  90 119 153 212 271 306 373
#     4  10  21  38  63  92 133 165 210 259 325 397
#
# _framework density 20.056943
#
# number of rings (size 3 to 8) (size 9 to 14) (size 15 to 20)
#    0.000    1.500    6.250    0.750    0.000    6.500 
#    0.000    0.000    0.000    7.500    0.000    0.000 
#    0.000    0.000    0.000    0.000    0.000    0.000 
#
# Total GULP energy -396642.838828 kJ/mol
# GULP energy per Si atom -12395.088713 kJ/mol
# Density = 2.001129 g / cm^3
# Si number density = 20.056943 Si / 1000 Ang^3
#
#
#
# Elastic Constant Matrix: (Units=GPa)
#
#
# Indices 1 2 3 4 5 6 
#
# 1 156.8952 78.9877 60.7605 0.0000 11.3669 0.0000
# 2 78.9877 116.8864 23.9718 0.0000 -6.7727 0.0000
# 3 60.7605 23.9718 83.3076 0.0000 2.6348 0.0000
# 4 0.0000 0.0000 0.0000 -76.5059 0.0000 75.9781
# 5 11.3669 -6.7727 2.6348 0.0000 39.8153 0.0000
# 6 0.0000 0.0000 0.0000 75.9781 0.0000 -24.2183
#
#
#
# Elastic Compliance Matrix: (Units=1/GPa)
#
#
# Indices 1 2 3 4 5 6 
#
# 1 0.013618 -0.007940 -0.007498 0.000000 -0.004742 0.000000
# 2 -0.007940 0.013840 0.001666 0.000000 0.004511 0.000000
# 3 -0.007498 0.001666 0.016952 0.000000 0.001302 0.000000
# 4 0.000000 0.000000 0.000000 0.006178 0.000000 0.019383
# 5 -0.004742 0.004511 0.001302 0.000000 0.027151 0.000000
# 6 0.000000 0.000000 0.000000 0.019383 0.000000 0.019518
#
#
# Mechanical properties :
#
#
# Convention : Reuss Voigt Hill
#
# Bulk Modulus (GPa) = 59.28893 76.05880 67.67387
# Shear Modulus (GPa) = 38.33675 0.70951 19.52313
#
# Velocity S-wave (km/s) = 4.37669 0.59541 3.12330
# Velocity P-wave (km/s) = 7.42732 6.20294 6.84257
#
# Compressibility (1/GPa) = 0.01686656
#
# Stress axis : x y z
#
# Youngs Moduli (GPa) = 73.43189 72.25188 58.99110
#
# Poissons Ratio (x) = 0.57366 0.44230
# Poissons Ratio (y) = 0.58303 -0.09825
# Poissons Ratio (z) = 0.55057 -0.12034
#
# Static dielectric constant tensor:
#      x y z
#    x 4.104640 0.000000 0.017310 
#    y 0.000000 3.460340 0.000000 
#    z 0.017310 0.000000 3.584140 
# 
# 
# High freq. dielectric constant tensor:
#      x y z
#    x 1.802890 0.000000 -0.003540 
#    y 0.000000 1.761770 0.000000 
#    z -0.003540 0.000000 1.769330 
# 
# From -- ./inp_files/45477.got.cif
#   From: 2010.03.12/outbox.cif.g09.slc.cpg/sg14_23_cif.got.tgz:45477.got - 2010.03.31 13:35:05.
