data_PCOD8126688
_publ_section_title
;
Structure prediction by ZEFSAII (Michael W. Deem and Ramdas Pophale) SiO2 
 PCOD8126688
Probable space group: P 21/C
;
_chemical_formula_sum "Si O2"
_cell_formula_units_Z 24
_cell_length_a 10.146821
_cell_length_b 13.261493
_cell_length_c 20.209226
_cell_angle_alpha 90.000000
_cell_angle_beta 157.151254
_cell_angle_gamma 90.000000
_cell_volume 1055.939918
_symmetry_space_group_name_H-M "P 21/C"
_symmetry_group_IT_number 14
_symmetry_cell_setting 'monoclinic'
loop_
_space_group_symop_operation_xyz
x,y,z
-x,1/2+y,1/2-z
-x,-y,-z
x,1/2-y,1/2+z
loop_
_atom_site_type_symbol
_atom_site_label
_atom_site_fract_x
_atom_site_fract_y
_atom_site_fract_z
Si Si1 0.615106 0.988332 0.799394
Si Si2 0.212927 0.699521 0.075122
Si Si3 0.062815 0.730245 0.211584
Si Si4 0.333653 0.131002 0.762962
Si Si5 0.625629 0.657884 0.903620
Si Si6 0.453971 0.119085 0.971051
O O1 0.375402 0.019049 0.751198
O O2 0.528377 0.053111 0.693323
O O3 0.518864 0.874795 0.736906
O O4 0.000000 0.000000 0.000000
O O5 0.050579 0.668188 0.928571
O O6 0.898054 0.702922 0.979086
O O7 0.384376 0.808294 0.149860
O O8 0.330259 0.759174 0.277604
O O9 0.218967 0.675534 0.347748
O O10 0.880152 0.835121 0.148615
O O11 0.803541 0.649353 0.058539
O O12 0.429518 0.142344 0.882715
O O13 0.500000 0.000000 0.000000
#
# Coordination Sequence:
#
# PCOD8126688 Si02
#       6
#     4   4   4   4   4   4
#     4  11  25  39  66 101 130 174 222 282 359 413
#     4  11  23  41  69  97 137 174 216 296 352 407
#     4  10  24  45  68 101 136 185 236 277 346 424
#     4  11  23  43  65  96 137 175 225 282 345 419
#     4  10  21  41  68  98 135 172 227 286 344 419
#     4  11  26  45  72 100 143 192 233 289 342 415
#
# _framework density 22.728567000000002
#
# number of rings (size 3 to 8) (size 9 to 14) (size 15 to 20)
#    0.000    1.333    0.000    6.000    7.000    2.667 
#    0.000    1.667    0.000    0.000    0.000    0.000 
#    0.000    0.000    0.000    0.000    0.000    0.000 
#
# Total GULP energy -297494.739505 kJ/mol
# GULP energy per Si atom -12395.614146 kJ/mol
# Density = 2.267684 g / cm^3
# Si number density = 22.728567 Si / 1000 Ang^3
#
#
#
# Elastic Constant Matrix: (Units=GPa)
#
#
# Indices 1 2 3 4 5 6 
#
# 1 84.7324 41.4557 44.0613 0.0000 -12.6197 0.0000
# 2 41.4557 98.2847 46.7030 0.0000 -1.3052 0.0000
# 3 44.0613 46.7030 157.9413 0.0000 -14.9702 0.0000
# 4 0.0000 0.0000 0.0000 40.6192 0.0000 -1.5736
# 5 -12.6197 -1.3052 -14.9702 0.0000 35.9929 0.0000
# 6 0.0000 0.0000 0.0000 -1.5736 0.0000 18.0240
#
#
#
# Elastic Compliance Matrix: (Units=1/GPa)
#
#
# Indices 1 2 3 4 5 6 
#
# 1 0.016595 -0.005753 -0.002495 0.000000 0.004572 0.000000
# 2 -0.005753 0.013872 -0.002749 0.000000 -0.002657 0.000000
# 3 -0.002495 -0.002749 0.008066 0.000000 0.002380 0.000000
# 4 0.000000 0.000000 0.000000 0.024702 0.000000 0.002157
# 5 0.004572 -0.002657 0.002380 0.000000 0.030280 0.000000
# 6 0.000000 0.000000 0.000000 0.002157 0.000000 0.055670
#
#
# Mechanical properties :
#
#
# Convention : Reuss Voigt Hill
#
# Bulk Modulus (GPa) = 60.46373 67.26647 63.86510
# Shear Modulus (GPa) = 28.29770 32.84311 30.57040
#
# Velocity S-wave (km/s) = 3.53232 3.80546 3.67143
# Velocity P-wave (km/s) = 6.58002 6.99775 6.79210
#
# Compressibility (1/GPa) = 0.01653884
#
# Stress axis : x y z
#
# Youngs Moduli (GPa) = 60.25883 72.08680 123.97849
#
# Poissons Ratio (x) = 0.41475 0.30932
# Poissons Ratio (y) = 0.34669 0.34079
# Poissons Ratio (z) = 0.15034 0.19815
#
# Static dielectric constant tensor:
#      x y z
#    x 3.921470 0.000000 -0.261860 
#    y 0.000000 3.949830 0.000000 
#    z -0.261860 0.000000 4.768620 
# 
# 
# High freq. dielectric constant tensor:
#      x y z
#    x 1.875190 0.000000 -0.016110 
#    y 0.000000 1.887540 0.000000 
#    z -0.016110 0.000000 1.934660 
# 
# From -- ./inp_files/56011.got.cif
#   From: 2010.03.12/outbox.cif.g09.slc.cpg/sg14_29_cif.got.tgz:56011.got - 2010.03.31 13:35:05.
