data_PCOD8126761
_publ_section_title
;
Structure prediction by ZEFSAII (Michael W. Deem and Ramdas Pophale) SiO2 
 PCOD8126761
Probable space group: P 21/C
;
_chemical_formula_sum "Si O2"
_cell_formula_units_Z 24
_cell_length_a 8.729643
_cell_length_b 5.369600
_cell_length_c 22.156529
_cell_angle_alpha 90.000000
_cell_angle_beta 90.719548
_cell_angle_gamma 90.000000
_cell_volume 1038.498553
_symmetry_space_group_name_H-M "P 21/C"
_symmetry_group_IT_number 14
_symmetry_cell_setting 'monoclinic'
loop_
_space_group_symop_operation_xyz
x,y,z
-x,1/2+y,1/2-z
-x,-y,-z
x,1/2-y,1/2+z
loop_
_atom_site_type_symbol
_atom_site_label
_atom_site_fract_x
_atom_site_fract_y
_atom_site_fract_z
Si Si1 0.270153 0.124077 0.085383
Si Si2 0.957577 0.233352 0.400379
Si Si3 0.372768 0.897739 0.921719
Si Si4 0.129433 0.352468 0.193784
Si Si5 0.837510 0.058467 0.182227
Si Si6 0.767989 0.906904 0.526723
O O1 0.446483 0.064201 0.078546
O O2 0.228042 0.152225 0.156386
O O3 0.166162 0.891923 0.061256
O O4 0.221940 0.372097 0.046451
O O5 0.079431 0.413559 0.370280
O O6 0.060921 0.059136 0.444770
O O7 0.867900 0.097575 0.346548
O O8 0.316321 0.848716 0.852195
O O9 0.331982 0.650014 0.959340
O O10 0.310408 0.149445 0.951673
O O11 0.207836 0.396138 0.259223
O O12 0.951311 0.278253 0.204592
#
# Coordination Sequence:
#
# PCOD8126761 Si02
#       6
#     4   4   4   4   4   4
#     4  11  26  40  64 104 131 173 221 283 340 396
#     4  10  22  40  66  95 127 172 222 275 324 393
#     4  11  25  45  68  97 134 181 220 275 342 407
#     4  11  21  40  66  89 131 167 222 275 322 396
#     4  10  21  42  65  92 123 175 226 264 330 395
#     4  11  24  45  70  94 137 180 221 271 338 414
#
# _framework density 23.110285999999999
#
# number of rings (size 3 to 8) (size 9 to 14) (size 15 to 20)
#    0.000    1.333    3.333    1.500    4.667    0.667 
#    3.000    0.000    0.000    0.000    0.000    0.000 
#    0.000    0.000    0.000    0.000    0.000    0.000 
#
# Total GULP energy -297507.719125 kJ/mol
# GULP energy per Si atom -12396.154964 kJ/mol
# Density = 2.305769 g / cm^3
# Si number density = 23.110286 Si / 1000 Ang^3
#
#
#
# Elastic Constant Matrix: (Units=GPa)
#
#
# Indices 1 2 3 4 5 6 
#
# 1 110.0075 22.7101 36.2179 0.0000 -6.1737 0.0000
# 2 22.7101 79.0157 0.2158 0.0000 -15.9511 0.0000
# 3 36.2179 0.2158 113.2387 0.0000 -3.2446 0.0000
# 4 0.0000 0.0000 0.0000 34.2388 0.0000 2.0307
# 5 -6.1737 -15.9511 -3.2446 0.0000 23.6936 0.0000
# 6 0.0000 0.0000 0.0000 2.0307 0.0000 23.9613
#
#
#
# Elastic Compliance Matrix: (Units=1/GPa)
#
#
# Indices 1 2 3 4 5 6 
#
# 1 0.010879 -0.003056 -0.003465 0.000000 0.000303 0.000000
# 2 -0.003056 0.015512 0.001229 0.000000 0.009815 0.000000
# 3 -0.003465 0.001229 0.009974 0.000000 0.001290 0.000000
# 4 0.000000 0.000000 0.000000 0.029354 0.000000 -0.002488
# 5 0.000303 0.009815 0.001290 0.000000 0.049069 0.000000
# 6 0.000000 0.000000 0.000000 -0.002488 0.000000 0.041945
#
#
# Mechanical properties :
#
#
# Convention : Reuss Voigt Hill
#
# Bulk Modulus (GPa) = 38.78852 46.72772 42.75812
# Shear Modulus (GPa) = 28.42355 32.58661 30.50508
#
# Velocity S-wave (km/s) = 3.51081 3.75913 3.63709
# Velocity P-wave (km/s) = 5.76671 6.25338 6.01497
#
# Compressibility (1/GPa) = 0.02578083
#
# Stress axis : x y z
#
# Youngs Moduli (GPa) = 91.92032 64.46561 100.26292
#
# Poissons Ratio (x) = 0.19702 0.34741
# Poissons Ratio (y) = 0.28093 -0.12324
# Poissons Ratio (z) = 0.31850 -0.07924
#
# Static dielectric constant tensor:
#      x y z
#    x 4.106710 0.000000 0.154340 
#    y 0.000000 4.125950 0.000000 
#    z 0.154340 0.000000 4.505740 
# 
# 
# High freq. dielectric constant tensor:
#      x y z
#    x 1.897340 0.000000 0.001820 
#    y 0.000000 1.916050 0.000000 
#    z 0.001820 0.000000 1.923850 
# 
# From -- ./inp_files/71631.got.cif
#   From: 2010.03.12/outbox.cif.g09.slc.cpg/sg14_36_cif.got.tgz:71631.got - 2010.03.31 13:35:05.
