data_PCOD8126558
_publ_section_title
;
Structure prediction by ZEFSAII (Michael W. Deem and Ramdas Pophale) SiO2 
 PCOD8126558
Probable space group: P 21/C
;
_chemical_formula_sum "Si O2"
_cell_formula_units_Z 32
_cell_length_a 15.859356
_cell_length_b 9.034719
_cell_length_c 26.229942
_cell_angle_alpha 90.000000
_cell_angle_beta 24.606718
_cell_angle_gamma 90.000000
_cell_volume 1564.930682
_symmetry_space_group_name_H-M "P 21/C"
_symmetry_group_IT_number 14
_symmetry_cell_setting 'monoclinic'
loop_
_space_group_symop_operation_xyz
x,y,z
-x,1/2+y,1/2-z
-x,-y,-z
x,1/2-y,1/2+z
loop_
_atom_site_type_symbol
_atom_site_label
_atom_site_fract_x
_atom_site_fract_y
_atom_site_fract_z
Si Si1 0.524035 0.089221 0.895797
Si Si2 0.930874 0.902535 0.832222
Si Si3 0.931991 0.931536 0.144847
Si Si4 0.651507 0.817645 0.769111
Si Si5 0.025624 0.008676 0.568296
Si Si6 0.794702 0.227097 0.169450
Si Si7 0.898735 0.082948 0.749611
Si Si8 0.708108 0.245258 0.602271
O O1 0.629666 0.204853 0.798897
O O2 0.656394 0.082125 0.874611
O O3 0.511341 0.922057 0.881143
O O4 0.300104 0.143141 0.030303
O O5 0.050750 0.751127 0.766068
O O6 0.961641 0.978350 0.761044
O O7 0.021024 0.013418 0.824426
O O8 0.740467 0.820435 0.252361
O O9 0.867085 0.065015 0.144280
O O10 0.130742 0.852870 0.013163
O O11 0.842299 0.912753 0.644516
O O12 0.517335 0.764472 0.795376
O O13 0.233583 0.927688 0.439175
O O14 0.999617 0.171586 0.558009
O O15 0.009512 0.019355 0.638481
O O16 0.695026 0.219864 0.168968
#
# Coordination Sequence:
#
# PCOD8126558 Si02
#       8
#     4   4   4   4   4   4   4   4
#     4  10  22  45  62  89 132 166 200 257 319 375
#     4  12  23  43  69  91 124 171 201 263 328 367
#     4  11  22  40  61  93 133 157 211 266 305 370
#     4   9  21  36  59  87 120 163 206 252 298 369
#     4   9  21  42  57  86 130 160 203 263 310 368
#     4  10  21  41  60  91 130 163 212 256 308 376
#     4  10  24  41  66  93 119 164 214 256 313 384
#     4  11  21  38  65  90 121 174 207 253 316 370
#
# _framework density 20.448188999999999
#
# number of rings (size 3 to 8) (size 9 to 14) (size 15 to 20)
#    0.000    2.000    3.750    1.125    5.250    3.000 
#    4.500    0.625    0.000    0.000    0.000    0.000 
#    0.000    0.000    0.000    0.000    0.000    0.000 
#
# Total GULP energy -396731.231790 kJ/mol
# GULP energy per Si atom -12397.850993 kJ/mol
# Density = 2.040165 g / cm^3
# Si number density = 20.448189 Si / 1000 Ang^3
#
#
#
# Elastic Constant Matrix: (Units=GPa)
#
#
# Indices 1 2 3 4 5 6 
#
# 1 130.4032 14.2699 14.6145 0.0000 -6.2762 0.0000
# 2 14.2699 85.4376 10.4099 0.0000 -8.6500 0.0000
# 3 14.6145 10.4099 17.4010 0.0000 -2.2266 0.0000
# 4 0.0000 0.0000 0.0000 15.9170 0.0000 -2.4874
# 5 -6.2762 -8.6500 -2.2266 0.0000 18.6704 0.0000
# 6 0.0000 0.0000 0.0000 -2.4874 0.0000 32.9919
#
#
#
# Elastic Compliance Matrix: (Units=1/GPa)
#
#
# Indices 1 2 3 4 5 6 
#
# 1 0.008555 -0.000423 -0.006691 0.000000 0.001882 0.000000
# 2 -0.000423 0.013128 -0.006842 0.000000 0.005124 0.000000
# 3 -0.006691 -0.006842 0.067518 0.000000 0.002633 0.000000
# 4 0.000000 0.000000 0.000000 0.063575 0.000000 0.004793
# 5 0.001882 0.005124 0.002633 0.000000 0.056881 0.000000
# 6 0.000000 0.000000 0.000000 0.004793 0.000000 0.030672
#
#
# Mechanical properties :
#
#
# Convention : Reuss Voigt Hill
#
# Bulk Modulus (GPa) = 16.31658 34.64781 25.48219
# Shear Modulus (GPa) = 17.32071 26.44571 21.88321
#
# Velocity S-wave (km/s) = 2.91358 3.60015 3.27491
# Velocity P-wave (km/s) = 4.39492 5.85341 5.17580
#
# Compressibility (1/GPa) = 0.06128735
#
# Stress axis : x y z
#
# Youngs Moduli (GPa) = 116.88643 76.17567 14.81081
#
# Poissons Ratio (x) = 0.03223 0.09911
# Poissons Ratio (y) = 0.04945 0.10134
# Poissons Ratio (z) = 0.78213 0.52122
#
# Static dielectric constant tensor:
#      x y z
#    x 3.853130 0.000000 -0.142520 
#    y 0.000000 3.982450 0.000000 
#    z -0.142520 0.000000 3.449730 
# 
# 
# High freq. dielectric constant tensor:
#      x y z
#    x 1.811240 0.000000 -0.011750 
#    y 0.000000 1.812200 0.000000 
#    z -0.011750 0.000000 1.771870 
# 
# From -- ./inp_files/77500.got.cif
#   From: 2010.03.12/outbox.cif.g09.slc.cpg/sg14_39_cif.got.tgz:77500.got - 2010.03.31 13:35:05.
