data_PCOD8126787
_publ_section_title
;
Structure prediction by ZEFSAII (Michael W. Deem and Ramdas Pophale) SiO2 
 PCOD8126787
Probable space group: P 21/C
;
_chemical_formula_sum "Si O2"
_cell_formula_units_Z 28
_cell_length_a 8.141075
_cell_length_b 9.094152
_cell_length_c 22.112868
_cell_angle_alpha 90.000000
_cell_angle_beta 50.555343
_cell_angle_gamma 90.000000
_cell_volume 1264.272107
_symmetry_space_group_name_H-M "P 21/C"
_symmetry_group_IT_number 14
_symmetry_cell_setting 'monoclinic'
loop_
_space_group_symop_operation_xyz
x,y,z
-x,1/2+y,1/2-z
-x,-y,-z
x,1/2-y,1/2+z
loop_
_atom_site_type_symbol
_atom_site_label
_atom_site_fract_x
_atom_site_fract_y
_atom_site_fract_z
Si Si1 0.419255 0.228882 0.498177
Si Si2 0.202503 0.098577 0.236461
Si Si3 0.788303 0.251752 0.005806
Si Si4 0.530186 0.999119 0.614261
Si Si5 0.632579 0.529339 0.591579
Si Si6 0.253020 0.222043 0.352263
Si Si7 0.123746 0.348665 0.174235
O O1 0.627277 0.271405 0.487596
O O2 0.466184 0.079832 0.451495
O O3 0.364734 0.358108 0.464655
O O4 0.215291 0.199105 0.588003
O O5 0.273961 0.199107 0.276137
O O6 0.057563 0.201420 0.226777
O O7 0.405157 0.049843 0.150027
O O8 0.078179 0.953966 0.287863
O O9 0.704349 0.371717 0.072874
O O10 0.807805 0.096451 0.036655
O O11 0.013890 0.308482 0.929773
O O12 0.580293 0.890514 0.657068
O O13 0.296903 0.068334 0.675604
O O14 0.684197 0.612255 0.642573
#
# Coordination Sequence:
#
# PCOD8126787 Si02
#       7
#     4   4   4   4   4   4   4
#     4  10  21  42  70  97 128 176 223 284 320 398
#     4  12  27  45  66 103 134 181 218 283 342 400
#     4  11  20  41  68  97 128 172 230 269 324 396
#     4  10  21  42  67  95 131 175 220 273 329 402
#     4  11  25  43  69  99 136 172 225 276 339 391
#     4  11  26  40  65  95 140 174 214 267 344 410
#     4  11  25  43  68  96 133 174 231 277 338 393
#
# _framework density 22.147131000000002
#
# number of rings (size 3 to 8) (size 9 to 14) (size 15 to 20)
#    0.000    1.143    2.857    4.714    8.000    1.143 
#    0.000    2.857    0.000    0.000    0.000    0.000 
#    0.000    0.000    0.000    0.000    0.000    0.000 
#
# Total GULP energy -347286.741069 kJ/mol
# GULP energy per Si atom -12403.097895 kJ/mol
# Density = 2.209672 g / cm^3
# Si number density = 22.147131 Si / 1000 Ang^3
#
#
#
# Elastic Constant Matrix: (Units=GPa)
#
#
# Indices 1 2 3 4 5 6 
#
# 1 38.5879 13.2269 19.5793 0.0000 10.8698 0.0000
# 2 13.2269 108.6503 28.9967 0.0000 16.5256 0.0000
# 3 19.5793 28.9967 79.5453 0.0000 9.2328 0.0000
# 4 0.0000 0.0000 0.0000 38.7374 0.0000 -2.8848
# 5 10.8698 16.5256 9.2328 0.0000 31.2006 0.0000
# 6 0.0000 0.0000 0.0000 -2.8848 0.0000 39.3989
#
#
#
# Elastic Compliance Matrix: (Units=1/GPa)
#
#
# Indices 1 2 3 4 5 6 
#
# 1 0.031993 -0.000809 -0.006561 0.000000 -0.008776 0.000000
# 2 -0.000809 0.010851 -0.003233 0.000000 -0.004509 0.000000
# 3 -0.006561 -0.003233 0.015431 0.000000 -0.000568 0.000000
# 4 0.000000 0.000000 0.000000 0.025956 0.000000 0.001901
# 5 -0.008776 -0.004509 -0.000568 0.000000 0.037664 0.000000
# 6 0.000000 0.000000 0.000000 0.001901 0.000000 0.025521
#
#
# Mechanical properties :
#
#
# Convention : Reuss Voigt Hill
#
# Bulk Modulus (GPa) = 26.97701 38.93216 32.95458
# Shear Modulus (GPa) = 27.62745 32.86608 30.24676
#
# Velocity S-wave (km/s) = 3.53576 3.85644 3.69957
# Velocity P-wave (km/s) = 5.37364 6.11935 5.75858
#
# Compressibility (1/GPa) = 0.03706860
#
# Stress axis : x y z
#
# Youngs Moduli (GPa) = 31.25643 92.15797 64.80484
#
# Poissons Ratio (x) = 0.07455 0.42521
# Poissons Ratio (y) = 0.02528 0.20952
# Poissons Ratio (z) = 0.20508 0.29795
#
# Static dielectric constant tensor:
#      x y z
#    x 3.808580 0.000000 0.040390 
#    y 0.000000 4.267230 0.000000 
#    z 0.040390 0.000000 3.802230 
# 
# 
# High freq. dielectric constant tensor:
#      x y z
#    x 1.855400 0.000000 0.002380 
#    y 0.000000 1.892670 0.000000 
#    z 0.002380 0.000000 1.866450 
# 
# From -- ./inp_files/54934.got.cif
#   From: 2010.03.12/outbox.cif.g09.slc.cpg/sg14_28_cif.got.tgz:54934.got - 2010.03.31 13:35:05.
