data_PCOD8126867
_publ_section_title
;
Structure prediction by ZEFSAII (Michael W. Deem and Ramdas Pophale) SiO2 
 PCOD8126867
Probable space group: P 21/C
;
_chemical_formula_sum "Si O2"
_cell_formula_units_Z 28
_cell_length_a 26.726587
_cell_length_b 9.006960
_cell_length_c 9.665641
_cell_angle_alpha 90.000000
_cell_angle_beta 35.863505
_cell_angle_gamma 90.000000
_cell_volume 1363.149484
_symmetry_space_group_name_H-M "P 21/C"
_symmetry_group_IT_number 14
_symmetry_cell_setting 'monoclinic'
loop_
_space_group_symop_operation_xyz
x,y,z
-x,1/2+y,1/2-z
-x,-y,-z
x,1/2-y,1/2+z
loop_
_atom_site_type_symbol
_atom_site_label
_atom_site_fract_x
_atom_site_fract_y
_atom_site_fract_z
Si Si1 0.918046 0.105103 0.688694
Si Si2 0.573353 0.252285 0.046376
Si Si3 0.763915 0.606248 0.496212
Si Si4 0.436941 0.454303 0.760630
Si Si5 0.150570 0.682365 0.367018
Si Si6 0.751382 0.887805 0.346760
Si Si7 0.324757 0.649598 0.435986
O O1 0.917999 0.248594 0.587097
O O2 0.842925 0.001772 0.805749
O O3 0.901691 0.175702 0.874215
O O4 0.000000 0.000000 0.500000
O O5 0.571333 0.419847 0.104874
O O6 0.476776 0.194754 0.238964
O O7 0.616109 0.141157 0.061536
O O8 0.629932 0.245537 0.779730
O O9 0.784033 0.749511 0.360948
O O10 0.749079 0.649093 0.688646
O O11 0.684607 0.515265 0.607819
O O12 0.500000 0.500000 0.500000
O O13 0.345562 0.425262 0.894921
O O14 0.182420 0.516722 0.259204
O O15 0.235307 0.781882 0.187783
#
# Coordination Sequence:
#
# PCOD8126867 Si02
#       7
#     4   4   4   4   4   4   4
#     4  10  23  43  68 103 128 163 208 256 321 386
#     4  12  24  40  62  88 129 165 227 276 332 373
#     4  10  24  39  64  91 127 163 214 261 313 383
#     4  12  26  39  59  92 124 169 221 274 331 377
#     4  10  21  43  70  90 131 170 210 256 316 394
#     4  11  23  42  59  91 124 169 216 261 311 384
#     4  11  21  43  63  89 121 175 217 265 321 390
#
# _framework density 20.540666999999999
#
# number of rings (size 3 to 8) (size 9 to 14) (size 15 to 20)
#    0.000    1.143    4.286    1.714    4.000    6.286 
#    0.000    1.429    0.000    0.000    0.000    0.000 
#    0.000    0.000    0.000    0.000    0.000    0.000 
#
# Total GULP energy -347137.618842 kJ/mol
# GULP energy per Si atom -12397.772101 kJ/mol
# Density = 2.049392 g / cm^3
# Si number density = 20.540667 Si / 1000 Ang^3
#
#
#
# Elastic Constant Matrix: (Units=GPa)
#
#
# Indices 1 2 3 4 5 6 
#
# 1 91.9981 45.1151 48.6147 0.0000 13.0048 0.0000
# 2 45.1151 99.3199 33.8618 0.0000 18.4907 0.0000
# 3 48.6147 33.8618 115.8649 0.0000 17.3155 0.0000
# 4 0.0000 0.0000 0.0000 33.8750 0.0000 -0.1096
# 5 13.0048 18.4907 17.3155 0.0000 21.8215 0.0000
# 6 0.0000 0.0000 0.0000 -0.1096 0.0000 48.2874
#
#
#
# Elastic Compliance Matrix: (Units=1/GPa)
#
#
# Indices 1 2 3 4 5 6 
#
# 1 0.016434 -0.005523 -0.005125 0.000000 -0.001048 0.000000
# 2 -0.005523 0.014349 -0.000625 0.000000 -0.008371 0.000000
# 3 -0.005125 -0.000625 0.011831 0.000000 -0.005804 0.000000
# 4 0.000000 0.000000 0.000000 0.029521 0.000000 0.000067
# 5 -0.001048 -0.008371 -0.005804 0.000000 0.058150 0.000000
# 6 0.000000 0.000000 0.000000 0.000067 0.000000 0.020709
#
#
# Mechanical properties :
#
#
# Convention : Reuss Voigt Hill
#
# Bulk Modulus (GPa) = 49.82926 62.48513 56.15720
# Shear Modulus (GPa) = 27.74239 32.76952 30.25596
#
# Velocity S-wave (km/s) = 3.67905 3.99851 3.84210
# Velocity P-wave (km/s) = 6.50836 7.19748 6.86158
#
# Compressibility (1/GPa) = 0.02006853
#
# Stress axis : x y z
#
# Youngs Moduli (GPa) = 60.84777 69.69230 84.52246
#
# Poissons Ratio (x) = 0.38490 0.43317
# Poissons Ratio (y) = 0.33605 0.05284
# Poissons Ratio (z) = 0.31184 0.04357
#
# Static dielectric constant tensor:
#      x y z
#    x 4.125550 0.000000 0.034160 
#    y 0.000000 2.262720 0.000000 
#    z 0.034160 0.000000 3.814350 
# 
# 
# High freq. dielectric constant tensor:
#      x y z
#    x 1.798730 0.000000 0.010660 
#    y 0.000000 1.804430 0.000000 
#    z 0.010660 0.000000 1.804830 
# 
# From -- ./inp_files/17604.got.cif
#   From: 2010.03.12/outbox.cif.g09.slc.cpg/sg14_9_cif.got.tgz:17604.got - 2010.03.31 13:35:05.
