data_PCOD8126246
_publ_section_title
;
Structure prediction by ZEFSAII (Michael W. Deem and Ramdas Pophale) SiO2 
 PCOD8126246
Probable space group: P 21/C
;
_chemical_formula_sum "Si O2"
_cell_formula_units_Z 28
_cell_length_a 19.419625
_cell_length_b 13.367092
_cell_length_c 5.186638
_cell_angle_alpha 90.000000
_cell_angle_beta 116.244637
_cell_angle_gamma 90.000000
_cell_volume 1207.576306
_symmetry_space_group_name_H-M "P 21/C"
_symmetry_group_IT_number 14
_symmetry_cell_setting 'monoclinic'
loop_
_space_group_symop_operation_xyz
x,y,z
-x,1/2+y,1/2-z
-x,-y,-z
x,1/2-y,1/2+z
loop_
_atom_site_type_symbol
_atom_site_label
_atom_site_fract_x
_atom_site_fract_y
_atom_site_fract_z
Si Si1 0.977865 0.810077 0.477610
Si Si2 0.463927 0.801467 0.737861
Si Si3 0.271370 0.519323 0.448377
Si Si4 0.631746 0.014050 0.405774
Si Si5 0.369701 0.213383 0.512689
Si Si6 0.812018 0.815467 0.107430
Si Si7 0.143194 0.817349 0.661870
O O1 0.978658 0.785587 0.783741
O O2 0.057559 0.867163 0.541629
O O3 0.897629 0.865081 0.279392
O O4 0.426088 0.752809 0.421667
O O5 0.445556 0.919357 0.719306
O O6 0.555620 0.785203 0.894926
O O7 0.329747 0.521705 0.307519
O O8 0.246552 0.405636 0.449405
O O9 0.201489 0.591838 0.275345
O O10 0.312133 0.555219 0.779128
O O11 0.606080 0.901083 0.429185
O O12 0.321179 0.242977 0.175103
O O13 0.801230 0.726556 0.298854
O O14 0.155581 0.763186 0.409048
#
# Coordination Sequence:
#
# PCOD8126246 Si02
#       7
#     4   4   4   4   4   4   4
#     4   8  16  33  58  85 114 158 206 255 296 333
#     4  10  23  42  67  92 117 154 194 243 305 356
#     4  12  26  39  61  92 124 168 199 240 309 366
#     4  12  26  42  61  93 126 152 203 250 295 373
#     4  10  23  42  67  92 117 154 194 243 305 356
#     4  10  21  39  61  87 124 162 207 254 296 352
#     4  10  21  39  61  87 124 162 207 254 296 352
#
# _framework density 23.186941999999998
#
# number of rings (size 3 to 8) (size 9 to 14) (size 15 to 20)
#    0.000    1.714    0.000    3.429    0.000   12.000 
#    0.000    0.000    0.000   12.000    0.000    0.000 
#    0.000    0.000    0.000    0.000    0.000    0.000 
#
# Total GULP energy -347048.347069 kJ/mol
# GULP energy per Si atom -12394.583824 kJ/mol
# Density = 2.313417 g / cm^3
# Si number density = 23.186942 Si / 1000 Ang^3
#
#
#
# Elastic Constant Matrix: (Units=GPa)
#
#
# Indices 1 2 3 4 5 6 
#
# 1 89.1723 27.8195 35.9049 0.0000 -3.2906 0.0000
# 2 27.8195 73.4489 28.6356 0.0000 -2.1000 0.0000
# 3 35.9049 28.6356 84.2233 0.0000 -38.3313 0.0000
# 4 0.0000 0.0000 0.0000 27.4149 0.0000 -0.7797
# 5 -3.2906 -2.1000 -38.3313 0.0000 44.5798 0.0000
# 6 0.0000 0.0000 0.0000 -0.7797 0.0000 22.5876
#
#
#
# Elastic Compliance Matrix: (Units=1/GPa)
#
#
# Indices 1 2 3 4 5 6 
#
# 1 0.015202 -0.002654 -0.008419 0.000000 -0.006242 0.000000
# 2 -0.002654 0.017324 -0.007355 0.000000 -0.005704 0.000000
# 3 -0.008419 -0.007355 0.028788 0.000000 0.023785 0.000000
# 4 0.000000 0.000000 0.000000 0.036512 0.000000 0.001260
# 5 -0.006242 -0.005704 0.023785 0.000000 0.042153 0.000000
# 6 0.000000 0.000000 0.000000 0.001260 0.000000 0.044316
#
#
# Mechanical properties :
#
#
# Convention : Reuss Voigt Hill
#
# Bulk Modulus (GPa) = 40.88555 47.95163 44.41859
# Shear Modulus (GPa) = 21.80520 29.21544 25.51032
#
# Velocity S-wave (km/s) = 3.06994 3.55349 3.32053
# Velocity P-wave (km/s) = 5.49884 6.12876 5.82233
#
# Compressibility (1/GPa) = 0.02445852
#
# Stress axis : x y z
#
# Youngs Moduli (GPa) = 65.78178 57.72211 34.73715
#
# Poissons Ratio (x) = 0.15319 0.29245
# Poissons Ratio (y) = 0.17458 0.25548
# Poissons Ratio (z) = 0.55382 0.42452
#
# Static dielectric constant tensor:
#      x y z
#    x 4.750080 0.000000 -0.762020 
#    y 0.000000 3.763960 0.000000 
#    z -0.762020 0.000000 6.374620 
# 
# 
# High freq. dielectric constant tensor:
#      x y z
#    x 1.935930 0.000000 -0.005220 
#    y 0.000000 1.880940 0.000000 
#    z -0.005220 0.000000 1.953400 
# 
# From -- ./inp_files/4384.got.cif
#   From: 2010.03.12/outbox.cif.g09.slc.cpg/sg14_3_cif.got.tgz:4384.got - 2010.03.31 13:35:05.
