data_PCOD8126905
_publ_section_title
;
Structure prediction by ZEFSAII (Michael W. Deem and Ramdas Pophale) SiO2 
 PCOD8126905
Probable space group: P 21/C
;
_chemical_formula_sum "Si O2"
_cell_formula_units_Z 20
_cell_length_a 9.611329
_cell_length_b 11.338031
_cell_length_c 10.735324
_cell_angle_alpha 90.000000
_cell_angle_beta 45.244337
_cell_angle_gamma 90.000000
_cell_volume 830.740548
_symmetry_space_group_name_H-M "P 21/C"
_symmetry_group_IT_number 14
_symmetry_cell_setting 'monoclinic'
loop_
_space_group_symop_operation_xyz
x,y,z
-x,1/2+y,1/2-z
-x,-y,-z
x,1/2-y,1/2+z
loop_
_atom_site_type_symbol
_atom_site_label
_atom_site_fract_x
_atom_site_fract_y
_atom_site_fract_z
Si Si1 0.270706 0.013819 0.122983
Si Si2 0.565420 0.678355 0.660206
Si Si3 0.840190 0.866794 0.559030
Si Si4 0.337766 0.957352 0.505535
Si Si5 0.790293 0.266736 0.282394
O O1 0.151447 0.050717 0.323871
O O2 0.198897 0.881767 0.132480
O O3 0.252860 0.112099 0.026081
O O4 0.500000 0.000000 0.000000
O O5 0.656294 0.778303 0.691495
O O6 0.451816 0.583028 0.811616
O O7 0.416809 0.739345 0.657976
O O8 0.033198 0.784992 0.427152
O O9 0.807105 0.939494 0.450495
O O10 0.196144 0.854673 0.649015
O O11 0.500000 0.000000 0.500000
#
# Coordination Sequence:
#
# PCOD8126905 Si02
#       5
#     4   4   4   4   4
#     4  10  21  44  69  98 132 192 233 278 356 416
#     4  11  24  45  72  98 142 182 239 290 352 422
#     4  12  25  43  73 105 139 186 238 293 351 429
#     4  12  26  46  70 104 145 184 233 297 355 414
#     4  11  25  42  69 102 138 186 234 288 357 417
#
# _framework density 24.074905000000001
#
# number of rings (size 3 to 8) (size 9 to 14) (size 15 to 20)
#    0.000    0.800    6.000    3.000    2.800    0.000 
#    0.000    1.000    0.000    0.000    0.000    0.000 
#    0.000    0.000    0.000    0.000    0.000    0.000 
#
# Total GULP energy -247936.045328 kJ/mol
# GULP energy per Si atom -12396.802266 kJ/mol
# Density = 2.402011 g / cm^3
# Si number density = 24.074905 Si / 1000 Ang^3
#
#
#
# Elastic Constant Matrix: (Units=GPa)
#
#
# Indices 1 2 3 4 5 6 
#
# 1 43.2199 13.6702 4.5959 0.0000 -0.1336 0.0000
# 2 13.6702 95.3496 24.9220 0.0000 -4.6308 0.0000
# 3 4.5959 24.9220 119.2203 0.0000 -1.5640 0.0000
# 4 0.0000 0.0000 0.0000 49.3284 0.0000 3.2578
# 5 -0.1336 -4.6308 -1.5640 0.0000 31.2083 0.0000
# 6 0.0000 0.0000 0.0000 3.2578 0.0000 20.7305
#
#
#
# Elastic Compliance Matrix: (Units=1/GPa)
#
#
# Indices 1 2 3 4 5 6 
#
# 1 0.024247 -0.003439 -0.000221 0.000000 -0.000418 0.000000
# 2 -0.003439 0.011655 -0.002283 0.000000 0.001600 0.000000
# 3 -0.000221 -0.002283 0.008875 0.000000 0.000105 0.000000
# 4 0.000000 0.000000 0.000000 0.020485 0.000000 -0.003219
# 5 -0.000418 0.001600 0.000105 0.000000 0.032284 0.000000
# 6 0.000000 0.000000 0.000000 -0.003219 0.000000 0.048744
#
#
# Mechanical properties :
#
#
# Convention : Reuss Voigt Hill
#
# Bulk Modulus (GPa) = 30.40294 38.24067 34.32180
# Shear Modulus (GPa) = 29.56135 34.56023 32.06079
#
# Velocity S-wave (km/s) = 3.50793 3.79295 3.65322
# Velocity P-wave (km/s) = 5.39104 5.92456 5.66409
#
# Compressibility (1/GPa) = 0.03289156
#
# Stress axis : x y z
#
# Youngs Moduli (GPa) = 41.24153 85.79910 112.67667
#
# Poissons Ratio (x) = 0.29504 0.02494
# Poissons Ratio (y) = 0.14182 0.25722
# Poissons Ratio (z) = 0.00913 0.19587
#
# Static dielectric constant tensor:
#      x y z
#    x 4.213580 0.000000 0.069100 
#    y 0.000000 4.845320 0.000000 
#    z 0.069100 0.000000 4.634810 
# 
# 
# High freq. dielectric constant tensor:
#      x y z
#    x 1.931380 0.000000 -0.018920 
#    y 0.000000 1.970500 0.000000 
#    z -0.018920 0.000000 1.956060 
# 
# From -- ./inp_files/23730.got.cif
#   From: 2010.03.12/outbox.cif.g09.slc.cpg/sg14_12_cif.got.tgz:23730.got - 2010.03.31 13:35:05.
