data_PCOD8126777
_publ_section_title
;
Structure prediction by ZEFSAII (Michael W. Deem and Ramdas Pophale) SiO2 
 PCOD8126777
Probable space group: P 21/C
;
_chemical_formula_sum "Si O2"
_cell_formula_units_Z 20
_cell_length_a 16.118814
_cell_length_b 9.193424
_cell_length_c 9.965104
_cell_angle_alpha 90.000000
_cell_angle_beta 148.687691
_cell_angle_gamma 90.000000
_cell_volume 767.444811
_symmetry_space_group_name_H-M "P 21/C"
_symmetry_group_IT_number 14
_symmetry_cell_setting 'monoclinic'
loop_
_space_group_symop_operation_xyz
x,y,z
-x,1/2+y,1/2-z
-x,-y,-z
x,1/2-y,1/2+z
loop_
_atom_site_type_symbol
_atom_site_label
_atom_site_fract_x
_atom_site_fract_y
_atom_site_fract_z
Si Si1 0.027298 0.052613 0.784505
Si Si2 0.786965 0.826864 0.417942
Si Si3 0.250887 0.681813 0.521642
Si Si4 0.612948 0.837208 0.446875
Si Si5 0.195001 0.892981 0.223568
O O1 0.854175 0.992467 0.495782
O O2 0.058439 0.226537 0.822389
O O3 0.166748 0.975806 0.885927
O O4 0.046575 0.991451 0.964717
O O5 0.653680 0.813045 0.347704
O O6 0.710252 0.776733 0.172990
O O7 0.151454 0.806092 0.300685
O O8 0.248628 0.719691 0.678320
O O9 0.425641 0.684530 0.701777
O O10 0.653856 0.001422 0.545074
#
# Coordination Sequence:
#
# PCOD8126777 Si02
#       5
#     4   4   4   4   4
#     4   9  25  42  67  90 135 167 216 258 327 373
#     4  11  25  43  66  95 131 174 212 268 317 385
#     4  10  21  42  67  90 128 171 212 265 319 380
#     4  11  24  42  66  95 131 166 218 265 325 375
#     4   9  22  40  67  89 128 168 213 262 324 374
#
# _framework density 26.060504999999999
#
# number of rings (size 3 to 8) (size 9 to 14) (size 15 to 20)
#    1.200    0.800    0.000    1.800    8.400    2.400 
#    3.600    2.000    0.000    0.000    0.000    0.000 
#    0.000    0.000    0.000    0.000    0.000    0.000 
#
# Total GULP energy -247851.899711 kJ/mol
# GULP energy per Si atom -12392.594986 kJ/mol
# Density = 2.600119 g / cm^3
# Si number density = 26.060505 Si / 1000 Ang^3
#
#
#
# Elastic Constant Matrix: (Units=GPa)
#
#
# Indices 1 2 3 4 5 6 
#
# 1 83.7475 -7.3482 -4.0542 0.0000 -11.4592 0.0000
# 2 -7.3482 72.3320 -5.6621 0.0000 -7.6383 0.0000
# 3 -4.0542 -5.6621 45.3854 0.0000 10.3958 0.0000
# 4 0.0000 0.0000 0.0000 35.7557 0.0000 -2.5375
# 5 -11.4592 -7.6383 10.3958 0.0000 35.5948 0.0000
# 6 0.0000 0.0000 0.0000 -2.5375 0.0000 32.3820
#
#
#
# Elastic Compliance Matrix: (Units=1/GPa)
#
#
# Indices 1 2 3 4 5 6 
#
# 1 0.012712 0.001781 0.000357 0.000000 0.004370 0.000000
# 2 0.001781 0.014451 0.001201 0.000000 0.003324 0.000000
# 3 0.000357 0.001201 0.023716 0.000000 -0.006554 0.000000
# 4 0.000000 0.000000 0.000000 0.028124 0.000000 0.002204
# 5 0.004370 0.003324 -0.006554 0.000000 0.032128 0.000000
# 6 0.000000 0.000000 0.000000 0.002204 0.000000 0.031054
#
#
# Mechanical properties :
#
#
# Convention : Reuss Voigt Hill
#
# Bulk Modulus (GPa) = 17.37442 18.59289 17.98366
# Shear Modulus (GPa) = 32.32164 35.31513 33.81839
#
# Velocity S-wave (km/s) = 3.52554 3.68519 3.60625
# Velocity P-wave (km/s) = 4.82224 5.02568 4.92501
#
# Compressibility (1/GPa) = 0.05755587
#
# Stress axis : x y z
#
# Youngs Moduli (GPa) = 78.66469 69.19924 42.16490
#
# Poissons Ratio (x) = -0.12323 -0.01504
# Poissons Ratio (y) = -0.14009 -0.05062
# Poissons Ratio (z) = -0.02806 -0.08308
#
# Static dielectric constant tensor:
#      x y z
#    x 4.630430 0.000000 -0.077880 
#    y 0.000000 4.553010 0.000000 
#    z -0.077880 0.000000 4.351410 
# 
# 
# High freq. dielectric constant tensor:
#      x y z
#    x 2.063580 0.000000 0.009340 
#    y 0.000000 2.037460 0.000000 
#    z 0.009340 0.000000 2.026520 
# 
# From -- ./inp_files/33697.got.cif
#   From: 2010.03.12/outbox.cif.g09.slc.cpg/sg14_17_cif.got.tgz:33697.got - 2010.03.31 13:35:05.
