data_PCOD8126814
_publ_section_title
;
Structure prediction by ZEFSAII (Michael W. Deem and Ramdas Pophale) SiO2 
 PCOD8126814
Probable space group: P 21/C
;
_chemical_formula_sum "Si O2"
_cell_formula_units_Z 20
_cell_length_a 13.266402
_cell_length_b 15.801211
_cell_length_c 8.951897
_cell_angle_alpha 90.000000
_cell_angle_beta 30.634604
_cell_angle_gamma 90.000000
_cell_volume 956.213629
_symmetry_space_group_name_H-M "P 21/C"
_symmetry_group_IT_number 14
_symmetry_cell_setting 'monoclinic'
loop_
_space_group_symop_operation_xyz
x,y,z
-x,1/2+y,1/2-z
-x,-y,-z
x,1/2-y,1/2+z
loop_
_atom_site_type_symbol
_atom_site_label
_atom_site_fract_x
_atom_site_fract_y
_atom_site_fract_z
Si Si1 0.024104 0.481092 0.142108
Si Si2 0.748542 0.362219 0.065834
Si Si3 0.407930 0.567590 0.225844
Si Si4 0.414459 0.386981 0.699429
Si Si5 0.372855 0.775281 0.581625
O O1 0.826371 0.445323 0.466076
O O2 0.077285 0.568907 0.158579
O O3 0.187802 0.408354 0.956456
O O4 0.000000 0.500000 0.000000
O O5 0.548577 0.409724 0.381714
O O6 0.792430 0.285481 0.127516
O O7 0.721935 0.324920 0.935102
O O8 0.508554 0.558489 0.258498
O O9 0.453285 0.659681 0.101474
O O10 0.500000 0.500000 0.000000
O O11 0.443198 0.286104 0.699449
#
# Coordination Sequence:
#
# PCOD8126814 Si02
#       5
#     4   4   4   4   4
#     4  12  25  43  74 107 135 189 238 285 350 425
#     4  10  21  42  73  97 142 182 234 290 351 410
#     4  12  26  45  69 106 144 181 234 291 351 414
#     4  10  22  45  69  97 139 183 233 285 350 408
#     4  10  21  43  70  98 142 185 224 296 342 410
#
# _framework density 20.915825999999999
#
# number of rings (size 3 to 8) (size 9 to 14) (size 15 to 20)
#    1.200    0.000    4.000    1.800    2.800    3.200 
#    3.600    4.000    0.000    0.000    0.000    0.000 
#    0.000    0.000    0.000    0.000    0.000    0.000 
#
# Total GULP energy -247893.205686 kJ/mol
# GULP energy per Si atom -12394.660284 kJ/mol
# Density = 2.086822 g / cm^3
# Si number density = 20.915826 Si / 1000 Ang^3
#
#
#
# Elastic Constant Matrix: (Units=GPa)
#
#
# Indices 1 2 3 4 5 6 
#
# 1 126.6086 47.5392 45.9693 0.0000 -4.4482 0.0000
# 2 47.5392 110.2509 32.3212 0.0000 -8.1969 0.0000
# 3 45.9693 32.3212 97.6786 0.0000 -12.3755 0.0000
# 4 0.0000 0.0000 0.0000 25.2376 0.0000 11.5835
# 5 -4.4482 -8.1969 -12.3755 0.0000 32.5444 0.0000
# 6 0.0000 0.0000 0.0000 11.5835 0.0000 45.8033
#
#
#
# Elastic Compliance Matrix: (Units=1/GPa)
#
#
# Indices 1 2 3 4 5 6 
#
# 1 0.010611 -0.003484 -0.003959 0.000000 -0.000933 0.000000
# 2 -0.003484 0.011244 -0.001873 0.000000 0.001644 0.000000
# 3 -0.003959 -0.001873 0.013230 0.000000 0.004018 0.000000
# 4 0.000000 0.000000 0.000000 0.044827 0.000000 -0.011337
# 5 -0.000933 0.001644 0.004018 0.000000 0.032542 0.000000
# 6 0.000000 0.000000 0.000000 -0.011337 0.000000 0.024699
#
#
# Mechanical properties :
#
#
# Convention : Reuss Voigt Hill
#
# Bulk Modulus (GPa) = 60.77952 65.13307 62.95629
# Shear Modulus (GPa) = 31.00419 34.63094 32.81756
#
# Velocity S-wave (km/s) = 3.85428 4.07348 3.96540
# Velocity P-wave (km/s) = 6.99496 7.30291 7.15059
#
# Compressibility (1/GPa) = 0.01645291
#
# Stress axis : x y z
#
# Youngs Moduli (GPa) = 94.23871 88.93849 75.58817
#
# Poissons Ratio (x) = 0.30988 0.29927
# Poissons Ratio (y) = 0.32835 0.14154
# Poissons Ratio (z) = 0.37311 0.16654
#
# Static dielectric constant tensor:
#      x y z
#    x 3.875750 0.000000 1.209410 
#    y 0.000000 4.066300 0.000000 
#    z 1.209410 0.000000 10.754840 
# 
# 
# High freq. dielectric constant tensor:
#      x y z
#    x 1.825030 0.000000 0.018780 
#    y 0.000000 1.838810 0.000000 
#    z 0.018780 0.000000 1.787070 
# 
# From -- ./inp_files/13855.got.cif
#   From: 2010.03.12/outbox.cif.g09.slc.cpg/sg14_7_cif.got.tgz:13855.got - 2010.03.31 13:35:05.
