data_PCOD8126816
_publ_section_title
;
Structure prediction by ZEFSAII (Michael W. Deem and Ramdas Pophale) SiO2 
 PCOD8126816
Probable space group: P 21/C
;
_chemical_formula_sum "Si O2"
_cell_formula_units_Z 20
_cell_length_a 8.299787
_cell_length_b 10.104896
_cell_length_c 11.728774
_cell_angle_alpha 90.000000
_cell_angle_beta 59.235415
_cell_angle_gamma 90.000000
_cell_volume 845.248117
_symmetry_space_group_name_H-M "P 21/C"
_symmetry_group_IT_number 14
_symmetry_cell_setting 'monoclinic'
loop_
_space_group_symop_operation_xyz
x,y,z
-x,1/2+y,1/2-z
-x,-y,-z
x,1/2-y,1/2+z
loop_
_atom_site_type_symbol
_atom_site_label
_atom_site_fract_x
_atom_site_fract_y
_atom_site_fract_z
Si Si1 0.333500 0.556280 0.206306
Si Si2 0.293352 0.120912 0.520096
Si Si3 0.087624 0.632596 0.103918
Si Si4 0.698443 0.112674 0.032316
Si Si5 0.734053 0.624094 0.360562
O O1 0.361363 0.419827 0.125042
O O2 0.172472 0.642116 0.201815
O O3 0.279552 0.533076 0.356946
O O4 0.530866 0.634477 0.128454
O O5 0.202282 0.265235 0.569257
O O6 0.147768 0.009284 0.525439
O O7 0.861968 0.637130 0.199922
O O8 0.171604 0.756725 0.004574
O O9 0.481946 0.149871 0.091938
O O10 0.769246 0.019549 0.904034
#
# Coordination Sequence:
#
# PCOD8126816 Si02
#       5
#     4   4   4   4   4
#     4   9  20  41  66  80 123 168 200 237 313 365
#     4   9  19  42  61  83 124 168 191 247 304 363
#     4  10  21  43  61  88 126 163 197 250 303 368
#     4  11  23  40  63  95 120 160 204 256 298 359
#     4  11  22  39  63  92 126 151 208 261 294 349
#
# _framework density 23.661691999999999
#
# number of rings (size 3 to 8) (size 9 to 14) (size 15 to 20)
#    1.200    0.800    2.000    1.200    0.000    4.000 
#    3.600    1.000    0.000    0.000    0.000    0.000 
#    0.000    0.000    0.000    0.000    0.000    0.000 
#
# Total GULP energy -247820.438273 kJ/mol
# GULP energy per Si atom -12391.021914 kJ/mol
# Density = 2.360784 g / cm^3
# Si number density = 23.661692 Si / 1000 Ang^3
#
#
#
# Elastic Constant Matrix: (Units=GPa)
#
#
# Indices 1 2 3 4 5 6 
#
# 1 41.2055 4.5389 16.9964 0.0000 -19.9838 0.0000
# 2 4.5389 104.7767 4.1366 0.0000 -19.7067 0.0000
# 3 16.9964 4.1366 86.0704 0.0000 -19.4284 0.0000
# 4 0.0000 0.0000 0.0000 32.0534 0.0000 -8.2032
# 5 -19.9838 -19.7067 -19.4284 0.0000 43.2935 0.0000
# 6 0.0000 0.0000 0.0000 -8.2032 0.0000 5.6616
#
#
#
# Elastic Compliance Matrix: (Units=1/GPa)
#
#
# Indices 1 2 3 4 5 6 
#
# 1 0.032285 0.001375 -0.003267 0.000000 0.014062 0.000000
# 2 0.001375 0.010528 0.000498 0.000000 0.005650 0.000000
# 3 -0.003267 0.000498 0.013297 0.000000 0.004686 0.000000
# 4 0.000000 0.000000 0.000000 0.049584 0.000000 0.071844
# 5 0.014062 0.005650 0.004686 0.000000 0.034264 0.000000
# 6 0.000000 0.000000 0.000000 0.071844 0.000000 0.280722
#
#
# Mechanical properties :
#
#
# Convention : Reuss Voigt Hill
#
# Bulk Modulus (GPa) = 18.75422 31.48851 25.12136
# Shear Modulus (GPa) = 11.33166 29.96042 20.64604
#
# Velocity S-wave (km/s) = 2.19076 3.56223 2.95710
# Velocity P-wave (km/s) = 3.78714 5.50055 4.72220
#
# Compressibility (1/GPa) = 0.05332135
#
# Stress axis : x y z
#
# Youngs Moduli (GPa) = 30.97460 94.98852 75.20279
#
# Poissons Ratio (x) = -0.13063 0.24570
# Poissons Ratio (y) = -0.04260 -0.03744
# Poissons Ratio (z) = 0.10120 -0.04729
#
# Static dielectric constant tensor:
#      x y z
#    x 3.877440 0.000000 -0.208470 
#    y 0.000000 3.997010 0.000000 
#    z -0.208470 0.000000 3.907920 
# 
# 
# High freq. dielectric constant tensor:
#      x y z
#    x 1.915550 0.000000 -0.021020 
#    y 0.000000 1.926660 0.000000 
#    z -0.021020 0.000000 1.928230 
# 
# From -- ./inp_files/23726.got.cif
#   From: 2010.03.12/outbox.cif.g09.slc.cpg/sg14_12_cif.got.tgz:23726.got - 2010.03.31 13:35:05.
