data_PCOD8126322
_publ_section_title
;
Structure prediction by ZEFSAII (Michael W. Deem and Ramdas Pophale) SiO2 
 PCOD8126322
Probable space group: P 21/C
;
_chemical_formula_sum "Si O2"
_cell_formula_units_Z 24
_cell_length_a 7.070397
_cell_length_b 12.195373
_cell_length_c 11.564191
_cell_angle_alpha 90.000000
_cell_angle_beta 67.790462
_cell_angle_gamma 90.000000
_cell_volume 923.155624
_symmetry_space_group_name_H-M "P 21/C"
_symmetry_group_IT_number 14
_symmetry_cell_setting 'monoclinic'
loop_
_space_group_symop_operation_xyz
x,y,z
-x,1/2+y,1/2-z
-x,-y,-z
x,1/2-y,1/2+z
loop_
_atom_site_type_symbol
_atom_site_label
_atom_site_fract_x
_atom_site_fract_y
_atom_site_fract_z
Si Si1 0.851394 0.987064 0.925472
Si Si2 0.284724 0.658388 0.128039
Si Si3 0.433155 0.883315 0.145204
Si Si4 0.138342 0.900204 0.424005
Si Si5 0.254295 0.441982 0.253717
Si Si6 0.115934 0.243395 0.158806
O O1 0.769568 0.863659 0.918450
O O2 0.653548 0.065500 0.955117
O O3 0.014553 0.030123 0.791719
O O4 0.000000 0.000000 0.000000
O O5 0.445500 0.752236 0.128867
O O6 0.365206 0.546167 0.169453
O O7 0.059242 0.700536 0.214360
O O8 0.287770 0.640788 0.990599
O O9 0.291563 0.926505 0.283318
O O10 0.660124 0.929492 0.131461
O O11 0.985076 0.802793 0.427057
O O12 0.000000 0.000000 0.500000
O O13 0.280194 0.324455 0.183270
#
# Coordination Sequence:
#
# PCOD8126322 Si02
#       6
#     4   4   4   4   4   4
#     4  11  23  45  66  93 132 175 217 265 331 389
#     4  10  21  41  62  92 132 167 214 272 322 388
#     4  11  25  42  65  97 133 170 216 276 327 384
#     4  11  19  41  68  93 128 171 220 267 324 385
#     4  11  23  43  62  97 131 169 221 270 322 390
#     4  10  21  39  65  90 129 171 212 269 326 380
#
# _framework density 25.997782999999998
#
# number of rings (size 3 to 8) (size 9 to 14) (size 15 to 20)
#    0.000    1.333    5.000    2.000    2.333    1.333 
#    3.000    0.000    0.000    0.000    0.000    0.000 
#    0.000    0.000    0.000    0.000    0.000    0.000 
#
# Total GULP energy -297453.122638 kJ/mol
# GULP energy per Si atom -12393.880110 kJ/mol
# Density = 2.593861 g / cm^3
# Si number density = 25.997783 Si / 1000 Ang^3
#
#
#
# Elastic Constant Matrix: (Units=GPa)
#
#
# Indices 1 2 3 4 5 6 
#
# 1 109.0859 68.4171 28.0904 0.0000 35.7529 0.0000
# 2 68.4171 199.1950 36.8915 0.0000 30.5108 0.0000
# 3 28.0904 36.8915 81.4985 0.0000 38.1021 0.0000
# 4 0.0000 0.0000 0.0000 44.0800 0.0000 12.3357
# 5 35.7529 30.5108 38.1021 0.0000 52.4210 0.0000
# 6 0.0000 0.0000 0.0000 12.3357 0.0000 39.2213
#
#
#
# Elastic Compliance Matrix: (Units=1/GPa)
#
#
# Indices 1 2 3 4 5 6 
#
# 1 0.013860 -0.003674 0.000463 0.000000 -0.007651 0.000000
# 2 -0.003674 0.006611 -0.001664 0.000000 -0.000132 0.000000
# 3 0.000463 -0.001664 0.019023 0.000000 -0.013174 0.000000
# 4 0.000000 0.000000 0.000000 0.024875 0.000000 -0.007824
# 5 -0.007651 -0.000132 -0.013174 0.000000 0.033947 0.000000
# 6 0.000000 0.000000 0.000000 -0.007824 0.000000 0.027957
#
#
# Mechanical properties :
#
#
# Convention : Reuss Voigt Hill
#
# Bulk Modulus (GPa) = 33.62197 72.95303 53.28750
# Shear Modulus (GPa) = 34.26110 44.23648 39.24879
#
# Velocity S-wave (km/s) = 3.63415 4.12946 3.88970
# Velocity P-wave (km/s) = 5.52903 7.13153 6.38079
#
# Compressibility (1/GPa) = 0.02974245
#
# Stress axis : x y z
#
# Youngs Moduli (GPa) = 72.15053 151.27102 52.56790
#
# Poissons Ratio (x) = 0.55582 -0.02434
# Poissons Ratio (y) = 0.26510 0.08749
# Poissons Ratio (z) = -0.03341 0.25176
#
# Static dielectric constant tensor:
#      x y z
#    x 4.800920 0.000000 -0.215270 
#    y 0.000000 5.149150 0.000000 
#    z -0.215270 0.000000 5.015840 
# 
# 
# High freq. dielectric constant tensor:
#      x y z
#    x 2.038470 0.000000 0.004360 
#    y 0.000000 2.050390 0.000000 
#    z 0.004360 0.000000 2.051420 
# 
# From -- ./inp_files/24146.got.cif
#   From: 2010.03.12/outbox.cif.g09.slc.cpg/sg14_13_cif.got.tgz:24146.got - 2010.03.31 13:35:05.
