data_PCOD8126170
_publ_section_title
;
Structure prediction by ZEFSAII (Michael W. Deem and Ramdas Pophale) SiO2 
 PCOD8126170
Probable space group: P 21/C
;
_chemical_formula_sum "Si O2"
_cell_formula_units_Z 32
_cell_length_a 11.672646
_cell_length_b 18.282888
_cell_length_c 9.433105
_cell_angle_alpha 90.000000
_cell_angle_beta 52.754428
_cell_angle_gamma 90.000000
_cell_volume 1602.538466
_symmetry_space_group_name_H-M "P 21/C"
_symmetry_group_IT_number 14
_symmetry_cell_setting 'monoclinic'
loop_
_space_group_symop_operation_xyz
x,y,z
-x,1/2+y,1/2-z
-x,-y,-z
x,1/2-y,1/2+z
loop_
_atom_site_type_symbol
_atom_site_label
_atom_site_fract_x
_atom_site_fract_y
_atom_site_fract_z
Si Si1 0.611967 0.483638 0.537213
Si Si2 0.306805 0.671608 0.430690
Si Si3 0.968625 0.689574 0.360884
Si Si4 0.109981 0.439968 0.765164
Si Si5 0.694675 0.185887 0.393825
Si Si6 0.970126 0.669041 0.685358
Si Si7 0.439259 0.962874 0.407896
Si Si8 0.152092 0.457251 0.048767
O O1 0.500000 0.500000 0.500000
O O2 0.602532 0.398652 0.588791
O O3 0.772606 0.500135 0.366179
O O4 0.570099 0.536377 0.698638
O O5 0.346525 0.692065 0.240016
O O6 0.352300 0.739118 0.495652
O O7 0.138946 0.652533 0.570013
O O8 0.875438 0.629934 0.346592
O O9 0.926674 0.689651 0.557612
O O10 0.926856 0.766991 0.325380
O O11 0.136333 0.672222 0.212316
O O12 0.953117 0.473817 0.861350
O O13 0.131589 0.416777 0.912953
O O14 0.609650 0.119825 0.530076
O O15 0.880901 0.597947 0.798206
O O16 0.500000 0.000000 0.500000
O O17 0.312223 0.012804 0.441496
#
# Coordination Sequence:
#
# PCOD8126170 Si02
#       8
#     4   4   4   4   4   4   4   4
#     4  12  25  43  63  97 134 172 211 265 325 384
#     4  10  22  40  64  94 128 168 216 262 319 388
#     4  10  21  38  64  95 127 162 212 268 323 374
#     4  11  23  40  65  93 126 164 216 260 315 376
#     4  10  22  40  64  95 126 170 216 262 320 386
#     4  10  21  38  64  95 126 162 211 271 318 377
#     4  12  25  43  65  95 135 171 215 265 321 385
#     4  11  23  40  65  94 124 166 215 262 312 377
#
# _framework density 19.968319000000001
#
# number of rings (size 3 to 8) (size 9 to 14) (size 15 to 20)
#    0.000    1.250    5.000    0.750    3.500    1.500 
#    0.000    2.500    0.000    0.000    0.000    0.000 
#    0.000    0.000    0.000    0.000    0.000    0.000 
#
# Total GULP energy -396925.461031 kJ/mol
# GULP energy per Si atom -12403.920657 kJ/mol
# Density = 1.992287 g / cm^3
# Si number density = 19.968319 Si / 1000 Ang^3
#
#
#
# Elastic Constant Matrix: (Units=GPa)
#
#
# Indices 1 2 3 4 5 6 
#
# 1 73.6818 30.0682 20.8361 0.0000 16.5841 0.0000
# 2 30.0682 109.8730 46.0190 0.0000 15.6184 0.0000
# 3 20.8361 46.0190 113.8419 0.0000 24.1438 0.0000
# 4 0.0000 0.0000 0.0000 40.2600 0.0000 4.0791
# 5 16.5841 15.6184 24.1438 0.0000 32.2902 0.0000
# 6 0.0000 0.0000 0.0000 4.0791 0.0000 34.3987
#
#
#
# Elastic Compliance Matrix: (Units=1/GPa)
#
#
# Indices 1 2 3 4 5 6 
#
# 1 0.016556 -0.003499 -0.000204 0.000000 -0.006658 0.000000
# 2 -0.003499 0.011850 -0.003940 0.000000 -0.000988 0.000000
# 3 -0.000204 -0.003940 0.011870 0.000000 -0.006865 0.000000
# 4 0.000000 0.000000 0.000000 0.025141 0.000000 -0.002981
# 5 -0.006658 -0.000988 -0.006865 0.000000 0.040000 0.000000
# 6 0.000000 0.000000 0.000000 -0.002981 0.000000 0.029424
#
#
# Mechanical properties :
#
#
# Convention : Reuss Voigt Hill
#
# Bulk Modulus (GPa) = 40.01533 54.58259 47.29896
# Shear Modulus (GPa) = 31.55446 34.75469 33.15457
#
# Velocity S-wave (km/s) = 3.97952 4.17645 4.07917
# Velocity P-wave (km/s) = 6.41859 7.11694 6.77677
#
# Compressibility (1/GPa) = 0.02499042
#
# Stress axis : x y z
#
# Youngs Moduli (GPa) = 60.40112 84.39025 84.24572
#
# Poissons Ratio (x) = 0.29528 0.01716
# Poissons Ratio (y) = 0.21134 0.33193
# Poissons Ratio (z) = 0.01230 0.33250
#
# Static dielectric constant tensor:
#      x y z
#    x 3.524740 0.000000 0.179310 
#    y 0.000000 3.513710 0.000000 
#    z 0.179310 0.000000 3.690920 
# 
# 
# High freq. dielectric constant tensor:
#      x y z
#    x 1.770660 0.000000 0.016190 
#    y 0.000000 1.778490 0.000000 
#    z 0.016190 0.000000 1.789250 
# 
# From -- ./inp_files/13872.got.cif
#   From: 2010.03.12/outbox.cif.g09.slc.cpg/sg14_7_cif.got.tgz:13872.got - 2010.03.31 13:35:05.
