data_PCOD8126686
_publ_section_title
;
Structure prediction by ZEFSAII (Michael W. Deem and Ramdas Pophale) SiO2 
 PCOD8126686
Probable space group: P 21/C
;
_chemical_formula_sum "Si O2"
_cell_formula_units_Z 32
_cell_length_a 11.690464
_cell_length_b 14.063276
_cell_length_c 16.732076
_cell_angle_alpha 90.000000
_cell_angle_beta 32.288365
_cell_angle_gamma 90.000000
_cell_volume 1469.454908
_symmetry_space_group_name_H-M "P 21/C"
_symmetry_group_IT_number 14
_symmetry_cell_setting 'monoclinic'
loop_
_space_group_symop_operation_xyz
x,y,z
-x,1/2+y,1/2-z
-x,-y,-z
x,1/2-y,1/2+z
loop_
_atom_site_type_symbol
_atom_site_label
_atom_site_fract_x
_atom_site_fract_y
_atom_site_fract_z
Si Si1 0.336544 0.564629 0.924615
Si Si2 0.257363 0.200368 0.100827
Si Si3 0.868098 0.982399 0.724093
Si Si4 0.397002 0.684629 0.045859
Si Si5 0.487817 0.072844 0.846439
Si Si6 0.103441 0.664050 0.689885
Si Si7 0.886239 0.428528 0.473971
Si Si8 0.280617 0.938508 0.762126
O O1 0.437522 0.608662 0.784660
O O2 0.475689 0.473265 0.868876
O O3 0.345144 0.638760 0.991673
O O4 0.092053 0.537613 0.047262
O O5 0.215655 0.112696 0.184436
O O6 0.041219 0.246811 0.194150
O O7 0.352510 0.297231 0.086144
O O8 0.410897 0.166657 0.938166
O O9 0.684331 0.018623 0.773289
O O10 0.933840 0.061104 0.750739
O O11 0.332035 0.796526 0.082702
O O12 0.277859 0.627788 0.186582
O O13 0.284466 0.003847 0.959564
O O14 0.094163 0.658111 0.599134
O O15 0.805275 0.386170 0.606860
O O16 0.122510 0.472978 0.341615
#
# Coordination Sequence:
#
# PCOD8126686 Si02
#       8
#     4   4   4   4   4   4   4   4
#     4  11  24  43  68  97 134 175 228 279 336 396
#     4  12  24  42  70  99 134 181 226 273 341 402
#     4  12  23  46  69  96 140 180 221 277 339 413
#     4  12  23  40  62  99 132 172 223 276 329 399
#     4  11  23  43  68  98 134 179 222 279 334 402
#     4  12  23  40  68  98 130 176 221 273 332 397
#     4  10  21  41  68  97 130 175 225 279 338 393
#     4  10  22  42  67  96 132 174 225 284 337 394
#
# _framework density 21.776781
#
# number of rings (size 3 to 8) (size 9 to 14) (size 15 to 20)
#    0.000    0.750    3.750    4.875    0.000    1.000 
#    0.000    2.500    0.000    0.000    0.000    0.000 
#    0.000    0.000    0.000    0.000    0.000    0.000 
#
# Total GULP energy -396637.809178 kJ/mol
# GULP energy per Si atom -12394.931537 kJ/mol
# Density = 2.172722 g / cm^3
# Si number density = 21.776781 Si / 1000 Ang^3
#
#
#
# Elastic Constant Matrix: (Units=GPa)
#
#
# Indices 1 2 3 4 5 6 
#
# 1 104.3379 25.1648 46.9191 0.0000 13.9270 0.0000
# 2 25.1648 70.1136 37.9301 0.0000 16.2378 0.0000
# 3 46.9191 37.9301 119.9638 0.0000 13.0582 0.0000
# 4 0.0000 0.0000 0.0000 33.1313 0.0000 -8.3823
# 5 13.9270 16.2378 13.0582 0.0000 33.0707 0.0000
# 6 0.0000 0.0000 0.0000 -8.3823 0.0000 31.0508
#
#
#
# Elastic Compliance Matrix: (Units=1/GPa)
#
#
# Indices 1 2 3 4 5 6 
#
# 1 0.012103 -0.001574 -0.003934 0.000000 -0.002771 0.000000
# 2 -0.001574 0.018900 -0.004621 0.000000 -0.006793 0.000000
# 3 -0.003934 -0.004621 0.011398 0.000000 -0.000575 0.000000
# 4 0.000000 0.000000 0.000000 0.032396 0.000000 0.008745
# 5 -0.002771 -0.006793 -0.000575 0.000000 0.034967 0.000000
# 6 0.000000 0.000000 0.000000 0.008745 0.000000 0.034566
#
#
# Mechanical properties :
#
#
# Convention : Reuss Voigt Hill
#
# Bulk Modulus (GPa) = 45.16057 57.16036 51.16047
# Shear Modulus (GPa) = 29.07484 31.74398 30.40941
#
# Velocity S-wave (km/s) = 3.65791 3.82212 3.74092
# Velocity P-wave (km/s) = 6.21477 6.76635 6.49641
#
# Compressibility (1/GPa) = 0.02214321
#
# Stress axis : x y z
#
# Youngs Moduli (GPa) = 82.62509 52.90874 87.73270
#
# Poissons Ratio (x) = 0.08327 0.34517
# Poissons Ratio (y) = 0.13004 0.40541
# Poissons Ratio (z) = 0.32508 0.24449
#
# Static dielectric constant tensor:
#      x y z
#    x 4.034500 0.000000 -0.070110 
#    y 0.000000 3.576710 0.000000 
#    z -0.070110 0.000000 4.210880 
# 
# 
# High freq. dielectric constant tensor:
#      x y z
#    x 1.869560 0.000000 -0.013720 
#    y 0.000000 1.836590 0.000000 
#    z -0.013720 0.000000 1.874180 
# 
# From -- ./inp_files/57978.got.cif
#   From: 2010.03.12/outbox.cif.g09.slc.cpg/sg14_29_cif.got.tgz:57978.got - 2010.03.31 13:35:05.
