data_PCOD8126023
_publ_section_title
;
Structure prediction by ZEFSAII (Michael W. Deem and Ramdas Pophale) SiO2 
 PCOD8126023
Probable space group: P 21/C
;
_chemical_formula_sum "Si O2"
_cell_formula_units_Z 20
_cell_length_a 22.263446
_cell_length_b 5.325057
_cell_length_c 14.293630
_cell_angle_alpha 90.000000
_cell_angle_beta 147.793695
_cell_angle_gamma 90.000000
_cell_volume 903.153253
_symmetry_space_group_name_H-M "P 21/C"
_symmetry_group_IT_number 14
_symmetry_cell_setting 'monoclinic'
loop_
_space_group_symop_operation_xyz
x,y,z
-x,1/2+y,1/2-z
-x,-y,-z
x,1/2-y,1/2+z
loop_
_atom_site_type_symbol
_atom_site_label
_atom_site_fract_x
_atom_site_fract_y
_atom_site_fract_z
Si Si1 0.431261 0.941361 0.162635
Si Si2 0.923841 0.496133 0.746227
Si Si3 0.259349 0.877721 0.514072
Si Si4 0.159017 0.306330 0.032644
Si Si5 0.243774 0.240886 0.840454
O O1 0.504204 0.700176 0.223709
O O2 0.354690 0.841788 0.150173
O O3 0.337454 0.017580 0.960768
O O4 0.866153 0.222939 0.672863
O O5 0.895562 0.599464 0.605777
O O6 0.872515 0.665216 0.761038
O O7 0.058004 0.485177 0.936702
O O8 0.254836 0.038530 0.603096
O O9 0.297686 0.035563 0.472918
O O10 0.217381 0.178017 0.199513
#
# Coordination Sequence:
#
# PCOD8126023 Si02
#       5
#     4   4   4   4   4
#     4  11  22  45  73  93 130 178 222 285 344 381
#     4  10  21  37  61  91 140 179 209 271 326 392
#     4  10  22  41  63  96 131 176 221 276 327 395
#     4  11  21  40  61  99 136 176 220 266 331 399
#     4  10  23  39  67  96 127 178 227 271 326 409
#
# _framework density 22.144636999999999
#
# number of rings (size 3 to 8) (size 9 to 14) (size 15 to 20)
#    0.000    1.600    4.000    0.600    0.000    4.000 
#    0.000    2.000    0.000    0.000    0.000    0.000 
#    0.000    0.000    0.000    0.000    0.000    0.000 
#
# Total GULP energy -247766.906928 kJ/mol
# GULP energy per Si atom -12388.345346 kJ/mol
# Density = 2.209423 g / cm^3
# Si number density = 22.144637 Si / 1000 Ang^3
#
#
#
# Elastic Constant Matrix: (Units=GPa)
#
#
# Indices 1 2 3 4 5 6 
#
# 1 73.8890 27.9461 54.6843 0.0000 0.1012 0.0000
# 2 27.9461 96.0238 27.5180 0.0000 4.6418 0.0000
# 3 54.6843 27.5180 85.7761 0.0000 -7.3608 0.0000
# 4 0.0000 0.0000 0.0000 29.7772 0.0000 13.9853
# 5 0.1012 4.6418 -7.3608 0.0000 43.0999 0.0000
# 6 0.0000 0.0000 0.0000 13.9853 0.0000 29.6735
#
#
#
# Elastic Compliance Matrix: (Units=1/GPa)
#
#
# Indices 1 2 3 4 5 6 
#
# 1 0.026730 -0.002986 -0.016300 0.000000 -0.002525 0.000000
# 2 -0.002986 0.011956 -0.002072 0.000000 -0.001635 0.000000
# 3 -0.016300 -0.002072 0.023075 0.000000 0.004202 0.000000
# 4 0.000000 0.000000 0.000000 0.043130 0.000000 -0.020327
# 5 -0.002525 -0.001635 0.004202 0.000000 0.024102 0.000000
# 6 0.000000 0.000000 0.000000 -0.020327 0.000000 0.043281
#
#
# Mechanical properties :
#
#
# Convention : Reuss Voigt Hill
#
# Bulk Modulus (GPa) = 52.50701 52.88728 52.69714
# Shear Modulus (GPa) = 22.59003 30.21282 26.40143
#
# Velocity S-wave (km/s) = 3.19739 3.69770 3.45661
# Velocity P-wave (km/s) = 6.11502 6.49347 6.30709
#
# Compressibility (1/GPa) = 0.01904508
#
# Stress axis : x y z
#
# Youngs Moduli (GPa) = 37.41149 83.64012 43.33703
#
# Poissons Ratio (x) = 0.24976 0.70637
# Poissons Ratio (y) = 0.11172 0.08980
# Poissons Ratio (z) = 0.60979 0.17331
#
# Static dielectric constant tensor:
#      x y z
#    x 4.196950 0.000000 0.376800 
#    y 0.000000 4.148000 0.000000 
#    z 0.376800 0.000000 3.661320 
# 
# 
# High freq. dielectric constant tensor:
#      x y z
#    x 1.872600 0.000000 0.028200 
#    y 0.000000 1.877250 0.000000 
#    z 0.028200 0.000000 1.833440 
# 
# From -- ./inp_files/34521.got.cif
#   From: 2010.03.12/outbox.cif.g09.slc.cpg/sg14_18_cif.got.tgz:34521.got - 2010.03.31 13:35:05.
