data_PCOD8126122
_publ_section_title
;
Structure prediction by ZEFSAII (Michael W. Deem and Ramdas Pophale) SiO2 
 PCOD8126122
Probable space group: P 21/C
;
_chemical_formula_sum "Si O2"
_cell_formula_units_Z 32
_cell_length_a 14.143614
_cell_length_b 21.352761
_cell_length_c 14.100057
_cell_angle_alpha 90.000000
_cell_angle_beta 19.791852
_cell_angle_gamma 90.000000
_cell_volume 1441.874741
_symmetry_space_group_name_H-M "P 21/C"
_symmetry_group_IT_number 14
_symmetry_cell_setting 'monoclinic'
loop_
_space_group_symop_operation_xyz
x,y,z
-x,1/2+y,1/2-z
-x,-y,-z
x,1/2-y,1/2+z
loop_
_atom_site_type_symbol
_atom_site_label
_atom_site_fract_x
_atom_site_fract_y
_atom_site_fract_z
Si Si1 0.217847 0.432687 0.700268
Si Si2 0.761497 0.820024 0.086853
Si Si3 0.026755 0.765626 0.017390
Si Si4 0.309346 0.010873 0.310844
Si Si5 0.422234 0.297557 0.444852
Si Si6 0.876444 0.094976 0.041528
Si Si7 0.736023 0.097228 0.383684
Si Si8 0.661316 0.961193 0.518186
O O1 0.382449 0.480572 0.476208
O O2 0.303178 0.441934 0.728992
O O3 0.291304 0.362577 0.602351
O O4 0.892477 0.450065 0.003122
O O5 0.601359 0.789899 0.147752
O O6 0.537830 0.858520 0.361123
O O7 0.916143 0.770205 0.011813
O O8 0.002518 0.865523 0.817401
O O9 0.161792 0.830634 0.923104
O O10 0.761875 0.756157 0.334209
O O11 0.260425 0.711811 0.815856
O O12 0.238227 0.053487 0.469788
O O13 0.176505 0.074181 0.718373
O O14 0.831593 0.071906 0.190982
O O15 0.655475 0.061369 0.183793
O O16 0.668642 0.036414 0.507820
#
# Coordination Sequence:
#
# PCOD8126122 Si02
#       8
#     4   4   4   4   4   4   4   4
#     4  10  21  40  63  90 124 162 207 266 316 375
#     4  11  23  42  66  93 123 169 216 271 321 368
#     4  11  25  44  60  90 129 167 216 275 310 365
#     4  10  21  38  61  93 131 154 198 267 326 378
#     4  12  23  43  69  91 121 174 223 261 316 382
#     4  11  23  39  57  85 133 165 203 264 317 370
#     4  11  21  38  64  92 127 162 217 259 311 390
#     4  12  21  36  61  96 123 171 205 248 329 400
#
# _framework density 22.193328999999999
#
# number of rings (size 3 to 8) (size 9 to 14) (size 15 to 20)
#    0.000    1.000    0.000    9.000    0.000    0.000 
#    6.750    0.000    0.000    0.000    0.000    0.000 
#    0.000    0.000    0.000    0.000    0.000    0.000 
#
# Total GULP energy -396718.642237 kJ/mol
# GULP energy per Si atom -12397.457570 kJ/mol
# Density = 2.214282 g / cm^3
# Si number density = 22.193329 Si / 1000 Ang^3
#
#
#
# Elastic Constant Matrix: (Units=GPa)
#
#
# Indices 1 2 3 4 5 6 
#
# 1 135.1661 47.4930 38.1129 0.0000 13.1419 0.0000
# 2 47.4930 43.7698 8.3943 0.0000 5.5614 0.0000
# 3 38.1129 8.3943 92.6502 0.0000 -0.3757 0.0000
# 4 0.0000 0.0000 0.0000 40.5319 0.0000 1.8928
# 5 13.1419 5.5614 -0.3757 0.0000 34.9605 0.0000
# 6 0.0000 0.0000 0.0000 1.8928 0.0000 20.0553
#
#
#
# Elastic Compliance Matrix: (Units=1/GPa)
#
#
# Indices 1 2 3 4 5 6 
#
# 1 0.013751 -0.013685 -0.004429 0.000000 -0.003040 0.000000
# 2 -0.013685 0.037365 0.002241 0.000000 -0.000775 0.000000
# 3 -0.004429 0.002241 0.012418 0.000000 0.001442 0.000000
# 4 0.000000 0.000000 0.000000 0.024781 0.000000 -0.002339
# 5 -0.003040 -0.000775 0.001442 0.000000 0.029885 0.000000
# 6 0.000000 0.000000 0.000000 -0.002339 0.000000 0.050083
#
#
# Mechanical properties :
#
#
# Convention : Reuss Voigt Hill
#
# Bulk Modulus (GPa) = 31.45879 51.06517 41.26198
# Shear Modulus (GPa) = 23.73870 30.94861 27.34366
#
# Velocity S-wave (km/s) = 3.27407 3.73835 3.51389
# Velocity P-wave (km/s) = 5.33839 6.45700 5.92416
#
# Compressibility (1/GPa) = 0.03178762
#
# Stress axis : x y z
#
# Youngs Moduli (GPa) = 72.71994 26.76296 80.52764
#
# Poissons Ratio (x) = 0.36626 0.35667
# Poissons Ratio (y) = 0.99520 -0.18048
# Poissons Ratio (z) = 0.32209 -0.05998
#
# Static dielectric constant tensor:
#      x y z
#    x 4.005460 0.000000 0.043540 
#    y 0.000000 3.717150 0.000000 
#    z 0.043540 0.000000 4.284270 
# 
# 
# High freq. dielectric constant tensor:
#      x y z
#    x 1.876600 0.000000 0.002390 
#    y 0.000000 1.849800 0.000000 
#    z 0.002390 0.000000 1.895710 
# 
# From -- ./inp_files/47654.got.cif
#   From: 2010.03.12/outbox.cif.g09.slc.cpg/sg14_24_cif.got.tgz:47654.got - 2010.03.31 13:35:05.
