data_PCOD8126909
_publ_section_title
;
Structure prediction by ZEFSAII (Michael W. Deem and Ramdas Pophale) SiO2 
 PCOD8126909
Probable space group: P 21/C
;
_chemical_formula_sum "Si O2"
_cell_formula_units_Z 28
_cell_length_a 9.754425
_cell_length_b 24.929820
_cell_length_c 9.213329
_cell_angle_alpha 90.000000
_cell_angle_beta 34.178529
_cell_angle_gamma 90.000000
_cell_volume 1258.631413
_symmetry_space_group_name_H-M "P 21/C"
_symmetry_group_IT_number 14
_symmetry_cell_setting 'monoclinic'
loop_
_space_group_symop_operation_xyz
x,y,z
-x,1/2+y,1/2-z
-x,-y,-z
x,1/2-y,1/2+z
loop_
_atom_site_type_symbol
_atom_site_label
_atom_site_fract_x
_atom_site_fract_y
_atom_site_fract_z
Si Si1 0.817944 0.588087 0.252279
Si Si2 0.871062 0.098818 0.024013
Si Si3 0.934496 0.801936 0.000904
Si Si4 0.058753 0.696586 0.058855
Si Si5 0.185780 0.547790 0.142530
Si Si6 0.501769 0.356783 0.233489
Si Si7 0.326555 0.063967 0.433429
O O1 0.963810 0.640971 0.073663
O O2 0.612908 0.606212 0.543533
O O3 0.710332 0.558850 0.206721
O O4 0.982666 0.544948 0.194349
O O5 0.879311 0.159322 0.078997
O O6 0.084968 0.092228 0.715106
O O7 0.932395 0.053878 0.093355
O O8 0.589424 0.092632 0.219272
O O9 0.954032 0.743628 0.052627
O O10 0.668969 0.829892 0.239832
O O11 0.970966 0.795271 0.798653
O O12 0.352281 0.691109 0.810911
O O13 0.328271 0.603975 0.007545
O O14 0.353194 0.495305 0.979867
#
# Coordination Sequence:
#
# PCOD8126909 Si02
#       7
#     4   4   4   4   4   4   4
#     4  10  24  45  68 102 139 185 233 298 339 428
#     4  12  26  46  67 105 147 180 235 296 350 415
#     4  11  24  43  68  99 131 188 225 296 349 422
#     4  10  24  42  69  98 133 180 236 284 362 410
#     4  11  23  47  71  97 140 194 232 287 362 412
#     4  10  21  44  71  92 144 176 237 284 358 412
#     4  12  29  41  74 108 142 186 243 290 343 423
#
# _framework density 22.246386000000001
#
# number of rings (size 3 to 8) (size 9 to 14) (size 15 to 20)
#    0.000    1.143    4.286    2.143    8.000    4.000 
#    0.000    0.000    0.000    0.000    0.000    0.000 
#    0.000    0.000    0.000    0.000    0.000    0.000 
#
# Total GULP energy -346963.876365 kJ/mol
# GULP energy per Si atom -12391.567013 kJ/mol
# Density = 2.219575 g / cm^3
# Si number density = 22.246386 Si / 1000 Ang^3
#
#
#
# Elastic Constant Matrix: (Units=GPa)
#
#
# Indices 1 2 3 4 5 6 
#
# 1 59.7398 -54.8054 22.3575 0.0000 -10.6010 0.0000
# 2 -54.8054 -43.4656 -5.1741 0.0000 -5.9181 0.0000
# 3 22.3575 -5.1741 75.4379 0.0000 -22.3688 0.0000
# 4 0.0000 0.0000 0.0000 124.3746 0.0000 100.8473
# 5 -10.6010 -5.9181 -22.3688 0.0000 27.7765 0.0000
# 6 0.0000 0.0000 0.0000 100.8473 0.0000 131.4829
#
#
#
# Elastic Compliance Matrix: (Units=1/GPa)
#
#
# Indices 1 2 3 4 5 6 
#
# 1 0.008567 -0.010085 -0.003808 0.000000 -0.001945 0.000000
# 2 -0.010085 -0.009660 0.000755 0.000000 -0.005299 0.000000
# 3 -0.003808 0.000755 0.018461 0.000000 0.013575 0.000000
# 4 0.000000 0.000000 0.000000 0.021265 0.000000 -0.016310
# 5 -0.001945 -0.005299 0.013575 0.000000 0.045062 0.000000
# 6 0.000000 0.000000 0.000000 -0.016310 0.000000 0.020116
#
#
# Mechanical properties :
#
#
# Convention : Reuss Voigt Hill
#
# Bulk Modulus (GPa) = -112.29676 1.82981 -55.23347
# Shear Modulus (GPa) = 39.33335 65.34909 52.34122
#
# Velocity S-wave (km/s) = 4.20941 5.42576 4.85583
# Velocity P-wave (km/s) = 5.19256 6.33058 2.56062
#
# Compressibility (1/GPa) = -0.00890498
#
# Stress axis : x y z
#
# Youngs Moduli (GPa) = 116.72040 -103.52424 54.16710
#
# Poissons Ratio (x) = -1.04400 0.20625
# Poissons Ratio (y) = 1.17707 -0.04090
# Poissons Ratio (z) = 0.44442 0.07816
#
# Static dielectric constant tensor:
#      x y z
#    x 4.230030 0.000000 -0.220810 
#    y 0.000000 4.017610 0.000000 
#    z -0.220810 0.000000 4.150970 
# 
# 
# High freq. dielectric constant tensor:
#      x y z
#    x 1.882980 0.000000 -0.002310 
#    y 0.000000 1.867260 0.000000 
#    z -0.002310 0.000000 1.879110 
# 
# From -- ./inp_files/11017.got.cif
#   From: 2010.03.12/outbox.cif.g09.slc.cpg/sg14_6_cif.got.tgz:11017.got - 2010.03.31 13:35:05.
