data_PCOD8126718
_publ_section_title
;
Structure prediction by ZEFSAII (Michael W. Deem and Ramdas Pophale) SiO2 
 PCOD8126718
Probable space group: P 21/C
;
_chemical_formula_sum "Si O2"
_cell_formula_units_Z 28
_cell_length_a 26.944132
_cell_length_b 8.733112
_cell_length_c 11.631388
_cell_angle_alpha 90.000000
_cell_angle_beta 24.395373
_cell_angle_gamma 90.000000
_cell_volume 1130.439433
_symmetry_space_group_name_H-M "P 21/C"
_symmetry_group_IT_number 14
_symmetry_cell_setting 'monoclinic'
loop_
_space_group_symop_operation_xyz
x,y,z
-x,1/2+y,1/2-z
-x,-y,-z
x,1/2-y,1/2+z
loop_
_atom_site_type_symbol
_atom_site_label
_atom_site_fract_x
_atom_site_fract_y
_atom_site_fract_z
Si Si1 0.150028 0.908797 0.693448
Si Si2 0.614768 0.970235 0.171168
Si Si3 0.049762 0.268396 0.756510
Si Si4 0.866608 0.011700 0.532777
Si Si5 0.739531 0.785438 0.545234
Si Si6 0.463349 0.457084 0.407313
Si Si7 0.394645 0.716703 0.713482
O O1 0.134674 0.913177 0.589260
O O2 0.251356 0.782680 0.506433
O O3 0.191678 0.072530 0.661500
O O4 0.026588 0.858257 0.011994
O O5 0.739523 0.041391 0.861663
O O6 0.646538 0.806135 0.161157
O O7 0.520350 0.960286 0.264481
O O8 0.563311 0.102366 0.370077
O O9 0.161086 0.323826 0.603056
O O10 0.973528 0.413716 0.881538
O O11 0.104498 0.171046 0.533810
O O12 0.662287 0.869874 0.806687
O O13 0.457834 0.628714 0.473695
O O14 0.572652 0.366422 0.235184
#
# Coordination Sequence:
#
# PCOD8126718 Si02
#       7
#     4   4   4   4   4   4   4
#     4  10  21  42  61  86 130 172 203 259 322 375
#     4  12  23  42  66  97 125 165 222 260 316 387
#     4  11  23  39  62  92 129 170 210 261 318 382
#     4  11  23  38  62  92 127 166 213 260 320 380
#     4  10  23  39  62  92 128 168 211 262 317 376
#     4  10  23  46  64  90 134 165 206 269 323 378
#     4  10  22  42  68  91 122 167 212 265 317 377
#
# _framework density 24.769130000000001
#
# number of rings (size 3 to 8) (size 9 to 14) (size 15 to 20)
#    0.000    1.429    5.714    1.714    4.000    5.714 
#    0.000    2.857    0.000    0.000    0.000    0.000 
#    0.000    0.000    0.000    0.000    0.000    0.000 
#
# Total GULP energy -347171.879854 kJ/mol
# GULP energy per Si atom -12398.995709 kJ/mol
# Density = 2.471275 g / cm^3
# Si number density = 24.769130 Si / 1000 Ang^3
#
#
#
# Elastic Constant Matrix: (Units=GPa)
#
#
# Indices 1 2 3 4 5 6 
#
# 1 134.0831 54.4311 20.3256 0.0000 -3.2087 0.0000
# 2 54.4311 107.0987 10.5823 0.0000 10.2392 0.0000
# 3 20.3256 10.5823 57.4812 0.0000 -5.4329 0.0000
# 4 0.0000 0.0000 0.0000 31.9153 0.0000 -7.8350
# 5 -3.2087 10.2392 -5.4329 0.0000 35.9063 0.0000
# 6 0.0000 0.0000 0.0000 -7.8350 0.0000 36.7111
#
#
#
# Elastic Compliance Matrix: (Units=1/GPa)
#
#
# Indices 1 2 3 4 5 6 
#
# 1 0.009887 -0.004973 -0.002397 0.000000 0.001939 0.000000
# 2 -0.004973 0.012346 -0.000902 0.000000 -0.004102 0.000000
# 3 -0.002397 -0.000902 0.018682 0.000000 0.002870 0.000000
# 4 0.000000 0.000000 0.000000 0.033065 0.000000 0.007057
# 5 0.001939 -0.004102 0.002870 0.000000 0.029627 0.000000
# 6 0.000000 0.000000 0.000000 0.007057 0.000000 0.028746
#
#
# Mechanical properties :
#
#
# Convention : Reuss Voigt Hill
#
# Bulk Modulus (GPa) = 41.03433 52.14901 46.59167
# Shear Modulus (GPa) = 31.84280 35.12815 33.48547
#
# Velocity S-wave (km/s) = 3.58939 3.77002 3.68081
# Velocity P-wave (km/s) = 5.81214 6.32854 6.07583
#
# Compressibility (1/GPa) = 0.02436984
#
# Stress axis : x y z
#
# Youngs Moduli (GPa) = 101.14537 80.99774 53.52766
#
# Poissons Ratio (x) = 0.40283 0.12831
# Poissons Ratio (y) = 0.50303 0.04828
# Poissons Ratio (z) = 0.24246 0.07306
#
# Static dielectric constant tensor:
#      x y z
#    x 4.383630 0.000000 -0.248600 
#    y 0.000000 4.317800 0.000000 
#    z -0.248600 0.000000 4.686370 
# 
# 
# High freq. dielectric constant tensor:
#      x y z
#    x 1.983160 0.000000 -0.024140 
#    y 0.000000 1.976490 0.000000 
#    z -0.024140 0.000000 2.002850 
# 
# From -- ./inp_files/36155.got.cif
#   From: 2010.03.12/outbox.cif.g09.slc.cpg/sg14_19_cif.got.tgz:36155.got - 2010.03.31 13:35:05.
