data_PCOD8126178
_publ_section_title
;
Structure prediction by ZEFSAII (Michael W. Deem and Ramdas Pophale) SiO2 
 PCOD8126178
Probable space group: P 21/C
;
_chemical_formula_sum "Si O2"
_cell_formula_units_Z 28
_cell_length_a 12.724194
_cell_length_b 7.826236
_cell_length_c 22.951623
_cell_angle_alpha 90.000000
_cell_angle_beta 35.636943
_cell_angle_gamma 90.000000
_cell_volume 1331.687202
_symmetry_space_group_name_H-M "P 21/C"
_symmetry_group_IT_number 14
_symmetry_cell_setting 'monoclinic'
loop_
_space_group_symop_operation_xyz
x,y,z
-x,1/2+y,1/2-z
-x,-y,-z
x,1/2-y,1/2+z
loop_
_atom_site_type_symbol
_atom_site_label
_atom_site_fract_x
_atom_site_fract_y
_atom_site_fract_z
Si Si1 0.948124 0.264062 0.514754
Si Si2 0.572301 0.727527 0.433924
Si Si3 0.289482 0.871439 0.150836
Si Si4 0.586317 0.465512 0.843376
Si Si5 0.217776 0.434325 0.958439
Si Si6 0.932335 0.481354 0.627345
Si Si7 0.905004 0.702377 0.868543
O O1 0.149127 0.222755 0.449421
O O2 0.951901 0.366830 0.452626
O O3 0.854283 0.365979 0.609617
O O4 0.832201 0.099874 0.555225
O O5 0.647590 0.566275 0.361861
O O6 0.378023 0.672138 0.548206
O O7 0.721242 0.776352 0.415405
O O8 0.526939 0.900689 0.419682
O O9 0.364273 0.727130 0.160124
O O10 0.069703 0.862820 0.252701
O O11 0.431474 0.434324 0.866272
O O12 0.757031 0.557530 0.737500
O O13 0.127550 0.430666 0.063802
O O14 0.052271 0.385170 0.621590
#
# Coordination Sequence:
#
# PCOD8126178 Si02
#       7
#     4   4   4   4   4   4   4
#     4   9  20  41  62  88 117 159 205 256 319 365
#     4  11  24  41  60  92 128 171 203 248 311 365
#     4  10  24  40  57  89 130 160 211 248 292 373
#     4  11  23  41  61  94 125 160 208 254 305 373
#     4  10  21  38  65  89 121 156 204 263 307 370
#     4   9  21  40  61  90 120 159 206 253 312 373
#     4  10  22  39  63  90 124 164 205 254 305 370
#
# _framework density 21.025960000000001
#
# number of rings (size 3 to 8) (size 9 to 14) (size 15 to 20)
#    0.000    2.000    1.429    0.429    6.000    3.429 
#    2.571    0.000    0.000    0.000    0.000    0.000 
#    0.000    0.000    0.000    0.000    0.000    0.000 
#
# Total GULP energy -346939.060564 kJ/mol
# GULP energy per Si atom -12390.680734 kJ/mol
# Density = 2.097810 g / cm^3
# Si number density = 21.025960 Si / 1000 Ang^3
#
#
#
# Elastic Constant Matrix: (Units=GPa)
#
#
# Indices 1 2 3 4 5 6 
#
# 1 60.8699 12.5283 -6.9831 0.0000 -6.1798 0.0000
# 2 12.5283 64.3085 -5.6250 0.0000 6.4009 0.0000
# 3 -6.9831 -5.6250 47.0583 0.0000 -0.6522 0.0000
# 4 0.0000 0.0000 0.0000 23.5235 0.0000 3.5358
# 5 -6.1798 6.4009 -0.6522 0.0000 23.8783 0.0000
# 6 0.0000 0.0000 0.0000 3.5358 0.0000 15.4596
#
#
#
# Elastic Compliance Matrix: (Units=1/GPa)
#
#
# Indices 1 2 3 4 5 6 
#
# 1 0.018082 -0.003898 0.002298 0.000000 0.005787 0.000000
# 2 -0.003898 0.016979 0.001375 0.000000 -0.005523 0.000000
# 3 0.002298 0.001375 0.021767 0.000000 0.000821 0.000000
# 4 0.000000 0.000000 0.000000 0.044024 0.000000 -0.010069
# 5 0.005787 -0.005523 0.000821 0.000000 0.044880 0.000000
# 6 0.000000 0.000000 0.000000 -0.010069 0.000000 0.066988
#
#
# Mechanical properties :
#
#
# Convention : Reuss Voigt Hill
#
# Bulk Modulus (GPa) = 17.73775 19.11969 18.42872
# Shear Modulus (GPa) = 21.55519 24.06005 22.80762
#
# Velocity S-wave (km/s) = 3.20530 3.38642 3.29711
# Velocity P-wave (km/s) = 4.70670 4.94000 4.82476
#
# Compressibility (1/GPa) = 0.05637694
#
# Stress axis : x y z
#
# Youngs Moduli (GPa) = 55.30416 58.89524 45.94139
#
# Poissons Ratio (x) = 0.22956 -0.10555
# Poissons Ratio (y) = 0.21556 -0.06315
# Poissons Ratio (z) = -0.12706 -0.08096
#
# Static dielectric constant tensor:
#      x y z
#    x 3.677080 0.000000 -0.000280 
#    y 0.000000 3.898640 0.000000 
#    z -0.000280 0.000000 3.960280 
# 
# 
# High freq. dielectric constant tensor:
#      x y z
#    x 1.808440 0.000000 -0.001460 
#    y 0.000000 1.830870 0.000000 
#    z -0.001460 0.000000 1.820240 
# 
# From -- ./inp_files/66975.got.cif
#   From: 2010.03.12/outbox.cif.g09.slc.cpg/sg14_34_cif.got.tgz:66975.got - 2010.03.31 13:35:05.
