data_PCOD8126263
_publ_section_title
;
Structure prediction by ZEFSAII (Michael W. Deem and Ramdas Pophale) SiO2 
 PCOD8126263
Probable space group: P 21/C
;
_chemical_formula_sum "Si O2"
_cell_formula_units_Z 24
_cell_length_a 9.707061
_cell_length_b 19.527989
_cell_length_c 8.816327
_cell_angle_alpha 90.000000
_cell_angle_beta 47.120734
_cell_angle_gamma 90.000000
_cell_volume 1224.650102
_symmetry_space_group_name_H-M "P 21/C"
_symmetry_group_IT_number 14
_symmetry_cell_setting 'monoclinic'
loop_
_space_group_symop_operation_xyz
x,y,z
-x,1/2+y,1/2-z
-x,-y,-z
x,1/2-y,1/2+z
loop_
_atom_site_type_symbol
_atom_site_label
_atom_site_fract_x
_atom_site_fract_y
_atom_site_fract_z
Si Si1 0.888304 0.662273 0.090181
Si Si2 0.389147 0.343883 0.260314
Si Si3 0.780806 0.411511 0.027532
Si Si4 0.731274 0.730628 0.927326
Si Si5 0.932062 0.949622 0.921928
Si Si6 0.290901 0.023839 0.191036
O O1 0.867312 0.728226 0.212900
O O2 0.735243 0.605111 0.258507
O O3 0.856790 0.681374 0.938845
O O4 0.103353 0.638291 0.947206
O O5 0.568370 0.389235 0.163780
O O6 0.391277 0.280817 0.376119
O O7 0.404087 0.315853 0.076919
O O8 0.202449 0.389962 0.414110
O O9 0.785441 0.485645 0.103389
O O10 0.883227 0.414365 0.788365
O O11 0.828816 0.994211 0.869416
O O12 0.000000 0.000000 0.000000
O O13 0.500000 0.000000 0.000000
#
# Coordination Sequence:
#
# PCOD8126263 Si02
#       6
#     4   4   4   4   4   4
#     4  10  21  39  62  89 117 163 203 245 309 358
#     4  11  23  43  61  92 124 159 209 249 307 363
#     4  11  23  41  66  89 124 161 207 254 312 366
#     4  10  22  41  63  84 127 161 200 257 292 369
#     4  11  24  40  62  95 126 157 207 257 305 366
#     4  11  21  41  64  90 125 162 201 258 313 363
#
# _framework density 19.597434
#
# number of rings (size 3 to 8) (size 9 to 14) (size 15 to 20)
#    0.000    1.333    5.000    2.000    4.667    3.333 
#    0.000    0.000    0.000    0.000    0.000    0.000 
#    0.000    0.000    0.000    0.000    0.000    0.000 
#
# Total GULP energy -297572.054179 kJ/mol
# GULP energy per Si atom -12398.835591 kJ/mol
# Density = 1.955283 g / cm^3
# Si number density = 19.597434 Si / 1000 Ang^3
#
#
#
# Elastic Constant Matrix: (Units=GPa)
#
#
# Indices 1 2 3 4 5 6 
#
# 1 117.1017 63.8448 56.6461 0.0000 24.5752 0.0000
# 2 63.8448 95.1713 37.4435 0.0000 9.6209 0.0000
# 3 56.6461 37.4435 87.9710 0.0000 4.8476 0.0000
# 4 0.0000 0.0000 0.0000 27.5337 0.0000 11.0410
# 5 24.5752 9.6209 4.8476 0.0000 35.8285 0.0000
# 6 0.0000 0.0000 0.0000 11.0410 0.0000 45.7245
#
#
#
# Elastic Compliance Matrix: (Units=1/GPa)
#
#
# Indices 1 2 3 4 5 6 
#
# 1 0.019326 -0.008757 -0.008177 0.000000 -0.009798 0.000000
# 2 -0.008757 0.016850 -0.001627 0.000000 0.001702 0.000000
# 3 -0.008177 -0.001627 0.017120 0.000000 0.003729 0.000000
# 4 0.000000 0.000000 0.000000 0.040213 0.000000 -0.009710
# 5 -0.009798 0.001702 0.003729 0.000000 0.033670 0.000000
# 6 0.000000 0.000000 0.000000 -0.009710 0.000000 0.024215
#
#
# Mechanical properties :
#
#
# Convention : Reuss Voigt Hill
#
# Bulk Modulus (GPa) = 61.82933 68.45698 65.14316
# Shear Modulus (GPa) = 25.78581 31.30465 28.54523
#
# Velocity S-wave (km/s) = 3.63130 4.00107 3.82066
# Velocity P-wave (km/s) = 7.01427 7.50681 7.26471
#
# Compressibility (1/GPa) = 0.01617355
#
# Stress axis : x y z
#
# Youngs Moduli (GPa) = 51.74494 59.34765 58.41233
#
# Poissons Ratio (x) = 0.51970 0.47764
# Poissons Ratio (y) = 0.45312 0.09504
# Poissons Ratio (z) = 0.42312 0.09656
#
# Static dielectric constant tensor:
#      x y z
#    x 3.675920 0.000000 0.206440 
#    y 0.000000 3.689600 0.000000 
#    z 0.206440 0.000000 3.573030 
# 
# 
# High freq. dielectric constant tensor:
#      x y z
#    x 1.767190 0.000000 0.013470 
#    y 0.000000 1.766020 0.000000 
#    z 0.013470 0.000000 1.760540 
# 
# From -- ./inp_files/10106.got.cif
#   From: 2010.03.12/outbox.cif.g09.slc.cpg/sg14_6_cif.got.tgz:10106.got - 2010.03.31 13:35:05.
