data_PCOD8126643
_publ_section_title
;
Structure prediction by ZEFSAII (Michael W. Deem and Ramdas Pophale) SiO2 
 PCOD8126643
Probable space group: P 21/C
;
_chemical_formula_sum "Si O2"
_cell_formula_units_Z 24
_cell_length_a 19.192312
_cell_length_b 12.180285
_cell_length_c 13.504419
_cell_angle_alpha 90.000000
_cell_angle_beta 21.050733
_cell_angle_gamma 90.000000
_cell_volume 1133.940517
_symmetry_space_group_name_H-M "P 21/C"
_symmetry_group_IT_number 14
_symmetry_cell_setting 'monoclinic'
loop_
_space_group_symop_operation_xyz
x,y,z
-x,1/2+y,1/2-z
-x,-y,-z
x,1/2-y,1/2+z
loop_
_atom_site_type_symbol
_atom_site_label
_atom_site_fract_x
_atom_site_fract_y
_atom_site_fract_z
Si Si1 0.335117 0.340649 0.264252
Si Si2 0.136728 0.348812 0.130364
Si Si3 0.423734 0.513040 0.300358
Si Si4 0.825524 0.919825 0.214662
Si Si5 0.300872 0.794263 0.846113
Si Si6 0.599371 0.039437 0.767877
O O1 0.291394 0.221823 0.365207
O O2 0.299994 0.427290 0.399353
O O3 0.173931 0.361936 0.392843
O O4 0.552736 0.341290 0.931558
O O5 0.170226 0.328843 0.203432
O O6 0.917045 0.318580 0.397807
O O7 0.199849 0.473871 0.019979
O O8 0.338431 0.636495 0.397619
O O9 0.435339 0.482573 0.400916
O O10 0.637135 0.504385 0.971490
O O11 0.000000 0.000000 0.000000
O O12 0.341130 0.666735 0.810719
O O13 0.500000 0.000000 0.000000
#
# Coordination Sequence:
#
# PCOD8126643 Si02
#       6
#     4   4   4   4   4   4
#     4  11  23  42  69  98 138 176 230 281 334 405
#     4  11  25  41  67 101 134 178 226 273 348 400
#     4  10  24  40  70  95 131 179 231 273 336 399
#     4  10  21  41  65  95 130 174 228 273 323 404
#     4  11  24  45  69  96 139 180 225 287 339 400
#     4  11  25  46  68  99 141 179 226 282 348 402
#
# _framework density 21.165130999999999
#
# number of rings (size 3 to 8) (size 9 to 14) (size 15 to 20)
#    0.000    1.333    1.667    4.000   14.000    0.000 
#    3.000    0.833    0.000    0.000    0.000    0.000 
#    0.000    0.000    0.000    0.000    0.000    0.000 
#
# Total GULP energy -297482.992408 kJ/mol
# GULP energy per Si atom -12395.124684 kJ/mol
# Density = 2.111696 g / cm^3
# Si number density = 21.165131 Si / 1000 Ang^3
#
#
#
# Elastic Constant Matrix: (Units=GPa)
#
#
# Indices 1 2 3 4 5 6 
#
# 1 192.4955 78.6361 47.4739 0.0000 4.0926 0.0000
# 2 78.6361 144.4979 29.4824 0.0000 -1.6921 0.0000
# 3 47.4739 29.4824 71.4341 0.0000 -11.8584 0.0000
# 4 0.0000 0.0000 0.0000 24.8534 0.0000 -0.8164
# 5 4.0926 -1.6921 -11.8584 0.0000 30.4884 0.0000
# 6 0.0000 0.0000 0.0000 -0.8164 0.0000 35.2787
#
#
#
# Elastic Compliance Matrix: (Units=1/GPa)
#
#
# Indices 1 2 3 4 5 6 
#
# 1 0.007652 -0.003345 -0.004175 0.000000 -0.002837 0.000000
# 2 -0.003345 0.009040 -0.001443 0.000000 0.000389 0.000000
# 3 -0.004175 -0.001443 0.018654 0.000000 0.007736 0.000000
# 4 0.000000 0.000000 0.000000 0.040266 0.000000 0.000932
# 5 -0.002837 0.000389 0.007736 0.000000 0.036211 0.000000
# 6 0.000000 0.000000 0.000000 0.000932 0.000000 0.028367
#
#
# Mechanical properties :
#
#
# Convention : Reuss Voigt Hill
#
# Bulk Modulus (GPa) = 57.41320 79.95692 68.68506
# Shear Modulus (GPa) = 30.50215 34.97979 32.74097
#
# Velocity S-wave (km/s) = 3.80037 4.06976 3.93737
# Velocity P-wave (km/s) = 6.81486 7.74233 7.29335
#
# Compressibility (1/GPa) = 0.01741760
#
# Stress axis : x y z
#
# Youngs Moduli (GPa) = 130.69231 110.61896 53.60914
#
# Poissons Ratio (x) = 0.37005 0.22384
# Poissons Ratio (y) = 0.43721 0.07736
# Poissons Ratio (z) = 0.54568 0.15964
#
# Static dielectric constant tensor:
#      x y z
#    x 4.709460 0.000000 0.212070 
#    y 0.000000 4.243120 0.000000 
#    z 0.212070 0.000000 3.846050 
# 
# 
# High freq. dielectric constant tensor:
#      x y z
#    x 1.844030 0.000000 -0.003820 
#    y 0.000000 1.831970 0.000000 
#    z -0.003820 0.000000 1.815870 
# 
# From -- ./inp_files/50424.got.cif
#   From: 2010.03.12/outbox.cif.g09.slc.cpg/sg14_26_cif.got.tgz:50424.got - 2010.03.31 13:35:05.
