data_PCOD8126672
_publ_section_title
;
Structure prediction by ZEFSAII (Michael W. Deem and Ramdas Pophale) SiO2 
 PCOD8126672
Probable space group: P 21/C
;
_chemical_formula_sum "Si O2"
_cell_formula_units_Z 28
_cell_length_a 8.412860
_cell_length_b 6.571046
_cell_length_c 29.814626
_cell_angle_alpha 90.000000
_cell_angle_beta 54.572801
_cell_angle_gamma 90.000000
_cell_volume 1343.032896
_symmetry_space_group_name_H-M "P 21/C"
_symmetry_group_IT_number 14
_symmetry_cell_setting 'monoclinic'
loop_
_space_group_symop_operation_xyz
x,y,z
-x,1/2+y,1/2-z
-x,-y,-z
x,1/2-y,1/2+z
loop_
_atom_site_type_symbol
_atom_site_label
_atom_site_fract_x
_atom_site_fract_y
_atom_site_fract_z
Si Si1 0.541294 0.640721 0.433785
Si Si2 0.843784 0.956985 0.391097
Si Si3 0.205341 0.644953 0.553943
Si Si4 0.125798 0.902580 0.858160
Si Si5 0.830047 0.865846 0.238670
Si Si6 0.236937 0.797056 0.685967
Si Si7 0.459704 0.412441 0.666615
O O1 0.320763 0.636780 0.488051
O O2 0.651725 0.428778 0.428438
O O3 0.550117 0.697684 0.379900
O O4 0.661573 0.822096 0.437674
O O5 0.873675 0.127661 0.424180
O O6 0.792070 0.069898 0.353562
O O7 0.035380 0.810880 0.354174
O O8 0.021003 0.494058 0.580555
O O9 0.331330 0.863788 0.847115
O O10 0.150273 0.080272 0.816908
O O11 0.698705 0.667574 0.271240
O O12 0.044257 0.839215 0.224478
O O13 0.726363 0.056179 0.278435
O O14 0.423627 0.648388 0.659286
#
# Coordination Sequence:
#
# PCOD8126672 Si02
#       7
#     4   4   4   4   4   4   4
#     4  10  21  41  67  98 121 166 223 264 312 384
#     4  11  20  42  66  94 122 163 218 264 319 380
#     4  10  21  42  69  91 129 168 212 269 321 378
#     4  11  27  40  60  96 134 167 206 263 337 385
#     4  12  24  40  62  89 123 166 210 263 318 386
#     4  12  22  40  68  88 119 168 219 264 308 385
#     4  12  26  41  62  97 130 166 213 265 322 393
#
# _framework density 20.848337000000001
#
# number of rings (size 3 to 8) (size 9 to 14) (size 15 to 20)
#    0.000    0.857    5.714    2.143    2.000    1.714 
#    0.000    0.714    0.000    0.000    0.000    0.000 
#    0.000    0.000    0.000    0.000    0.000    0.000 
#
# Total GULP energy -347079.651474 kJ/mol
# GULP energy per Si atom -12395.701838 kJ/mol
# Density = 2.080089 g / cm^3
# Si number density = 20.848337 Si / 1000 Ang^3
#
#
#
# Elastic Constant Matrix: (Units=GPa)
#
#
# Indices 1 2 3 4 5 6 
#
# 1 77.2872 33.3955 20.3600 0.0000 -15.3679 0.0000
# 2 33.3955 110.2105 29.9441 0.0000 -7.8259 0.0000
# 3 20.3600 29.9441 81.9966 0.0000 -17.4702 0.0000
# 4 0.0000 0.0000 0.0000 32.0550 0.0000 -1.8420
# 5 -15.3679 -7.8259 -17.4702 0.0000 21.7647 0.0000
# 6 0.0000 0.0000 0.0000 -1.8420 0.0000 22.1908
#
#
#
# Elastic Compliance Matrix: (Units=1/GPa)
#
#
# Indices 1 2 3 4 5 6 
#
# 1 0.016907 -0.004276 -0.000508 0.000000 0.009993 0.000000
# 2 -0.004276 0.011166 -0.003382 0.000000 -0.001719 0.000000
# 3 -0.000508 -0.003382 0.015949 0.000000 0.011227 0.000000
# 4 0.000000 0.000000 0.000000 0.031346 0.000000 0.002602
# 5 0.009993 -0.001719 0.011227 0.000000 0.061396 0.000000
# 6 0.000000 0.000000 0.000000 0.002602 0.000000 0.045280
#
#
# Mechanical properties :
#
#
# Convention : Reuss Voigt Hill
#
# Bulk Modulus (GPa) = 36.11258 48.54371 42.32815
# Shear Modulus (GPa) = 24.08423 27.58842 25.83632
#
# Velocity S-wave (km/s) = 3.40253 3.64165 3.52412
# Velocity P-wave (km/s) = 5.72673 6.40445 6.07505
#
# Compressibility (1/GPa) = 0.02769118
#
# Stress axis : x y z
#
# Youngs Moduli (GPa) = 59.14716 89.55743 62.70016
#
# Poissons Ratio (x) = 0.38291 0.03182
# Poissons Ratio (y) = 0.25289 0.21207
# Poissons Ratio (z) = 0.03002 0.30291
#
# Static dielectric constant tensor:
#      x y z
#    x 3.413860 0.000000 -0.177060 
#    y 0.000000 3.973350 0.000000 
#    z -0.177060 0.000000 3.822690 
# 
# 
# High freq. dielectric constant tensor:
#      x y z
#    x 1.781200 0.000000 -0.014420 
#    y 0.000000 1.829780 0.000000 
#    z -0.014420 0.000000 1.815350 
# 
# From -- ./inp_files/79190.got.cif
#   From: 2010.03.12/outbox.cif.g09.slc.cpg/sg14_40_cif.got.tgz:79190.got - 2010.03.31 13:35:05.
