data_PCOD8126973
_publ_section_title
;
Structure prediction by ZEFSAII (Michael W. Deem and Ramdas Pophale) SiO2 
 PCOD8126973
Probable space group: P 21/C
;
_chemical_formula_sum "Si O2"
_cell_formula_units_Z 28
_cell_length_a 20.050487
_cell_length_b 11.872245
_cell_length_c 4.971400
_cell_angle_alpha 90.000000
_cell_angle_beta 104.615697
_cell_angle_gamma 90.000000
_cell_volume 1145.118236
_symmetry_space_group_name_H-M "P 21/C"
_symmetry_group_IT_number 14
_symmetry_cell_setting 'monoclinic'
loop_
_space_group_symop_operation_xyz
x,y,z
-x,1/2+y,1/2-z
-x,-y,-z
x,1/2-y,1/2+z
loop_
_atom_site_type_symbol
_atom_site_label
_atom_site_fract_x
_atom_site_fract_y
_atom_site_fract_z
Si Si1 0.919679 0.824732 0.178258
Si Si2 0.568760 0.824254 0.347807
Si Si3 0.283664 0.171739 0.608572
Si Si4 0.279197 0.827487 0.002453
Si Si5 0.822625 0.999039 0.338798
Si Si6 0.572195 0.175891 0.945867
Si Si7 0.075732 0.674462 0.893602
O O1 0.906425 0.719456 0.364129
O O2 0.997674 0.870323 0.288341
O O3 0.868517 0.926248 0.182200
O O4 0.567967 0.788019 0.657888
O O5 0.640808 0.887688 0.353833
O O6 0.498235 0.894300 0.202580
O O7 0.274259 0.273636 0.391649
O O8 0.225678 0.076421 0.517268
O O9 0.269850 0.721957 0.790874
O O10 0.223346 0.923097 0.899555
O O11 0.355264 0.885531 0.044887
O O12 0.872358 0.069898 0.587503
O O13 0.570179 0.288343 0.755039
O O14 0.090878 0.772827 0.699322
#
# Coordination Sequence:
#
# PCOD8126973 Si02
#       7
#     4   4   4   4   4   4   4
#     4  10  23  42  62  86 114 145 186 230 271 326
#     4   8  14  28  50  72 100 141 182 223 271 317
#     4  10  22  37  54  82 115 146 186 231 275 329
#     4  10  22  37  54  82 115 146 186 231 275 329
#     4  12  23  38  61  86 114 152 182 224 283 334
#     4   8  14  28  50  72 100 141 182 223 271 317
#     4  10  23  42  62  86 114 145 186 230 271 326
#
# _framework density 24.451623000000001
#
# number of rings (size 3 to 8) (size 9 to 14) (size 15 to 20)
#    0.000    2.286    0.000    2.143    0.000    4.571 
#    0.000    5.000    0.000    0.000    0.000   20.000 
#    0.000    0.000    0.000    0.000    0.000    0.000 
#
# Total GULP energy -347068.811223 kJ/mol
# GULP energy per Si atom -12395.314687 kJ/mol
# Density = 2.439597 g / cm^3
# Si number density = 24.451623 Si / 1000 Ang^3
#
#
#
# Elastic Constant Matrix: (Units=GPa)
#
#
# Indices 1 2 3 4 5 6 
#
# 1 168.8175 63.1440 28.1987 0.0000 38.8020 0.0000
# 2 63.1440 56.6449 0.5333 0.0000 22.3836 0.0000
# 3 28.1987 0.5333 61.7070 0.0000 -2.6847 0.0000
# 4 0.0000 0.0000 0.0000 1.0567 0.0000 -2.9436
# 5 38.8020 22.3836 -2.6847 0.0000 33.1668 0.0000
# 6 0.0000 0.0000 0.0000 -2.9436 0.0000 -6.3103
#
#
#
# Elastic Compliance Matrix: (Units=1/GPa)
#
#
# Indices 1 2 3 4 5 6 
#
# 1 0.013056 -0.011264 -0.006225 0.000000 -0.008176 0.000000
# 2 -0.011264 0.033845 0.004450 0.000000 -0.009303 0.000000
# 3 -0.006225 0.004450 0.019266 0.000000 0.005838 0.000000
# 4 0.000000 0.000000 0.000000 0.411548 0.000000 -0.191977
# 5 -0.008176 -0.009303 0.005838 0.000000 0.046466 0.000000
# 6 0.000000 0.000000 0.000000 -0.191977 0.000000 -0.068919
#
#
# Mechanical properties :
#
#
# Convention : Reuss Voigt Hill
#
# Bulk Modulus (GPa) = 24.94450 52.32460 38.63455
# Shear Modulus (GPa) = 10.10711 18.60220 14.35465
#
# Velocity S-wave (km/s) = 2.03531 2.76121 2.42557
# Velocity P-wave (km/s) = 3.96825 5.62240 4.86613
#
# Compressibility (1/GPa) = 0.04008900
#
# Stress axis : x y z
#
# Youngs Moduli (GPa) = 76.59475 29.54667 51.90591
#
# Poissons Ratio (x) = 0.33283 0.32309
# Poissons Ratio (y) = 0.86279 -0.23100
# Poissons Ratio (z) = 0.47677 -0.13149
#
# Static dielectric constant tensor:
#      x y z
#    x 5.205650 0.000000 0.323860 
#    y 0.000000 3.667700 0.000000 
#    z 0.323860 0.000000 4.318450 
# 
# 
# High freq. dielectric constant tensor:
#      x y z
#    x 2.011710 0.000000 0.010500 
#    y 0.000000 1.905740 0.000000 
#    z 0.010500 0.000000 1.979620 
# 
# From -- ./inp_files/4349.got.cif
#   From: 2010.03.12/outbox.cif.g09.slc.cpg/sg14_3_cif.got.tgz:4349.got - 2010.03.31 13:35:05.
