data_PCOD8126220
_publ_section_title
;
Structure prediction by ZEFSAII (Michael W. Deem and Ramdas Pophale) SiO2 
 PCOD8126220
Probable space group: P 21/C
;
_chemical_formula_sum "Si O2"
_cell_formula_units_Z 28
_cell_length_a 8.751627
_cell_length_b 10.993046
_cell_length_c 15.192141
_cell_angle_alpha 90.000000
_cell_angle_beta 57.710414
_cell_angle_gamma 90.000000
_cell_volume 1235.568928
_symmetry_space_group_name_H-M "P 21/C"
_symmetry_group_IT_number 14
_symmetry_cell_setting 'monoclinic'
loop_
_space_group_symop_operation_xyz
x,y,z
-x,1/2+y,1/2-z
-x,-y,-z
x,1/2-y,1/2+z
loop_
_atom_site_type_symbol
_atom_site_label
_atom_site_fract_x
_atom_site_fract_y
_atom_site_fract_z
Si Si1 0.488735 0.727399 0.132320
Si Si2 0.505566 0.896510 0.804780
Si Si3 0.201124 0.585190 0.759150
Si Si4 0.132354 0.021002 0.754801
Si Si5 0.787676 0.906173 0.082953
Si Si6 0.993292 0.701155 0.371006
Si Si7 0.630470 0.799095 0.405060
O O1 0.437299 0.634411 0.226947
O O2 0.349504 0.836380 0.163196
O O3 0.681603 0.780008 0.103667
O O4 0.508215 0.671551 0.028182
O O5 0.526593 0.778242 0.861266
O O6 0.695812 0.968743 0.732557
O O7 0.346064 0.979770 0.894999
O O8 0.056088 0.548339 0.732733
O O9 0.096348 0.671938 0.863741
O O10 0.129607 0.095119 0.846141
O O11 0.308677 0.067676 0.647963
O O12 0.134251 0.874128 0.765112
O O13 0.957441 0.892268 0.963213
O O14 0.807327 0.721838 0.376387
#
# Coordination Sequence:
#
# PCOD8126220 Si02
#       7
#     4   4   4   4   4   4   4
#     4  10  22  41  62  94 125 167 221 259 316 393
#     4  11  21  43  67  91 128 173 216 265 318 378
#     4  10  23  39  65  92 130 167 212 268 321 377
#     4  11  20  39  61  94 130 167 207 276 319 374
#     4  10  22  36  66  91 125 168 216 266 313 384
#     4  10  21  39  59  97 127 163 222 261 320 383
#     4  10  22  39  64  91 129 169 211 266 326 378
#
# _framework density 22.661625999999998
#
# number of rings (size 3 to 8) (size 9 to 14) (size 15 to 20)
#    0.000    1.714    2.857    1.286    2.000    1.714 
#    0.000   12.143    0.000    0.000    0.000    0.000 
#    0.000    0.000    0.000    0.000    0.000    0.000 
#
# Total GULP energy -346939.041584 kJ/mol
# GULP energy per Si atom -12390.680057 kJ/mol
# Density = 2.261005 g / cm^3
# Si number density = 22.661626 Si / 1000 Ang^3
#
#
#
# Elastic Constant Matrix: (Units=GPa)
#
#
# Indices 1 2 3 4 5 6 
#
# 1 86.8843 18.0142 18.6334 0.0000 5.7856 0.0000
# 2 18.0142 60.9040 18.4778 0.0000 4.1056 0.0000
# 3 18.6334 18.4778 78.3139 0.0000 12.1282 0.0000
# 4 0.0000 0.0000 0.0000 34.5965 0.0000 -7.4932
# 5 5.7856 4.1056 12.1282 0.0000 28.5461 0.0000
# 6 0.0000 0.0000 0.0000 -7.4932 0.0000 24.0119
#
#
#
# Elastic Compliance Matrix: (Units=1/GPa)
#
#
# Indices 1 2 3 4 5 6 
#
# 1 0.012671 -0.003025 -0.002110 0.000000 -0.001237 0.000000
# 2 -0.003025 0.018425 -0.003546 0.000000 -0.000531 0.000000
# 3 -0.002110 -0.003546 0.014946 0.000000 -0.005412 0.000000
# 4 0.000000 0.000000 0.000000 0.031000 0.000000 0.009674
# 5 -0.001237 -0.000531 -0.005412 0.000000 0.037658 0.000000
# 6 0.000000 0.000000 0.000000 0.009674 0.000000 0.044665
#
#
# Mechanical properties :
#
#
# Convention : Reuss Voigt Hill
#
# Bulk Modulus (GPa) = 34.86392 37.37257 36.11824
# Shear Modulus (GPa) = 26.84048 28.82935 27.83491
#
# Velocity S-wave (km/s) = 3.44525 3.57061 3.50849
# Velocity P-wave (km/s) = 5.58966 5.79020 5.69081
#
# Compressibility (1/GPa) = 0.02868295
#
# Stress axis : x y z
#
# Youngs Moduli (GPa) = 78.91736 54.27311 66.90809
#
# Poissons Ratio (x) = 0.16415 0.14116
# Poissons Ratio (y) = 0.23869 0.23723
# Poissons Ratio (z) = 0.16650 0.19243
#
# Static dielectric constant tensor:
#      x y z
#    x 4.136590 0.000000 -0.139530 
#    y 0.000000 4.196470 0.000000 
#    z -0.139530 0.000000 4.181930 
# 
# 
# High freq. dielectric constant tensor:
#      x y z
#    x 1.909980 0.000000 -0.014790 
#    y 0.000000 1.894050 0.000000 
#    z -0.014790 0.000000 1.873580 
# 
# From -- ./inp_files/40219.got.cif
#   From: 2010.03.12/outbox.cif.g09.slc.cpg/sg14_21_cif.got.tgz:40219.got - 2010.03.31 13:35:05.
