data_PCOD8126262
_publ_section_title
;
Structure prediction by ZEFSAII (Michael W. Deem and Ramdas Pophale) SiO2 
 PCOD8126262
Probable space group: P 21/C
;
_chemical_formula_sum "Si O2"
_cell_formula_units_Z 32
_cell_length_a 13.980340
_cell_length_b 8.455209
_cell_length_c 12.278544
_cell_angle_alpha 90.000000
_cell_angle_beta 92.514670
_cell_angle_gamma 90.000000
_cell_volume 1450.008451
_symmetry_space_group_name_H-M "P 21/C"
_symmetry_group_IT_number 14
_symmetry_cell_setting 'monoclinic'
loop_
_space_group_symop_operation_xyz
x,y,z
-x,1/2+y,1/2-z
-x,-y,-z
x,1/2-y,1/2+z
loop_
_atom_site_type_symbol
_atom_site_label
_atom_site_fract_x
_atom_site_fract_y
_atom_site_fract_z
Si Si1 0.921483 0.128520 0.528404
Si Si2 0.026506 0.900413 0.109425
Si Si3 0.611589 0.791293 0.989139
Si Si4 0.411392 0.048965 0.787665
Si Si5 0.565556 0.209359 0.663056
Si Si6 0.726008 0.987037 0.599638
Si Si7 0.738426 0.717370 0.310890
Si Si8 0.056718 0.276044 0.705444
O O1 0.903652 0.260735 0.431876
O O2 0.962435 0.218443 0.637119
O O3 0.821368 0.043723 0.544705
O O4 0.000000 0.000000 0.500000
O O5 0.945770 0.796065 0.171089
O O6 0.063796 0.029796 0.199623
O O7 0.000000 0.000000 0.000000
O O8 0.507858 0.753871 0.936066
O O9 0.684443 0.874249 0.906402
O O10 0.596001 0.910919 0.086008
O O11 0.663591 0.628704 0.022702
O O12 0.515972 0.093906 0.747584
O O13 0.327500 0.132599 0.717865
O O14 0.400815 0.863427 0.769721
O O15 0.660735 0.137888 0.617893
O O16 0.753603 0.900974 0.712301
O O17 0.844310 0.782269 0.346782
#
# Coordination Sequence:
#
# PCOD8126262 Si02
#       8
#     4   4   4   4   4   4   4   4
#     4  11  23  42  64  92 128 169 215 269 326 384
#     4  10  23  39  64  93 124 173 221 268 331 393
#     4  10  21  39  62  88 118 159 200 245 311 374
#     4  10  22  39  62  89 123 158 201 253 305 373
#     4  11  22  40  60  86 120 158 199 251 310 367
#     4  11  23  39  61  90 122 155 204 259 306 373
#     4  10  22  39  61  89 119 161 202 249 312 372
#     4  11  22  41  63  89 130 167 211 268 322 388
#
# _framework density 22.068836000000001
#
# number of rings (size 3 to 8) (size 9 to 14) (size 15 to 20)
#    0.000    1.500    0.000    6.000    0.000    7.000 
#    0.000    6.250    0.000    0.000    0.000    0.000 
#    0.000    0.000    0.000    0.000    0.000    0.000 
#
# Total GULP energy -396522.543853 kJ/mol
# GULP energy per Si atom -12391.329495 kJ/mol
# Density = 2.201861 g / cm^3
# Si number density = 22.068836 Si / 1000 Ang^3
#
#
#
# Elastic Constant Matrix: (Units=GPa)
#
#
# Indices 1 2 3 4 5 6 
#
# 1 115.2548 33.4627 16.3935 0.0000 -25.7617 0.0000
# 2 33.4627 119.6966 21.5498 0.0000 -21.4998 0.0000
# 3 16.3935 21.5498 76.6951 0.0000 -21.0067 0.0000
# 4 0.0000 0.0000 0.0000 34.1886 0.0000 -10.7340
# 5 -25.7617 -21.4998 -21.0067 0.0000 32.6295 0.0000
# 6 0.0000 0.0000 0.0000 -10.7340 0.0000 29.3989
#
#
#
# Elastic Compliance Matrix: (Units=1/GPa)
#
#
# Indices 1 2 3 4 5 6 
#
# 1 0.010833 -0.001710 0.000242 0.000000 0.007582 0.000000
# 2 -0.001710 0.009831 -0.001205 0.000000 0.004352 0.000000
# 3 0.000242 -0.001205 0.015978 0.000000 0.009683 0.000000
# 4 0.000000 0.000000 0.000000 0.033037 0.000000 0.012062
# 5 0.007582 0.004352 0.009683 0.000000 0.045734 0.000000
# 6 0.000000 0.000000 0.000000 0.012062 0.000000 0.038419
#
#
# Mechanical properties :
#
#
# Convention : Reuss Voigt Hill
#
# Bulk Modulus (GPa) = 31.95383 50.49540 41.22462
# Shear Modulus (GPa) = 29.47921 35.25943 32.36932
#
# Velocity S-wave (km/s) = 3.65880 4.00146 3.83396
# Velocity P-wave (km/s) = 5.68856 6.65428 6.19028
#
# Compressibility (1/GPa) = 0.03129515
#
# Stress axis : x y z
#
# Youngs Moduli (GPa) = 92.30825 101.71730 62.58698
#
# Poissons Ratio (x) = 0.17396 -0.01512
# Poissons Ratio (y) = 0.15787 0.07541
# Poissons Ratio (z) = -0.02230 0.12255
#
# Static dielectric constant tensor:
#      x y z
#    x 3.911510 0.000000 -0.184530 
#    y 0.000000 4.183580 0.000000 
#    z -0.184530 0.000000 4.315890 
# 
# 
# High freq. dielectric constant tensor:
#      x y z
#    x 1.860670 0.000000 -0.015600 
#    y 0.000000 1.872820 0.000000 
#    z -0.015600 0.000000 1.878140 
# 
# From -- ./inp_files/31580.got.cif
#   From: 2010.03.12/outbox.cif.g09.slc.cpg/sg14_16_cif.got.tgz:31580.got - 2010.03.31 13:35:05.
