data_PCOD8126590
_publ_section_title
;
Structure prediction by ZEFSAII (Michael W. Deem and Ramdas Pophale) SiO2 
 PCOD8126590
Probable space group: P 21/C
;
_chemical_formula_sum "Si O2"
_cell_formula_units_Z 20
_cell_length_a 6.886088
_cell_length_b 16.280625
_cell_length_c 8.963211
_cell_angle_alpha 90.000000
_cell_angle_beta 74.605104
_cell_angle_gamma 90.000000
_cell_volume 968.808474
_symmetry_space_group_name_H-M "P 21/C"
_symmetry_group_IT_number 14
_symmetry_cell_setting 'monoclinic'
loop_
_space_group_symop_operation_xyz
x,y,z
-x,1/2+y,1/2-z
-x,-y,-z
x,1/2-y,1/2+z
loop_
_atom_site_type_symbol
_atom_site_label
_atom_site_fract_x
_atom_site_fract_y
_atom_site_fract_z
Si Si1 0.117407 0.471774 0.830513
Si Si2 0.609088 0.837356 0.628481
Si Si3 0.826858 0.789851 0.284581
Si Si4 0.157125 0.660803 0.275793
Si Si5 0.062408 0.920996 0.079593
O O1 0.327971 0.428188 0.828101
O O2 0.172273 0.548350 0.709477
O O3 0.971668 0.408982 0.776790
O O4 0.000000 0.500000 0.000000
O O5 0.722456 0.822723 0.452498
O O6 0.672021 0.770407 0.736732
O O7 0.371069 0.831975 0.651106
O O8 0.038192 0.746658 0.286195
O O9 0.869060 0.867011 0.167682
O O10 0.195509 0.636774 0.442732
O O11 0.000000 0.000000 0.000000
#
# Coordination Sequence:
#
# PCOD8126590 Si02
#       5
#     4   4   4   4   4
#     4  10  21  41  63  88 128 163 200 259 311 366
#     4  11  24  39  64  93 120 166 210 253 314 371
#     4  11  22  42  62  89 128 158 206 263 304 366
#     4  10  24  41  63  92 122 163 210 251 310 374
#     4  10  21  42  63  86 131 165 195 261 312 358
#
# _framework density 20.643915
#
# number of rings (size 3 to 8) (size 9 to 14) (size 15 to 20)
#    0.000    1.600    4.000    0.000    2.800    1.600 
#    0.000    0.000    0.000    0.000    0.000    0.000 
#    0.000    0.000    0.000    0.000    0.000    0.000 
#
# Total GULP energy -247946.432162 kJ/mol
# GULP energy per Si atom -12397.321608 kJ/mol
# Density = 2.059693 g / cm^3
# Si number density = 20.643915 Si / 1000 Ang^3
#
#
#
# Elastic Constant Matrix: (Units=GPa)
#
#
# Indices 1 2 3 4 5 6 
#
# 1 95.4779 19.2672 23.7787 0.0000 -28.4595 0.0000
# 2 19.2672 74.8356 31.8523 0.0000 -5.7458 0.0000
# 3 23.7787 31.8523 112.4785 0.0000 -4.0777 0.0000
# 4 0.0000 0.0000 0.0000 45.8008 0.0000 -0.6717
# 5 -28.4595 -5.7458 -4.0777 0.0000 22.9653 0.0000
# 6 0.0000 0.0000 0.0000 -0.6717 0.0000 14.8743
#
#
#
# Elastic Compliance Matrix: (Units=1/GPa)
#
#
# Indices 1 2 3 4 5 6 
#
# 1 0.017755 -0.001910 -0.002448 0.000000 0.021090 0.000000
# 2 -0.001910 0.015616 -0.003988 0.000000 0.000832 0.000000
# 3 -0.002448 -0.003988 0.010459 0.000000 -0.002175 0.000000
# 4 0.000000 0.000000 0.000000 0.021848 0.000000 0.000987
# 5 0.021090 0.000832 -0.002175 0.000000 0.069502 0.000000
# 6 0.000000 0.000000 0.000000 0.000987 0.000000 0.067275
#
#
# Mechanical properties :
#
#
# Convention : Reuss Voigt Hill
#
# Bulk Modulus (GPa) = 36.84995 48.06539 42.45767
# Shear Modulus (GPa) = 21.91127 30.58766 26.24947
#
# Velocity S-wave (km/s) = 3.26143 3.85343 3.56973
# Velocity P-wave (km/s) = 5.66318 6.56751 6.13204
#
# Compressibility (1/GPa) = 0.02713708
#
# Stress axis : x y z
#
# Youngs Moduli (GPa) = 56.32125 64.03790 95.61408
#
# Poissons Ratio (x) = 0.12231 0.23407
# Poissons Ratio (y) = 0.10757 0.38133
# Poissons Ratio (z) = 0.13788 0.25540
#
# Static dielectric constant tensor:
#      x y z
#    x 3.370270 0.000000 0.211780 
#    y 0.000000 4.124110 0.000000 
#    z 0.211780 0.000000 4.189270 
# 
# 
# High freq. dielectric constant tensor:
#      x y z
#    x 1.768240 0.000000 0.002520 
#    y 0.000000 1.821460 0.000000 
#    z 0.002520 0.000000 1.834540 
# 
# From -- ./inp_files/5426.got.cif
#   From: 2010.03.12/outbox.cif.g09.slc.cpg/sg14_3_cif.got.tgz:5426.got - 2010.03.31 13:35:05.
