data_PCOD8126776
_publ_section_title
;
Structure prediction by ZEFSAII (Michael W. Deem and Ramdas Pophale) SiO2 
 PCOD8126776
Probable space group: P 21/C
;
_chemical_formula_sum "Si O2"
_cell_formula_units_Z 28
_cell_length_a 14.760463
_cell_length_b 13.896877
_cell_length_c 8.455968
_cell_angle_alpha 90.000000
_cell_angle_beta 137.182288
_cell_angle_gamma 90.000000
_cell_volume 1178.901191
_symmetry_space_group_name_H-M "P 21/C"
_symmetry_group_IT_number 14
_symmetry_cell_setting 'monoclinic'
loop_
_space_group_symop_operation_xyz
x,y,z
-x,1/2+y,1/2-z
-x,-y,-z
x,1/2-y,1/2+z
loop_
_atom_site_type_symbol
_atom_site_label
_atom_site_fract_x
_atom_site_fract_y
_atom_site_fract_z
Si Si1 0.051873 0.506819 0.888660
Si Si2 0.515660 0.359633 0.619576
Si Si3 0.188214 0.827363 0.412972
Si Si4 0.681142 0.796925 0.649867
Si Si5 0.608312 0.531863 0.261106
Si Si6 0.281969 0.377568 0.125842
Si Si7 0.828095 0.379869 0.476028
O O1 0.064456 0.615190 0.835712
O O2 0.965105 0.439770 0.661766
O O3 0.204826 0.472272 0.078014
O O4 0.000000 0.500000 0.000000
O O5 0.460493 0.250918 0.588995
O O6 0.463984 0.443771 0.668668
O O7 0.443019 0.389346 0.359847
O O8 0.674457 0.355116 0.821145
O O9 0.202158 0.852642 0.244876
O O10 0.159620 0.714749 0.399506
O O11 0.672953 0.868849 0.786229
O O12 0.749359 0.854504 0.595728
O O13 0.772495 0.709075 0.830930
O O14 0.715967 0.447035 0.412238
O O15 0.500000 0.500000 0.000000
#
# Coordination Sequence:
#
# PCOD8126776 Si02
#       7
#     4   4   4   4   4   4   4
#     4  12  28  52  70 104 143 200 256 302 370 444
#     4  10  22  43  69 110 147 183 238 303 371 440
#     4  12  27  49  73 108 147 194 249 309 383 429
#     4  10  21  42  67 111 144 181 240 292 371 439
#     4  12  22  43  71 108 150 191 238 298 375 439
#     4  10  23  41  72 103 139 190 233 306 354 441
#     4  12  28  47  77 106 151 202 246 314 365 456
#
# _framework density 23.75093
#
# number of rings (size 3 to 8) (size 9 to 14) (size 15 to 20)
#    0.857    0.000    2.857    3.857    2.000    4.000 
#    2.571    0.000    0.000    0.000    0.000    0.000 
#    0.000    0.000    0.000    0.000    0.000    0.000 
#
# Total GULP energy -346969.676429 kJ/mol
# GULP energy per Si atom -12391.774158 kJ/mol
# Density = 2.369687 g / cm^3
# Si number density = 23.750930 Si / 1000 Ang^3
#
#
#
# Elastic Constant Matrix: (Units=GPa)
#
#
# Indices 1 2 3 4 5 6 
#
# 1 68.5029 31.2958 -2.5016 0.0000 -0.1591 0.0000
# 2 31.2958 149.0322 28.0476 0.0000 13.7585 0.0000
# 3 -2.5016 28.0476 66.5568 0.0000 14.7762 0.0000
# 4 0.0000 0.0000 0.0000 38.6911 0.0000 4.8467
# 5 -0.1591 13.7585 14.7762 0.0000 33.3964 0.0000
# 6 0.0000 0.0000 0.0000 4.8467 0.0000 38.4952
#
#
#
# Elastic Compliance Matrix: (Units=1/GPa)
#
#
# Indices 1 2 3 4 5 6 
#
# 1 0.016470 -0.003925 0.002103 0.000000 0.000765 0.000000
# 2 -0.003925 0.008325 -0.003205 0.000000 -0.002030 0.000000
# 3 0.002103 -0.003205 0.017919 0.000000 -0.006598 0.000000
# 4 0.000000 0.000000 0.000000 0.026260 0.000000 -0.003306
# 5 0.000765 -0.002030 -0.006598 0.000000 0.033703 0.000000
# 6 0.000000 0.000000 0.000000 -0.003306 0.000000 0.026394
#
#
# Mechanical properties :
#
#
# Convention : Reuss Voigt Hill
#
# Bulk Modulus (GPa) = 30.61818 44.19729 37.40774
# Shear Modulus (GPa) = 33.33115 37.26653 35.29884
#
# Velocity S-wave (km/s) = 3.75021 3.96543 3.85932
# Velocity P-wave (km/s) = 5.62774 6.29406 5.97020
#
# Compressibility (1/GPa) = 0.03266033
#
# Stress axis : x y z
#
# Youngs Moduli (GPa) = 60.71777 120.12342 55.80602
#
# Poissons Ratio (x) = 0.47148 -0.11737
# Poissons Ratio (y) = 0.23831 0.17885
# Poissons Ratio (z) = -0.12770 0.38499
#
# Static dielectric constant tensor:
#      x y z
#    x 3.910040 0.000000 0.016070 
#    y 0.000000 4.652980 0.000000 
#    z 0.016070 0.000000 4.096410 
# 
# 
# High freq. dielectric constant tensor:
#      x y z
#    x 1.921050 0.000000 -0.011930 
#    y 0.000000 1.963450 0.000000 
#    z -0.011930 0.000000 1.935880 
# 
# From -- ./inp_files/16456.got.cif
#   From: 2010.03.12/outbox.cif.g09.slc.cpg/sg14_9_cif.got.tgz:16456.got - 2010.03.31 13:35:05.
