data_PCOD8126632
_publ_section_title
;
Structure prediction by ZEFSAII (Michael W. Deem and Ramdas Pophale) SiO2 
 PCOD8126632
Probable space group: P 21/C
;
_chemical_formula_sum "Si O2"
_cell_formula_units_Z 32
_cell_length_a 15.331094
_cell_length_b 18.323309
_cell_length_c 11.457186
_cell_angle_alpha 90.000000
_cell_angle_beta 27.065161
_cell_angle_gamma 90.000000
_cell_volume 1464.433909
_symmetry_space_group_name_H-M "P 21/C"
_symmetry_group_IT_number 14
_symmetry_cell_setting 'monoclinic'
loop_
_space_group_symop_operation_xyz
x,y,z
-x,1/2+y,1/2-z
-x,-y,-z
x,1/2-y,1/2+z
loop_
_atom_site_type_symbol
_atom_site_label
_atom_site_fract_x
_atom_site_fract_y
_atom_site_fract_z
Si Si1 0.828201 0.334953 0.916284
Si Si2 0.389009 0.470211 0.356740
Si Si3 0.437895 0.851580 0.474162
Si Si4 0.723391 0.594190 0.263680
Si Si5 0.061777 0.692995 0.802531
Si Si6 0.807690 0.497432 0.944802
Si Si7 0.153920 0.913333 0.998950
Si Si8 0.380695 0.696181 0.608632
O O1 0.636373 0.337929 0.067950
O O2 0.977089 0.279939 0.673555
O O3 0.904031 0.417118 0.845025
O O4 0.769812 0.298541 0.107565
O O5 0.298227 0.441752 0.584710
O O6 0.608077 0.496463 0.114102
O O7 0.269538 0.538094 0.453952
O O8 0.384478 0.406820 0.260864
O O9 0.494259 0.774039 0.464715
O O10 0.274837 0.893342 0.741752
O O11 0.782762 0.530619 0.103972
O O12 0.526100 0.629757 0.454173
O O13 0.883650 0.657224 0.082168
O O14 0.089284 0.659261 0.642110
O O15 0.259217 0.681378 0.637252
O O16 0.960116 0.545053 0.689668
#
# Coordination Sequence:
#
# PCOD8126632 Si02
#       8
#     4   4   4   4   4   4   4   4
#     4  10  21  41  65  89 123 172 201 257 317 367
#     4  11  23  38  62  94 127 163 212 255 317 373
#     4  10  22  42  63  91 127 169 210 253 315 379
#     4  11  23  40  64 100 124 161 217 261 306 381
#     4  10  24  40  63  96 121 162 214 256 313 373
#     4  10  23  39  65  92 128 164 207 259 314 370
#     4  11  23  40  64  92 128 164 206 259 311 374
#     4  11  21  42  67  84 133 165 204 266 312 359
#
# _framework density 21.851447
#
# number of rings (size 3 to 8) (size 9 to 14) (size 15 to 20)
#    0.000    1.500    3.750    1.500    3.500    4.000 
#    0.000    2.500    0.000    0.000    0.000    0.000 
#    0.000    0.000    0.000    0.000    0.000    0.000 
#
# Total GULP energy -396694.438879 kJ/mol
# GULP energy per Si atom -12396.701215 kJ/mol
# Density = 2.180171 g / cm^3
# Si number density = 21.851447 Si / 1000 Ang^3
#
#
#
# Elastic Constant Matrix: (Units=GPa)
#
#
# Indices 1 2 3 4 5 6 
#
# 1 39.4407 22.0395 10.5275 0.0000 3.0943 0.0000
# 2 22.0395 108.5994 10.2243 0.0000 -6.8827 0.0000
# 3 10.5275 10.2243 42.6460 0.0000 -5.9576 0.0000
# 4 0.0000 0.0000 0.0000 29.8222 0.0000 3.2769
# 5 3.0943 -6.8827 -5.9576 0.0000 29.8398 0.0000
# 6 0.0000 0.0000 0.0000 3.2769 0.0000 23.8355
#
#
#
# Elastic Compliance Matrix: (Units=1/GPa)
#
#
# Indices 1 2 3 4 5 6 
#
# 1 0.031080 -0.006024 -0.007070 0.000000 -0.006024 0.000000
# 2 -0.006024 0.010680 -0.000661 0.000000 0.002956 0.000000
# 3 -0.007070 -0.000661 0.026163 0.000000 0.005804 0.000000
# 4 0.000000 0.000000 0.000000 0.034046 0.000000 -0.004681
# 5 -0.006024 0.002956 0.005804 0.000000 0.035978 0.000000
# 6 0.000000 0.000000 0.000000 -0.004681 0.000000 0.042598
#
#
# Mechanical properties :
#
#
# Convention : Reuss Voigt Hill
#
# Bulk Modulus (GPa) = 24.74288 30.69652 27.71970
# Shear Modulus (GPa) = 22.57080 26.55916 24.56498
#
# Velocity S-wave (km/s) = 3.21739 3.49010 3.35652
# Velocity P-wave (km/s) = 5.01497 5.50630 5.26637
#
# Compressibility (1/GPa) = 0.04041567
#
# Stress axis : x y z
#
# Youngs Moduli (GPa) = 32.17487 93.63154 38.22155
#
# Poissons Ratio (x) = 0.56401 0.27021
# Poissons Ratio (y) = 0.19381 0.02525
# Poissons Ratio (z) = 0.22747 0.06185
#
# Static dielectric constant tensor:
#      x y z
#    x 3.677490 0.000000 0.126060 
#    y 0.000000 4.377760 0.000000 
#    z 0.126060 0.000000 3.880820 
# 
# 
# High freq. dielectric constant tensor:
#      x y z
#    x 1.843300 0.000000 0.015890 
#    y 0.000000 1.881160 0.000000 
#    z 0.015890 0.000000 1.847580 
# 
# From -- ./inp_files/32977.got.cif
#   From: 2010.03.12/outbox.cif.g09.slc.cpg/sg14_17_cif.got.tgz:32977.got - 2010.03.31 13:35:05.
