data_PCOD8126931
_publ_section_title
;
Structure prediction by ZEFSAII (Michael W. Deem and Ramdas Pophale) SiO2 
 PCOD8126931
Probable space group: P 21/C
;
_chemical_formula_sum "Si O2"
_cell_formula_units_Z 32
_cell_length_a 19.265074
_cell_length_b 11.059869
_cell_length_c 10.898003
_cell_angle_alpha 90.000000
_cell_angle_beta 140.494485
_cell_angle_gamma 90.000000
_cell_volume 1477.164354
_symmetry_space_group_name_H-M "P 21/C"
_symmetry_group_IT_number 14
_symmetry_cell_setting 'monoclinic'
loop_
_space_group_symop_operation_xyz
x,y,z
-x,1/2+y,1/2-z
-x,-y,-z
x,1/2-y,1/2+z
loop_
_atom_site_type_symbol
_atom_site_label
_atom_site_fract_x
_atom_site_fract_y
_atom_site_fract_z
Si Si1 0.224031 0.797438 0.958763
Si Si2 0.613337 0.652837 0.481475
Si Si3 0.378653 0.909515 0.686886
Si Si4 0.204879 0.031511 0.621216
Si Si5 0.689784 0.593946 0.101501
Si Si6 0.869768 0.791283 0.680213
Si Si7 0.730182 0.565494 0.431819
Si Si8 0.110641 0.715385 0.053691
O O1 0.163893 0.773872 0.005518
O O2 0.161027 0.744166 0.753319
O O3 0.339894 0.728594 0.115992
O O4 0.240445 0.939546 0.962421
O O5 0.507103 0.591920 0.397692
O O6 0.733275 0.610155 0.692092
O O7 0.603485 0.796122 0.489110
O O8 0.620426 0.620462 0.345883
O O9 0.307732 0.971267 0.694486
O O10 0.364655 0.983942 0.543627
O O11 0.122209 0.930482 0.560202
O O12 0.130744 0.118744 0.437063
O O13 0.800970 0.642833 0.192260
O O14 0.711383 0.540512 0.264221
O O15 0.825829 0.662431 0.576935
O O16 0.988811 0.765335 0.894435
#
# Coordination Sequence:
#
# PCOD8126931 Si02
#       8
#     4   4   4   4   4   4   4   4
#     4  11  25  45  63 104 137 169 228 278 327 405
#     4  11  22  41  70  94 129 175 221 269 337 389
#     4  10  24  43  65  93 136 181 207 278 340 390
#     4  10  21  46  64  99 132 169 228 271 322 405
#     4  10  23  44  63  98 135 168 228 271 326 404
#     4  10  24  42  69  95 133 177 218 272 341 390
#     4  11  23  41  65  97 132 168 226 282 309 404
#     4  11  25  42  72  97 137 182 218 277 338 394
#
# _framework density 21.663128
#
# number of rings (size 3 to 8) (size 9 to 14) (size 15 to 20)
#    0.000    1.500    2.500    1.125    5.250    1.000 
#    4.500    2.500    0.000    0.000    0.000    0.000 
#    0.000    0.000    0.000    0.000    0.000    0.000 
#
# Total GULP energy -396672.191480 kJ/mol
# GULP energy per Si atom -12396.005984 kJ/mol
# Density = 2.161382 g / cm^3
# Si number density = 21.663128 Si / 1000 Ang^3
#
#
#
# Elastic Constant Matrix: (Units=GPa)
#
#
# Indices 1 2 3 4 5 6 
#
# 1 64.0838 9.6171 35.9736 0.0000 -10.8517 0.0000
# 2 9.6171 98.2222 17.0225 0.0000 5.9207 0.0000
# 3 35.9736 17.0225 76.8717 0.0000 6.4119 0.0000
# 4 0.0000 0.0000 0.0000 24.0255 0.0000 -6.5955
# 5 -10.8517 5.9207 6.4119 0.0000 37.4315 0.0000
# 6 0.0000 0.0000 0.0000 -6.5955 0.0000 30.3321
#
#
#
# Elastic Compliance Matrix: (Units=1/GPa)
#
#
# Indices 1 2 3 4 5 6 
#
# 1 0.023849 -0.000849 -0.011728 0.000000 0.009057 0.000000
# 2 -0.000849 0.010679 -0.001833 0.000000 -0.001621 0.000000
# 3 -0.011728 -0.001833 0.019440 0.000000 -0.006440 0.000000
# 4 0.000000 0.000000 0.000000 0.044265 0.000000 0.009625
# 5 0.009057 -0.001621 -0.006440 0.000000 0.030701 0.000000
# 6 0.000000 0.000000 0.000000 0.009625 0.000000 0.035061
#
#
# Mechanical properties :
#
#
# Convention : Reuss Voigt Hill
#
# Bulk Modulus (GPa) = 39.76119 40.48935 40.12527
# Shear Modulus (GPa) = 24.85112 30.12880 27.48996
#
# Velocity S-wave (km/s) = 3.39065 3.73337 3.56613
# Velocity P-wave (km/s) = 5.80714 6.10861 5.95978
#
# Compressibility (1/GPa) = 0.02515015
#
# Stress axis : x y z
#
# Youngs Moduli (GPa) = 41.92976 93.63829 51.43984
#
# Poissons Ratio (x) = 0.07945 0.60331
# Poissons Ratio (y) = 0.03558 0.09427
# Poissons Ratio (z) = 0.49177 0.17160
#
# Static dielectric constant tensor:
#      x y z
#    x 3.955530 0.000000 -0.131190 
#    y 0.000000 4.053160 0.000000 
#    z -0.131190 0.000000 3.724510 
# 
# 
# High freq. dielectric constant tensor:
#      x y z
#    x 1.856200 0.000000 -0.014720 
#    y 0.000000 1.864030 0.000000 
#    z -0.014720 0.000000 1.836170 
# 
# From -- ./inp_files/35290.got.cif
#   From: 2010.03.12/outbox.cif.g09.slc.cpg/sg14_18_cif.got.tgz:35290.got - 2010.03.31 13:35:05.
