data_PCOD8126387
_publ_section_title
;
Structure prediction by ZEFSAII (Michael W. Deem and Ramdas Pophale) SiO2 
 PCOD8126387
Probable space group: P 21/C
;
_chemical_formula_sum "Si O2"
_cell_formula_units_Z 32
_cell_length_a 11.380199
_cell_length_b 10.587213
_cell_length_c 13.675044
_cell_angle_alpha 90.000000
_cell_angle_beta 113.437235
_cell_angle_gamma 90.000000
_cell_volume 1511.696397
_symmetry_space_group_name_H-M "P 21/C"
_symmetry_group_IT_number 14
_symmetry_cell_setting 'monoclinic'
loop_
_space_group_symop_operation_xyz
x,y,z
-x,1/2+y,1/2-z
-x,-y,-z
x,1/2-y,1/2+z
loop_
_atom_site_type_symbol
_atom_site_label
_atom_site_fract_x
_atom_site_fract_y
_atom_site_fract_z
Si Si1 0.623999 0.635203 0.081623
Si Si2 0.808728 0.790633 0.277871
Si Si3 0.085047 0.706088 0.429630
Si Si4 0.067285 0.532165 0.261415
Si Si5 0.586725 0.676338 0.845201
Si Si6 0.203333 0.908301 0.339297
Si Si7 0.180095 0.727716 0.160853
Si Si8 0.436943 0.610371 0.186919
O O1 0.735007 0.713876 0.170431
O O2 0.672567 0.490547 0.092668
O O3 0.491864 0.645908 0.098247
O O4 0.595312 0.683464 0.964409
O O5 0.728182 0.806077 0.349537
O O6 0.937725 0.723297 0.352663
O O7 0.836868 0.924843 0.239953
O O8 0.123872 0.578903 0.384733
O O9 0.172288 0.821765 0.421852
O O10 0.105276 0.694113 0.552112
O O11 0.074856 0.645356 0.184215
O O12 0.920751 0.492623 0.224411
O O13 0.534950 0.539948 0.787379
O O14 0.503175 0.797763 0.787682
O O15 0.241804 0.828537 0.255701
O O16 0.286165 0.638331 0.145634
#
# Coordination Sequence:
#
# PCOD8126387 Si02
#       8
#     4   4   4   4   4   4   4   4
#     4  11  23  43  67  93 126 174 212 269 319 387
#     4  10  22  40  62  98 129 166 216 256 324 394
#     4  10  22  38  65  96 128 172 204 266 331 379
#     4  10  21  40  59  93 137 160 212 267 309 395
#     4  11  24  43  72  89 133 169 218 272 328 376
#     4  10  22  38  63  95 126 164 219 261 310 398
#     4  11  23  40  65  93 133 170 210 267 327 378
#     4  11  24  45  64 100 125 171 224 268 313 400
#
# _framework density 21.168271000000001
#
# number of rings (size 3 to 8) (size 9 to 14) (size 15 to 20)
#    0.000    1.500    2.500    1.875    1.750    3.500 
#    6.750    1.250    0.000    0.000    0.000    0.000 
#    0.000    0.000    0.000    0.000    0.000    0.000 
#
# Total GULP energy -396742.768694 kJ/mol
# GULP energy per Si atom -12398.211522 kJ/mol
# Density = 2.112009 g / cm^3
# Si number density = 21.168271 Si / 1000 Ang^3
#
#
#
# Elastic Constant Matrix: (Units=GPa)
#
#
# Indices 1 2 3 4 5 6 
#
# 1 69.6560 9.6394 25.9538 0.0000 -16.2517 0.0000
# 2 9.6394 36.9260 32.6496 0.0000 -8.7157 0.0000
# 3 25.9538 32.6496 108.6822 0.0000 -16.4025 0.0000
# 4 0.0000 0.0000 0.0000 18.9901 0.0000 -4.9965
# 5 -16.2517 -8.7157 -16.4025 0.0000 23.7776 0.0000
# 6 0.0000 0.0000 0.0000 -4.9965 0.0000 28.8259
#
#
#
# Elastic Compliance Matrix: (Units=1/GPa)
#
#
# Indices 1 2 3 4 5 6 
#
# 1 0.017758 0.000236 -0.002753 0.000000 0.010325 0.000000
# 2 0.000236 0.037819 -0.010382 0.000000 0.006862 0.000000
# 3 -0.002753 -0.010382 0.013528 0.000000 0.003644 0.000000
# 4 0.000000 0.000000 0.000000 0.055175 0.000000 0.009564
# 5 0.010325 0.006862 0.003644 0.000000 0.054142 0.000000
# 6 0.000000 0.000000 0.000000 0.009564 0.000000 0.036349
#
#
# Mechanical properties :
#
#
# Convention : Reuss Voigt Hill
#
# Bulk Modulus (GPa) = 23.09171 39.08330 31.08750
# Shear Modulus (GPa) = 19.60740 24.12016 21.86378
#
# Velocity S-wave (km/s) = 3.04676 3.37923 3.21729
# Velocity P-wave (km/s) = 4.82797 5.80766 5.34033
#
# Compressibility (1/GPa) = 0.04330559
#
# Stress axis : x y z
#
# Youngs Moduli (GPa) = 56.31123 26.44177 73.92329
#
# Poissons Ratio (x) = -0.00623 0.20354
# Poissons Ratio (y) = -0.01327 0.76747
# Poissons Ratio (z) = 0.15505 0.27452
#
# Static dielectric constant tensor:
#      x y z
#    x 3.951050 0.000000 -0.220780 
#    y 0.000000 4.017740 0.000000 
#    z -0.220780 0.000000 3.623420 
# 
# 
# High freq. dielectric constant tensor:
#      x y z
#    x 1.843930 0.000000 -0.015970 
#    y 0.000000 1.833870 0.000000 
#    z -0.015970 0.000000 1.818820 
# 
# From -- ./inp_files/29377.got.cif
#   From: 2010.03.12/outbox.cif.g09.slc.cpg/sg14_15_cif.got.tgz:29377.got - 2010.03.31 13:35:05.
