data_PCOD8126232
_publ_section_title
;
Structure prediction by ZEFSAII (Michael W. Deem and Ramdas Pophale) SiO2 
 PCOD8126232
Probable space group: P 21/C
;
_chemical_formula_sum "Si O2"
_cell_formula_units_Z 32
_cell_length_a 25.178264
_cell_length_b 8.631305
_cell_length_c 14.833883
_cell_angle_alpha 90.000000
_cell_angle_beta 152.798995
_cell_angle_gamma 90.000000
_cell_volume 1473.605282
_symmetry_space_group_name_H-M "P 21/C"
_symmetry_group_IT_number 14
_symmetry_cell_setting 'monoclinic'
loop_
_space_group_symop_operation_xyz
x,y,z
-x,1/2+y,1/2-z
-x,-y,-z
x,1/2-y,1/2+z
loop_
_atom_site_type_symbol
_atom_site_label
_atom_site_fract_x
_atom_site_fract_y
_atom_site_fract_z
Si Si1 0.968190 0.103291 0.205979
Si Si2 0.808245 0.318793 0.303600
Si Si3 0.568398 0.178078 0.946420
Si Si4 0.569183 0.684592 0.414723
Si Si5 0.976197 0.167861 0.426146
Si Si6 0.430434 0.162223 0.390931
Si Si7 0.202900 0.171986 0.256423
Si Si8 0.830717 0.795177 0.993926
O O1 0.955839 0.174411 0.287926
O O2 0.101570 0.137767 0.370694
O O3 0.885214 0.186200 0.009217
O O4 0.932566 0.923991 0.156249
O O5 0.860475 0.227885 0.298218
O O6 0.781012 0.489129 0.225183
O O7 0.694592 0.232917 0.166177
O O8 0.538896 0.270597 0.810744
O O9 0.484165 0.218456 0.901614
O O10 0.568325 0.997086 0.927862
O O11 0.557929 0.770913 0.492181
O O12 0.682783 0.745421 0.529639
O O13 0.082432 0.277962 0.621858
O O14 0.000000 0.000000 0.500000
O O15 0.293386 0.150875 0.151350
O O16 0.500000 0.000000 0.500000
O O17 0.198371 0.247306 0.151518
#
# Coordination Sequence:
#
# PCOD8126232 Si02
#       8
#     4   4   4   4   4   4   4   4
#     4  10  21  39  60  90 128 161 205 262 317 377
#     4  11  23  40  62  90 126 171 213 262 329 395
#     4  12  25  42  66  94 125 171 219 270 331 399
#     4  11  24  44  65  91 126 165 217 277 331 391
#     4  11  22  37  62  95 125 164 213 263 322 391
#     4  11  23  43  67  95 131 171 217 268 328 397
#     4   9  20  41  61  85 123 162 209 267 323 390
#     4   9  20  38  63  90 122 165 204 255 319 380
#
# _framework density 21.715449
#
# number of rings (size 3 to 8) (size 9 to 14) (size 15 to 20)
#    0.000    1.500    0.000    6.000    0.000    7.000 
#    0.000    6.250    0.000    0.000    0.000    0.000 
#    0.000    0.000    0.000    0.000    0.000    0.000 
#
# Total GULP energy -396488.720732 kJ/mol
# GULP energy per Si atom -12390.272523 kJ/mol
# Density = 2.166602 g / cm^3
# Si number density = 21.715449 Si / 1000 Ang^3
#
#
#
# Elastic Constant Matrix: (Units=GPa)
#
#
# Indices 1 2 3 4 5 6 
#
# 1 75.5753 14.6950 46.7208 0.0000 6.8992 0.0000
# 2 14.6950 89.8955 51.2675 0.0000 12.6138 0.0000
# 3 46.7208 51.2675 108.0914 0.0000 22.8741 0.0000
# 4 0.0000 0.0000 0.0000 24.7474 0.0000 15.8866
# 5 6.8992 12.6138 22.8741 0.0000 42.2217 0.0000
# 6 0.0000 0.0000 0.0000 15.8866 0.0000 23.9483
#
#
#
# Elastic Compliance Matrix: (Units=1/GPa)
#
#
# Indices 1 2 3 4 5 6 
#
# 1 0.018408 0.002058 -0.009224 0.000000 0.001374 0.000000
# 2 0.002058 0.015498 -0.008120 0.000000 -0.000567 0.000000
# 3 -0.009224 -0.008120 0.018363 0.000000 -0.006015 0.000000
# 4 0.000000 0.000000 0.000000 0.070380 0.000000 -0.046688
# 5 0.001374 -0.000567 -0.006015 0.000000 0.026888 0.000000
# 6 0.000000 0.000000 0.000000 -0.046688 0.000000 0.072728
#
#
# Mechanical properties :
#
#
# Convention : Reuss Voigt Hill
#
# Bulk Modulus (GPa) = 46.08834 55.43650 50.76242
# Shear Modulus (GPa) = 19.22563 28.90874 24.06719
#
# Velocity S-wave (km/s) = 2.97870 3.65259 3.33272
# Velocity P-wave (km/s) = 5.75326 6.58579 6.18355
#
# Compressibility (1/GPa) = 0.02169746
#
# Stress axis : x y z
#
# Youngs Moduli (GPa) = 54.32331 64.52346 54.45843
#
# Poissons Ratio (x) = -0.13281 0.50231
# Poissons Ratio (y) = -0.11182 0.44223
# Poissons Ratio (z) = 0.50106 0.52396
#
# Static dielectric constant tensor:
#      x y z
#    x 4.854570 0.000000 0.013880 
#    y 0.000000 3.933910 0.000000 
#    z 0.013880 0.000000 4.489970 
# 
# 
# High freq. dielectric constant tensor:
#      x y z
#    x 1.846000 0.000000 0.003970 
#    y 0.000000 1.855890 0.000000 
#    z 0.003970 0.000000 1.869640 
# 
# From -- ./inp_files/51275.got.cif
#   From: 2010.03.12/outbox.cif.g09.slc.cpg/sg14_26_cif.got.tgz:51275.got - 2010.03.31 13:35:05.
