data_PCOD8126918
_publ_section_title
;
Structure prediction by ZEFSAII (Michael W. Deem and Ramdas Pophale) SiO2 
 PCOD8126918
Probable space group: P 21/C
;
_chemical_formula_sum "Si O2"
_cell_formula_units_Z 24
_cell_length_a 23.711207
_cell_length_b 7.398574
_cell_length_c 12.637934
_cell_angle_alpha 90.000000
_cell_angle_beta 150.268493
_cell_angle_gamma 90.000000
_cell_volume 1099.521244
_symmetry_space_group_name_H-M "P 21/C"
_symmetry_group_IT_number 14
_symmetry_cell_setting 'monoclinic'
loop_
_space_group_symop_operation_xyz
x,y,z
-x,1/2+y,1/2-z
-x,-y,-z
x,1/2-y,1/2+z
loop_
_atom_site_type_symbol
_atom_site_label
_atom_site_fract_x
_atom_site_fract_y
_atom_site_fract_z
Si Si1 0.357865 0.202096 0.506812
Si Si2 0.057704 0.664736 0.537019
Si Si3 0.775723 0.460600 0.361088
Si Si4 0.243482 0.836020 0.501243
Si Si5 0.518060 0.455231 0.650298
Si Si6 0.818879 0.747274 0.106175
O O1 0.405626 0.355701 0.507969
O O2 0.253689 0.285478 0.405434
O O3 0.317289 0.023865 0.376425
O O4 0.461173 0.140619 0.751412
O O5 0.108102 0.588331 0.509652
O O6 0.154369 0.751901 0.771364
O O7 0.000000 0.500000 0.500000
O O8 0.952060 0.798335 0.342322
O O9 0.742803 0.279946 0.370176
O O10 0.782261 0.627861 0.450841
O O11 0.367698 0.835760 0.650296
O O12 0.202550 0.039045 0.463432
O O13 0.500000 0.500000 0.500000
#
# Coordination Sequence:
#
# PCOD8126918 Si02
#       6
#     4   4   4   4   4   4
#     4  11  24  45  69  98 137 172 224 287 331 405
#     4  10  21  45  65  99 142 165 226 284 320 411
#     4  12  24  43  72  97 131 183 218 274 350 393
#     4  10  24  45  65 101 136 173 229 273 331 405
#     4  11  25  44  69 100 135 179 227 283 336 398
#     4  10  24  45  67 104 137 174 226 274 338 403
#
# _framework density 21.827681999999999
#
# number of rings (size 3 to 8) (size 9 to 14) (size 15 to 20)
#    0.000    1.333    5.000    2.000    9.333    1.333 
#    3.000    0.000    0.000    0.000    0.000    0.000 
#    0.000    0.000    0.000    0.000    0.000    0.000 
#
# Total GULP energy -297470.124462 kJ/mol
# GULP energy per Si atom -12394.588519 kJ/mol
# Density = 2.177800 g / cm^3
# Si number density = 21.827682 Si / 1000 Ang^3
#
#
#
# Elastic Constant Matrix: (Units=GPa)
#
#
# Indices 1 2 3 4 5 6 
#
# 1 160.4187 54.5790 52.8763 0.0000 -2.6261 0.0000
# 2 54.5790 52.5328 24.4014 0.0000 -0.4886 0.0000
# 3 52.8763 24.4014 117.3920 0.0000 -0.8047 0.0000
# 4 0.0000 0.0000 0.0000 32.0779 0.0000 -11.3486
# 5 -2.6261 -0.4886 -0.8047 0.0000 39.4750 0.0000
# 6 0.0000 0.0000 0.0000 -11.3486 0.0000 45.8560
#
#
#
# Elastic Compliance Matrix: (Units=1/GPa)
#
#
# Indices 1 2 3 4 5 6 
#
# 1 0.010366 -0.009516 -0.002687 0.000000 0.000517 0.000000
# 2 -0.009516 0.029808 -0.001912 0.000000 -0.000303 0.000000
# 3 -0.002687 -0.001912 0.010126 0.000000 0.000004 0.000000
# 4 0.000000 0.000000 0.000000 0.034165 0.000000 0.008455
# 5 0.000517 -0.000303 0.000004 0.000000 0.025363 0.000000
# 6 0.000000 0.000000 0.000000 0.008455 0.000000 0.023900
#
#
# Mechanical properties :
#
#
# Convention : Reuss Voigt Hill
#
# Bulk Modulus (GPa) = 45.31191 66.00632 55.65912
# Shear Modulus (GPa) = 29.53069 36.71424 33.12247
#
# Velocity S-wave (km/s) = 3.68217 4.10567 3.89968
# Velocity P-wave (km/s) = 6.23553 7.26504 6.76988
#
# Compressibility (1/GPa) = 0.02206925
#
# Stress axis : x y z
#
# Youngs Moduli (GPa) = 96.47235 33.54819 98.75292
#
# Poissons Ratio (x) = 0.31926 0.26538
# Poissons Ratio (y) = 0.91807 0.18878
# Poissons Ratio (z) = 0.25925 0.06413
#
# Static dielectric constant tensor:
#      x y z
#    x 3.848250 0.000000 -0.167400 
#    y 0.000000 3.823970 0.000000 
#    z -0.167400 0.000000 4.788410 
# 
# 
# High freq. dielectric constant tensor:
#      x y z
#    x 1.870000 0.000000 -0.002010 
#    y 0.000000 1.829230 0.000000 
#    z -0.002010 0.000000 1.871120 
# 
# From -- ./inp_files/35788.got.cif
#   From: 2010.03.12/outbox.cif.g09.slc.cpg/sg14_18_cif.got.tgz:35788.got - 2010.03.31 13:35:05.
