data_PCOD8126935
_publ_section_title
;
Structure prediction by ZEFSAII (Michael W. Deem and Ramdas Pophale) SiO2 
 PCOD8126935
Probable space group: P 21/C
;
_chemical_formula_sum "Si O2"
_cell_formula_units_Z 20
_cell_length_a 8.171402
_cell_length_b 12.698794
_cell_length_c 11.547710
_cell_angle_alpha 90.000000
_cell_angle_beta 132.751805
_cell_angle_gamma 90.000000
_cell_volume 879.891489
_symmetry_space_group_name_H-M "P 21/C"
_symmetry_group_IT_number 14
_symmetry_cell_setting 'monoclinic'
loop_
_space_group_symop_operation_xyz
x,y,z
-x,1/2+y,1/2-z
-x,-y,-z
x,1/2-y,1/2+z
loop_
_atom_site_type_symbol
_atom_site_label
_atom_site_fract_x
_atom_site_fract_y
_atom_site_fract_z
Si Si1 0.135499 0.565977 0.913751
Si Si2 0.309780 0.095509 0.664727
Si Si3 0.544529 0.565333 0.408708
Si Si4 0.341359 0.731008 0.176139
Si Si5 0.970928 0.408340 0.393718
O O1 0.879927 0.589387 0.827676
O O2 0.163143 0.560762 0.787832
O O3 0.206869 0.449756 0.995250
O O4 0.292441 0.660094 0.038843
O O5 0.417110 0.211738 0.714735
O O6 0.522218 0.020352 0.794819
O O7 0.500000 0.500000 0.500000
O O8 0.356321 0.654262 0.295515
O O9 0.781019 0.622695 0.525881
O O10 0.135022 0.807743 0.095759
O O11 0.000000 0.500000 0.500000
#
# Coordination Sequence:
#
# PCOD8126935 Si02
#       5
#     4   4   4   4   4
#     4  10  24  43  70  97 137 183 230 285 349 420
#     4  10  21  46  67  96 136 183 228 280 350 415
#     4  11  23  45  69  96 141 183 225 287 349 411
#     4  11  25  43  68 104 135 184 237 281 354 408
#     4  12  25  43  69 106 136 180 238 292 339 419
#
# _framework density 22.730076
#
# number of rings (size 3 to 8) (size 9 to 14) (size 15 to 20)
#    0.000    1.200    4.000    1.200    2.800    0.800 
#    3.600    0.000    0.000    0.000    0.000    0.000 
#    0.000    0.000    0.000    0.000    0.000    0.000 
#
# Total GULP energy -247824.213331 kJ/mol
# GULP energy per Si atom -12391.210667 kJ/mol
# Density = 2.267834 g / cm^3
# Si number density = 22.730076 Si / 1000 Ang^3
#
#
#
# Elastic Constant Matrix: (Units=GPa)
#
#
# Indices 1 2 3 4 5 6 
#
# 1 66.7129 38.7893 50.7082 0.0000 -2.0812 0.0000
# 2 38.7893 132.0091 75.2315 0.0000 -6.2258 0.0000
# 3 50.7082 75.2315 153.0685 0.0000 -17.7459 0.0000
# 4 0.0000 0.0000 0.0000 47.2677 0.0000 11.2024
# 5 -2.0812 -6.2258 -17.7459 0.0000 44.7458 0.0000
# 6 0.0000 0.0000 0.0000 11.2024 0.0000 34.8055
#
#
#
# Elastic Compliance Matrix: (Units=1/GPa)
#
#
# Indices 1 2 3 4 5 6 
#
# 1 0.021002 -0.003020 -0.005669 0.000000 -0.001692 0.000000
# 2 -0.003020 0.010973 -0.004436 0.000000 -0.000373 0.000000
# 3 -0.005669 -0.004436 0.010995 0.000000 0.003480 0.000000
# 4 0.000000 0.000000 0.000000 0.022903 0.000000 -0.007372
# 5 -0.001692 -0.000373 0.003480 0.000000 0.023598 0.000000
# 6 0.000000 0.000000 0.000000 -0.007372 0.000000 0.031104
#
#
# Mechanical properties :
#
#
# Convention : Reuss Voigt Hill
#
# Bulk Modulus (GPa) = 59.81121 75.69426 67.75273
# Shear Modulus (GPa) = 32.80881 37.83457 35.32169
#
# Velocity S-wave (km/s) = 3.80334 4.08427 3.94631
# Velocity P-wave (km/s) = 6.75707 7.45757 7.11595
#
# Compressibility (1/GPa) = 0.01671927
#
# Stress axis : x y z
#
# Youngs Moduli (GPa) = 47.61448 91.13234 90.95264
#
# Poissons Ratio (x) = 0.27523 0.51564
# Poissons Ratio (y) = 0.14380 0.40346
# Poissons Ratio (z) = 0.26994 0.40425
#
# Static dielectric constant tensor:
#      x y z
#    x 3.934370 0.000000 0.412200 
#    y 0.000000 4.088520 0.000000 
#    z 0.412200 0.000000 4.916430 
# 
# 
# High freq. dielectric constant tensor:
#      x y z
#    x 1.873290 0.000000 0.018250 
#    y 0.000000 1.897610 0.000000 
#    z 0.018250 0.000000 1.917700 
# 
# From -- ./inp_files/24024.got.cif
#   From: 2010.03.12/outbox.cif.g09.slc.cpg/sg14_13_cif.got.tgz:24024.got - 2010.03.31 13:35:05.
