data_PCOD8126376
_publ_section_title
;
Structure prediction by ZEFSAII (Michael W. Deem and Ramdas Pophale) SiO2 
 PCOD8126376
Probable space group: P 21/C
;
_chemical_formula_sum "Si O2"
_cell_formula_units_Z 32
_cell_length_a 22.463858
_cell_length_b 8.818958
_cell_length_c 23.546481
_cell_angle_alpha 90.000000
_cell_angle_beta 161.426930
_cell_angle_gamma 90.000000
_cell_volume 1485.784739
_symmetry_space_group_name_H-M "P 21/C"
_symmetry_group_IT_number 14
_symmetry_cell_setting 'monoclinic'
loop_
_space_group_symop_operation_xyz
x,y,z
-x,1/2+y,1/2-z
-x,-y,-z
x,1/2-y,1/2+z
loop_
_atom_site_type_symbol
_atom_site_label
_atom_site_fract_x
_atom_site_fract_y
_atom_site_fract_z
Si Si1 0.019023 0.941078 0.383226
Si Si2 0.179218 0.415825 0.187585
Si Si3 0.195405 0.056147 0.198480
Si Si4 0.242704 0.627333 0.420270
Si Si5 0.860405 0.119273 0.047121
Si Si6 0.782599 0.451590 0.152623
Si Si7 0.582316 0.099282 0.697532
Si Si8 0.606712 0.454775 0.713317
O O1 0.837604 0.953264 0.260967
O O2 0.037710 0.765944 0.385245
O O3 0.213938 0.002033 0.585720
O O4 0.953017 0.041746 0.270509
O O5 0.184015 0.236210 0.184596
O O6 0.363354 0.481994 0.323565
O O7 0.000000 0.500000 0.000000
O O8 0.229377 0.990211 0.291692
O O9 0.355445 0.994049 0.301740
O O10 0.000000 0.000000 0.000000
O O11 0.235085 0.663886 0.480058
O O12 0.260352 0.775651 0.397435
O O13 0.422536 0.522004 0.574585
O O14 0.704224 0.057590 0.862705
O O15 0.015650 0.988157 0.191973
O O16 0.629267 0.550997 0.980507
O O17 0.591303 0.276098 0.693086
#
# Coordination Sequence:
#
# PCOD8126376 Si02
#       8
#     4   4   4   4   4   4   4   4
#     4  10  22  45  67  95 134 177 226 281 339 404
#     4  10  21  39  70  98 136 174 221 274 344 409
#     4  12  22  42  69 101 142 174 222 281 349 415
#     4  12  27  41  69 100 135 178 237 275 341 411
#     4  11  24  48  67  95 134 185 227 285 337 405
#     4  12  26  43  69 104 136 180 228 283 346 408
#     4  11  25  44  70  98 140 178 225 282 348 400
#     4  10  24  43  67 101 132 179 222 284 337 407
#
# _framework density 21.53744
#
# number of rings (size 3 to 8) (size 9 to 14) (size 15 to 20)
#    0.000    1.000    2.500    4.125    5.250    4.500 
#    0.000    0.000    0.000    0.000    0.000    0.000 
#    0.000    0.000    0.000    0.000    0.000    0.000 
#
# Total GULP energy -396807.222024 kJ/mol
# GULP energy per Si atom -12400.225688 kJ/mol
# Density = 2.148842 g / cm^3
# Si number density = 21.537440 Si / 1000 Ang^3
#
#
#
# Elastic Constant Matrix: (Units=GPa)
#
#
# Indices 1 2 3 4 5 6 
#
# 1 106.1477 31.6722 44.2568 0.0000 -5.6867 0.0000
# 2 31.6722 103.9750 49.2831 0.0000 -7.3799 0.0000
# 3 44.2568 49.2831 123.0529 0.0000 -0.0508 0.0000
# 4 0.0000 0.0000 0.0000 32.2178 0.0000 -3.8021
# 5 -5.6867 -7.3799 -0.0508 0.0000 20.1869 0.0000
# 6 0.0000 0.0000 0.0000 -3.8021 0.0000 21.6721
#
#
#
# Elastic Compliance Matrix: (Units=1/GPa)
#
#
# Indices 1 2 3 4 5 6 
#
# 1 0.011506 -0.001676 -0.003466 0.000000 0.002620 0.000000
# 2 -0.001676 0.012506 -0.004404 0.000000 0.004089 0.000000
# 3 -0.003466 -0.004404 0.011136 0.000000 -0.002558 0.000000
# 4 0.000000 0.000000 0.000000 0.031695 0.000000 0.005560
# 5 0.002620 0.004089 -0.002558 0.000000 0.051763 0.000000
# 6 0.000000 0.000000 0.000000 0.005560 0.000000 0.047118
#
#
# Mechanical properties :
#
#
# Convention : Reuss Voigt Hill
#
# Bulk Modulus (GPa) = 62.28300 64.84443 63.56371
# Shear Modulus (GPa) = 26.29239 28.67959 27.48599
#
# Velocity S-wave (km/s) = 3.49775 3.65309 3.57626
# Velocity P-wave (km/s) = 6.73005 6.92579 6.82862
#
# Compressibility (1/GPa) = 0.01605574
#
# Stress axis : x y z
#
# Youngs Moduli (GPa) = 86.90803 79.96152 89.79926
#
# Poissons Ratio (x) = 0.13403 0.31124
# Poissons Ratio (y) = 0.14568 0.39549
# Poissons Ratio (z) = 0.30122 0.35216
#
# Static dielectric constant tensor:
#      x y z
#    x 4.216420 0.000000 -0.139950 
#    y 0.000000 3.884470 0.000000 
#    z -0.139950 0.000000 4.116160 
# 
# 
# High freq. dielectric constant tensor:
#      x y z
#    x 1.847080 0.000000 0.000590 
#    y 0.000000 1.850710 0.000000 
#    z 0.000590 0.000000 1.854960 
# 
# From -- ./inp_files/74918.got.cif
#   From: 2010.03.12/outbox.cif.g09.slc.cpg/sg14_38_cif.got.tgz:74918.got - 2010.03.31 13:35:05.
