data_PCOD8126404
_publ_section_title
;
Structure prediction by ZEFSAII (Michael W. Deem and Ramdas Pophale) SiO2 
 PCOD8126404
Probable space group: P 21/C
;
_chemical_formula_sum "Si O2"
_cell_formula_units_Z 20
_cell_length_a 10.741435
_cell_length_b 12.123539
_cell_length_c 12.325951
_cell_angle_alpha 90.000000
_cell_angle_beta 33.573953
_cell_angle_gamma 90.000000
_cell_volume 887.661474
_symmetry_space_group_name_H-M "P 21/C"
_symmetry_group_IT_number 14
_symmetry_cell_setting 'monoclinic'
loop_
_space_group_symop_operation_xyz
x,y,z
-x,1/2+y,1/2-z
-x,-y,-z
x,1/2-y,1/2+z
loop_
_atom_site_type_symbol
_atom_site_label
_atom_site_fract_x
_atom_site_fract_y
_atom_site_fract_z
Si Si1 0.268587 0.048406 0.860432
Si Si2 0.147086 0.669469 0.351729
Si Si3 0.729372 0.523045 0.074697
Si Si4 0.910895 0.644330 0.142250
Si Si5 0.635384 0.663969 0.931470
O O1 0.297440 0.083654 0.713966
O O2 0.187823 0.921303 0.917154
O O3 0.508154 0.055587 0.747050
O O4 0.076943 0.127777 0.052649
O O5 0.099417 0.785674 0.442069
O O6 0.365942 0.683141 0.117711
O O7 0.702749 0.608359 0.995696
O O8 0.952328 0.449511 0.891633
O O9 0.744707 0.589306 0.175662
O O10 0.762264 0.718721 0.330754
#
# Coordination Sequence:
#
# PCOD8126404 Si02
#       5
#     4   4   4   4   4
#     4   9  19  36  60  88 117 155 203 250 298 358
#     4   9  18  36  59  86 117 154 202 246 297 356
#     4  10  21  40  61  89 129 160 199 255 304 364
#     4  10  23  40  59  91 127 160 200 250 307 360
#     4  10  21  40  65  90 118 160 206 248 302 365
#
# _framework density 22.531112
#
# number of rings (size 3 to 8) (size 9 to 14) (size 15 to 20)
#    0.000    2.400    0.000    2.400    0.000    9.600 
#    0.000   20.000    0.000    0.000    0.000    0.000 
#    0.000    0.000    0.000    0.000    0.000    0.000 
#
# Total GULP energy -247904.093737 kJ/mol
# GULP energy per Si atom -12395.204687 kJ/mol
# Density = 2.247983 g / cm^3
# Si number density = 22.531112 Si / 1000 Ang^3
#
#
#
# Elastic Constant Matrix: (Units=GPa)
#
#
# Indices 1 2 3 4 5 6 
#
# 1 113.2140 41.9075 57.6162 0.0000 -32.8128 0.0000
# 2 41.9075 91.8387 55.4625 0.0000 -13.4008 0.0000
# 3 57.6162 55.4625 150.4865 0.0000 -35.6440 0.0000
# 4 0.0000 0.0000 0.0000 23.9212 0.0000 -4.2342
# 5 -32.8128 -13.4008 -35.6440 0.0000 22.2693 0.0000
# 6 0.0000 0.0000 0.0000 -4.2342 0.0000 23.6680
#
#
#
# Elastic Compliance Matrix: (Units=1/GPa)
#
#
# Indices 1 2 3 4 5 6 
#
# 1 0.017003 -0.004836 0.000833 0.000000 0.023477 0.000000
# 2 -0.004836 0.015383 -0.005336 0.000000 -0.006410 0.000000
# 3 0.000833 -0.005336 0.012600 0.000000 0.018183 0.000000
# 4 0.000000 0.000000 0.000000 0.043171 0.000000 0.007723
# 5 0.023477 -0.006410 0.018183 0.000000 0.104743 0.000000
# 6 0.000000 0.000000 0.000000 0.007723 0.000000 0.043633
#
#
# Mechanical properties :
#
#
# Convention : Reuss Voigt Hill
#
# Bulk Modulus (GPa) = 38.01239 73.94571 55.97905
# Shear Modulus (GPa) = 18.94079 27.34192 23.14136
#
# Velocity S-wave (km/s) = 2.90254 3.48734 3.20829
# Velocity P-wave (km/s) = 5.30478 7.00757 6.21477
#
# Compressibility (1/GPa) = 0.02630722
#
# Stress axis : x y z
#
# Youngs Moduli (GPa) = 58.81185 65.00812 79.36742
#
# Poissons Ratio (x) = 0.31441 -0.06612
# Poissons Ratio (y) = 0.28444 0.42350
# Poissons Ratio (z) = -0.04900 0.34688
#
# Static dielectric constant tensor:
#      x y z
#    x 3.731290 0.000000 -0.491790 
#    y 0.000000 4.103430 0.000000 
#    z -0.491790 0.000000 4.346340 
# 
# 
# High freq. dielectric constant tensor:
#      x y z
#    x 1.858120 0.000000 -0.031880 
#    y 0.000000 1.893510 0.000000 
#    z -0.031880 0.000000 1.893660 
# 
# From -- ./inp_files/44558.got.cif
#   From: 2010.03.12/outbox.cif.g09.slc.cpg/sg14_23_cif.got.tgz:44558.got - 2010.03.31 13:35:05.
