data_PCOD8126645
_publ_section_title
;
Structure prediction by ZEFSAII (Michael W. Deem and Ramdas Pophale) SiO2 
 PCOD8126645
Probable space group: P 21/C
;
_chemical_formula_sum "Si O2"
_cell_formula_units_Z 28
_cell_length_a 6.918072
_cell_length_b 15.679575
_cell_length_c 14.603216
_cell_angle_alpha 90.000000
_cell_angle_beta 124.335345
_cell_angle_gamma 90.000000
_cell_volume 1308.027039
_symmetry_space_group_name_H-M "P 21/C"
_symmetry_group_IT_number 14
_symmetry_cell_setting 'monoclinic'
loop_
_space_group_symop_operation_xyz
x,y,z
-x,1/2+y,1/2-z
-x,-y,-z
x,1/2-y,1/2+z
loop_
_atom_site_type_symbol
_atom_site_label
_atom_site_fract_x
_atom_site_fract_y
_atom_site_fract_z
Si Si1 0.435652 0.128530 0.523753
Si Si2 0.596136 0.712505 0.618133
Si Si3 0.889147 0.021163 0.619428
Si Si4 0.193926 0.166180 0.634567
Si Si5 0.801018 0.063173 0.146114
Si Si6 0.713425 0.586023 0.494467
Si Si7 0.080377 0.823633 0.968443
O O1 0.415483 0.194201 0.433208
O O2 0.692798 0.088828 0.595757
O O3 0.402656 0.169932 0.615447
O O4 0.231816 0.057192 0.464701
O O5 0.730852 0.710409 0.750248
O O6 0.727961 0.650313 0.583732
O O7 0.344011 0.673512 0.576722
O O8 0.087666 0.070750 0.614458
O O9 0.020725 0.983640 0.741283
O O10 0.993902 0.226173 0.540012
O O11 0.915458 0.150448 0.138514
O O12 0.765041 0.008446 0.043883
O O13 0.546140 0.084479 0.122272
O O14 0.907266 0.612158 0.473606
#
# Coordination Sequence:
#
# PCOD8126645 Si02
#       7
#     4   4   4   4   4   4   4
#     4  11  25  45  67  97 135 174 224 274 324 400
#     4  11  23  42  67  98 131 173 222 274 328 391
#     4  11  24  45  67  95 137 176 219 273 330 398
#     4  12  24  42  68  97 132 181 217 269 340 390
#     4  10  22  40  67  96 131 174 214 275 326 395
#     4  10  21  41  65  96 134 164 221 274 322 386
#     4  11  23  41  65  99 133 170 224 274 324 397
#
# _framework density 21.406286999999999
#
# number of rings (size 3 to 8) (size 9 to 14) (size 15 to 20)
#    0.000    1.143    4.286    1.714    2.000    1.143 
#    2.571    0.000    0.000    0.000    0.000    0.000 
#    0.000    0.000    0.000    0.000    0.000    0.000 
#
# Total GULP energy -347062.479182 kJ/mol
# GULP energy per Si atom -12395.088542 kJ/mol
# Density = 2.135757 g / cm^3
# Si number density = 21.406287 Si / 1000 Ang^3
#
#
#
# Elastic Constant Matrix: (Units=GPa)
#
#
# Indices 1 2 3 4 5 6 
#
# 1 121.5014 22.7100 36.7417 0.0000 2.8606 0.0000
# 2 22.7100 64.3018 1.6905 0.0000 -0.2026 0.0000
# 3 36.7417 1.6905 70.9904 0.0000 -1.1398 0.0000
# 4 0.0000 0.0000 0.0000 30.3624 0.0000 6.5645
# 5 2.8606 -0.2026 -1.1398 0.0000 20.7830 0.0000
# 6 0.0000 0.0000 0.0000 6.5645 0.0000 39.3390
#
#
#
# Elastic Compliance Matrix: (Units=1/GPa)
#
#
# Indices 1 2 3 4 5 6 
#
# 1 0.010585 -0.003602 -0.005421 0.000000 -0.001789 0.000000
# 2 -0.003602 0.016787 0.001476 0.000000 0.000740 0.000000
# 3 -0.005421 0.001476 0.016884 0.000000 0.001687 0.000000
# 4 0.000000 0.000000 0.000000 0.034168 0.000000 -0.005702
# 5 -0.001789 0.000740 0.001687 0.000000 0.048462 0.000000
# 6 0.000000 0.000000 0.000000 -0.005702 0.000000 0.026371
#
#
# Mechanical properties :
#
#
# Convention : Reuss Voigt Hill
#
# Bulk Modulus (GPa) = 34.29009 42.11979 38.20494
# Shear Modulus (GPa) = 28.07840 31.14031 29.60936
#
# Velocity S-wave (km/s) = 3.62565 3.81823 3.72319
# Velocity P-wave (km/s) = 5.79488 6.25760 6.03068
#
# Compressibility (1/GPa) = 0.02916294
#
# Stress axis : x y z
#
# Youngs Moduli (GPa) = 94.47281 59.56927 59.22690
#
# Poissons Ratio (x) = 0.21454 0.32109
# Poissons Ratio (y) = 0.34025 -0.08743
# Poissons Ratio (z) = 0.51217 -0.08793
#
# Static dielectric constant tensor:
#      x y z
#    x 3.906490 0.000000 0.116090 
#    y 0.000000 4.112130 0.000000 
#    z 0.116090 0.000000 3.581500 
# 
# 
# High freq. dielectric constant tensor:
#      x y z
#    x 1.848660 0.000000 0.011070 
#    y 0.000000 1.856550 0.000000 
#    z 0.011070 0.000000 1.818610 
# 
# From -- ./inp_files/37769.got.cif
#   From: 2010.03.12/outbox.cif.g09.slc.cpg/sg14_19_cif.got.tgz:37769.got - 2010.03.31 13:35:05.
