data_PCOD8126052
_publ_section_title
;
Structure prediction by ZEFSAII (Michael W. Deem and Ramdas Pophale) SiO2 
 PCOD8126052
Probable space group: P 21/C
;
_chemical_formula_sum "Si O2"
_cell_formula_units_Z 28
_cell_length_a 8.814971
_cell_length_b 16.425847
_cell_length_c 14.272022
_cell_angle_alpha 90.000000
_cell_angle_beta 42.915198
_cell_angle_gamma 90.000000
_cell_volume 1407.107145
_symmetry_space_group_name_H-M "P 21/C"
_symmetry_group_IT_number 14
_symmetry_cell_setting 'monoclinic'
loop_
_space_group_symop_operation_xyz
x,y,z
-x,1/2+y,1/2-z
-x,-y,-z
x,1/2-y,1/2+z
loop_
_atom_site_type_symbol
_atom_site_label
_atom_site_fract_x
_atom_site_fract_y
_atom_site_fract_z
Si Si1 0.119109 0.427560 0.288575
Si Si2 0.393681 0.569283 0.483309
Si Si3 0.307420 0.330367 0.538438
Si Si4 0.601292 0.554687 0.670933
Si Si5 0.151437 0.903746 0.688522
Si Si6 0.202854 0.990150 0.477090
Si Si7 0.634531 0.647587 0.986098
O O1 0.172548 0.420983 0.375254
O O2 0.201936 0.517500 0.227183
O O3 0.263713 0.364354 0.163273
O O4 0.863143 0.413586 0.376682
O O5 0.500000 0.500000 0.500000
O O6 0.536040 0.651331 0.440325
O O7 0.399385 0.536650 0.373624
O O8 0.417878 0.379343 0.402582
O O9 0.293916 0.236992 0.513189
O O10 0.059023 0.357491 0.674899
O O11 0.398589 0.557916 0.835480
O O12 0.368318 0.848132 0.599295
O O13 0.112783 0.931640 0.599476
O O14 0.279632 0.078039 0.481827
O O15 0.000000 0.000000 0.500000
#
# Coordination Sequence:
#
# PCOD8126052 Si02
#       7
#     4   4   4   4   4   4   4
#     4  11  20  41  67  91 123 172 222 258 315 392
#     4  10  21  37  65  93 125 163 211 262 314 386
#     4  11  26  41  65  98 134 168 216 273 336 375
#     4  11  21  41  66  98 121 167 225 266 310 395
#     4  11  21  45  65  89 127 176 215 254 325 402
#     4  11  23  40  69  94 126 168 226 263 311 391
#     4  11  25  43  64  92 137 177 203 274 343 377
#
# _framework density 19.898983999999999
#
# number of rings (size 3 to 8) (size 9 to 14) (size 15 to 20)
#    0.000    1.143    5.714    2.143    8.000    0.000 
#    5.143    0.000    0.000    0.000    0.000    0.000 
#    0.000    0.000    0.000    0.000    0.000    0.000 
#
# Total GULP energy -347090.445981 kJ/mol
# GULP energy per Si atom -12396.087356 kJ/mol
# Density = 1.985369 g / cm^3
# Si number density = 19.898984 Si / 1000 Ang^3
#
#
#
# Elastic Constant Matrix: (Units=GPa)
#
#
# Indices 1 2 3 4 5 6 
#
# 1 117.6531 28.4862 29.4101 0.0000 1.6504 0.0000
# 2 28.4862 102.5137 38.0791 0.0000 6.3312 0.0000
# 3 29.4101 38.0791 83.9608 0.0000 2.3986 0.0000
# 4 0.0000 0.0000 0.0000 22.1792 0.0000 -0.7299
# 5 1.6504 6.3312 2.3986 0.0000 28.6093 0.0000
# 6 0.0000 0.0000 0.0000 -0.7299 0.0000 19.5618
#
#
#
# Elastic Compliance Matrix: (Units=1/GPa)
#
#
# Indices 1 2 3 4 5 6 
#
# 1 0.009555 -0.001700 -0.002577 0.000000 0.000041 0.000000
# 2 -0.001700 0.012168 -0.004860 0.000000 -0.002187 0.000000
# 3 -0.002577 -0.004860 0.015018 0.000000 -0.000035 0.000000
# 4 0.000000 0.000000 0.000000 0.045143 0.000000 0.001684
# 5 0.000041 -0.002187 -0.000035 0.000000 0.035438 0.000000
# 6 0.000000 0.000000 0.000000 0.001684 0.000000 0.051183
#
#
# Mechanical properties :
#
#
# Convention : Reuss Voigt Hill
#
# Bulk Modulus (GPa) = 54.15491 55.11981 54.63736
# Shear Modulus (GPa) = 25.91542 27.94688 26.93115
#
# Velocity S-wave (km/s) = 3.61272 3.75165 3.68284
# Velocity P-wave (km/s) = 6.68404 6.82103 6.75288
#
# Compressibility (1/GPa) = 0.01846555
#
# Stress axis : x y z
#
# Youngs Moduli (GPa) = 104.65904 82.18423 66.58539
#
# Poissons Ratio (x) = 0.13975 0.17158
# Poissons Ratio (y) = 0.17796 0.32363
# Poissons Ratio (z) = 0.26969 0.39945
#
# Static dielectric constant tensor:
#      x y z
#    x 3.849890 0.000000 -0.104480 
#    y 0.000000 3.289160 0.000000 
#    z -0.104480 0.000000 3.688600 
# 
# 
# High freq. dielectric constant tensor:
#      x y z
#    x 1.787100 0.000000 -0.006370 
#    y 0.000000 1.746320 0.000000 
#    z -0.006370 0.000000 1.787120 
# 
# From -- ./inp_files/41433.got.cif
#   From: 2010.03.12/outbox.cif.g09.slc.cpg/sg14_21_cif.got.tgz:41433.got - 2010.03.31 13:35:05.
