data_PCOD8126442
_publ_section_title
;
Structure prediction by ZEFSAII (Michael W. Deem and Ramdas Pophale) SiO2 
 PCOD8126442
Probable space group: P 21/C
;
_chemical_formula_sum "Si O2"
_cell_formula_units_Z 32
_cell_length_a 31.409811
_cell_length_b 8.130090
_cell_length_c 12.675372
_cell_angle_alpha 90.000000
_cell_angle_beta 152.626863
_cell_angle_gamma 90.000000
_cell_volume 1488.246114
_symmetry_space_group_name_H-M "P 21/C"
_symmetry_group_IT_number 14
_symmetry_cell_setting 'monoclinic'
loop_
_space_group_symop_operation_xyz
x,y,z
-x,1/2+y,1/2-z
-x,-y,-z
x,1/2-y,1/2+z
loop_
_atom_site_type_symbol
_atom_site_label
_atom_site_fract_x
_atom_site_fract_y
_atom_site_fract_z
Si Si1 0.436071 0.950138 0.617833
Si Si2 0.343964 0.480003 0.691084
Si Si3 0.943036 0.715923 0.050817
Si Si4 0.164745 0.326622 0.382506
Si Si5 0.208467 0.421199 0.138442
Si Si6 0.288719 0.736110 0.399697
Si Si7 0.124182 0.960100 0.996480
Si Si8 0.600900 0.707432 0.378079
O O1 0.433285 0.104991 0.690793
O O2 0.390827 0.985911 0.405091
O O3 0.383333 0.801107 0.557713
O O4 0.542238 0.898567 0.833713
O O5 0.251734 0.373774 0.502582
O O6 0.314263 0.648720 0.566396
O O7 0.412997 0.370463 0.769517
O O8 0.049909 0.683559 0.312686
O O9 0.919465 0.905270 0.022196
O O10 0.926445 0.678527 0.890830
O O11 0.878596 0.593600 0.975722
O O12 0.178802 0.141228 0.457723
O O13 0.152256 0.457824 0.447950
O O14 0.244807 0.607453 0.219175
O O15 0.290957 0.298887 0.356138
O O16 0.214570 0.882535 0.251648
#
# Coordination Sequence:
#
# PCOD8126442 Si02
#       8
#     4   4   4   4   4   4   4   4
#     4  12  24  45  64  98 131 170 215 270 315 382
#     4  11  23  43  69  92 132 170 213 267 322 381
#     4  11  22  41  64  92 126 166 213 260 318 375
#     4  11  21  42  68  91 128 169 208 264 321 376
#     4  10  21  40  63  93 123 167 206 262 317 373
#     4  11  23  42  65  94 130 170 213 260 327 377
#     4  11  24  42  65  94 130 169 209 268 314 378
#     4  11  22  41  67  91 129 169 213 264 323 374
#
# _framework density 21.501819000000001
#
# number of rings (size 3 to 8) (size 9 to 14) (size 15 to 20)
#    0.000    1.000    5.000    3.750    0.000    1.000 
#    0.000    4.375    0.000    0.000    0.000    0.000 
#    0.000    0.000    0.000    0.000    0.000    0.000 
#
# Total GULP energy -396825.996736 kJ/mol
# GULP energy per Si atom -12400.812398 kJ/mol
# Density = 2.145288 g / cm^3
# Si number density = 21.501819 Si / 1000 Ang^3
#
#
#
# Elastic Constant Matrix: (Units=GPa)
#
#
# Indices 1 2 3 4 5 6 
#
# 1 75.0069 33.3017 17.3067 0.0000 -2.3783 0.0000
# 2 33.3017 106.1484 1.6115 0.0000 -7.1761 0.0000
# 3 17.3067 1.6115 50.7618 0.0000 -4.8283 0.0000
# 4 0.0000 0.0000 0.0000 36.1457 0.0000 8.1102
# 5 -2.3783 -7.1761 -4.8283 0.0000 36.4358 0.0000
# 6 0.0000 0.0000 0.0000 8.1102 0.0000 37.7325
#
#
#
# Elastic Compliance Matrix: (Units=1/GPa)
#
#
# Indices 1 2 3 4 5 6 
#
# 1 0.016967 -0.005283 -0.005682 0.000000 -0.000686 0.000000
# 2 -0.005283 0.011194 0.001643 0.000000 0.002078 0.000000
# 3 -0.005682 0.001643 0.021856 0.000000 0.002849 0.000000
# 4 0.000000 0.000000 0.000000 0.029068 0.000000 -0.006248
# 5 -0.000686 0.002078 0.002849 0.000000 0.028187 0.000000
# 6 0.000000 0.000000 0.000000 -0.006248 0.000000 0.027845
#
#
# Mechanical properties :
#
#
# Convention : Reuss Voigt Hill
#
# Bulk Modulus (GPa) = 31.87463 37.37299 34.62381
# Shear Modulus (GPa) = 30.44721 34.04263 32.24492
#
# Velocity S-wave (km/s) = 3.76710 3.98332 3.87672
# Velocity P-wave (km/s) = 5.81186 6.21086 6.01467
#
# Compressibility (1/GPa) = 0.03137291
#
# Stress axis : x y z
#
# Youngs Moduli (GPa) = 58.93770 89.33563 45.75408
#
# Poissons Ratio (x) = 0.47197 0.25999
# Poissons Ratio (y) = 0.31138 -0.07520
# Poissons Ratio (z) = 0.33490 -0.14682
#
# Static dielectric constant tensor:
#      x y z
#    x 3.941210 0.000000 0.139040 
#    y 0.000000 3.914350 0.000000 
#    z 0.139040 0.000000 3.863020 
# 
# 
# High freq. dielectric constant tensor:
#      x y z
#    x 1.845460 0.000000 0.014300 
#    y 0.000000 1.844470 0.000000 
#    z 0.014300 0.000000 1.840320 
# 
# From -- ./inp_files/36503.got.cif
#   From: 2010.03.12/outbox.cif.g09.slc.cpg/sg14_19_cif.got.tgz:36503.got - 2010.03.31 13:35:05.
