data_PCOD8126422
_publ_section_title
;
Structure prediction by ZEFSAII (Michael W. Deem and Ramdas Pophale) SiO2 
 PCOD8126422
Probable space group: P 21/C
;
_chemical_formula_sum "Si O2"
_cell_formula_units_Z 32
_cell_length_a 11.138799
_cell_length_b 8.516762
_cell_length_c 29.673630
_cell_angle_alpha 90.000000
_cell_angle_beta 147.955824
_cell_angle_gamma 90.000000
_cell_volume 1493.580632
_symmetry_space_group_name_H-M "P 21/C"
_symmetry_group_IT_number 14
_symmetry_cell_setting 'monoclinic'
loop_
_space_group_symop_operation_xyz
x,y,z
-x,1/2+y,1/2-z
-x,-y,-z
x,1/2-y,1/2+z
loop_
_atom_site_type_symbol
_atom_site_label
_atom_site_fract_x
_atom_site_fract_y
_atom_site_fract_z
Si Si1 0.641196 0.312824 0.761410
Si Si2 0.167668 0.185277 0.442987
Si Si3 0.710028 0.644807 0.182450
Si Si4 0.652242 0.680047 0.754545
Si Si5 0.406516 0.161544 0.936854
Si Si6 0.794355 0.347369 0.651971
Si Si7 0.498140 0.181580 0.624053
Si Si8 0.844047 0.171204 0.583217
O O1 0.605715 0.494770 0.739348
O O2 0.525647 0.272247 0.771728
O O3 0.510014 0.210571 0.681507
O O4 0.906343 0.267882 0.851644
O O5 0.332699 0.279272 0.462506
O O6 0.257286 0.221862 0.522792
O O7 0.214760 0.004255 0.448270
O O8 0.626595 0.757809 0.195878
O O9 0.739440 0.750784 0.147456
O O10 0.538467 0.500377 0.125170
O O11 0.960318 0.571196 0.267828
O O12 0.904452 0.715578 0.853569
O O13 0.372283 0.973875 0.924678
O O14 0.664985 0.206037 0.005421
O O15 0.696372 0.294944 0.668629
O O16 0.820855 0.190279 0.630034
#
# Coordination Sequence:
#
# PCOD8126422 Si02
#       8
#     4   4   4   4   4   4   4   4
#     4  11  24  46  67  91 124 168 214 268 313 372
#     4  11  23  41  66  94 128 172 210 254 315 384
#     4  11  22  38  64  92 125 172 209 255 315 379
#     4  10  24  46  66  90 122 165 216 263 318 368
#     4  12  21  38  61  97 134 160 208 258 314 377
#     4  11  22  35  59  95 132 167 203 259 315 375
#     4  12  23  41  63  96 129 167 215 253 318 376
#     4  10  21  40  62  90 128 166 202 256 314 374
#
# _framework density 21.425022999999999
#
# number of rings (size 3 to 8) (size 9 to 14) (size 15 to 20)
#    0.000    1.000    2.500    5.250    0.000    3.000 
#    2.250    2.500    0.000    0.000    0.000    0.000 
#    0.000    0.000    0.000    0.000    0.000    0.000 
#
# Total GULP energy -396744.114119 kJ/mol
# GULP energy per Si atom -12398.253566 kJ/mol
# Density = 2.137626 g / cm^3
# Si number density = 21.425023 Si / 1000 Ang^3
#
#
#
# Elastic Constant Matrix: (Units=GPa)
#
#
# Indices 1 2 3 4 5 6 
#
# 1 61.0928 25.8699 32.2193 0.0000 9.6126 0.0000
# 2 25.8699 81.5685 31.0973 0.0000 11.7012 0.0000
# 3 32.2193 31.0973 116.6782 0.0000 -3.4307 0.0000
# 4 0.0000 0.0000 0.0000 34.0361 0.0000 -2.5620
# 5 9.6126 11.7012 -3.4307 0.0000 29.5381 0.0000
# 6 0.0000 0.0000 0.0000 -2.5620 0.0000 32.4135
#
#
#
# Elastic Compliance Matrix: (Units=1/GPa)
#
#
# Indices 1 2 3 4 5 6 
#
# 1 0.021734 -0.004085 -0.005091 0.000000 -0.006046 0.000000
# 2 -0.004085 0.015501 -0.003156 0.000000 -0.005178 0.000000
# 3 -0.005091 -0.003156 0.010940 0.000000 0.004177 0.000000
# 4 0.000000 0.000000 0.000000 0.029556 0.000000 0.002336
# 5 -0.006046 -0.005178 0.004177 0.000000 0.038358 0.000000
# 6 0.000000 0.000000 0.000000 0.002336 0.000000 0.031036
#
#
# Mechanical properties :
#
#
# Convention : Reuss Voigt Hill
#
# Bulk Modulus (GPa) = 42.52978 48.63472 45.58225
# Shear Modulus (GPa) = 27.83548 30.54107 29.18827
#
# Velocity S-wave (km/s) = 3.60836 3.77966 3.69500
# Velocity P-wave (km/s) = 6.10360 6.46506 6.28693
#
# Compressibility (1/GPa) = 0.02351293
#
# Stress axis : x y z
#
# Youngs Moduli (GPa) = 46.00992 64.51191 91.40621
#
# Poissons Ratio (x) = 0.26354 0.46532
# Poissons Ratio (y) = 0.18795 0.28844
# Poissons Ratio (z) = 0.23422 0.20357
#
# Static dielectric constant tensor:
#      x y z
#    x 3.643270 0.000000 0.001470 
#    y 0.000000 3.802220 0.000000 
#    z 0.001470 0.000000 4.148370 
# 
# 
# High freq. dielectric constant tensor:
#      x y z
#    x 1.816560 0.000000 -0.002360 
#    y 0.000000 1.845970 0.000000 
#    z -0.002360 0.000000 1.859220 
# 
# From -- ./inp_files/73095.got.cif
#   From: 2010.03.12/outbox.cif.g09.slc.cpg/sg14_37_cif.got.tgz:73095.got - 2010.03.31 13:35:05.
