data_PCOD8126182
_publ_section_title
;
Structure prediction by ZEFSAII (Michael W. Deem and Ramdas Pophale) SiO2 
 PCOD8126182
Probable space group: P 21/C
;
_chemical_formula_sum "Si O2"
_cell_formula_units_Z 28
_cell_length_a 9.228486
_cell_length_b 10.030443
_cell_length_c 19.050091
_cell_angle_alpha 90.000000
_cell_angle_beta 134.844176
_cell_angle_gamma 90.000000
_cell_volume 1250.289396
_symmetry_space_group_name_H-M "P 21/C"
_symmetry_group_IT_number 14
_symmetry_cell_setting 'monoclinic'
loop_
_space_group_symop_operation_xyz
x,y,z
-x,1/2+y,1/2-z
-x,-y,-z
x,1/2-y,1/2+z
loop_
_atom_site_type_symbol
_atom_site_label
_atom_site_fract_x
_atom_site_fract_y
_atom_site_fract_z
Si Si1 0.323671 0.562103 0.033468
Si Si2 0.328249 0.564035 0.770226
Si Si3 0.721415 0.980477 0.900834
Si Si4 0.333399 0.315152 0.944154
Si Si5 0.598088 0.160183 0.134452
Si Si6 0.033141 0.703146 0.448123
Si Si7 0.033206 0.362221 0.727685
O O1 0.459247 0.515291 0.145943
O O2 0.460025 0.645362 0.025784
O O3 0.244638 0.432922 0.963852
O O4 0.140346 0.654757 0.001956
O O5 0.268545 0.559954 0.668713
O O6 0.343225 0.714331 0.798944
O O7 0.153798 0.501137 0.760479
O O8 0.488627 0.952530 0.843146
O O9 0.842188 0.837319 0.933653
O O10 0.814550 0.077039 0.991923
O O11 0.150060 0.276528 0.828183
O O12 0.410341 0.190292 0.016608
O O13 0.799480 0.104900 0.166055
O O14 0.955973 0.717537 0.341730
#
# Coordination Sequence:
#
# PCOD8126182 Si02
#       7
#     4   4   4   4   4   4   4
#     4   9  17  38  65  86 119 163 205 262 310 366
#     4   9  22  42  62  88 129 168 209 253 317 379
#     4  10  24  41  59  93 128 171 206 253 317 376
#     4   9  19  37  62  94 122 156 210 264 308 368
#     4  11  22  43  62  95 130 163 210 267 312 371
#     4  10  21  41  62  90 125 165 211 258 311 377
#     4  10  21  38  65  94 119 168 207 259 320 357
#
# _framework density 22.394815000000001
#
# number of rings (size 3 to 8) (size 9 to 14) (size 15 to 20)
#    0.000    2.286    1.429    0.857    2.000    4.000 
#    7.714    1.429    0.000    0.000    0.000    0.000 
#    0.000    0.000    0.000    0.000    0.000    0.000 
#
# Total GULP energy -347060.288268 kJ/mol
# GULP energy per Si atom -12395.010295 kJ/mol
# Density = 2.234384 g / cm^3
# Si number density = 22.394815 Si / 1000 Ang^3
#
#
#
# Elastic Constant Matrix: (Units=GPa)
#
#
# Indices 1 2 3 4 5 6 
#
# 1 58.7658 10.7437 40.0312 0.0000 3.3240 0.0000
# 2 10.7437 40.7763 34.6632 0.0000 -3.2981 0.0000
# 3 40.0312 34.6632 130.1455 0.0000 -3.7652 0.0000
# 4 0.0000 0.0000 0.0000 24.1319 0.0000 11.8886
# 5 3.3240 -3.2981 -3.7652 0.0000 24.4703 0.0000
# 6 0.0000 0.0000 0.0000 11.8886 0.0000 25.1507
#
#
#
# Elastic Compliance Matrix: (Units=1/GPa)
#
#
# Indices 1 2 3 4 5 6 
#
# 1 0.021920 -0.000353 -0.006766 0.000000 -0.004066 0.000000
# 2 -0.000353 0.031926 -0.008306 0.000000 0.003073 0.000000
# 3 -0.006766 -0.008306 0.012025 0.000000 0.001650 0.000000
# 4 0.000000 0.000000 0.000000 0.054018 0.000000 -0.025534
# 5 -0.004066 0.003073 0.001650 0.000000 0.042086 0.000000
# 6 0.000000 0.000000 0.000000 -0.025534 0.000000 0.051830
#
#
# Mechanical properties :
#
#
# Convention : Reuss Voigt Hill
#
# Bulk Modulus (GPa) = 28.55355 44.50709 36.53032
# Shear Modulus (GPa) = 19.50614 24.36720 21.93667
#
# Velocity S-wave (km/s) = 2.95449 3.30217 3.13316
# Velocity P-wave (km/s) = 4.94130 5.86993 5.42552
#
# Compressibility (1/GPa) = 0.03502191
#
# Stress axis : x y z
#
# Youngs Moduli (GPa) = 45.61994 31.32220 83.16132
#
# Poissons Ratio (x) = 0.01105 0.56268
# Poissons Ratio (y) = 0.01609 0.69073
# Poissons Ratio (z) = 0.30867 0.26016
#
# Static dielectric constant tensor:
#      x y z
#    x 3.823790 0.000000 0.007820 
#    y 0.000000 3.629020 0.000000 
#    z 0.007820 0.000000 4.211330 
# 
# 
# High freq. dielectric constant tensor:
#      x y z
#    x 1.868450 0.000000 -0.005690 
#    y 0.000000 1.852590 0.000000 
#    z -0.005690 0.000000 1.892990 
# 
# From -- ./inp_files/65645.got.cif
#   From: 2010.03.12/outbox.cif.g09.slc.cpg/sg14_33_cif.got.tgz:65645.got - 2010.03.31 13:35:05.
