data_PCOD8126785
_publ_section_title
;
Structure prediction by ZEFSAII (Michael W. Deem and Ramdas Pophale) SiO2 
 PCOD8126785
Probable space group: P 21/C
;
_chemical_formula_sum "Si O2"
_cell_formula_units_Z 28
_cell_length_a 9.679198
_cell_length_b 4.686923
_cell_length_c 20.349076
_cell_angle_alpha 90.000000
_cell_angle_beta 112.151347
_cell_angle_gamma 90.000000
_cell_volume 855.012548
_symmetry_space_group_name_H-M "P 21/C"
_symmetry_group_IT_number 14
_symmetry_cell_setting 'monoclinic'
loop_
_space_group_symop_operation_xyz
x,y,z
-x,1/2+y,1/2-z
-x,-y,-z
x,1/2-y,1/2+z
loop_
_atom_site_type_symbol
_atom_site_label
_atom_site_fract_x
_atom_site_fract_y
_atom_site_fract_z
Si Si1 0.072440 0.737933 0.608788
Si Si2 0.811605 0.437092 0.502839
Si Si3 0.627345 0.580897 0.912702
Si Si4 0.413072 0.071507 0.878827
Si Si5 0.895776 0.284333 0.740956
Si Si6 0.217709 0.987243 0.403667
Si Si7 0.601570 0.498738 0.766900
O O1 0.972837 0.462020 0.568417
O O2 0.178095 0.764436 0.562634
O O3 0.171458 0.734170 0.695243
O O4 0.954429 0.983317 0.605010
O O5 0.752417 0.762332 0.481474
O O6 0.706750 0.224976 0.528403
O O7 0.472883 0.751383 0.901336
O O8 0.688567 0.615412 0.847872
O O9 0.567745 0.253810 0.909282
O O10 0.298671 0.203009 0.912217
O O11 0.321084 0.067872 0.790848
O O12 0.775842 0.183435 0.664632
O O13 0.950991 0.602369 0.733611
O O14 0.444446 0.668914 0.735200
#
# Coordination Sequence:
#
# PCOD8126785 Si02
#       7
#     4   4   4   4   4   4   4
#     4  10  24  45  66  98 132 180 226 280 333 406
#     4  11  24  43  69  93 141 175 228 272 344 398
#     4  10  23  41  64 100 131 181 215 273 334 409
#     4  10  23  40  67  96 137 170 225 273 332 400
#     4  10  21  42  67  95 129 170 224 274 330 389
#     4  11  24  41  70  97 138 174 225 282 341 396
#     4   8  16  36  58  87 126 165 215 258 314 386
#
# _framework density 32.748054000000003
#
# number of rings (size 3 to 8) (size 9 to 14) (size 15 to 20)
#    0.000    2.000    1.429    0.429    6.000    1.143 
#    0.000    0.000    3.143    0.000    0.000    0.000 
#    0.000    0.000    0.000    0.000    0.000    0.000 
#
# Total GULP energy -346993.774772 kJ/mol
# GULP energy per Si atom -12392.634813 kJ/mol
# Density = 3.267352 g / cm^3
# Si number density = 32.748054 Si / 1000 Ang^3
#
#
#
# Elastic Constant Matrix: (Units=GPa)
#
#
# Indices 1 2 3 4 5 6 
#
# 1 94.9061 1.5847 22.0579 0.0000 -15.4705 0.0000
# 2 1.5847 141.7895 26.0775 0.0000 -21.8269 0.0000
# 3 22.0579 26.0775 218.8017 0.0000 -10.8376 0.0000
# 4 0.0000 0.0000 0.0000 57.5897 0.0000 -15.0600
# 5 -15.4705 -21.8269 -10.8376 0.0000 59.4728 0.0000
# 6 0.0000 0.0000 0.0000 -15.0600 0.0000 32.8177
#
#
#
# Elastic Compliance Matrix: (Units=1/GPa)
#
#
# Indices 1 2 3 4 5 6 
#
# 1 0.011249 0.000518 -0.001051 0.000000 0.002925 0.000000
# 2 0.000518 0.007627 -0.000823 0.000000 0.002784 0.000000
# 3 -0.001051 -0.000823 0.004789 0.000000 0.000297 0.000000
# 4 0.000000 0.000000 0.000000 0.019732 0.000000 0.009055
# 5 0.002925 0.002784 0.000297 0.000000 0.018651 0.000000
# 6 0.000000 0.000000 0.000000 0.009055 0.000000 0.034627
#
#
# Mechanical properties :
#
#
# Convention : Reuss Voigt Hill
#
# Bulk Modulus (GPa) = 47.72756 61.65971 54.69363
# Shear Modulus (GPa) = 47.00485 57.02784 52.01635
#
# Velocity S-wave (km/s) = 3.79271 4.17755 3.98977
# Velocity P-wave (km/s) = 5.81251 6.49143 6.16133
#
# Compressibility (1/GPa) = 0.02095226
#
# Stress axis : x y z
#
# Youngs Moduli (GPa) = 88.89610 131.11539 208.80589
#
# Poissons Ratio (x) = -0.06789 0.21943
# Poissons Ratio (y) = -0.04603 0.17191
# Poissons Ratio (z) = 0.09342 0.10795
#
# Static dielectric constant tensor:
#      x y z
#    x 5.981530 0.000000 -0.260440 
#    y 0.000000 6.236130 0.000000 
#    z -0.260440 0.000000 6.971000 
# 
# 
# High freq. dielectric constant tensor:
#      x y z
#    x 2.384450 0.000000 0.004720 
#    y 0.000000 2.377860 0.000000 
#    z 0.004720 0.000000 2.395580 
# 
# From -- ./inp_files/66517.got.cif
#   From: 2010.03.12/outbox.cif.g09.slc.cpg/sg14_34_cif.got.tgz:66517.got - 2010.03.31 13:35:05.
