data_PCOD8126616
_publ_section_title
;
Structure prediction by ZEFSAII (Michael W. Deem and Ramdas Pophale) SiO2 
 PCOD8126616
Probable space group: P 21/C
;
_chemical_formula_sum "Si O2"
_cell_formula_units_Z 24
_cell_length_a 14.581480
_cell_length_b 8.518240
_cell_length_c 14.797272
_cell_angle_alpha 90.000000
_cell_angle_beta 140.887783
_cell_angle_gamma 90.000000
_cell_volume 1159.453220
_symmetry_space_group_name_H-M "P 21/C"
_symmetry_group_IT_number 14
_symmetry_cell_setting 'monoclinic'
loop_
_space_group_symop_operation_xyz
x,y,z
-x,1/2+y,1/2-z
-x,-y,-z
x,1/2-y,1/2+z
loop_
_atom_site_type_symbol
_atom_site_label
_atom_site_fract_x
_atom_site_fract_y
_atom_site_fract_z
Si Si1 0.914069 0.645014 0.131407
Si Si2 0.418254 0.847362 0.904207
Si Si3 0.415213 0.326219 0.125005
Si Si4 0.909537 0.149018 0.398252
Si Si5 0.114088 0.720999 0.926626
Si Si6 0.575680 0.309034 0.906193
O O1 0.915546 0.460915 0.114543
O O2 0.002494 0.730040 0.117104
O O3 0.993586 0.673741 0.286563
O O4 0.753618 0.715868 0.016845
O O5 0.488682 0.782102 0.866550
O O6 0.251724 0.895497 0.758724
O O7 0.435533 0.716008 0.995055
O O8 0.500000 0.000000 0.000000
O O9 0.443936 0.507870 0.127911
O O10 0.452949 0.287443 0.258001
O O11 0.895504 0.263350 0.474096
O O12 0.000000 0.000000 0.500000
O O13 0.272718 0.763537 0.011824
#
# Coordination Sequence:
#
# PCOD8126616 Si02
#       6
#     4   4   4   4   4   4
#     4  10  23  39  65  91 125 165 209 260 319 381
#     4  12  25  41  69  95 128 176 217 266 327 379
#     4  11  25  42  64  98 130 169 217 266 320 383
#     4  10  22  41  64  91 127 165 213 258 316 386
#     4  10  21  41  64  90 126 165 210 263 318 379
#     4  11  23  42  65  93 134 168 215 266 321 383
#
# _framework density 20.699411999999999
#
# number of rings (size 3 to 8) (size 9 to 14) (size 15 to 20)
#    0.000    1.333    3.333    1.500    9.333    1.333 
#    0.000    0.833    0.000    0.000    0.000    0.000 
#    0.000    0.000    0.000    0.000    0.000    0.000 
#
# Total GULP energy -297623.946363 kJ/mol
# GULP energy per Si atom -12400.997765 kJ/mol
# Density = 2.065230 g / cm^3
# Si number density = 20.699412 Si / 1000 Ang^3
#
#
#
# Elastic Constant Matrix: (Units=GPa)
#
#
# Indices 1 2 3 4 5 6 
#
# 1 100.3157 17.0432 36.2470 0.0000 -0.9028 0.0000
# 2 17.0432 45.3251 38.5841 0.0000 10.6738 0.0000
# 3 36.2470 38.5841 150.8801 0.0000 3.0566 0.0000
# 4 0.0000 0.0000 0.0000 31.3942 0.0000 -4.7121
# 5 -0.9028 10.6738 3.0566 0.0000 43.6875 0.0000
# 6 0.0000 0.0000 0.0000 -4.7121 0.0000 23.6477
#
#
#
# Elastic Compliance Matrix: (Units=1/GPa)
#
#
# Indices 1 2 3 4 5 6 
#
# 1 0.011167 -0.002738 -0.002004 0.000000 0.001040 0.000000
# 2 -0.002738 0.030778 -0.007070 0.000000 -0.007082 0.000000
# 3 -0.002004 -0.007070 0.008895 0.000000 0.001063 0.000000
# 4 0.000000 0.000000 0.000000 0.032835 0.000000 0.006543
# 5 0.001040 -0.007082 0.001063 0.000000 0.024567 0.000000
# 6 0.000000 0.000000 0.000000 0.006543 0.000000 0.043591
#
#
# Mechanical properties :
#
#
# Convention : Reuss Voigt Hill
#
# Bulk Modulus (GPa) = 36.74048 53.36328 45.05188
# Shear Modulus (GPa) = 27.09591 33.38901 30.24246
#
# Velocity S-wave (km/s) = 3.62196 4.02063 3.82649
# Velocity P-wave (km/s) = 5.93966 6.88404 6.42921
#
# Compressibility (1/GPa) = 0.02721793
#
# Stress axis : x y z
#
# Youngs Moduli (GPa) = 89.54911 32.49035 112.41738
#
# Poissons Ratio (x) = 0.08897 0.22523
# Poissons Ratio (y) = 0.24522 0.79474
# Poissons Ratio (z) = 0.17941 0.22969
#
# Static dielectric constant tensor:
#      x y z
#    x 4.437910 0.000000 -0.231480 
#    y 0.000000 3.395080 0.000000 
#    z -0.231480 0.000000 4.087590 
# 
# 
# High freq. dielectric constant tensor:
#      x y z
#    x 1.825100 0.000000 -0.004270 
#    y 0.000000 1.778920 0.000000 
#    z -0.004270 0.000000 1.833220 
# 
# From -- ./inp_files/46343.got.cif
#   From: 2010.03.12/outbox.cif.g09.slc.cpg/sg14_24_cif.got.tgz:46343.got - 2010.03.31 13:35:05.
