data_PCOD8126825
_publ_section_title
;
Structure prediction by ZEFSAII (Michael W. Deem and Ramdas Pophale) SiO2 
 PCOD8126825
Probable space group: P 21/C
;
_chemical_formula_sum "Si O2"
_cell_formula_units_Z 20
_cell_length_a 11.000125
_cell_length_b 9.306871
_cell_length_c 12.076912
_cell_angle_alpha 90.000000
_cell_angle_beta 130.654158
_cell_angle_gamma 90.000000
_cell_volume 937.998228
_symmetry_space_group_name_H-M "P 21/C"
_symmetry_group_IT_number 14
_symmetry_cell_setting 'monoclinic'
loop_
_space_group_symop_operation_xyz
x,y,z
-x,1/2+y,1/2-z
-x,-y,-z
x,1/2-y,1/2+z
loop_
_atom_site_type_symbol
_atom_site_label
_atom_site_fract_x
_atom_site_fract_y
_atom_site_fract_z
Si Si1 0.950877 0.349097 0.521876
Si Si2 0.641695 0.283596 0.224581
Si Si3 0.474962 0.994100 0.753658
Si Si4 0.150422 0.081942 0.640730
Si Si5 0.281483 0.593906 0.420866
O O1 0.829473 0.276006 0.363753
O O2 0.865458 0.359018 0.589781
O O3 0.000000 0.500000 0.500000
O O4 0.107015 0.249742 0.628618
O O5 0.569508 0.443988 0.201698
O O6 0.636045 0.229138 0.094898
O O7 0.549699 0.178325 0.258276
O O8 0.301537 0.070018 0.648508
O O9 0.575263 0.026606 0.923886
O O10 0.206896 0.019975 0.791849
O O11 0.000000 0.000000 0.500000
#
# Coordination Sequence:
#
# PCOD8126825 Si02
#       5
#     4   4   4   4   4
#     4  11  25  41  64  96 133 169 218 272 318 389
#     4  10  21  43  63  94 127 169 213 260 319 388
#     4  10  22  41  67  88 132 169 209 263 324 387
#     4  11  21  41  66  92 128 171 211 272 324 375
#     4  10  23  43  66  92 134 167 218 264 329 388
#
# _framework density 21.322001
#
# number of rings (size 3 to 8) (size 9 to 14) (size 15 to 20)
#    0.000    1.600    4.000    2.400    8.400    0.000 
#    3.600    4.000    0.000    0.000    0.000    0.000 
#    0.000    0.000    0.000    0.000    0.000    0.000 
#
# Total GULP energy -247860.554869 kJ/mol
# GULP energy per Si atom -12393.027743 kJ/mol
# Density = 2.127347 g / cm^3
# Si number density = 21.322001 Si / 1000 Ang^3
#
#
#
# Elastic Constant Matrix: (Units=GPa)
#
#
# Indices 1 2 3 4 5 6 
#
# 1 75.8321 17.5987 13.7743 0.0000 0.5271 0.0000
# 2 17.5987 80.3673 20.0188 0.0000 -3.0830 0.0000
# 3 13.7743 20.0188 90.6517 0.0000 18.1396 0.0000
# 4 0.0000 0.0000 0.0000 25.1507 0.0000 13.6485
# 5 0.5271 -3.0830 18.1396 0.0000 35.4313 0.0000
# 6 0.0000 0.0000 0.0000 13.6485 0.0000 47.8916
#
#
#
# Elastic Compliance Matrix: (Units=1/GPa)
#
#
# Indices 1 2 3 4 5 6 
#
# 1 0.014099 -0.002666 -0.001633 0.000000 0.000394 0.000000
# 2 -0.002666 0.013951 -0.003261 0.000000 0.002923 0.000000
# 3 -0.001633 -0.003261 0.013427 0.000000 -0.007133 0.000000
# 4 0.000000 0.000000 0.000000 0.047034 0.000000 -0.013404
# 5 0.000394 0.002923 -0.007133 0.000000 0.032124 0.000000
# 6 0.000000 0.000000 0.000000 -0.013404 0.000000 0.024701
#
#
# Mechanical properties :
#
#
# Convention : Reuss Voigt Hill
#
# Bulk Modulus (GPa) = 37.93719 38.84827 38.39273
# Shear Modulus (GPa) = 29.54376 34.72536 32.13456
#
# Velocity S-wave (km/s) = 3.72640 4.03999 3.88636
# Velocity P-wave (km/s) = 6.02876 6.32625 6.17929
#
# Compressibility (1/GPa) = 0.02635936
#
# Stress axis : x y z
#
# Youngs Moduli (GPa) = 70.92467 71.67989 74.47806
#
# Poissons Ratio (x) = 0.19108 0.12159
# Poissons Ratio (y) = 0.18906 0.24285
# Poissons Ratio (z) = 0.11579 0.23372
#
# Static dielectric constant tensor:
#      x y z
#    x 4.032200 0.000000 0.235060 
#    y 0.000000 3.905070 0.000000 
#    z 0.235060 0.000000 3.795290 
# 
# 
# High freq. dielectric constant tensor:
#      x y z
#    x 1.839840 0.000000 0.017880 
#    y 0.000000 1.836640 0.000000 
#    z 0.017880 0.000000 1.830260 
# 
# From -- ./inp_files/27981.got.cif
#   From: 2010.03.12/outbox.cif.g09.slc.cpg/sg14_14_cif.got.tgz:27981.got - 2010.03.31 13:35:05.
