data_PCOD8126025
_publ_section_title
;
Structure prediction by ZEFSAII (Michael W. Deem and Ramdas Pophale) SiO2 
 PCOD8126025
Probable space group: P 21/C
;
_chemical_formula_sum "Si O2"
_cell_formula_units_Z 28
_cell_length_a 12.699434
_cell_length_b 8.860860
_cell_length_c 13.927779
_cell_angle_alpha 90.000000
_cell_angle_beta 63.491980
_cell_angle_gamma 90.000000
_cell_volume 1402.500343
_symmetry_space_group_name_H-M "P 21/C"
_symmetry_group_IT_number 14
_symmetry_cell_setting 'monoclinic'
loop_
_space_group_symop_operation_xyz
x,y,z
-x,1/2+y,1/2-z
-x,-y,-z
x,1/2-y,1/2+z
loop_
_atom_site_type_symbol
_atom_site_label
_atom_site_fract_x
_atom_site_fract_y
_atom_site_fract_z
Si Si1 0.769332 0.965439 0.813270
Si Si2 0.387044 0.314590 0.778785
Si Si3 0.999485 0.261643 0.049342
Si Si4 0.243876 0.131619 0.971628
Si Si5 0.023640 0.579447 0.133492
Si Si6 0.806849 0.190401 0.275284
Si Si7 0.621984 0.482065 0.738729
O O1 0.771481 0.144508 0.825837
O O2 0.678001 0.927549 0.766615
O O3 0.897356 0.900895 0.735097
O O4 0.725776 0.889057 0.929133
O O5 0.304771 0.285478 0.906248
O O6 0.507545 0.386394 0.763138
O O7 0.412246 0.153408 0.716493
O O8 0.043052 0.413752 0.083475
O O9 0.885643 0.196314 0.147749
O O10 0.103640 0.139241 0.012089
O O11 0.965892 0.294174 0.953018
O O12 0.295531 0.989788 0.890266
O O13 0.125509 0.604357 0.168485
O O14 0.690199 0.096314 0.298545
#
# Coordination Sequence:
#
# PCOD8126025 Si02
#       7
#     4   4   4   4   4   4   4
#     4  11  22  41  65  98 128 174 208 268 316 385
#     4  10  23  45  66  87 133 164 222 264 324 371
#     4  10  21  39  62  97 132 169 208 260 330 381
#     4  10  23  40  69  92 126 170 215 262 323 379
#     4  10  21  37  61  97 134 167 206 263 318 389
#     4  11  24  38  67  96 136 165 216 261 324 388
#     4  10  24  44  64  93 124 174 206 274 317 379
#
# _framework density 19.964344000000001
#
# number of rings (size 3 to 8) (size 9 to 14) (size 15 to 20)
#    0.857    0.857    2.857    0.857    4.000    3.429 
#    0.000    0.714    0.000    0.000    0.000    0.000 
#    0.000    0.000    0.000    0.000    0.000    0.000 
#
# Total GULP energy -347207.601796 kJ/mol
# GULP energy per Si atom -12400.271493 kJ/mol
# Density = 1.991890 g / cm^3
# Si number density = 19.964344 Si / 1000 Ang^3
#
#
#
# Elastic Constant Matrix: (Units=GPa)
#
#
# Indices 1 2 3 4 5 6 
#
# 1 152.6585 30.1342 21.5462 0.0000 18.1840 0.0000
# 2 30.1342 40.4764 -2.5309 0.0000 1.4828 0.0000
# 3 21.5462 -2.5309 70.8393 0.0000 18.1663 0.0000
# 4 0.0000 0.0000 0.0000 22.0384 0.0000 0.5966
# 5 18.1840 1.4828 18.1663 0.0000 26.4199 0.0000
# 6 0.0000 0.0000 0.0000 0.5966 0.0000 35.5862
#
#
#
# Elastic Compliance Matrix: (Units=1/GPa)
#
#
# Indices 1 2 3 4 5 6 
#
# 1 0.008559 -0.006319 -0.001711 0.000000 -0.004360 0.000000
# 2 -0.006319 0.029555 0.002778 0.000000 0.000781 0.000000
# 3 -0.001711 0.002778 0.017573 0.000000 -0.011061 0.000000
# 4 0.000000 0.000000 0.000000 0.045396 0.000000 -0.000761
# 5 -0.004360 0.000781 -0.011061 0.000000 0.048413 0.000000
# 6 0.000000 0.000000 0.000000 -0.000761 0.000000 0.028114
#
#
# Mechanical properties :
#
#
# Convention : Reuss Voigt Hill
#
# Bulk Modulus (GPa) = 22.13268 40.25257 31.19262
# Shear Modulus (GPa) = 24.60943 31.13056 27.87000
#
# Velocity S-wave (km/s) = 3.51475 3.95309 3.74035
# Velocity P-wave (km/s) = 5.25180 6.40640 5.85762
#
# Compressibility (1/GPa) = 0.04518207
#
# Stress axis : x y z
#
# Youngs Moduli (GPa) = 116.83999 33.83485 56.90655
#
# Poissons Ratio (x) = 0.21381 0.09736
# Poissons Ratio (y) = 0.73833 -0.15807
# Poissons Ratio (z) = 0.19991 -0.09398
#
# Static dielectric constant tensor:
#      x y z
#    x 3.441500 0.000000 -0.010400 
#    y 0.000000 3.568860 0.000000 
#    z -0.010400 0.000000 3.592660 
# 
# 
# High freq. dielectric constant tensor:
#      x y z
#    x 1.779050 0.000000 0.005130 
#    y 0.000000 1.776030 0.000000 
#    z 0.005130 0.000000 1.771820 
# 
# From -- ./inp_files/43360.got.cif
#   From: 2010.03.12/outbox.cif.g09.slc.cpg/sg14_22_cif.got.tgz:43360.got - 2010.03.31 13:35:05.
