data_PCOD8126066
_publ_section_title
;
Structure prediction by ZEFSAII (Michael W. Deem and Ramdas Pophale) SiO2 
 PCOD8126066
Probable space group: P 21/C
;
_chemical_formula_sum "Si O2"
_cell_formula_units_Z 28
_cell_length_a 8.325413
_cell_length_b 12.012365
_cell_length_c 14.194108
_cell_angle_alpha 90.000000
_cell_angle_beta 101.766933
_cell_angle_gamma 90.000000
_cell_volume 1389.692005
_symmetry_space_group_name_H-M "P 21/C"
_symmetry_group_IT_number 14
_symmetry_cell_setting 'monoclinic'
loop_
_space_group_symop_operation_xyz
x,y,z
-x,1/2+y,1/2-z
-x,-y,-z
x,1/2-y,1/2+z
loop_
_atom_site_type_symbol
_atom_site_label
_atom_site_fract_x
_atom_site_fract_y
_atom_site_fract_z
Si Si1 0.541207 0.810111 0.860380
Si Si2 0.370033 0.469690 0.349741
Si Si3 0.366753 0.875322 0.246240
Si Si4 0.748667 0.891792 0.717698
Si Si5 0.898946 0.363607 0.433268
Si Si6 0.948286 0.426218 0.638342
Si Si7 0.753292 0.767042 0.052459
O O1 0.479184 0.925984 0.899760
O O2 0.391368 0.724191 0.824233
O O3 0.612877 0.835933 0.766585
O O4 0.679501 0.749569 0.939780
O O5 0.454072 0.418820 0.266556
O O6 0.186486 0.517285 0.309435
O O7 0.348962 0.373207 0.423443
O O8 0.263585 0.827839 0.144159
O O9 0.271095 0.974397 0.288733
O O10 0.723517 0.842557 0.610803
O O11 0.929324 0.857431 0.779395
O O12 0.863335 0.356861 0.542180
O O13 0.933601 0.489144 0.404056
O O14 0.052293 0.285523 0.427188
#
# Coordination Sequence:
#
# PCOD8126066 Si02
#       7
#     4   4   4   4   4   4   4
#     4  11  22  37  58  87 117 153 189 246 285 342
#     4  10  22  34  60  88 114 144 196 239 294 329
#     4  10  22  38  54  87 122 150 189 241 288 349
#     4  10  21  38  57  84 119 155 194 233 294 347
#     4   9  19  33  57  82 115 144 192 239 286 334
#     4   9  18  34  56  84 110 147 190 244 283 334
#     4  11  21  37  60  85 115 159 191 235 290 345
#
# _framework density 20.148350000000001
#
# number of rings (size 3 to 8) (size 9 to 14) (size 15 to 20)
#    0.000    2.000    2.857    0.429   10.000    0.571 
#    0.000    0.000    0.000    0.857    0.000    0.000 
#    0.000    0.000    0.000    0.000    0.000    0.000 
#
# Total GULP energy -347005.381611 kJ/mol
# GULP energy per Si atom -12393.049343 kJ/mol
# Density = 2.010249 g / cm^3
# Si number density = 20.148350 Si / 1000 Ang^3
#
#
#
# Elastic Constant Matrix: (Units=GPa)
#
#
# Indices 1 2 3 4 5 6 
#
# 1 69.6756 17.1783 9.8213 0.0000 4.7011 0.0000
# 2 17.1783 68.3146 34.0301 0.0000 14.1070 0.0000
# 3 9.8213 34.0301 57.0916 0.0000 16.2312 0.0000
# 4 0.0000 0.0000 0.0000 19.1464 0.0000 3.5583
# 5 4.7011 14.1070 16.2312 0.0000 26.8697 0.0000
# 6 0.0000 0.0000 0.0000 3.5583 0.0000 22.5866
#
#
#
# Elastic Compliance Matrix: (Units=1/GPa)
#
#
# Indices 1 2 3 4 5 6 
#
# 1 0.015318 -0.003556 -0.000344 0.000000 -0.000606 0.000000
# 2 -0.003556 0.022035 -0.011362 0.000000 -0.004083 0.000000
# 3 -0.000344 -0.011362 0.027327 0.000000 -0.010482 0.000000
# 4 0.000000 0.000000 0.000000 0.053804 0.000000 -0.008476
# 5 -0.000606 -0.004083 -0.010482 0.000000 0.045799 0.000000
# 6 0.000000 0.000000 0.000000 -0.008476 0.000000 0.045609
#
#
# Mechanical properties :
#
#
# Convention : Reuss Voigt Hill
#
# Bulk Modulus (GPa) = 29.27507 35.23789 32.25648
# Shear Modulus (GPa) = 19.85695 22.65737 21.25716
#
# Velocity S-wave (km/s) = 3.14273 3.35703 3.25165
# Velocity P-wave (km/s) = 5.26596 5.70556 5.49016
#
# Compressibility (1/GPa) = 0.03415876
#
# Stress axis : x y z
#
# Youngs Moduli (GPa) = 65.28197 45.38193 36.59355
#
# Poissons Ratio (x) = 0.16136 0.01257
# Poissons Ratio (y) = 0.23212 0.41577
# Poissons Ratio (z) = 0.02243 0.51562
#
# Static dielectric constant tensor:
#      x y z
#    x 3.686290 0.000000 0.113200 
#    y 0.000000 3.462340 0.000000 
#    z 0.113200 0.000000 3.480650 
# 
# 
# High freq. dielectric constant tensor:
#      x y z
#    x 1.791510 0.000000 0.010140 
#    y 0.000000 1.757300 0.000000 
#    z 0.010140 0.000000 1.765040 
# 
# From -- ./inp_files/39661.got.cif
#   From: 2010.03.12/outbox.cif.g09.slc.cpg/sg14_20_cif.got.tgz:39661.got - 2010.03.31 13:35:05.
