data_PCOD8126298
_publ_section_title
;
Structure prediction by ZEFSAII (Michael W. Deem and Ramdas Pophale) SiO2 
 PCOD8126298
Probable space group: P 21/C
;
_chemical_formula_sum "Si O2"
_cell_formula_units_Z 28
_cell_length_a 8.203150
_cell_length_b 14.557342
_cell_length_c 14.319113
_cell_angle_alpha 90.000000
_cell_angle_beta 127.737951
_cell_angle_gamma 90.000000
_cell_volume 1352.245567
_symmetry_space_group_name_H-M "P 21/C"
_symmetry_group_IT_number 14
_symmetry_cell_setting 'monoclinic'
loop_
_space_group_symop_operation_xyz
x,y,z
-x,1/2+y,1/2-z
-x,-y,-z
x,1/2-y,1/2+z
loop_
_atom_site_type_symbol
_atom_site_label
_atom_site_fract_x
_atom_site_fract_y
_atom_site_fract_z
Si Si1 0.627165 0.724311 0.732342
Si Si2 0.224308 0.628806 0.655853
Si Si3 0.801650 0.774404 0.975373
Si Si4 0.218083 0.548319 0.855844
Si Si5 0.340978 0.469332 0.569104
Si Si6 0.412421 0.352896 0.944013
Si Si7 0.246008 0.052087 0.823474
O O1 0.414414 0.696532 0.706959
O O2 0.800646 0.721593 0.875136
O O3 0.609631 0.819899 0.670579
O O4 0.684564 0.656045 0.668621
O O5 0.245749 0.571164 0.757348
O O6 0.209004 0.549273 0.572479
O O7 0.027760 0.696294 0.588733
O O8 0.680879 0.866544 0.901438
O O9 0.685268 0.716985 0.014534
O O10 0.300592 0.449643 0.914506
O O11 0.978652 0.542201 0.800625
O O12 0.343146 0.629440 0.952763
O O13 0.585464 0.486953 0.666322
O O14 0.247198 0.470959 0.432596
#
# Coordination Sequence:
#
# PCOD8126298 Si02
#       7
#     4   4   4   4   4   4   4
#     4  11  24  42  63  98 130 164 217 272 311 384
#     4  11  23  40  69  97 129 167 217 267 329 379
#     4  12  23  42  68 100 126 167 222 271 314 382
#     4  11  23  45  64  89 135 176 209 261 333 396
#     4  10  21  39  63  94 126 160 211 267 318 377
#     4  11  25  43  64  94 133 175 211 265 327 389
#     4  10  22  41  62  90 130 165 208 263 320 380
#
# _framework density 20.706298
#
# number of rings (size 3 to 8) (size 9 to 14) (size 15 to 20)
#    0.000    1.143    4.286    1.286    4.000    1.143 
#    2.571    0.714    0.000    0.000    0.000    0.000 
#    0.000    0.000    0.000    0.000    0.000    0.000 
#
# Total GULP energy -347007.251097 kJ/mol
# GULP energy per Si atom -12393.116111 kJ/mol
# Density = 2.065917 g / cm^3
# Si number density = 20.706298 Si / 1000 Ang^3
#
#
#
# Elastic Constant Matrix: (Units=GPa)
#
#
# Indices 1 2 3 4 5 6 
#
# 1 61.7867 24.8352 31.3788 0.0000 21.1344 0.0000
# 2 24.8352 73.8300 21.2870 0.0000 3.6948 0.0000
# 3 31.3788 21.2870 96.7329 0.0000 7.8815 0.0000
# 4 0.0000 0.0000 0.0000 27.5533 0.0000 -0.5931
# 5 21.1344 3.6948 7.8815 0.0000 41.6627 0.0000
# 6 0.0000 0.0000 0.0000 -0.5931 0.0000 25.4299
#
#
#
# Elastic Compliance Matrix: (Units=1/GPa)
#
#
# Indices 1 2 3 4 5 6 
#
# 1 0.025649 -0.006330 -0.006005 0.000000 -0.011314 0.000000
# 2 -0.006330 0.016044 -0.001648 0.000000 0.002100 0.000000
# 3 -0.006005 -0.001648 0.012582 0.000000 0.000812 0.000000
# 4 0.000000 0.000000 0.000000 0.036312 0.000000 0.000847
# 5 -0.011314 0.002100 0.000812 0.000000 0.029401 0.000000
# 6 0.000000 0.000000 0.000000 0.000847 0.000000 0.039344
#
#
# Mechanical properties :
#
#
# Convention : Reuss Voigt Hill
#
# Bulk Modulus (GPa) = 38.01180 43.03905 40.52542
# Shear Modulus (GPa) = 25.50126 29.25242 27.37684
#
# Velocity S-wave (km/s) = 3.51318 3.76271 3.64008
# Velocity P-wave (km/s) = 5.90373 6.30142 6.10581
#
# Compressibility (1/GPa) = 0.02630762
#
# Stress axis : x y z
#
# Youngs Moduli (GPa) = 38.98814 62.32792 79.47649
#
# Poissons Ratio (x) = 0.39455 0.47728
# Poissons Ratio (y) = 0.24680 0.13101
# Poissons Ratio (z) = 0.23414 0.10274
#
# Static dielectric constant tensor:
#      x y z
#    x 3.819340 0.000000 0.097690 
#    y 0.000000 3.881590 0.000000 
#    z 0.097690 0.000000 3.764340 
# 
# 
# High freq. dielectric constant tensor:
#      x y z
#    x 1.810960 0.000000 0.000770 
#    y 0.000000 1.815710 0.000000 
#    z 0.000770 0.000000 1.812990 
# 
# From -- ./inp_files/41158.got.cif
#   From: 2010.03.12/outbox.cif.g09.slc.cpg/sg14_21_cif.got.tgz:41158.got - 2010.03.31 13:35:05.
