data_PCOD8126174
_publ_section_title
;
Structure prediction by ZEFSAII (Michael W. Deem and Ramdas Pophale) SiO2 
 PCOD8126174
Probable space group: P 21/C
;
_chemical_formula_sum "Si O2"
_cell_formula_units_Z 32
_cell_length_a 18.632180
_cell_length_b 9.099414
_cell_length_c 9.293823
_cell_angle_alpha 90.000000
_cell_angle_beta 77.109232
_cell_angle_gamma 90.000000
_cell_volume 1535.980653
_symmetry_space_group_name_H-M "P 21/C"
_symmetry_group_IT_number 14
_symmetry_cell_setting 'monoclinic'
loop_
_space_group_symop_operation_xyz
x,y,z
-x,1/2+y,1/2-z
-x,-y,-z
x,1/2-y,1/2+z
loop_
_atom_site_type_symbol
_atom_site_label
_atom_site_fract_x
_atom_site_fract_y
_atom_site_fract_z
Si Si1 0.938167 0.588617 0.943114
Si Si2 0.012855 0.352374 0.404217
Si Si3 0.238138 0.748540 0.715777
Si Si4 0.140039 0.697363 0.005339
Si Si5 0.630708 0.443244 0.901506
Si Si6 0.481736 0.793918 0.094491
Si Si7 0.649294 0.034394 0.725644
Si Si8 0.584385 0.742700 0.803669
O O1 0.866631 0.482121 0.987101
O O2 0.954276 0.613270 0.767133
O O3 0.000000 0.500000 0.000000
O O4 0.931786 0.745969 0.028471
O O5 0.935376 0.272222 0.411338
O O6 0.000000 0.500000 0.500000
O O7 0.210488 0.753217 0.565780
O O8 0.298718 0.876412 0.714291
O O9 0.274916 0.592444 0.739744
O O10 0.162625 0.762449 0.840334
O O11 0.555281 0.368157 0.879997
O O12 0.625009 0.614961 0.873299
O O13 0.639942 0.411162 0.066601
O O14 0.548728 0.815670 0.173845
O O15 0.418307 0.911957 0.146041
O O16 0.517400 0.815792 0.922238
O O17 0.648435 0.858494 0.736474
#
# Coordination Sequence:
#
# PCOD8126174 Si02
#       8
#     4   4   4   4   4   4   4   4
#     4  10  21  38  64  98 139 164 206 261 308 369
#     4  11  21  39  67 105 135 166 202 264 330 363
#     4  11  24  42  66  84 121 176 219 249 305 375
#     4  11  22  42  67  93 125 169 214 250 300 383
#     4  11  23  42  59  90 130 156 207 273 308 376
#     4  11  22  37  65  89 118 163 206 260 333 387
#     4  11  23  41  60  91 124 161 213 263 312 382
#     4  12  22  38  63  88 126 158 201 271 337 370
#
# _framework density 20.833596
#
# number of rings (size 3 to 8) (size 9 to 14) (size 15 to 20)
#    0.000    1.000    3.750    5.250    0.000    1.000 
#    0.000    3.750    0.000    0.000    0.000    0.000 
#    0.000    0.000    0.000    0.000    0.000    0.000 
#
# Total GULP energy -396710.769598 kJ/mol
# GULP energy per Si atom -12397.211550 kJ/mol
# Density = 2.078618 g / cm^3
# Si number density = 20.833596 Si / 1000 Ang^3
#
#
#
# Elastic Constant Matrix: (Units=GPa)
#
#
# Indices 1 2 3 4 5 6 
#
# 1 74.1045 23.8443 18.0289 0.0000 7.6788 0.0000
# 2 23.8443 86.9032 42.9484 0.0000 7.4821 0.0000
# 3 18.0289 42.9484 96.1379 0.0000 -1.8993 0.0000
# 4 0.0000 0.0000 0.0000 36.8506 0.0000 3.0867
# 5 7.6788 7.4821 -1.8993 0.0000 39.2250 0.0000
# 6 0.0000 0.0000 0.0000 3.0867 0.0000 16.9037
#
#
#
# Elastic Compliance Matrix: (Units=1/GPa)
#
#
# Indices 1 2 3 4 5 6 
#
# 1 0.015136 -0.003232 -0.001442 0.000000 -0.002416 0.000000
# 2 -0.003232 0.015854 -0.006530 0.000000 -0.002708 0.000000
# 3 -0.001442 -0.006530 0.013633 0.000000 0.002188 0.000000
# 4 0.000000 0.000000 0.000000 0.027558 0.000000 -0.005032
# 5 -0.002416 -0.002708 0.002188 0.000000 0.026589 0.000000
# 6 0.000000 0.000000 0.000000 -0.005032 0.000000 0.060077
#
#
# Mechanical properties :
#
#
# Convention : Reuss Voigt Hill
#
# Bulk Modulus (GPa) = 45.01712 47.42097 46.21905
# Shear Modulus (GPa) = 26.50258 30.08412 28.29335
#
# Velocity S-wave (km/s) = 3.57053 3.80415 3.68919
# Velocity P-wave (km/s) = 6.21716 6.48896 6.35451
#
# Compressibility (1/GPa) = 0.02221377
#
# Stress axis : x y z
#
# Youngs Moduli (GPa) = 66.06892 63.07482 73.35333
#
# Poissons Ratio (x) = 0.20386 0.10580
# Poissons Ratio (y) = 0.21354 0.47900
# Poissons Ratio (z) = 0.09529 0.41188
#
# Static dielectric constant tensor:
#      x y z
#    x 3.641400 0.000000 -0.005150 
#    y 0.000000 4.021410 0.000000 
#    z -0.005150 0.000000 3.828350 
# 
# 
# High freq. dielectric constant tensor:
#      x y z
#    x 1.795560 0.000000 0.005790 
#    y 0.000000 1.815280 0.000000 
#    z 0.005790 0.000000 1.828330 
# 
# From -- ./inp_files/18609.got.cif
#   From: 2010.03.12/outbox.cif.g09.slc.cpg/sg14_10_cif.got.tgz:18609.got - 2010.03.31 13:35:05.
