data_PCOD8126821
_publ_section_title
;
Structure prediction by ZEFSAII (Michael W. Deem and Ramdas Pophale) SiO2 
 PCOD8126821
Probable space group: P 21/C
;
_chemical_formula_sum "Si O2"
_cell_formula_units_Z 28
_cell_length_a 13.755709
_cell_length_b 8.540172
_cell_length_c 14.824865
_cell_angle_alpha 90.000000
_cell_angle_beta 125.706042
_cell_angle_gamma 90.000000
_cell_volume 1414.191208
_symmetry_space_group_name_H-M "P 21/C"
_symmetry_group_IT_number 14
_symmetry_cell_setting 'monoclinic'
loop_
_space_group_symop_operation_xyz
x,y,z
-x,1/2+y,1/2-z
-x,-y,-z
x,1/2-y,1/2+z
loop_
_atom_site_type_symbol
_atom_site_label
_atom_site_fract_x
_atom_site_fract_y
_atom_site_fract_z
Si Si1 0.376883 0.155419 0.776054
Si Si2 0.158215 0.935913 0.669158
Si Si3 0.598743 0.459810 0.476506
Si Si4 0.102338 0.974043 0.443527
Si Si5 0.283283 0.266264 0.033376
Si Si6 0.223495 0.704452 0.850403
Si Si7 0.625143 0.929021 0.582952
O O1 0.512016 0.084478 0.844772
O O2 0.344813 0.233020 0.664003
O O3 0.372379 0.284164 0.850501
O O4 0.280398 0.027931 0.757015
O O5 0.158762 0.891702 0.563438
O O6 0.150541 0.788791 0.731775
O O7 0.040737 0.037640 0.626970
O O8 0.500000 0.500000 0.500000
O O9 0.694315 0.595146 0.499243
O O10 0.677701 0.313110 0.548607
O O11 0.133924 0.865101 0.376265
O O12 0.147667 0.158818 0.465131
O O13 0.345221 0.391500 0.004011
O O14 0.285551 0.561005 0.831743
O O15 0.500000 0.000000 0.500000
#
# Coordination Sequence:
#
# PCOD8126821 Si02
#       7
#     4   4   4   4   4   4   4
#     4  11  23  37  61  86 120 162 191 245 305 352
#     4  10  21  43  63  84 122 161 201 245 304 345
#     4  12  21  39  59  88 122 155 196 243 297 367
#     4   9  23  42  61  89 119 156 206 253 285 356
#     4  10  23  38  58  84 117 157 198 241 298 349
#     4  11  22  36  64  89 115 161 197 247 299 355
#     4  11  21  38  53  87 126 149 195 244 289 358
#
# _framework density 19.799301
#
# number of rings (size 3 to 8) (size 9 to 14) (size 15 to 20)
#    0.000    1.429    4.286    0.000    2.000    5.714 
#    0.000    0.000    0.000    6.000    0.000    0.000 
#    0.000    0.000    0.000    0.000    0.000    0.000 
#
# Total GULP energy -346879.900942 kJ/mol
# GULP energy per Si atom -12388.567891 kJ/mol
# Density = 1.975424 g / cm^3
# Si number density = 19.799301 Si / 1000 Ang^3
#
#
#
# Elastic Constant Matrix: (Units=GPa)
#
#
# Indices 1 2 3 4 5 6 
#
# 1 56.7837 33.3578 31.7431 0.0000 -1.0767 0.0000
# 2 33.3578 72.4576 24.0293 0.0000 -8.2816 0.0000
# 3 31.7431 24.0293 74.5561 0.0000 -7.3763 0.0000
# 4 0.0000 0.0000 0.0000 23.1980 0.0000 -3.8888
# 5 -1.0767 -8.2816 -7.3763 0.0000 32.6362 0.0000
# 6 0.0000 0.0000 0.0000 -3.8888 0.0000 25.7580
#
#
#
# Elastic Compliance Matrix: (Units=1/GPa)
#
#
# Indices 1 2 3 4 5 6 
#
# 1 0.029029 -0.010727 -0.009284 0.000000 -0.003863 0.000000
# 2 -0.010727 0.019682 -0.001347 0.000000 0.004336 0.000000
# 3 -0.009284 -0.001347 0.018141 0.000000 0.003452 0.000000
# 4 0.000000 0.000000 0.000000 0.044226 0.000000 0.006677
# 5 -0.003863 0.004336 0.003452 0.000000 0.032394 0.000000
# 6 0.000000 0.000000 0.000000 0.006677 0.000000 0.039831
#
#
# Mechanical properties :
#
#
# Convention : Reuss Voigt Hill
#
# Bulk Modulus (GPa) = 41.43312 42.45087 41.94199
# Shear Modulus (GPa) = 21.36152 23.96295 22.66224
#
# Velocity S-wave (km/s) = 3.28823 3.48270 3.38686
# Velocity P-wave (km/s) = 5.94883 6.13673 6.04351
#
# Compressibility (1/GPa) = 0.02413528
#
# Stress axis : x y z
#
# Youngs Moduli (GPa) = 34.44829 50.80800 55.12243
#
# Poissons Ratio (x) = 0.54501 0.51178
# Poissons Ratio (y) = 0.36952 0.07427
# Poissons Ratio (z) = 0.31983 0.06846
#
# Static dielectric constant tensor:
#      x y z
#    x 3.726420 0.000000 0.053310 
#    y 0.000000 3.601900 0.000000 
#    z 0.053310 0.000000 3.684740 
# 
# 
# High freq. dielectric constant tensor:
#      x y z
#    x 1.777300 0.000000 -0.003920 
#    y 0.000000 1.764910 0.000000 
#    z -0.003920 0.000000 1.777910 
# 
# From -- ./inp_files/46448.got.cif
#   From: 2010.03.12/outbox.cif.g09.slc.cpg/sg14_24_cif.got.tgz:46448.got - 2010.03.31 13:35:05.
