data_PCOD8126743
_publ_section_title
;
Structure prediction by ZEFSAII (Michael W. Deem and Ramdas Pophale) SiO2 
 PCOD8126743
Probable space group: P 21/C
;
_chemical_formula_sum "Si O2"
_cell_formula_units_Z 28
_cell_length_a 5.471486
_cell_length_b 13.042316
_cell_length_c 16.893969
_cell_angle_alpha 90.000000
_cell_angle_beta 81.503639
_cell_angle_gamma 90.000000
_cell_volume 1192.337169
_symmetry_space_group_name_H-M "P 21/C"
_symmetry_group_IT_number 14
_symmetry_cell_setting 'monoclinic'
loop_
_space_group_symop_operation_xyz
x,y,z
-x,1/2+y,1/2-z
-x,-y,-z
x,1/2-y,1/2+z
loop_
_atom_site_type_symbol
_atom_site_label
_atom_site_fract_x
_atom_site_fract_y
_atom_site_fract_z
Si Si1 0.755375 0.660349 0.743560
Si Si2 0.150937 0.405424 0.892997
Si Si3 0.717228 0.358018 0.336584
Si Si4 0.926847 0.726925 0.379759
Si Si5 0.246459 0.613633 0.954018
Si Si6 0.418147 0.245569 0.972180
Si Si7 0.008492 0.457474 0.726768
O O1 0.502213 0.683163 0.709509
O O2 0.735441 0.719531 0.827644
O O3 0.017094 0.698462 0.690113
O O4 0.780961 0.536065 0.752212
O O5 0.309098 0.507797 0.906119
O O6 0.305024 0.302065 0.900858
O O7 0.082016 0.403037 0.804614
O O8 0.912264 0.406472 0.959932
O O9 0.629815 0.332187 0.430943
O O10 0.756739 0.479608 0.321098
O O11 0.785222 0.685899 0.465465
O O12 0.063772 0.630041 0.333125
O O13 0.122864 0.812862 0.394816
O O14 0.495230 0.665373 0.972407
#
# Coordination Sequence:
#
# PCOD8126743 Si02
#       7
#     4   4   4   4   4   4   4
#     4  10  24  47  67 100 140 179 236 296 337 421
#     4  10  21  42  64 101 130 181 232 289 357 407
#     4  10  25  46  67  99 140 183 231 289 346 423
#     4  11  24  41  68 103 138 187 234 291 358 416
#     4  10  22  41  64 100 136 176 230 295 346 426
#     4  11  25  39  71  96 143 183 231 287 359 424
#     4  10  24  42  71  99 138 186 234 294 347 422
#
# _framework density 23.483293
#
# number of rings (size 3 to 8) (size 9 to 14) (size 15 to 20)
#    0.857    0.857    1.429    1.286   10.000    2.857 
#    0.000    1.429    0.000    0.000    0.000    0.000 
#    0.000    0.000    0.000    0.000    0.000    0.000 
#
# Total GULP energy -346970.324264 kJ/mol
# GULP energy per Si atom -12391.797295 kJ/mol
# Density = 2.342984 g / cm^3
# Si number density = 23.483293 Si / 1000 Ang^3
#
#
#
# Elastic Constant Matrix: (Units=GPa)
#
#
# Indices 1 2 3 4 5 6 
#
# 1 72.3438 -1.8223 7.5503 0.0000 3.2044 0.0000
# 2 -1.8223 73.5514 43.8997 0.0000 -14.6495 0.0000
# 3 7.5503 43.8997 99.5566 0.0000 -10.7245 0.0000
# 4 0.0000 0.0000 0.0000 43.4557 0.0000 -0.3925
# 5 3.2044 -14.6495 -10.7245 0.0000 21.5839 0.0000
# 6 0.0000 0.0000 0.0000 -0.3925 0.0000 14.0031
#
#
#
# Elastic Compliance Matrix: (Units=1/GPa)
#
#
# Indices 1 2 3 4 5 6 
#
# 1 0.014130 0.000916 -0.001727 0.000000 -0.002334 0.000000
# 2 0.000916 0.020312 -0.007983 0.000000 0.009684 0.000000
# 3 -0.001727 -0.007983 0.013883 0.000000 0.001736 0.000000
# 4 0.000000 0.000000 0.000000 0.023018 0.000000 0.000645
# 5 -0.002334 0.009684 0.001736 0.000000 0.054112 0.000000
# 6 0.000000 0.000000 0.000000 0.000645 0.000000 0.071431
#
#
# Mechanical properties :
#
#
# Convention : Reuss Voigt Hill
#
# Bulk Modulus (GPa) = 32.53477 38.30081 35.41779
# Shear Modulus (GPa) = 22.25007 28.86348 25.55678
#
# Velocity S-wave (km/s) = 3.08146 3.50967 3.30251
# Velocity P-wave (km/s) = 5.15219 5.72441 5.44582
#
# Compressibility (1/GPa) = 0.03073634
#
# Stress axis : x y z
#
# Youngs Moduli (GPa) = 70.77350 49.23188 72.03246
#
# Poissons Ratio (x) = -0.04509 0.12439
# Poissons Ratio (y) = -0.06482 0.57503
# Poissons Ratio (z) = 0.12222 0.39302
#
# Static dielectric constant tensor:
#      x y z
#    x 3.846120 0.000000 0.015900 
#    y 0.000000 4.181000 0.000000 
#    z 0.015900 0.000000 4.214100 
# 
# 
# High freq. dielectric constant tensor:
#      x y z
#    x 1.908400 0.000000 0.001150 
#    y 0.000000 1.920740 0.000000 
#    z 0.001150 0.000000 1.936890 
# 
# From -- ./inp_files/53169.got.cif
#   From: 2010.03.12/outbox.cif.g09.slc.cpg/sg14_27_cif.got.tgz:53169.got - 2010.03.31 13:35:05.
