data_PCOD8126186
_publ_section_title
;
Structure prediction by ZEFSAII (Michael W. Deem and Ramdas Pophale) SiO2 
 PCOD8126186
Probable space group: P 21/C
;
_chemical_formula_sum "Si O2"
_cell_formula_units_Z 28
_cell_length_a 5.551790
_cell_length_b 27.888995
_cell_length_c 9.811422
_cell_angle_alpha 90.000000
_cell_angle_beta 51.662768
_cell_angle_gamma 90.000000
_cell_volume 1191.573238
_symmetry_space_group_name_H-M "P 21/C"
_symmetry_group_IT_number 14
_symmetry_cell_setting 'monoclinic'
loop_
_space_group_symop_operation_xyz
x,y,z
-x,1/2+y,1/2-z
-x,-y,-z
x,1/2-y,1/2+z
loop_
_atom_site_type_symbol
_atom_site_label
_atom_site_fract_x
_atom_site_fract_y
_atom_site_fract_z
Si Si1 0.235252 0.123950 0.993441
Si Si2 0.870422 0.588391 0.182110
Si Si3 0.076990 0.894023 0.325827
Si Si4 0.915965 0.791212 0.349873
Si Si5 0.029183 0.509306 0.718772
Si Si6 0.258138 0.553555 0.391504
Si Si7 0.363404 0.224637 0.841804
O O1 0.088240 0.119965 0.196880
O O2 0.050562 0.084862 0.970533
O O3 0.590775 0.109398 0.860181
O O4 0.184019 0.178132 0.962028
O O5 0.876668 0.530867 0.205587
O O6 0.515003 0.592825 0.261233
O O7 0.100710 0.606102 0.983535
O O8 0.911090 0.943399 0.340218
O O9 0.872632 0.848574 0.351987
O O10 0.732059 0.772016 0.544030
O O11 0.757651 0.767985 0.270947
O O12 0.273228 0.780584 0.259194
O O13 0.305049 0.524851 0.517602
O O14 0.760485 0.485660 0.722159
#
# Coordination Sequence:
#
# PCOD8126186 Si02
#       7
#     4   4   4   4   4   4   4
#     4  10  24  43  65  94 137 177 225 290 351 411
#     4  11  23  41  63  98 128 192 226 285 339 417
#     4  11  24  43  66  95 142 169 238 281 358 403
#     4  11  26  48  75 109 135 190 226 299 358 434
#     4  10  21  39  59  93 136 178 228 284 337 412
#     4  10  21  38  66  90 129 188 230 275 349 404
#     4  11  25  47  76 104 145 178 236 289 371 418
#
# _framework density 23.498345
#
# number of rings (size 3 to 8) (size 9 to 14) (size 15 to 20)
#    0.000    1.429    1.429    2.571    8.000    1.714 
#   15.429    0.000    0.000    0.000    0.000    0.000 
#    0.000    0.000    0.000    0.000    0.000    0.000 
#
# Total GULP energy -346931.070709 kJ/mol
# GULP energy per Si atom -12390.395382 kJ/mol
# Density = 2.344486 g / cm^3
# Si number density = 23.498345 Si / 1000 Ang^3
#
#
#
# Elastic Constant Matrix: (Units=GPa)
#
#
# Indices 1 2 3 4 5 6 
#
# 1 82.7430 6.5763 8.2569 0.0000 14.8674 0.0000
# 2 6.5763 57.1782 5.0846 0.0000 -5.4459 0.0000
# 3 8.2569 5.0846 86.7772 0.0000 20.0342 0.0000
# 4 0.0000 0.0000 0.0000 37.2271 0.0000 6.9927
# 5 14.8674 -5.4459 20.0342 0.0000 24.4514 0.0000
# 6 0.0000 0.0000 0.0000 6.9927 0.0000 26.4895
#
#
#
# Elastic Compliance Matrix: (Units=1/GPa)
#
#
# Indices 1 2 3 4 5 6 
#
# 1 0.013986 -0.002666 0.001142 0.000000 -0.010034 0.000000
# 2 -0.002666 0.018800 -0.002699 0.000000 0.008020 0.000000
# 3 0.001142 -0.002699 0.014642 0.000000 -0.013292 0.000000
# 4 0.000000 0.000000 0.000000 0.028264 0.000000 -0.007461
# 5 -0.010034 0.008020 -0.013292 0.000000 0.059676 0.000000
# 6 0.000000 0.000000 0.000000 -0.007461 0.000000 0.039720
#
#
# Mechanical properties :
#
#
# Convention : Reuss Voigt Hill
#
# Bulk Modulus (GPa) = 25.65328 29.61491 27.63410
# Shear Modulus (GPa) = 25.44162 31.41896 28.43029
#
# Velocity S-wave (km/s) = 3.29401 3.66057 3.48211
# Velocity P-wave (km/s) = 5.04064 5.52238 5.28700
#
# Compressibility (1/GPa) = 0.03898136
#
# Stress axis : x y z
#
# Youngs Moduli (GPa) = 71.49809 53.19247 68.29617
#
# Poissons Ratio (x) = 0.14180 -0.07798
# Poissons Ratio (y) = 0.19060 0.18436
# Poissons Ratio (z) = -0.08164 0.14359
#
# Static dielectric constant tensor:
#      x y z
#    x 4.193410 0.000000 0.163470 
#    y 0.000000 4.343150 0.000000 
#    z 0.163470 0.000000 4.054400 
# 
# 
# High freq. dielectric constant tensor:
#      x y z
#    x 1.922410 0.000000 0.016790 
#    y 0.000000 1.931450 0.000000 
#    z 0.016790 0.000000 1.922420 
# 
# From -- ./inp_files/6898.got.cif
#   From: 2010.03.12/outbox.cif.g09.slc.cpg/sg14_4_cif.got.tgz:6898.got - 2010.03.31 13:35:05.
