data_PCOD8126901
_publ_section_title
;
Structure prediction by ZEFSAII (Michael W. Deem and Ramdas Pophale) SiO2 
 PCOD8126901
Probable space group: P 21/C
;
_chemical_formula_sum "Si O2"
_cell_formula_units_Z 32
_cell_length_a 5.142531
_cell_length_b 23.614082
_cell_length_c 11.972546
_cell_angle_alpha 90.000000
_cell_angle_beta 92.434343
_cell_angle_gamma 90.000000
_cell_volume 1452.587805
_symmetry_space_group_name_H-M "P 21/C"
_symmetry_group_IT_number 14
_symmetry_cell_setting 'monoclinic'
loop_
_space_group_symop_operation_xyz
x,y,z
-x,1/2+y,1/2-z
-x,-y,-z
x,1/2-y,1/2+z
loop_
_atom_site_type_symbol
_atom_site_label
_atom_site_fract_x
_atom_site_fract_y
_atom_site_fract_z
Si Si1 0.421316 0.760276 0.913146
Si Si2 0.461652 0.047647 0.407171
Si Si3 0.642474 0.855042 0.431080
Si Si4 0.263239 0.357559 0.643048
Si Si5 0.870359 0.346879 0.448624
Si Si6 0.858930 0.336524 0.191727
Si Si7 0.637157 0.448385 0.561780
Si Si8 0.032811 0.560256 0.232753
O O1 0.614449 0.711407 0.964173
O O2 0.181837 0.729692 0.843721
O O3 0.567124 0.801608 0.825911
O O4 0.322489 0.797238 0.015120
O O5 0.368403 0.106550 0.459691
O O6 0.734964 0.059444 0.352072
O O7 0.500000 0.000000 0.500000
O O8 0.775992 0.971115 0.678997
O O9 0.406461 0.871034 0.341329
O O10 0.913945 0.865906 0.374846
O O11 0.137884 0.343225 0.521127
O O12 0.047964 0.374382 0.733255
O O13 0.442700 0.413338 0.637804
O O14 0.936643 0.339641 0.321236
O O15 0.743913 0.408284 0.465968
O O16 0.500000 0.500000 0.500000
O O17 0.869252 0.469551 0.649553
#
# Coordination Sequence:
#
# PCOD8126901 Si02
#       8
#     4   4   4   4   4   4   4   4
#     4   9  22  42  65  97 139 177 228 285 340 422
#     4  12  26  49  72 104 143 187 238 297 346 426
#     4  10  24  46  64 101 139 176 236 277 344 416
#     4  10  21  44  69 101 141 173 239 279 347 421
#     4  10  22  40  69  99 136 179 223 286 341 414
#     4  10  23  43  65 100 133 179 226 276 354 402
#     4  10  23  45  67 107 140 178 232 284 344 422
#     4  11  24  46  72 104 134 190 233 284 363 404
#
# _framework density 22.02965
#
# number of rings (size 3 to 8) (size 9 to 14) (size 15 to 20)
#    0.750    1.000    1.250    1.875    3.500    4.000 
#    6.750    0.000    0.000    0.000    0.000    0.000 
#    0.000    0.000    0.000    0.000    0.000    0.000 
#
# Total GULP energy -396560.117341 kJ/mol
# GULP energy per Si atom -12392.503667 kJ/mol
# Density = 2.197951 g / cm^3
# Si number density = 22.029650 Si / 1000 Ang^3
#
#
#
# Elastic Constant Matrix: (Units=GPa)
#
#
# Indices 1 2 3 4 5 6 
#
# 1 130.6090 25.1872 25.6704 0.0000 2.9235 0.0000
# 2 25.1872 97.8855 25.8495 0.0000 4.5174 0.0000
# 3 25.6704 25.8495 63.5549 0.0000 8.8226 0.0000
# 4 0.0000 0.0000 0.0000 23.6670 0.0000 5.4781
# 5 2.9235 4.5174 8.8226 0.0000 42.8636 0.0000
# 6 0.0000 0.0000 0.0000 5.4781 0.0000 21.9059
#
#
#
# Elastic Compliance Matrix: (Units=1/GPa)
#
#
# Indices 1 2 3 4 5 6 
#
# 1 0.008494 -0.001435 -0.002869 0.000000 0.000163 0.000000
# 2 -0.001435 0.011691 -0.004136 0.000000 -0.000283 0.000000
# 3 -0.002869 -0.004136 0.019032 0.000000 -0.003286 0.000000
# 4 0.000000 0.000000 0.000000 0.044849 0.000000 -0.011216
# 5 0.000163 -0.000283 -0.003286 0.000000 0.024025 0.000000
# 6 0.000000 0.000000 0.000000 -0.011216 0.000000 0.048455
#
#
# Mechanical properties :
#
#
# Convention : Reuss Voigt Hill
#
# Bulk Modulus (GPa) = 44.77340 49.49596 47.13468
# Shear Modulus (GPa) = 27.64412 32.04345 29.84379
#
# Velocity S-wave (km/s) = 3.54624 3.81801 3.68463
# Velocity P-wave (km/s) = 6.09394 6.47711 6.28844
#
# Compressibility (1/GPa) = 0.02233469
#
# Stress axis : x y z
#
# Youngs Moduli (GPa) = 117.73641 85.53894 52.54385
#
# Poissons Ratio (x) = 0.12277 0.15077
# Poissons Ratio (y) = 0.16898 0.21732
# Poissons Ratio (z) = 0.33784 0.35378
#
# Static dielectric constant tensor:
#      x y z
#    x 4.227640 0.000000 0.021730 
#    y 0.000000 3.836880 0.000000 
#    z 0.021730 0.000000 3.735810 
# 
# 
# High freq. dielectric constant tensor:
#      x y z
#    x 1.886670 0.000000 -0.001080 
#    y 0.000000 1.848450 0.000000 
#    z -0.001080 0.000000 1.849400 
# 
# From -- ./inp_files/22263.got.cif
#   From: 2010.03.12/outbox.cif.g09.slc.cpg/sg14_12_cif.got.tgz:22263.got - 2010.03.31 13:35:05.
