data_PCOD8126584
_publ_section_title
;
Structure prediction by ZEFSAII (Michael W. Deem and Ramdas Pophale) SiO2 
 PCOD8126584
Probable space group: P 21/C
;
_chemical_formula_sum "Si O2"
_cell_formula_units_Z 20
_cell_length_a 7.334477
_cell_length_b 5.298829
_cell_length_c 24.150712
_cell_angle_alpha 90.000000
_cell_angle_beta 77.619927
_cell_angle_gamma 90.000000
_cell_volume 916.771359
_symmetry_space_group_name_H-M "P 21/C"
_symmetry_group_IT_number 14
_symmetry_cell_setting 'monoclinic'
loop_
_space_group_symop_operation_xyz
x,y,z
-x,1/2+y,1/2-z
-x,-y,-z
x,1/2-y,1/2+z
loop_
_atom_site_type_symbol
_atom_site_label
_atom_site_fract_x
_atom_site_fract_y
_atom_site_fract_z
Si Si1 0.040661 0.797272 0.952230
Si Si2 0.966501 0.312853 0.667344
Si Si3 0.804444 0.200569 0.353838
Si Si4 0.715212 0.448589 0.976047
Si Si5 0.602685 0.358039 0.761236
O O1 0.121233 0.883850 0.887711
O O2 0.836156 0.688901 0.950032
O O3 0.196077 0.622116 0.970387
O O4 0.000000 0.000000 0.000000
O O5 0.805341 0.314295 0.722620
O O6 0.110256 0.535232 0.672995
O O7 0.051894 0.031781 0.661908
O O8 0.738149 0.241803 0.422280
O O9 0.625258 0.147063 0.326522
O O10 0.500000 0.500000 0.000000
O O11 0.532794 0.634428 0.748753
#
# Coordination Sequence:
#
# PCOD8126584 Si02
#       5
#     4   4   4   4   4
#     4  10  21  41  62  95 129 171 213 255 332 380
#     4  11  23  43  68  88 131 172 210 265 317 395
#     4  11  23  44  65  92 126 175 215 252 333 384
#     4  10  23  39  64  95 131 170 213 270 314 389
#     4  12  26  42  65  98 126 163 218 273 320 376
#
# _framework density 21.81569
#
# number of rings (size 3 to 8) (size 9 to 14) (size 15 to 20)
#    0.000    1.200    2.000    3.600    2.800    2.400 
#    0.000    0.000    0.000    0.000    0.000    0.000 
#    0.000    0.000    0.000    0.000    0.000    0.000 
#
# Total GULP energy -247832.667835 kJ/mol
# GULP energy per Si atom -12391.633392 kJ/mol
# Density = 2.176604 g / cm^3
# Si number density = 21.815690 Si / 1000 Ang^3
#
#
#
# Elastic Constant Matrix: (Units=GPa)
#
#
# Indices 1 2 3 4 5 6 
#
# 1 112.6036 9.9554 29.3378 0.0000 -1.8441 0.0000
# 2 9.9554 81.0539 -0.9501 0.0000 -3.3128 0.0000
# 3 29.3378 -0.9501 88.5967 0.0000 19.8798 0.0000
# 4 0.0000 0.0000 0.0000 30.6299 0.0000 3.8617
# 5 -1.8441 -3.3128 19.8798 0.0000 43.1388 0.0000
# 6 0.0000 0.0000 0.0000 3.8617 0.0000 32.2216
#
#
#
# Elastic Compliance Matrix: (Units=1/GPa)
#
#
# Indices 1 2 3 4 5 6 
#
# 1 0.010009 -0.001189 -0.003795 0.000000 0.002085 0.000000
# 2 -0.001189 0.012518 0.000361 0.000000 0.000744 0.000000
# 3 -0.003795 0.000361 0.014028 0.000000 -0.006599 0.000000
# 4 0.000000 0.000000 0.000000 0.033149 0.000000 -0.003973
# 5 0.002085 0.000744 -0.006599 0.000000 0.026368 0.000000
# 6 0.000000 0.000000 0.000000 -0.003973 0.000000 0.031511
#
#
# Mechanical properties :
#
#
# Convention : Reuss Voigt Hill
#
# Bulk Modulus (GPa) = 36.61686 39.88227 38.24956
# Shear Modulus (GPa) = 34.26250 37.45880 35.86065
#
# Velocity S-wave (km/s) = 3.96731 4.14823 4.05878
# Velocity P-wave (km/s) = 6.14875 6.42378 6.28777
#
# Compressibility (1/GPa) = 0.02730983
#
# Stress axis : x y z
#
# Youngs Moduli (GPa) = 99.91322 79.88428 71.28399
#
# Poissons Ratio (x) = 0.09495 0.27052
# Poissons Ratio (y) = 0.11875 -0.02572
# Poissons Ratio (z) = 0.37916 -0.02882
#
# Static dielectric constant tensor:
#      x y z
#    x 2.117110 0.000000 -1.817710 
#    y 0.000000 2.241010 0.000000 
#    z -1.817710 0.000000 0.440040 
# 
# 
# High freq. dielectric constant tensor:
#      x y z
#    x 1.843510 0.000000 0.020640 
#    y 0.000000 1.857580 0.000000 
#    z 0.020640 0.000000 1.880890 
# 
# From -- ./inp_files/75451.got.cif
#   From: 2010.03.12/outbox.cif.g09.slc.cpg/sg14_38_cif.got.tgz:75451.got - 2010.03.31 13:35:05.
