data_PCOD8126500
_publ_section_title
;
Structure prediction by ZEFSAII (Michael W. Deem and Ramdas Pophale) SiO2 
 PCOD8126500
Probable space group: P 21/C
;
_chemical_formula_sum "Si O2"
_cell_formula_units_Z 32
_cell_length_a 10.554205
_cell_length_b 5.238285
_cell_length_c 25.926663
_cell_angle_alpha 90.000000
_cell_angle_beta 67.077255
_cell_angle_gamma 90.000000
_cell_volume 1320.187005
_symmetry_space_group_name_H-M "P 21/C"
_symmetry_group_IT_number 14
_symmetry_cell_setting 'monoclinic'
loop_
_space_group_symop_operation_xyz
x,y,z
-x,1/2+y,1/2-z
-x,-y,-z
x,1/2-y,1/2+z
loop_
_atom_site_type_symbol
_atom_site_label
_atom_site_fract_x
_atom_site_fract_y
_atom_site_fract_z
Si Si1 0.582228 0.684988 0.693548
Si Si2 0.677125 0.418308 0.581022
Si Si3 0.789909 0.723818 0.476222
Si Si4 0.070940 0.721342 0.083864
Si Si5 0.743121 0.216834 0.350584
Si Si6 0.278423 0.826347 0.760706
Si Si7 0.398808 0.221703 0.088614
Si Si8 0.202347 0.947756 0.368315
O O1 0.595882 0.477740 0.646183
O O2 0.424312 0.677238 0.735114
O O3 0.679458 0.610161 0.727041
O O4 0.641853 0.946581 0.661228
O O5 0.744246 0.664297 0.542132
O O6 0.565096 0.293354 0.559861
O O7 0.798845 0.224472 0.579415
O O8 0.858765 0.002105 0.462641
O O9 0.655981 0.714745 0.461158
O O10 0.898024 0.502834 0.442403
O O11 0.124111 0.695838 0.134022
O O12 0.907640 0.676224 0.109211
O O13 0.794415 0.181494 0.283446
O O14 0.665848 0.485133 0.369675
O O15 0.637550 0.988884 0.378879
O O16 0.173656 0.708443 0.819736
#
# Coordination Sequence:
#
# PCOD8126500 Si02
#       8
#     4   4   4   4   4   4   4   4
#     4  11  23  39  62  96 130 160 217 268 329 393
#     4  11  24  39  67 100 128 171 217 269 338 389
#     4  10  24  44  70  93 132 176 215 273 323 383
#     4  10  25  48  63  94 134 171 225 266 314 393
#     4  10  22  41  67  92 129 173 210 266 322 389
#     4  11  22  39  64  93 126 171 209 272 335 382
#     4  10  21  40  66 100 130 162 216 270 326 387
#     4  11  26  42  63  94 132 174 220 273 322 400
#
# _framework density 24.238989
#
# number of rings (size 3 to 8) (size 9 to 14) (size 15 to 20)
#    0.000    1.500    2.500    1.125    8.750    1.000 
#    2.250    3.750    0.000    0.000    0.000    0.000 
#    0.000    0.000    0.000    0.000    0.000    0.000 
#
# Total GULP energy -396706.067358 kJ/mol
# GULP energy per Si atom -12397.064605 kJ/mol
# Density = 2.418382 g / cm^3
# Si number density = 24.238989 Si / 1000 Ang^3
#
#
#
# Elastic Constant Matrix: (Units=GPa)
#
#
# Indices 1 2 3 4 5 6 
#
# 1 71.3926 -9.9507 16.0681 0.0000 2.4441 0.0000
# 2 -9.9507 55.4207 -7.1153 0.0000 6.3592 0.0000
# 3 16.0681 -7.1153 75.1183 0.0000 11.0401 0.0000
# 4 0.0000 0.0000 0.0000 23.7444 0.0000 -6.7597
# 5 2.4441 6.3592 11.0401 0.0000 23.5114 0.0000
# 6 0.0000 0.0000 0.0000 -6.7597 0.0000 27.1397
#
#
#
# Elastic Compliance Matrix: (Units=1/GPa)
#
#
# Indices 1 2 3 4 5 6 
#
# 1 0.015018 0.002431 -0.002853 0.000000 -0.000879 0.000000
# 2 0.002431 0.019535 0.002303 0.000000 -0.006618 0.000000
# 3 -0.002853 0.002303 0.015240 0.000000 -0.007483 0.000000
# 4 0.000000 0.000000 0.000000 0.045329 0.000000 0.011290
# 5 -0.000879 -0.006618 -0.007483 0.000000 0.047927 0.000000
# 6 0.000000 0.000000 0.000000 0.011290 0.000000 0.039658
#
#
# Mechanical properties :
#
#
# Convention : Reuss Voigt Hill
#
# Bulk Modulus (GPa) = 18.67198 22.21510 20.44354
# Shear Modulus (GPa) = 25.40667 28.40776 26.90721
#
# Velocity S-wave (km/s) = 3.24106 3.42714 3.33540
# Velocity P-wave (km/s) = 4.66112 4.98451 4.82552
#
# Compressibility (1/GPa) = 0.05355617
#
# Stress axis : x y z
#
# Youngs Moduli (GPa) = 66.58633 51.18928 65.61477
#
# Poissons Ratio (x) = -0.12444 0.18720
# Poissons Ratio (y) = -0.16188 -0.15111
# Poissons Ratio (z) = 0.18997 -0.11789
#
# Static dielectric constant tensor:
#      x y z
#    x 4.142650 0.000000 0.320610 
#    y 0.000000 4.443920 0.000000 
#    z 0.320610 0.000000 4.344670 
# 
# 
# High freq. dielectric constant tensor:
#      x y z
#    x 1.942090 0.000000 0.018290 
#    y 0.000000 1.970940 0.000000 
#    z 0.018290 0.000000 1.962960 
# 
# From -- ./inp_files/72748.got.cif
#   From: 2010.03.12/outbox.cif.g09.slc.cpg/sg14_37_cif.got.tgz:72748.got - 2010.03.31 13:35:05.
