data_PCOD8126822
_publ_section_title
;
Structure prediction by ZEFSAII (Michael W. Deem and Ramdas Pophale) SiO2 
 PCOD8126822
Probable space group: P 21/C
;
_chemical_formula_sum "Si O2"
_cell_formula_units_Z 32
_cell_length_a 13.337676
_cell_length_b 8.158252
_cell_length_c 14.300036
_cell_angle_alpha 90.000000
_cell_angle_beta 75.226122
_cell_angle_gamma 90.000000
_cell_volume 1504.574940
_symmetry_space_group_name_H-M "P 21/C"
_symmetry_group_IT_number 14
_symmetry_cell_setting 'monoclinic'
loop_
_space_group_symop_operation_xyz
x,y,z
-x,1/2+y,1/2-z
-x,-y,-z
x,1/2-y,1/2+z
loop_
_atom_site_type_symbol
_atom_site_label
_atom_site_fract_x
_atom_site_fract_y
_atom_site_fract_z
Si Si1 0.410133 0.750314 0.188892
Si Si2 0.578426 0.638707 0.284542
Si Si3 0.945374 0.180846 0.406453
Si Si4 0.549994 0.679713 0.496650
Si Si5 0.083978 0.036719 0.901451
Si Si6 0.180468 0.788120 0.743935
Si Si7 0.123539 0.544348 0.899467
Si Si8 0.732693 0.753687 0.094394
O O1 0.469467 0.661587 0.258683
O O2 0.300001 0.659098 0.213979
O O3 0.400785 0.945609 0.207968
O O4 0.466606 0.714206 0.075727
O O5 0.570326 0.735999 0.385439
O O6 0.667829 0.728257 0.204576
O O7 0.854612 0.200715 0.353982
O O8 0.889886 0.194290 0.522079
O O9 0.033544 0.311427 0.358620
O O10 0.007633 0.009301 0.395436
O O11 0.500000 0.500000 0.500000
O O12 0.659341 0.702003 0.524417
O O13 0.195138 0.086347 0.916687
O O14 0.100832 0.895722 0.822513
O O15 0.000000 0.000000 0.000000
O O16 0.178018 0.607774 0.791778
O O17 0.193507 0.406123 0.934973
#
# Coordination Sequence:
#
# PCOD8126822 Si02
#       8
#     4   4   4   4   4   4   4   4
#     4  10  23  39  64  93 127 164 208 264 324 376
#     4  10  21  43  63  89 126 165 202 269 317 379
#     4  10  23  42  64  88 129 169 217 264 328 377
#     4   9  21  40  64  91 121 167 213 259 314 388
#     4  11  24  41  62  92 128 170 209 270 316 386
#     4  12  23  39  65  95 124 173 219 256 326 395
#     4  10  21  43  63  90 134 164 209 283 315 377
#     4  10  22  42  64  93 126 169 217 258 333 376
#
# _framework density 21.268464999999999
#
# number of rings (size 3 to 8) (size 9 to 14) (size 15 to 20)
#    0.000    1.750    2.500    0.750    5.250    4.000 
#    4.500    1.250    0.000    0.000    0.000    0.000 
#    0.000    0.000    0.000    0.000    0.000    0.000 
#
# Total GULP energy -396524.646361 kJ/mol
# GULP energy per Si atom -12391.395199 kJ/mol
# Density = 2.122006 g / cm^3
# Si number density = 21.268465 Si / 1000 Ang^3
#
#
#
# Elastic Constant Matrix: (Units=GPa)
#
#
# Indices 1 2 3 4 5 6 
#
# 1 150.8881 19.5125 62.7463 0.0000 7.0951 0.0000
# 2 19.5125 41.6182 19.7659 0.0000 8.0723 0.0000
# 3 62.7463 19.7659 145.1270 0.0000 7.2859 0.0000
# 4 0.0000 0.0000 0.0000 20.2860 0.0000 -0.9780
# 5 7.0951 8.0723 7.2859 0.0000 32.4762 0.0000
# 6 0.0000 0.0000 0.0000 -0.9780 0.0000 35.2615
#
#
#
# Elastic Compliance Matrix: (Units=1/GPa)
#
#
# Indices 1 2 3 4 5 6 
#
# 1 0.008296 -0.002242 -0.003255 0.000000 -0.000525 0.000000
# 2 -0.002242 0.027369 -0.002469 0.000000 -0.005759 0.000000
# 3 -0.003255 -0.002469 0.008665 0.000000 -0.000619 0.000000
# 4 0.000000 0.000000 0.000000 0.049361 0.000000 0.001369
# 5 -0.000525 -0.005759 -0.000619 0.000000 0.032477 0.000000
# 6 0.000000 0.000000 0.000000 0.001369 0.000000 0.028397
#
#
# Mechanical properties :
#
#
# Convention : Reuss Voigt Hill
#
# Bulk Modulus (GPa) = 35.21399 60.18698 47.70048
# Shear Modulus (GPa) = 27.78357 33.31199 30.54778
#
# Velocity S-wave (km/s) = 3.61824 3.96190 3.79396
# Velocity P-wave (km/s) = 5.83510 7.02061 6.45513
#
# Compressibility (1/GPa) = 0.02839781
#
# Stress axis : x y z
#
# Youngs Moduli (GPa) = 120.54644 36.53806 115.40418
#
# Poissons Ratio (x) = 0.08191 0.37564
# Poissons Ratio (y) = 0.27022 0.28496
# Poissons Ratio (z) = 0.39237 0.09022
#
# Static dielectric constant tensor:
#      x y z
#    x 3.942320 0.000000 -0.175980 
#    y 0.000000 3.952170 0.000000 
#    z -0.175980 0.000000 4.110520 
# 
# 
# High freq. dielectric constant tensor:
#      x y z
#    x 1.845910 0.000000 -0.011670 
#    y 0.000000 1.818770 0.000000 
#    z -0.011670 0.000000 1.834740 
# 
# From -- ./inp_files/43744.got.cif
#   From: 2010.03.12/outbox.cif.g09.slc.cpg/sg14_22_cif.got.tgz:43744.got - 2010.03.31 13:35:05.
