data_PCOD8126106
_publ_section_title
;
Structure prediction by ZEFSAII (Michael W. Deem and Ramdas Pophale) SiO2 
 PCOD8126106
Probable space group: P 21/C
;
_chemical_formula_sum "Si O2"
_cell_formula_units_Z 28
_cell_length_a 8.367174
_cell_length_b 12.015133
_cell_length_c 16.368441
_cell_angle_alpha 90.000000
_cell_angle_beta 120.897739
_cell_angle_gamma 90.000000
_cell_volume 1412.033814
_symmetry_space_group_name_H-M "P 21/C"
_symmetry_group_IT_number 14
_symmetry_cell_setting 'monoclinic'
loop_
_space_group_symop_operation_xyz
x,y,z
-x,1/2+y,1/2-z
-x,-y,-z
x,1/2-y,1/2+z
loop_
_atom_site_type_symbol
_atom_site_label
_atom_site_fract_x
_atom_site_fract_y
_atom_site_fract_z
Si Si1 0.571264 0.122214 0.498482
Si Si2 0.660518 0.678241 0.501235
Si Si3 0.276563 0.124162 0.801416
Si Si4 0.616263 0.256662 0.847422
Si Si5 0.979951 0.366191 0.498097
Si Si6 0.332381 0.880380 0.805600
Si Si7 0.923470 0.256267 0.147106
O O1 0.424151 0.200114 0.506451
O O2 0.576956 0.145685 0.402983
O O3 0.780454 0.145580 0.584658
O O4 0.500000 0.000000 0.500000
O O5 0.663740 0.613591 0.588097
O O6 0.868313 0.689254 0.521315
O O7 0.533467 0.612245 0.402630
O O8 0.427993 0.187929 0.787291
O O9 0.081717 0.186811 0.742423
O O10 0.264259 0.001652 0.760751
O O11 0.665779 0.306135 0.773822
O O12 0.775127 0.170094 0.916206
O O13 0.000000 0.500000 0.500000
O O14 0.012389 0.313474 0.595878
O O15 0.179579 0.834709 0.826667
#
# Coordination Sequence:
#
# PCOD8126106 Si02
#       7
#     4   4   4   4   4   4   4
#     4   9  21  41  60  82 118 155 191 243 296 344
#     4  10  21  38  61  84 114 156 199 234 287 354
#     4  11  22  39  59  85 119 154 191 243 291 340
#     4  10  23  37  57  90 116 148 202 238 284 358
#     4  11  21  39  62  86 116 153 191 241 294 346
#     4  11  22  39  59  85 119 154 191 243 291 340
#     4  10  23  37  57  90 116 148 202 238 284 358
#
# _framework density 19.829554000000002
#
# number of rings (size 3 to 8) (size 9 to 14) (size 15 to 20)
#    0.000    1.714    0.000    4.714    0.000    6.857 
#    0.000    5.714    0.000    0.000    0.000    0.000 
#    0.000    0.000    0.000    0.000    0.000    0.000 
#
# Total GULP energy -347247.710224 kJ/mol
# GULP energy per Si atom -12401.703937 kJ/mol
# Density = 1.978442 g / cm^3
# Si number density = 19.829554 Si / 1000 Ang^3
#
#
#
# Elastic Constant Matrix: (Units=GPa)
#
#
# Indices 1 2 3 4 5 6 
#
# 1 95.1352 32.5511 8.2847 0.0000 -2.3032 0.0000
# 2 32.5511 114.6038 31.3167 0.0000 1.1347 0.0000
# 3 8.2847 31.3167 72.6004 0.0000 -0.5389 0.0000
# 4 0.0000 0.0000 0.0000 17.8451 0.0000 -1.0233
# 5 -2.3032 1.1347 -0.5389 0.0000 41.0235 0.0000
# 6 0.0000 0.0000 0.0000 -1.0233 0.0000 27.0923
#
#
#
# Elastic Compliance Matrix: (Units=1/GPa)
#
#
# Indices 1 2 3 4 5 6 
#
# 1 0.011667 -0.003354 0.000121 0.000000 0.000749 0.000000
# 2 -0.003354 0.010860 -0.004306 0.000000 -0.000545 0.000000
# 3 0.000121 -0.004306 0.015620 0.000000 0.000331 0.000000
# 4 0.000000 0.000000 0.000000 0.056159 0.000000 0.002121
# 5 0.000749 -0.000545 0.000331 0.000000 0.024438 0.000000
# 6 0.000000 0.000000 0.000000 0.002121 0.000000 0.036991
#
#
# Mechanical properties :
#
#
# Convention : Reuss Voigt Hill
#
# Bulk Modulus (GPa) = 43.34835 47.40495 45.37665
# Shear Modulus (GPa) = 28.01071 31.20464 29.60767
#
# Velocity S-wave (km/s) = 3.76250 3.97122 3.86827
# Velocity P-wave (km/s) = 6.38617 6.70713 6.54861
#
# Compressibility (1/GPa) = 0.02306893
#
# Stress axis : x y z
#
# Youngs Moduli (GPa) = 85.71470 92.07687 64.02003
#
# Poissons Ratio (x) = 0.30884 -0.00775
# Poissons Ratio (y) = 0.28750 0.27567
# Poissons Ratio (z) = -0.01038 0.39649
#
# Static dielectric constant tensor:
#      x y z
#    x 3.762780 0.000000 0.010430 
#    y 0.000000 3.429800 0.000000 
#    z 0.010430 0.000000 3.638400 
# 
# 
# High freq. dielectric constant tensor:
#      x y z
#    x 1.791180 0.000000 -0.002450 
#    y 0.000000 1.768160 0.000000 
#    z -0.002450 0.000000 1.773470 
# 
# From -- ./inp_files/40097.got.cif
#   From: 2010.03.12/outbox.cif.g09.slc.cpg/sg14_21_cif.got.tgz:40097.got - 2010.03.31 13:35:05.
