data_PCOD8126903
_publ_section_title
;
Structure prediction by ZEFSAII (Michael W. Deem and Ramdas Pophale) SiO2 
 PCOD8126903
Probable space group: P 21/C
;
_chemical_formula_sum "Si O2"
_cell_formula_units_Z 32
_cell_length_a 14.134832
_cell_length_b 13.929595
_cell_length_c 20.184739
_cell_angle_alpha 90.000000
_cell_angle_beta 21.959296
_cell_angle_gamma 90.000000
_cell_volume 1486.152146
_symmetry_space_group_name_H-M "P 21/C"
_symmetry_group_IT_number 14
_symmetry_cell_setting 'monoclinic'
loop_
_space_group_symop_operation_xyz
x,y,z
-x,1/2+y,1/2-z
-x,-y,-z
x,1/2-y,1/2+z
loop_
_atom_site_type_symbol
_atom_site_label
_atom_site_fract_x
_atom_site_fract_y
_atom_site_fract_z
Si Si1 0.707196 0.616789 0.890551
Si Si2 0.226015 0.732444 0.239817
Si Si3 0.267434 0.987141 0.861351
Si Si4 0.607056 0.067002 0.528809
Si Si5 0.285833 0.733027 0.347471
Si Si6 0.448013 0.102974 0.004889
Si Si7 0.735433 0.867306 0.021840
Si Si8 0.019768 0.787829 0.651796
O O1 0.771863 0.517675 0.886678
O O2 0.955956 0.683953 0.726042
O O3 0.480111 0.667935 0.078004
O O4 0.621912 0.596907 0.870544
O O5 0.136974 0.743932 0.374127
O O6 0.292613 0.834813 0.163318
O O7 0.012760 0.680057 0.335589
O O8 0.333922 0.877517 0.833308
O O9 0.491666 0.031727 0.672488
O O10 0.256512 0.038931 0.938629
O O11 0.000000 0.000000 0.000000
O O12 0.782542 0.158726 0.428647
O O13 0.553171 0.786772 0.170546
O O14 0.118692 0.780364 0.513065
O O15 0.347417 0.096682 0.995699
O O16 0.239849 0.152942 0.186424
O O17 0.500000 0.000000 0.000000
#
# Coordination Sequence:
#
# PCOD8126903 Si02
#       8
#     4   4   4   4   4   4   4   4
#     4  10  22  42  69 101 132 178 230 289 336 402
#     4  10  21  44  69  96 136 179 225 282 336 404
#     4  12  22  41  71 101 138 179 235 284 333 411
#     4  11  22  42  71 101 133 179 238 281 342 407
#     4  11  23  40  66 102 137 174 225 283 342 400
#     4  10  25  49  67  99 139 181 234 278 345 415
#     4  11  23  45  69 100 136 184 225 282 350 402
#     4  11  24  42  67 102 140 176 222 288 345 409
#
# _framework density 21.532115000000001
#
# number of rings (size 3 to 8) (size 9 to 14) (size 15 to 20)
#    0.000    1.250    3.750    1.500    0.000    4.000 
#   13.500    1.250    0.000    0.000    0.000    0.000 
#    0.000    0.000    0.000    0.000    0.000    0.000 
#
# Total GULP energy -396937.358333 kJ/mol
# GULP energy per Si atom -12404.292448 kJ/mol
# Density = 2.148311 g / cm^3
# Si number density = 21.532115 Si / 1000 Ang^3
#
#
#
# Elastic Constant Matrix: (Units=GPa)
#
#
# Indices 1 2 3 4 5 6 
#
# 1 100.5552 66.7277 54.0898 0.0000 14.7898 0.0000
# 2 66.7277 171.5183 55.9051 0.0000 4.0210 0.0000
# 3 54.0898 55.9051 100.8358 0.0000 15.2892 0.0000
# 4 0.0000 0.0000 0.0000 34.5868 0.0000 0.2323
# 5 14.7898 4.0210 15.2892 0.0000 31.7953 0.0000
# 6 0.0000 0.0000 0.0000 0.2323 0.0000 45.0859
#
#
#
# Elastic Compliance Matrix: (Units=1/GPa)
#
#
# Indices 1 2 3 4 5 6 
#
# 1 0.016698 -0.004506 -0.005790 0.000000 -0.004413 0.000000
# 2 -0.004506 0.008366 -0.002566 0.000000 0.002272 0.000000
# 3 -0.005790 -0.002566 0.015088 0.000000 -0.004237 0.000000
# 4 0.000000 0.000000 0.000000 0.028914 0.000000 -0.000149
# 5 -0.004413 0.002272 -0.004237 0.000000 0.035254 0.000000
# 6 0.000000 0.000000 0.000000 -0.000149 0.000000 0.022181
#
#
# Mechanical properties :
#
#
# Convention : Reuss Voigt Hill
#
# Bulk Modulus (GPa) = 69.30293 80.70604 75.00449
# Shear Modulus (GPa) = 31.84012 35.37273 33.60643
#
# Velocity S-wave (km/s) = 3.84959 4.05753 3.95493
# Velocity P-wave (km/s) = 7.21213 7.71456 7.46758
#
# Compressibility (1/GPa) = 0.01442940
#
# Stress axis : x y z
#
# Youngs Moduli (GPa) = 59.88617 119.52782 66.27749
#
# Poissons Ratio (x) = 0.53855 0.38375
# Poissons Ratio (y) = 0.26983 0.17006
# Poissons Ratio (z) = 0.34674 0.30670
#
# Static dielectric constant tensor:
#      x y z
#    x 3.906260 0.000000 0.251560 
#    y 0.000000 3.999050 0.000000 
#    z 0.251560 0.000000 3.995170 
# 
# 
# High freq. dielectric constant tensor:
#      x y z
#    x 1.836920 0.000000 0.021810 
#    y 0.000000 1.856600 0.000000 
#    z 0.021810 0.000000 1.849140 
# 
# From -- ./inp_files/68703.got.cif
#   From: 2010.03.12/outbox.cif.g09.slc.cpg/sg14_35_cif.got.tgz:68703.got - 2010.03.31 13:35:05.
