data_PCOD8126583
_publ_section_title
;
Structure prediction by ZEFSAII (Michael W. Deem and Ramdas Pophale) SiO2 
 PCOD8126583
Probable space group: P 21/C
;
_chemical_formula_sum "Si O2"
_cell_formula_units_Z 32
_cell_length_a 11.970092
_cell_length_b 18.307255
_cell_length_c 14.733877
_cell_angle_alpha 90.000000
_cell_angle_beta 29.610576
_cell_angle_gamma 90.000000
_cell_volume 1595.345247
_symmetry_space_group_name_H-M "P 21/C"
_symmetry_group_IT_number 14
_symmetry_cell_setting 'monoclinic'
loop_
_space_group_symop_operation_xyz
x,y,z
-x,1/2+y,1/2-z
-x,-y,-z
x,1/2-y,1/2+z
loop_
_atom_site_type_symbol
_atom_site_label
_atom_site_fract_x
_atom_site_fract_y
_atom_site_fract_z
Si Si1 0.005320 0.213905 0.088571
Si Si2 0.815508 0.872798 0.495502
Si Si3 0.439583 0.717062 0.197838
Si Si4 0.921904 0.358321 0.834554
Si Si5 0.464741 0.300741 0.196381
Si Si6 0.645656 0.798041 0.890609
Si Si7 0.856098 0.491666 0.298970
Si Si8 0.403749 0.440596 0.674912
O O1 0.813412 0.195898 0.150574
O O2 0.914549 0.188730 0.248810
O O3 0.064717 0.300406 0.047640
O O4 0.230390 0.167823 0.903182
O O5 0.613934 0.850924 0.568173
O O6 0.713616 0.922120 0.647696
O O7 0.990971 0.919516 0.312974
O O8 0.440431 0.738471 0.303187
O O9 0.533313 0.782382 0.067730
O O10 0.086262 0.315321 0.788406
O O11 0.999850 0.440907 0.763474
O O12 0.662121 0.361342 0.052836
O O13 0.401335 0.269378 0.142466
O O14 0.530385 0.869698 0.931002
O O15 0.645250 0.480823 0.516944
O O16 0.767859 0.507963 0.259577
#
# Coordination Sequence:
#
# PCOD8126583 Si02
#       8
#     4   4   4   4   4   4   4   4
#     4  11  22  40  62  94 129 159 218 267 314 370
#     4  11  22  41  62  95 123 171 213 256 320 380
#     4  11  22  37  64  96 127 164 210 266 314 376
#     4  11  23  40  63  94 128 167 206 261 325 372
#     4  11  22  37  63  92 122 165 204 261 319 367
#     4  11  19  39  63  95 126 154 207 267 315 368
#     4  10  24  39  62  90 132 167 206 262 313 384
#     4  10  21  41  62  93 128 165 206 260 325 373
#
# _framework density 20.058353
#
# number of rings (size 3 to 8) (size 9 to 14) (size 15 to 20)
#    0.000    1.250    6.250    1.875    1.750    1.000 
#    4.500    0.625    0.000    1.500    0.000    0.000 
#    0.000    0.000    0.000    0.000    0.000    0.000 
#
# Total GULP energy -396710.309441 kJ/mol
# GULP energy per Si atom -12397.197170 kJ/mol
# Density = 2.001270 g / cm^3
# Si number density = 20.058353 Si / 1000 Ang^3
#
#
#
# Elastic Constant Matrix: (Units=GPa)
#
#
# Indices 1 2 3 4 5 6 
#
# 1 88.1453 14.5640 26.6643 0.0000 -20.0096 0.0000
# 2 14.5640 53.9616 25.7435 0.0000 -12.4934 0.0000
# 3 26.6643 25.7435 104.7241 0.0000 -24.8339 0.0000
# 4 0.0000 0.0000 0.0000 36.0801 0.0000 -8.2845
# 5 -20.0096 -12.4934 -24.8339 0.0000 40.7695 0.0000
# 6 0.0000 0.0000 0.0000 -8.2845 0.0000 23.9221
#
#
#
# Elastic Compliance Matrix: (Units=1/GPa)
#
#
# Indices 1 2 3 4 5 6 
#
# 1 0.013274 -0.001572 -0.001826 0.000000 0.004921 0.000000
# 2 -0.001572 0.021709 -0.004140 0.000000 0.003359 0.000000
# 3 -0.001826 -0.004140 0.012294 0.000000 0.005324 0.000000
# 4 0.000000 0.000000 0.000000 0.030110 0.000000 0.010428
# 5 0.004921 0.003359 0.005324 0.000000 0.031215 0.000000
# 6 0.000000 0.000000 0.000000 0.010428 0.000000 0.045414
#
#
# Mechanical properties :
#
#
# Convention : Reuss Voigt Hill
#
# Bulk Modulus (GPa) = 31.05537 42.30828 36.68182
# Shear Modulus (GPa) = 27.80467 32.14496 29.97482
#
# Velocity S-wave (km/s) = 3.72720 4.00756 3.86992
# Velocity P-wave (km/s) = 5.83428 6.52322 6.18834
#
# Compressibility (1/GPa) = 0.03220055
#
# Stress axis : x y z
#
# Youngs Moduli (GPa) = 75.33418 46.06466 81.34053
#
# Poissons Ratio (x) = 0.07241 0.14857
# Poissons Ratio (y) = 0.11843 0.33672
# Poissons Ratio (z) = 0.13760 0.19069
#
# Static dielectric constant tensor:
#      x y z
#    x 3.690140 0.000000 -0.224070 
#    y 0.000000 3.400980 0.000000 
#    z -0.224070 0.000000 3.893830 
# 
# 
# High freq. dielectric constant tensor:
#      x y z
#    x 1.775830 0.000000 -0.012360 
#    y 0.000000 1.748810 0.000000 
#    z -0.012360 0.000000 1.797510 
# 
# From -- ./inp_files/45366.got.cif
#   From: 2010.03.12/outbox.cif.g09.slc.cpg/sg14_23_cif.got.tgz:45366.got - 2010.03.31 13:35:05.
