data_PCOD8126734
_publ_section_title
;
Structure prediction by ZEFSAII (Michael W. Deem and Ramdas Pophale) SiO2 
 PCOD8126734
Probable space group: P 21/C
;
_chemical_formula_sum "Si O2"
_cell_formula_units_Z 24
_cell_length_a 14.361183
_cell_length_b 5.455402
_cell_length_c 14.122945
_cell_angle_alpha 90.000000
_cell_angle_beta 107.263778
_cell_angle_gamma 90.000000
_cell_volume 1056.628310
_symmetry_space_group_name_H-M "P 21/C"
_symmetry_group_IT_number 14
_symmetry_cell_setting 'monoclinic'
loop_
_space_group_symop_operation_xyz
x,y,z
-x,1/2+y,1/2-z
-x,-y,-z
x,1/2-y,1/2+z
loop_
_atom_site_type_symbol
_atom_site_label
_atom_site_fract_x
_atom_site_fract_y
_atom_site_fract_z
Si Si1 0.563039 0.416943 0.875647
Si Si2 0.962011 0.705258 0.381341
Si Si3 0.140891 0.114641 0.976230
Si Si4 0.890763 0.005676 0.679411
Si Si5 0.554683 0.416141 0.655451
Si Si6 0.710519 0.204255 0.051315
O O1 0.593965 0.418032 0.774958
O O2 0.504074 0.663947 0.882074
O O3 0.506494 0.163153 0.882545
O O4 0.656778 0.414318 0.973254
O O5 0.884374 0.786765 0.439966
O O6 0.903402 0.518793 0.295737
O O7 0.059058 0.594743 0.457613
O O8 0.002106 0.930286 0.331099
O O9 0.138423 0.250298 0.875776
O O10 0.249154 0.995574 0.012729
O O11 0.804850 0.197594 0.635284
O O12 0.643521 0.423681 0.609592
#
# Coordination Sequence:
#
# PCOD8126734 Si02
#       6
#     4   4   4   4   4   4
#     4  10  23  44  68  95 132 177 214 270 336 402
#     4  10  21  42  63  85 128 167 215 258 330 395
#     4  10  23  40  62  91 124 167 213 270 321 389
#     4  11  22  40  63  93 124 172 215 268 334 388
#     4  10  23  44  70  93 133 176 215 266 340 401
#     4  11  25  38  63  99 123 165 220 275 324 395
#
# _framework density 22.713759
#
# number of rings (size 3 to 8) (size 9 to 14) (size 15 to 20)
#    0.000    1.667    1.667    1.500    7.000    0.000 
#    3.000    0.000    0.000    0.000    0.000    0.000 
#    0.000    0.000    0.000    0.000    0.000    0.000 
#
# Total GULP energy -297435.725238 kJ/mol
# GULP energy per Si atom -12393.155218 kJ/mol
# Density = 2.266206 g / cm^3
# Si number density = 22.713759 Si / 1000 Ang^3
#
#
#
# Elastic Constant Matrix: (Units=GPa)
#
#
# Indices 1 2 3 4 5 6 
#
# 1 120.1563 29.4094 56.2170 0.0000 -20.2781 0.0000
# 2 29.4094 86.7646 5.6655 0.0000 -4.3383 0.0000
# 3 56.2170 5.6655 94.3322 0.0000 -6.9126 0.0000
# 4 0.0000 0.0000 0.0000 29.3520 0.0000 -0.3743
# 5 -20.2781 -4.3383 -6.9126 0.0000 37.1130 0.0000
# 6 0.0000 0.0000 0.0000 -0.3743 0.0000 23.3169
#
#
#
# Elastic Compliance Matrix: (Units=1/GPa)
#
#
# Indices 1 2 3 4 5 6 
#
# 1 0.013764 -0.003889 -0.007554 0.000000 0.005659 0.000000
# 2 -0.003889 0.012726 0.001528 0.000000 -0.000353 0.000000
# 3 -0.007554 0.001528 0.014925 0.000000 -0.001169 0.000000
# 4 0.000000 0.000000 0.000000 0.034076 0.000000 0.000547
# 5 0.005659 -0.000353 -0.001169 0.000000 0.029778 0.000000
# 6 0.000000 0.000000 0.000000 0.000547 0.000000 0.042896
#
#
# Mechanical properties :
#
#
# Convention : Reuss Voigt Hill
#
# Bulk Modulus (GPa) = 46.33111 53.75965 50.04538
# Shear Modulus (GPa) = 28.54023 31.95381 30.24702
#
# Velocity S-wave (km/s) = 3.54858 3.75481 3.65315
# Velocity P-wave (km/s) = 6.10181 6.52057 6.31466
#
# Compressibility (1/GPa) = 0.02158377
#
# Stress axis : x y z
#
# Youngs Moduli (GPa) = 72.65485 78.57746 67.00020
#
# Poissons Ratio (x) = 0.30559 0.50613
# Poissons Ratio (y) = 0.28256 -0.10234
# Poissons Ratio (z) = 0.54885 -0.12003
#
# Static dielectric constant tensor:
#      x y z
#    x 4.184170 0.000000 -0.190920 
#    y 0.000000 3.997480 0.000000 
#    z -0.190920 0.000000 4.341960 
# 
# 
# High freq. dielectric constant tensor:
#      x y z
#    x 1.889660 0.000000 -0.011450 
#    y 0.000000 1.888750 0.000000 
#    z -0.011450 0.000000 1.903930 
# 
# From -- ./inp_files/45790.got.cif
#   From: 2010.03.12/outbox.cif.g09.slc.cpg/sg14_23_cif.got.tgz:45790.got - 2010.03.31 13:35:05.
