data_PCOD8126649
_publ_section_title
;
Structure prediction by ZEFSAII (Michael W. Deem and Ramdas Pophale) SiO2 
 PCOD8126649
Probable space group: P 21/C
;
_chemical_formula_sum "Si O2"
_cell_formula_units_Z 32
_cell_length_a 12.562078
_cell_length_b 11.716824
_cell_length_c 11.476825
_cell_angle_alpha 90.000000
_cell_angle_beta 111.099821
_cell_angle_gamma 90.000000
_cell_volume 1575.990842
_symmetry_space_group_name_H-M "P 21/C"
_symmetry_group_IT_number 14
_symmetry_cell_setting 'monoclinic'
loop_
_space_group_symop_operation_xyz
x,y,z
-x,1/2+y,1/2-z
-x,-y,-z
x,1/2-y,1/2+z
loop_
_atom_site_type_symbol
_atom_site_label
_atom_site_fract_x
_atom_site_fract_y
_atom_site_fract_z
Si Si1 0.781202 0.068384 0.917339
Si Si2 0.537849 0.522444 0.328306
Si Si3 0.094689 0.578977 0.093567
Si Si4 0.931410 0.311586 0.301555
Si Si5 0.762963 0.302864 0.029029
Si Si6 0.477524 0.887862 0.563465
Si Si7 0.157940 0.433117 0.335364
Si Si8 0.592373 0.843542 0.077481
O O1 0.871403 0.083648 0.847555
O O2 0.665361 0.005421 0.832032
O O3 0.741749 0.191293 0.944890
O O4 0.843337 0.997776 0.042520
O O5 0.469961 0.582516 0.197254
O O6 0.470837 0.408590 0.341483
O O7 0.541608 0.610804 0.436333
O O8 0.043047 0.703398 0.105332
O O9 0.150870 0.523230 0.228573
O O10 0.190485 0.594836 0.032990
O O11 0.000000 0.500000 0.000000
O O12 0.847774 0.272190 0.166526
O O13 0.049625 0.349946 0.290571
O O14 0.641680 0.339847 0.031533
O O15 0.573294 0.791843 0.579171
O O16 0.500000 0.000000 0.500000
O O17 0.272136 0.360647 0.362289
#
# Coordination Sequence:
#
# PCOD8126649 Si02
#       8
#     4   4   4   4   4   4   4   4
#     4  10  21  41  66  90 121 175 213 259 321 386
#     4  10  22  45  67  92 130 169 218 269 327 390
#     4  11  23  41  65  93 127 172 211 262 321 374
#     4  11  23  39  66  95 127 168 213 266 312 387
#     4  11  22  40  65  92 128 170 219 259 316 388
#     4  12  26  40  67 102 130 166 221 275 323 388
#     4  11  22  44  64  94 132 164 214 262 330 388
#     4  10  24  43  68  95 128 178 209 267 337 381
#
# _framework density 20.304684999999999
#
# number of rings (size 3 to 8) (size 9 to 14) (size 15 to 20)
#    0.000    1.250    3.750    1.875    1.750    3.000 
#    6.750    0.000    0.000    0.000    0.000    0.000 
#    0.000    0.000    0.000    0.000    0.000    0.000 
#
# Total GULP energy -396941.270354 kJ/mol
# GULP energy per Si atom -12404.414699 kJ/mol
# Density = 2.025847 g / cm^3
# Si number density = 20.304685 Si / 1000 Ang^3
#
#
#
# Elastic Constant Matrix: (Units=GPa)
#
#
# Indices 1 2 3 4 5 6 
#
# 1 102.2268 37.5997 27.0437 0.0000 7.4012 0.0000
# 2 37.5997 103.7887 23.0174 0.0000 -0.5431 0.0000
# 3 27.0437 23.0174 78.6292 0.0000 3.7108 0.0000
# 4 0.0000 0.0000 0.0000 30.2575 0.0000 -4.3045
# 5 7.4012 -0.5431 3.7108 0.0000 29.7087 0.0000
# 6 0.0000 0.0000 0.0000 -4.3045 0.0000 29.1128
#
#
#
# Elastic Compliance Matrix: (Units=1/GPa)
#
#
# Indices 1 2 3 4 5 6 
#
# 1 0.012142 -0.003759 -0.002947 0.000000 -0.002725 0.000000
# 2 -0.003759 0.011477 -0.002134 0.000000 0.001413 0.000000
# 3 -0.002947 -0.002134 0.014408 0.000000 -0.001105 0.000000
# 4 0.000000 0.000000 0.000000 0.033760 0.000000 0.004992
# 5 -0.002725 0.001413 -0.001105 0.000000 0.034503 0.000000
# 6 0.000000 0.000000 0.000000 0.004992 0.000000 0.035087
#
#
# Mechanical properties :
#
#
# Convention : Reuss Voigt Hill
#
# Bulk Modulus (GPa) = 49.14537 51.10736 50.12637
# Shear Modulus (GPa) = 30.14963 30.94805 30.54884
#
# Velocity S-wave (km/s) = 3.85757 3.90831 3.88302
# Velocity P-wave (km/s) = 6.64060 6.75214 6.69661
#
# Compressibility (1/GPa) = 0.02034780
#
# Stress axis : x y z
#
# Youngs Moduli (GPa) = 82.36004 87.12773 69.40506
#
# Poissons Ratio (x) = 0.32754 0.20453
# Poissons Ratio (y) = 0.30962 0.14808
# Poissons Ratio (z) = 0.24271 0.18589
#
# Static dielectric constant tensor:
#      x y z
#    x 3.850960 0.000000 -0.126400 
#    y 0.000000 3.720980 0.000000 
#    z -0.126400 0.000000 3.779040 
# 
# 
# High freq. dielectric constant tensor:
#      x y z
#    x 1.796370 0.000000 0.000420 
#    y 0.000000 1.791320 0.000000 
#    z 0.000420 0.000000 1.799110 
# 
# From -- ./inp_files/29363.got.cif
#   From: 2010.03.12/outbox.cif.g09.slc.cpg/sg14_15_cif.got.tgz:29363.got - 2010.03.31 13:35:05.
