data_PCOD8126180
_publ_section_title
;
Structure prediction by ZEFSAII (Michael W. Deem and Ramdas Pophale) SiO2 
 PCOD8126180
Probable space group: P 21/C
;
_chemical_formula_sum "Si O2"
_cell_formula_units_Z 24
_cell_length_a 8.613931
_cell_length_b 14.890699
_cell_length_c 8.660840
_cell_angle_alpha 90.000000
_cell_angle_beta 86.746624
_cell_angle_gamma 90.000000
_cell_volume 1109.113482
_symmetry_space_group_name_H-M "P 21/C"
_symmetry_group_IT_number 14
_symmetry_cell_setting 'monoclinic'
loop_
_space_group_symop_operation_xyz
x,y,z
-x,1/2+y,1/2-z
-x,-y,-z
x,1/2-y,1/2+z
loop_
_atom_site_type_symbol
_atom_site_label
_atom_site_fract_x
_atom_site_fract_y
_atom_site_fract_z
Si Si1 0.409655 0.269902 0.868421
Si Si2 0.778481 0.663920 0.389800
Si Si3 0.292186 0.517141 0.430238
Si Si4 0.712394 0.178427 0.533656
Si Si5 0.445063 0.911398 0.210537
Si Si6 0.873644 0.167732 0.216673
O O1 0.338642 0.340912 0.749862
O O2 0.464401 0.182054 0.772450
O O3 0.273316 0.243122 0.993859
O O4 0.554370 0.311539 0.947683
O O5 0.775744 0.568584 0.476400
O O6 0.949011 0.691886 0.325014
O O7 0.427794 0.491454 0.298830
O O8 0.359970 0.587893 0.549911
O O9 0.157400 0.567624 0.345781
O O10 0.682152 0.089102 0.642924
O O11 0.850315 0.165166 0.403015
O O12 0.756942 0.260826 0.644386
#
# Coordination Sequence:
#
# PCOD8126180 Si02
#       6
#     4   4   4   4   4   4
#     4  11  20  40  63  93 118 161 217 253 298 369
#     4  11  24  40  64  91 130 164 205 259 321 370
#     4  10  23  42  62  93 129 165 206 255 322 365
#     4  12  22  39  68  94 121 166 219 256 303 368
#     4  10  21  38  65  92 117 162 209 265 289 365
#     4  12  23  41  63  94 129 165 204 261 317 374
#
# _framework density 21.638904
#
# number of rings (size 3 to 8) (size 9 to 14) (size 15 to 20)
#    0.000    1.000    5.000    1.500    4.667    0.667 
#    0.000    0.833    0.000    0.000    0.000    0.000 
#    0.000    0.000    0.000    0.000    0.000    0.000 
#
# Total GULP energy -297512.123473 kJ/mol
# GULP energy per Si atom -12396.338478 kJ/mol
# Density = 2.158965 g / cm^3
# Si number density = 21.638904 Si / 1000 Ang^3
#
#
#
# Elastic Constant Matrix: (Units=GPa)
#
#
# Indices 1 2 3 4 5 6 
#
# 1 84.9084 11.4433 32.2700 0.0000 -23.8479 0.0000
# 2 11.4433 52.1953 34.7001 0.0000 -5.4812 0.0000
# 3 32.2700 34.7001 96.3989 0.0000 -23.7006 0.0000
# 4 0.0000 0.0000 0.0000 40.1050 0.0000 -4.3983
# 5 -23.8479 -5.4812 -23.7006 0.0000 43.6423 0.0000
# 6 0.0000 0.0000 0.0000 -4.3983 0.0000 23.9120
#
#
#
# Elastic Compliance Matrix: (Units=1/GPa)
#
#
# Indices 1 2 3 4 5 6 
#
# 1 0.014842 -0.000418 -0.003274 0.000000 0.006280 0.000000
# 2 -0.000418 0.025355 -0.009533 0.000000 -0.002221 0.000000
# 3 -0.003274 -0.009533 0.016350 0.000000 0.005893 0.000000
# 4 0.000000 0.000000 0.000000 0.025448 0.000000 0.004681
# 5 0.006280 -0.002221 0.005893 0.000000 0.029266 0.000000
# 6 0.000000 0.000000 0.000000 0.004681 0.000000 0.042681
#
#
# Mechanical properties :
#
#
# Convention : Reuss Voigt Hill
#
# Bulk Modulus (GPa) = 33.22616 43.36993 38.29804
# Shear Modulus (GPa) = 26.25725 31.87112 29.06419
#
# Velocity S-wave (km/s) = 3.48721 3.84195 3.66887
# Velocity P-wave (km/s) = 5.62159 6.30610 5.97366
#
# Compressibility (1/GPa) = 0.03009677
#
# Stress axis : x y z
#
# Youngs Moduli (GPa) = 67.37740 39.44019 61.16258
#
# Poissons Ratio (x) = 0.01648 0.20025
# Poissons Ratio (y) = 0.02815 0.58306
# Poissons Ratio (z) = 0.22060 0.37598
#
# Static dielectric constant tensor:
#      x y z
#    x 3.818580 0.000000 -0.262860 
#    y 0.000000 3.665710 0.000000 
#    z -0.262860 0.000000 4.137060 
# 
# 
# High freq. dielectric constant tensor:
#      x y z
#    x 1.846070 0.000000 -0.016050 
#    y 0.000000 1.828630 0.000000 
#    z -0.016050 0.000000 1.857860 
# 
# From -- ./inp_files/8508.got.cif
#   From: 2010.03.12/outbox.cif.g09.slc.cpg/sg14_5_cif.got.tgz:8508.got - 2010.03.31 13:35:05.
