data_PCOD8126820
_publ_section_title
;
Structure prediction by ZEFSAII (Michael W. Deem and Ramdas Pophale) SiO2 
 PCOD8126820
Probable space group: P 21/C
;
_chemical_formula_sum "Si O2"
_cell_formula_units_Z 28
_cell_length_a 9.209365
_cell_length_b 13.246882
_cell_length_c 13.249694
_cell_angle_alpha 90.000000
_cell_angle_beta 121.956314
_cell_angle_gamma 90.000000
_cell_volume 1371.438780
_symmetry_space_group_name_H-M "P 21/C"
_symmetry_group_IT_number 14
_symmetry_cell_setting 'monoclinic'
loop_
_space_group_symop_operation_xyz
x,y,z
-x,1/2+y,1/2-z
-x,-y,-z
x,1/2-y,1/2+z
loop_
_atom_site_type_symbol
_atom_site_label
_atom_site_fract_x
_atom_site_fract_y
_atom_site_fract_z
Si Si1 0.864247 0.425154 0.808824
Si Si2 0.446909 0.883849 0.348331
Si Si3 0.744614 0.533766 0.358892
Si Si4 0.799045 0.974296 0.480112
Si Si5 0.104085 0.596475 0.411748
Si Si6 0.270622 0.686858 0.976867
Si Si7 0.452674 0.690880 0.240721
O O1 0.800403 0.519037 0.857119
O O2 0.874420 0.448558 0.693411
O O3 0.733251 0.332920 0.777641
O O4 0.056121 0.399473 0.921415
O O5 0.612953 0.942266 0.451269
O O6 0.353103 0.820242 0.398451
O O7 0.513970 0.802183 0.292754
O O8 0.311483 0.959290 0.250313
O O9 0.778150 0.472396 0.473763
O O10 0.593968 0.611515 0.329210
O O11 0.909805 0.592180 0.378824
O O12 0.840545 0.086952 0.538477
O O13 0.154363 0.713584 0.438373
O O14 0.430682 0.691334 0.112489
#
# Coordination Sequence:
#
# PCOD8126820 Si02
#       7
#     4   4   4   4   4   4   4
#     4  10  21  43  62  95 128 169 214 275 320 385
#     4  12  22  43  67  96 132 175 218 275 330 390
#     4  11  25  44  66  95 135 178 216 270 336 395
#     4  10  23  40  70  95 132 169 223 273 325 393
#     4  11  24  43  66  94 137 172 219 271 331 393
#     4  11  22  39  66  95 126 174 214 274 321 391
#     4  11  24  42  64  96 133 168 225 271 326 393
#
# _framework density 20.416513999999999
#
# number of rings (size 3 to 8) (size 9 to 14) (size 15 to 20)
#    0.000    1.143    5.714    1.286    2.000    4.000 
#    2.571    0.000    0.000    0.000    0.000    0.000 
#    0.000    0.000    0.000    0.000    0.000    0.000 
#
# Total GULP energy -347094.328284 kJ/mol
# GULP energy per Si atom -12396.226010 kJ/mol
# Density = 2.037005 g / cm^3
# Si number density = 20.416514 Si / 1000 Ang^3
#
#
#
# Elastic Constant Matrix: (Units=GPa)
#
#
# Indices 1 2 3 4 5 6 
#
# 1 103.1016 56.3810 55.5197 0.0000 13.2983 0.0000
# 2 56.3810 116.3536 38.1498 0.0000 16.0854 0.0000
# 3 55.5197 38.1498 87.5632 0.0000 14.5151 0.0000
# 4 0.0000 0.0000 0.0000 23.4382 0.0000 -0.7328
# 5 13.2983 16.0854 14.5151 0.0000 31.0689 0.0000
# 6 0.0000 0.0000 0.0000 -0.7328 0.0000 30.5478
#
#
#
# Elastic Compliance Matrix: (Units=1/GPa)
#
#
# Indices 1 2 3 4 5 6 
#
# 1 0.017399 -0.005558 -0.008512 0.000000 -0.000593 0.000000
# 2 -0.005558 0.012148 -0.001214 0.000000 -0.003343 0.000000
# 3 -0.008512 -0.001214 0.018035 0.000000 -0.004154 0.000000
# 4 0.000000 0.000000 0.000000 0.042697 0.000000 0.001024
# 5 -0.000593 -0.003343 -0.004154 0.000000 0.036112 0.000000
# 6 0.000000 0.000000 0.000000 0.001024 0.000000 0.032760
#
#
# Mechanical properties :
#
#
# Convention : Reuss Voigt Hill
#
# Bulk Modulus (GPa) = 58.77844 67.45772 63.11808
# Shear Modulus (GPa) = 25.58979 27.47551 26.53265
#
# Velocity S-wave (km/s) = 3.54416 3.67243 3.60886
# Velocity P-wave (km/s) = 6.75280 7.14806 6.95324
#
# Compressibility (1/GPa) = 0.01701304
#
# Stress axis : x y z
#
# Youngs Moduli (GPa) = 57.47594 82.31769 55.44789
#
# Poissons Ratio (x) = 0.45752 0.47196
# Poissons Ratio (y) = 0.31945 0.06734
# Poissons Ratio (z) = 0.48923 0.09997
#
# Static dielectric constant tensor:
#      x y z
#    x 3.653160 0.000000 0.009160 
#    y 0.000000 3.606310 0.000000 
#    z 0.009160 0.000000 3.895630 
# 
# 
# High freq. dielectric constant tensor:
#      x y z
#    x 1.799780 0.000000 -0.001010 
#    y 0.000000 1.786960 0.000000 
#    z -0.001010 0.000000 1.808050 
# 
# From -- ./inp_files/25290.got.cif
#   From: 2010.03.12/outbox.cif.g09.slc.cpg/sg14_13_cif.got.tgz:25290.got - 2010.03.31 13:35:05.
