data_PCOD8126880
_publ_section_title
;
Structure prediction by ZEFSAII (Michael W. Deem and Ramdas Pophale) SiO2 
 PCOD8126880
Probable space group: P 21/C
;
_chemical_formula_sum "Si O2"
_cell_formula_units_Z 32
_cell_length_a 23.094971
_cell_length_b 10.307975
_cell_length_c 14.176000
_cell_angle_alpha 90.000000
_cell_angle_beta 24.303807
_cell_angle_gamma 90.000000
_cell_volume 1388.971646
_symmetry_space_group_name_H-M "P 21/C"
_symmetry_group_IT_number 14
_symmetry_cell_setting 'monoclinic'
loop_
_space_group_symop_operation_xyz
x,y,z
-x,1/2+y,1/2-z
-x,-y,-z
x,1/2-y,1/2+z
loop_
_atom_site_type_symbol
_atom_site_label
_atom_site_fract_x
_atom_site_fract_y
_atom_site_fract_z
Si Si1 0.830511 0.352011 0.618965
Si Si2 0.370226 0.668573 0.918474
Si Si3 0.872515 0.764303 0.770573
Si Si4 0.339475 0.372070 0.784231
Si Si5 0.428106 0.570710 0.432059
Si Si6 0.224786 0.650674 0.944399
Si Si7 0.803701 0.883167 0.677482
Si Si8 0.959161 0.529332 0.280202
O O1 0.742211 0.242929 0.693655
O O2 0.852187 0.468868 0.513906
O O3 0.977872 0.304428 0.442773
O O4 0.732655 0.393307 0.850652
O O5 0.485065 0.556761 0.730835
O O6 0.436545 0.807351 0.848739
O O7 0.278970 0.706548 0.962372
O O8 0.837975 0.789250 0.712928
O O9 0.868944 0.898463 0.833961
O O10 0.751577 0.671945 0.991121
O O11 0.502458 0.375121 0.572566
O O12 0.300348 0.302471 0.741988
O O13 0.297326 0.515657 0.815101
O O14 0.268778 0.518497 0.679422
O O15 0.055060 0.631279 0.196379
O O16 0.948409 0.918182 0.408569
#
# Coordination Sequence:
#
# PCOD8126880 Si02
#       8
#     4   4   4   4   4   4   4   4
#     4  11  23  42  67  98 142 169 218 283 349 399
#     4  11  25  44  71  96 138 180 230 280 335 405
#     4  11  22  38  67 104 133 167 226 276 337 404
#     4  10  21  44  62  94 132 172 226 269 335 399
#     4  11  24  46  68  99 132 184 239 271 331 406
#     4   9  21  41  64  93 129 179 210 269 346 402
#     4  11  22  40  70  94 131 184 218 278 331 405
#     4  10  22  41  63 102 132 171 218 277 343 410
#
# _framework density 23.038627000000002
#
# number of rings (size 3 to 8) (size 9 to 14) (size 15 to 20)
#    0.000    1.500    2.500    3.750    3.500    1.500 
#    6.750    0.625    0.000    0.000    0.000    0.000 
#    0.000    0.000    0.000    0.000    0.000    0.000 
#
# Total GULP energy -396586.196532 kJ/mol
# GULP energy per Si atom -12393.318642 kJ/mol
# Density = 2.298619 g / cm^3
# Si number density = 23.038627 Si / 1000 Ang^3
#
#
#
# Elastic Constant Matrix: (Units=GPa)
#
#
# Indices 1 2 3 4 5 6 
#
# 1 118.0361 18.7805 13.5831 0.0000 19.7060 0.0000
# 2 18.7805 48.5669 5.8350 0.0000 4.0269 0.0000
# 3 13.5831 5.8350 68.2628 0.0000 8.0540 0.0000
# 4 0.0000 0.0000 0.0000 25.5650 0.0000 2.6146
# 5 19.7060 4.0269 8.0540 0.0000 29.7195 0.0000
# 6 0.0000 0.0000 0.0000 2.6146 0.0000 31.9871
#
#
#
# Elastic Compliance Matrix: (Units=1/GPa)
#
#
# Indices 1 2 3 4 5 6 
#
# 1 0.010112 -0.003291 -0.001025 0.000000 -0.005981 0.000000
# 2 -0.003291 0.022044 -0.001172 0.000000 -0.000487 0.000000
# 3 -0.001025 -0.001172 0.015345 0.000000 -0.003320 0.000000
# 4 0.000000 0.000000 0.000000 0.039446 0.000000 -0.003224
# 5 -0.005981 -0.000487 -0.003320 0.000000 0.038580 0.000000
# 6 0.000000 0.000000 0.000000 -0.003224 0.000000 0.031526
#
#
# Mechanical properties :
#
#
# Convention : Reuss Voigt Hill
#
# Bulk Modulus (GPa) = 27.37864 34.58478 30.98171
# Shear Modulus (GPa) = 27.74627 30.56546 29.15587
#
# Velocity S-wave (km/s) = 3.47412 3.64635 3.56128
# Velocity P-wave (km/s) = 5.29172 5.72469 5.51246
#
# Compressibility (1/GPa) = 0.03652483
#
# Stress axis : x y z
#
# Youngs Moduli (GPa) = 98.89057 45.36373 65.16725
#
# Poissons Ratio (x) = 0.14930 0.06680
# Poissons Ratio (y) = 0.32547 0.07637
# Poissons Ratio (z) = 0.10137 0.05316
#
# Static dielectric constant tensor:
#      x y z
#    x 4.749190 0.000000 0.008270 
#    y 0.000000 4.020460 0.000000 
#    z 0.008270 0.000000 3.987600 
# 
# 
# High freq. dielectric constant tensor:
#      x y z
#    x 1.928840 0.000000 0.004330 
#    y 0.000000 1.890220 0.000000 
#    z 0.004330 0.000000 1.906100 
# 
# From -- ./inp_files/35238.got.cif
#   From: 2010.03.12/outbox.cif.g09.slc.cpg/sg14_18_cif.got.tgz:35238.got - 2010.03.31 13:35:05.
