data_PCOD8126793
_publ_section_title
;
Structure prediction by ZEFSAII (Michael W. Deem and Ramdas Pophale) SiO2 
 PCOD8126793
Probable space group: P 21/C
;
_chemical_formula_sum "Si O2"
_cell_formula_units_Z 24
_cell_length_a 14.524801
_cell_length_b 11.987104
_cell_length_c 14.720807
_cell_angle_alpha 90.000000
_cell_angle_beta 152.524169
_cell_angle_gamma 90.000000
_cell_volume 1182.522960
_symmetry_space_group_name_H-M "P 21/C"
_symmetry_group_IT_number 14
_symmetry_cell_setting 'monoclinic'
loop_
_space_group_symop_operation_xyz
x,y,z
-x,1/2+y,1/2-z
-x,-y,-z
x,1/2-y,1/2+z
loop_
_atom_site_type_symbol
_atom_site_label
_atom_site_fract_x
_atom_site_fract_y
_atom_site_fract_z
Si Si1 0.227216 0.689690 0.866877
Si Si2 0.837523 0.608392 0.785347
Si Si3 0.813546 0.266896 0.470959
Si Si4 0.473228 0.212808 0.525525
Si Si5 0.031370 0.107044 0.404937
Si Si6 0.135033 0.438124 0.799419
O O1 0.431675 0.691228 0.989560
O O2 0.123724 0.569249 0.772266
O O3 0.067868 0.771687 0.681548
O O4 0.277832 0.726251 0.013541
O O5 0.643180 0.669099 0.575505
O O6 0.854381 0.485653 0.755917
O O7 0.821099 0.597535 0.880020
O O8 0.039296 0.673364 0.937857
O O9 0.635537 0.285353 0.246059
O O10 0.928831 0.384051 0.583865
O O11 0.321763 0.111833 0.409036
O O12 0.163601 0.088791 0.431041
#
# Coordination Sequence:
#
# PCOD8126793 Si02
#       6
#     4   4   4   4   4   4
#     4  11  22  42  65  93 126 166 210 253 315 370
#     4  10  21  43  66  91 125 162 212 260 308 365
#     4  10  22  44  62  94 126 164 211 254 310 378
#     4  11  24  41  64  96 125 162 209 262 310 371
#     4  10  21  42  68  88 124 173 204 257 314 365
#     4  10  23  42  63  90 131 163 205 256 313 376
#
# _framework density 20.295590000000001
#
# number of rings (size 3 to 8) (size 9 to 14) (size 15 to 20)
#    0.000    1.667    3.333    0.500    2.333    1.333 
#    9.000    0.000    0.000    0.000    0.000    0.000 
#    0.000    0.000    0.000    0.000    0.000    0.000 
#
# Total GULP energy -297701.149014 kJ/mol
# GULP energy per Si atom -12404.214542 kJ/mol
# Density = 2.024940 g / cm^3
# Si number density = 20.295590 Si / 1000 Ang^3
#
#
#
# Elastic Constant Matrix: (Units=GPa)
#
#
# Indices 1 2 3 4 5 6 
#
# 1 128.9392 46.3946 38.2459 0.0000 4.7379 0.0000
# 2 46.3946 162.8256 47.6163 0.0000 8.9157 0.0000
# 3 38.2459 47.6163 107.2882 0.0000 -2.0748 0.0000
# 4 0.0000 0.0000 0.0000 21.2408 0.0000 -1.4099
# 5 4.7379 8.9157 -2.0748 0.0000 22.2735 0.0000
# 6 0.0000 0.0000 0.0000 -1.4099 0.0000 28.0102
#
#
#
# Elastic Compliance Matrix: (Units=1/GPa)
#
#
# Indices 1 2 3 4 5 6 
#
# 1 0.009204 -0.001809 -0.002506 0.000000 -0.001467 0.000000
# 2 -0.001809 0.007637 -0.002801 0.000000 -0.002933 0.000000
# 3 -0.002506 -0.002801 0.011510 0.000000 0.002727 0.000000
# 4 0.000000 0.000000 0.000000 0.047237 0.000000 0.002378
# 5 -0.001467 -0.002933 0.002727 0.000000 0.046636 0.000000
# 6 0.000000 0.000000 0.000000 0.002378 0.000000 0.035821
#
#
# Mechanical properties :
#
#
# Convention : Reuss Voigt Hill
#
# Bulk Modulus (GPa) = 70.83493 73.72964 72.28229
# Shear Modulus (GPa) = 28.25107 32.09132 30.17119
#
# Velocity S-wave (km/s) = 3.73497 3.98074 3.85981
# Velocity P-wave (km/s) = 7.31966 7.58519 7.45361
#
# Compressibility (1/GPa) = 0.01411733
#
# Stress axis : x y z
#
# Youngs Moduli (GPa) = 108.64906 130.94501 86.88041
#
# Poissons Ratio (x) = 0.23691 0.21776
# Poissons Ratio (y) = 0.19657 0.24336
# Poissons Ratio (z) = 0.27232 0.36679
#
# Static dielectric constant tensor:
#      x y z
#    x 4.045900 0.000000 -0.073800 
#    y 0.000000 3.830610 0.000000 
#    z -0.073800 0.000000 3.301230 
# 
# 
# High freq. dielectric constant tensor:
#      x y z
#    x 1.813650 0.000000 -0.008920 
#    y 0.000000 1.805720 0.000000 
#    z -0.008920 0.000000 1.764720 
# 
# From -- ./inp_files/46866.got.cif
#   From: 2010.03.12/outbox.cif.g09.slc.cpg/sg14_24_cif.got.tgz:46866.got - 2010.03.31 13:35:05.
