data_PCOD8126994
_publ_section_title
;
Structure prediction by ZEFSAII (Michael W. Deem and Ramdas Pophale) SiO2 
 PCOD8126994
Probable space group: P 21/C
;
_chemical_formula_sum "Si O2"
_cell_formula_units_Z 24
_cell_length_a 8.857623
_cell_length_b 8.615676
_cell_length_c 20.606799
_cell_angle_alpha 90.000000
_cell_angle_beta 127.016803
_cell_angle_gamma 90.000000
_cell_volume 1255.653167
_symmetry_space_group_name_H-M "P 21/C"
_symmetry_group_IT_number 14
_symmetry_cell_setting 'monoclinic'
loop_
_space_group_symop_operation_xyz
x,y,z
-x,1/2+y,1/2-z
-x,-y,-z
x,1/2-y,1/2+z
loop_
_atom_site_type_symbol
_atom_site_label
_atom_site_fract_x
_atom_site_fract_y
_atom_site_fract_z
Si Si1 0.735103 0.841670 0.840463
Si Si2 0.846959 0.190156 0.067558
Si Si3 0.478915 0.462029 0.187497
Si Si4 0.128700 0.857079 0.555899
Si Si5 0.805330 0.855540 0.006842
Si Si6 0.461564 0.865519 0.439442
O O1 0.589300 0.700874 0.801908
O O2 0.779105 0.901637 0.924511
O O3 0.931556 0.785376 0.859199
O O4 0.646659 0.981399 0.776926
O O5 0.726649 0.266618 0.094121
O O6 0.787084 0.273572 0.985540
O O7 0.806497 0.006798 0.051846
O O8 0.303833 0.582195 0.143398
O O9 0.562154 0.441454 0.137146
O O10 0.002738 0.738028 0.565598
O O11 0.000000 0.000000 0.500000
O O12 0.638376 0.748552 0.988759
O O13 0.500000 0.000000 0.500000
#
# Coordination Sequence:
#
# PCOD8126994 Si02
#       6
#     4   4   4   4   4   4
#     4  10  23  38  59  88 120 153 200 252 291 360
#     4  11  21  38  62  88 123 151 204 245 296 359
#     4  11  23  38  60  89 120 154 202 246 311 342
#     4  11  17  37  62  88 111 152 202 248 281 352
#     4  10  22  37  62  93 116 155 204 246 302 342
#     4  11  21  39  61  86 119 159 198 242 302 367
#
# _framework density 19.113557
#
# number of rings (size 3 to 8) (size 9 to 14) (size 15 to 20)
#    0.000    1.333    6.667    2.500    4.667    0.000 
#    0.000    5.000    0.000    0.000    0.000    0.000 
#    0.000    0.000    0.000    0.000    0.000    0.000 
#
# Total GULP energy -297662.129294 kJ/mol
# GULP energy per Si atom -12402.588721 kJ/mol
# Density = 1.907005 g / cm^3
# Si number density = 19.113557 Si / 1000 Ang^3
#
#
#
# Elastic Constant Matrix: (Units=GPa)
#
#
# Indices 1 2 3 4 5 6 
#
# 1 131.9931 44.0386 39.3235 0.0000 4.1655 0.0000
# 2 44.0386 95.8532 34.6455 0.0000 -10.4259 0.0000
# 3 39.3235 34.6455 66.9110 0.0000 4.7715 0.0000
# 4 0.0000 0.0000 0.0000 39.8972 0.0000 1.7413
# 5 4.1655 -10.4259 4.7715 0.0000 16.3569 0.0000
# 6 0.0000 0.0000 0.0000 1.7413 0.0000 34.0410
#
#
#
# Elastic Compliance Matrix: (Units=1/GPa)
#
#
# Indices 1 2 3 4 5 6 
#
# 1 0.010032 -0.003680 -0.003718 0.000000 -0.003816 0.000000
# 2 -0.003680 0.016158 -0.007154 0.000000 0.013323 0.000000
# 3 -0.003718 -0.007154 0.021540 0.000000 -0.009896 0.000000
# 4 0.000000 0.000000 0.000000 0.025120 0.000000 -0.001285
# 5 -0.003816 0.013323 -0.009896 0.000000 0.073487 0.000000
# 6 0.000000 0.000000 0.000000 -0.001285 0.000000 0.029442
#
#
# Mechanical properties :
#
#
# Convention : Reuss Voigt Hill
#
# Bulk Modulus (GPa) = 53.68751 58.97471 56.33111
# Shear Modulus (GPa) = 23.68614 29.84234 26.76424
#
# Velocity S-wave (km/s) = 3.52409 3.95564 3.74608
# Velocity P-wave (km/s) = 6.68645 7.19616 6.94598
#
# Compressibility (1/GPa) = 0.01862630
#
# Stress axis : x y z
#
# Youngs Moduli (GPa) = 99.67882 61.88756 46.42491
#
# Poissons Ratio (x) = 0.22777 0.17262
# Poissons Ratio (y) = 0.36685 0.33211
# Poissons Ratio (z) = 0.37062 0.44272
#
# Static dielectric constant tensor:
#      x y z
#    x 3.730000 0.000000 0.255370 
#    y 0.000000 3.714030 0.000000 
#    z 0.255370 0.000000 3.386620 
# 
# 
# High freq. dielectric constant tensor:
#      x y z
#    x 1.745690 0.000000 0.017280 
#    y 0.000000 1.763010 0.000000 
#    z 0.017280 0.000000 1.713340 
# 
# From -- ./inp_files/54470.got.cif
#   From: 2010.03.12/outbox.cif.g09.slc.cpg/sg14_28_cif.got.tgz:54470.got - 2010.03.31 13:35:05.
