data_PCOD8126313
_publ_section_title
;
Structure prediction by ZEFSAII (Michael W. Deem and Ramdas Pophale) SiO2 
 PCOD8126313
Probable space group: P 21/C
;
_chemical_formula_sum "Si O2"
_cell_formula_units_Z 20
_cell_length_a 8.004244
_cell_length_b 7.770111
_cell_length_c 13.607338
_cell_angle_alpha 90.000000
_cell_angle_beta 76.739026
_cell_angle_gamma 90.000000
_cell_volume 823.726822
_symmetry_space_group_name_H-M "P 21/C"
_symmetry_group_IT_number 14
_symmetry_cell_setting 'monoclinic'
loop_
_space_group_symop_operation_xyz
x,y,z
-x,1/2+y,1/2-z
-x,-y,-z
x,1/2-y,1/2+z
loop_
_atom_site_type_symbol
_atom_site_label
_atom_site_fract_x
_atom_site_fract_y
_atom_site_fract_z
Si Si1 0.447773 0.329249 0.360627
Si Si2 0.711100 0.036952 0.669681
Si Si3 0.901726 0.983623 0.115472
Si Si4 0.646153 0.141246 0.474983
Si Si5 0.033377 0.637976 0.198555
O O1 0.363967 0.145618 0.351384
O O2 0.583406 0.367906 0.258702
O O3 0.299397 0.471946 0.384600
O O4 0.554090 0.317334 0.449382
O O5 0.894683 0.011344 0.695683
O O6 0.732395 0.161020 0.570737
O O7 0.965796 0.818154 0.167288
O O8 0.932588 0.142772 0.187143
O O9 0.000000 0.000000 0.000000
O O10 0.790423 0.082390 0.377817
O O11 0.500000 0.000000 0.500000
#
# Coordination Sequence:
#
# PCOD8126313 Si02
#       5
#     4   4   4   4   4
#     4  10  22  41  66  96 129 171 221 276 336 405
#     4  10  22  40  64  95 132 175 223 277 336 400
#     4  11  26  45  68 100 137 178 227 283 339 401
#     4  10  21  39  64  93 128 172 221 275 334 398
#     4  11  24  43  68  98 134 178 227 279 337 404
#
# _framework density 24.279893999999999
#
# number of rings (size 3 to 8) (size 9 to 14) (size 15 to 20)
#    0.000    1.600    0.000    4.200    0.000   12.800 
#    0.000    3.000    0.000    0.000    0.000    0.000 
#    0.000    0.000    0.000    0.000    0.000    0.000 
#
# Total GULP energy -247941.831166 kJ/mol
# GULP energy per Si atom -12397.091558 kJ/mol
# Density = 2.422463 g / cm^3
# Si number density = 24.279894 Si / 1000 Ang^3
#
#
#
# Elastic Constant Matrix: (Units=GPa)
#
#
# Indices 1 2 3 4 5 6 
#
# 1 157.7129 12.3335 79.2376 0.0000 -2.7474 0.0000
# 2 12.3335 31.4569 32.4666 0.0000 3.3415 0.0000
# 3 79.2376 32.4666 175.9045 0.0000 7.9808 0.0000
# 4 0.0000 0.0000 0.0000 35.6276 0.0000 -5.6258
# 5 -2.7474 3.3415 7.9808 0.0000 55.2300 0.0000
# 6 0.0000 0.0000 0.0000 -5.6258 0.0000 1.1056
#
#
#
# Elastic Compliance Matrix: (Units=1/GPa)
#
#
# Indices 1 2 3 4 5 6 
#
# 1 0.008256 0.000675 -0.003886 0.000000 0.000931 0.000000
# 2 0.000675 0.039424 -0.007523 0.000000 -0.001265 0.000000
# 3 -0.003886 -0.007523 0.008870 0.000000 -0.001020 0.000000
# 4 0.000000 0.000000 0.000000 0.142834 0.000000 0.726794
# 5 0.000931 -0.001265 -0.001020 0.000000 0.018376 0.000000
# 6 0.000000 0.000000 0.000000 0.726794 0.000000 4.602672
#
#
# Mechanical properties :
#
#
# Convention : Reuss Voigt Hill
#
# Bulk Modulus (GPa) = 28.50480 68.12774 48.31627
# Shear Modulus (GPa) = 1.03016 34.46175 17.74596
#
# Velocity S-wave (km/s) = 0.65208 3.77152 2.70643
# Velocity P-wave (km/s) = 3.51177 6.86193 5.45062
#
# Compressibility (1/GPa) = 0.03508181
#
# Stress axis : x y z
#
# Youngs Moduli (GPa) = 121.11703 25.36539 112.73782
#
# Poissons Ratio (x) = -0.01711 0.43809
# Poissons Ratio (y) = -0.08170 0.84812
# Poissons Ratio (z) = 0.47066 0.19082
#
# Static dielectric constant tensor:
#      x y z
#    x 5.122160 0.000000 0.617710 
#    y 0.000000 4.318160 0.000000 
#    z 0.617710 0.000000 4.954120 
# 
# 
# High freq. dielectric constant tensor:
#      x y z
#    x 1.990240 0.000000 0.013150 
#    y 0.000000 1.956990 0.000000 
#    z 0.013150 0.000000 1.971610 
# 
# From -- ./inp_files/23032.got.cif
#   From: 2010.03.12/outbox.cif.g09.slc.cpg/sg14_12_cif.got.tgz:23032.got - 2010.03.31 13:35:05.
