data_PCOD8126523
_publ_section_title
;
Structure prediction by ZEFSAII (Michael W. Deem and Ramdas Pophale) SiO2 
 PCOD8126523
Probable space group: P 21/C
;
_chemical_formula_sum "Si O2"
_cell_formula_units_Z 28
_cell_length_a 9.380416
_cell_length_b 19.781197
_cell_length_c 15.641494
_cell_angle_alpha 90.000000
_cell_angle_beta 152.059126
_cell_angle_gamma 90.000000
_cell_volume 1359.935340
_symmetry_space_group_name_H-M "P 21/C"
_symmetry_group_IT_number 14
_symmetry_cell_setting 'monoclinic'
loop_
_space_group_symop_operation_xyz
x,y,z
-x,1/2+y,1/2-z
-x,-y,-z
x,1/2-y,1/2+z
loop_
_atom_site_type_symbol
_atom_site_label
_atom_site_fract_x
_atom_site_fract_y
_atom_site_fract_z
Si Si1 0.829075 0.206053 0.872777
Si Si2 0.525342 0.667888 0.330038
Si Si3 0.380767 0.445395 0.871860
Si Si4 0.602037 0.679342 0.559517
Si Si5 0.285153 0.599378 0.535794
Si Si6 0.645986 0.520076 0.322724
Si Si7 0.696311 0.183767 0.611771
O O1 0.735083 0.283310 0.848035
O O2 0.787771 0.155229 0.930270
O O3 0.656726 0.180308 0.694518
O O4 0.177472 0.212305 0.030759
O O5 0.451753 0.656908 0.390671
O O6 0.575740 0.594073 0.320344
O O7 0.508102 0.477573 0.851472
O O8 0.018588 0.431039 0.670112
O O9 0.500000 0.500000 0.000000
O O10 0.530443 0.376177 0.976850
O O11 0.510827 0.626655 0.583819
O O12 0.467844 0.751336 0.514664
O O13 0.960665 0.683189 0.738645
O O14 0.482220 0.538494 0.683572
O O15 0.000000 0.500000 0.500000
#
# Coordination Sequence:
#
# PCOD8126523 Si02
#       7
#     4   4   4   4   4   4   4
#     4  10  21  40  67  94 126 172 216 270 319 394
#     4  10  21  41  66  94 128 171 217 266 329 389
#     4  11  23  39  68  95 129 173 218 266 324 405
#     4  10  23  39  68  95 130 168 213 277 322 388
#     4  11  23  41  68  94 129 173 222 270 330 389
#     4  10  21  41  66  93 127 178 218 262 330 397
#     4  10  22  42  63  96 129 170 220 264 334 390
#
# _framework density 20.589213000000001
#
# number of rings (size 3 to 8) (size 9 to 14) (size 15 to 20)
#    0.000    1.714    2.857    1.714    8.000    2.857 
#    0.000    0.714    0.000    0.000    0.000    0.000 
#    0.000    0.000    0.000    0.000    0.000    0.000 
#
# Total GULP energy -346875.940030 kJ/mol
# GULP energy per Si atom -12388.426430 kJ/mol
# Density = 2.054235 g / cm^3
# Si number density = 20.589213 Si / 1000 Ang^3
#
#
#
# Elastic Constant Matrix: (Units=GPa)
#
#
# Indices 1 2 3 4 5 6 
#
# 1 119.9786 82.9675 47.2603 0.0000 -11.4776 0.0000
# 2 82.9675 175.0503 59.5478 0.0000 -17.0349 0.0000
# 3 47.2603 59.5478 55.2464 0.0000 -18.2469 0.0000
# 4 0.0000 0.0000 0.0000 41.2571 0.0000 -6.9378
# 5 -11.4776 -17.0349 -18.2469 0.0000 25.0830 0.0000
# 6 0.0000 0.0000 0.0000 -6.9378 0.0000 58.0836
#
#
#
# Elastic Compliance Matrix: (Units=1/GPa)
#
#
# Indices 1 2 3 4 5 6 
#
# 1 0.014347 -0.004084 -0.008712 0.000000 -0.002546 0.000000
# 2 -0.004084 0.010212 -0.007687 0.000000 -0.000525 0.000000
# 3 -0.008712 -0.007687 0.040538 0.000000 0.020283 0.000000
# 4 0.000000 0.000000 0.000000 0.024735 0.000000 0.002954
# 5 -0.002546 -0.000525 0.020283 0.000000 0.053101 0.000000
# 6 0.000000 0.000000 0.000000 0.002954 0.000000 0.017569
#
#
# Mechanical properties :
#
#
# Convention : Reuss Voigt Hill
#
# Bulk Modulus (GPa) = 41.44081 81.09183 61.26632
# Shear Modulus (GPa) = 23.86485 35.58474 29.72479
#
# Velocity S-wave (km/s) = 3.40824 4.16182 3.80374
# Velocity P-wave (km/s) = 5.97154 7.90983 7.00802
#
# Compressibility (1/GPa) = 0.02413080
#
# Stress axis : x y z
#
# Youngs Moduli (GPa) = 69.69927 97.92176 24.66815
#
# Poissons Ratio (x) = 0.39994 0.21491
# Poissons Ratio (y) = 0.28467 0.18962
# Poissons Ratio (z) = 0.60723 0.75272
#
# Static dielectric constant tensor:
#      x y z
#    x 3.974130 0.000000 -0.312090 
#    y 0.000000 3.364180 0.000000 
#    z -0.312090 0.000000 4.063980 
# 
# 
# High freq. dielectric constant tensor:
#      x y z
#    x 1.810850 0.000000 -0.017260 
#    y 0.000000 1.817920 0.000000 
#    z -0.017260 0.000000 1.790920 
# 
# From -- ./inp_files/16827.got.cif
#   From: 2010.03.12/outbox.cif.g09.slc.cpg/sg14_9_cif.got.tgz:16827.got - 2010.03.31 13:35:05.
