data_PCOD8126318
_publ_section_title
;
Structure prediction by ZEFSAII (Michael W. Deem and Ramdas Pophale) SiO2 
 PCOD8126318
Probable space group: P 21/C
;
_chemical_formula_sum "Si O2"
_cell_formula_units_Z 32
_cell_length_a 23.555491
_cell_length_b 5.376892
_cell_length_c 13.040258
_cell_angle_alpha 90.000000
_cell_angle_beta 113.403788
_cell_angle_gamma 90.000000
_cell_volume 1515.736869
_symmetry_space_group_name_H-M "P 21/C"
_symmetry_group_IT_number 14
_symmetry_cell_setting 'monoclinic'
loop_
_space_group_symop_operation_xyz
x,y,z
-x,1/2+y,1/2-z
-x,-y,-z
x,1/2-y,1/2+z
loop_
_atom_site_type_symbol
_atom_site_label
_atom_site_fract_x
_atom_site_fract_y
_atom_site_fract_z
Si Si1 0.074581 0.489576 0.851990
Si Si2 0.702947 0.435318 0.876403
Si Si3 0.426387 0.163276 0.716530
Si Si4 0.213294 0.054367 0.387322
Si Si5 0.254637 0.537193 0.317338
Si Si6 0.638837 0.434225 0.464123
Si Si7 0.478171 0.639790 0.082696
Si Si8 0.018711 0.509343 0.395743
O O1 0.147414 0.492463 0.890143
O O2 0.056876 0.737456 0.902742
O O3 0.042602 0.491597 0.717799
O O4 0.057978 0.238496 0.901127
O O5 0.635491 0.524978 0.796280
O O6 0.743857 0.424714 0.803782
O O7 0.690745 0.171581 0.922648
O O8 0.737653 0.607681 0.985426
O O9 0.405775 0.392855 0.632180
O O10 0.462791 0.187186 0.850132
O O11 0.476382 0.024495 0.683194
O O12 0.210862 0.300180 0.313045
O O13 0.230721 0.802687 0.339904
O O14 0.321796 0.459549 0.412109
O O15 0.591152 0.241884 0.483179
O O16 0.500000 0.500000 0.000000
O O17 0.000000 0.500000 0.500000
#
# Coordination Sequence:
#
# PCOD8126318 Si02
#       8
#     4   4   4   4   4   4   4   4
#     4  10  22  39  63  93 136 163 211 266 298 357
#     4  10  25  40  63  84 119 163 200 261 312 368
#     4  11  22  41  56  84 116 147 200 252 310 375
#     4  11  24  43  62  98 125 164 215 258 304 369
#     4  11  25  41  66  88 123 166 209 252 318 371
#     4  10  23  42  56  85 119 150 204 256 309 380
#     4  11  25  37  61  86 113 155 198 255 322 382
#     4  10  21  39  64  96 129 177 208 250 313 362
#
# _framework density 21.111843
#
# number of rings (size 3 to 8) (size 9 to 14) (size 15 to 20)
#    0.000    1.500    2.500    1.125    5.250    2.500 
#    0.000    0.000    0.000    0.000    0.000    0.000 
#    0.000    0.000    0.000    0.000    0.000    0.000 
#
# Total GULP energy -396501.156026 kJ/mol
# GULP energy per Si atom -12390.661126 kJ/mol
# Density = 2.106379 g / cm^3
# Si number density = 21.111843 Si / 1000 Ang^3
#
#
#
# Elastic Constant Matrix: (Units=GPa)
#
#
# Indices 1 2 3 4 5 6 
#
# 1 75.5538 19.1164 36.4007 0.0000 -19.6241 0.0000
# 2 19.1164 109.7805 23.4075 0.0000 -20.4139 0.0000
# 3 36.4007 23.4075 68.9698 0.0000 -23.4722 0.0000
# 4 0.0000 0.0000 0.0000 -6.9114 0.0000 61.1432
# 5 -19.6241 -20.4139 -23.4722 0.0000 30.3722 0.0000
# 6 0.0000 0.0000 0.0000 61.1432 0.0000 -101.1714
#
#
#
# Elastic Compliance Matrix: (Units=1/GPa)
#
#
# Indices 1 2 3 4 5 6 
#
# 1 0.018545 -0.000535 -0.007667 0.000000 0.005697 0.000000
# 2 -0.000535 0.010551 -0.001361 0.000000 0.005695 0.000000
# 3 -0.007667 -0.001361 0.023081 0.000000 0.011969 0.000000
# 4 0.000000 0.000000 0.000000 0.033288 0.000000 0.020118
# 5 0.005697 0.005695 0.011969 0.000000 0.049683 0.000000
# 6 0.000000 0.000000 0.000000 0.020118 0.000000 0.002274
#
#
# Mechanical properties :
#
#
# Convention : Reuss Voigt Hill
#
# Bulk Modulus (GPa) = 30.25590 45.79480 38.02535
# Shear Modulus (GPa) = 29.83936 -3.85013 12.99461
#
# Velocity S-wave (km/s) = 3.76359 -1.35190 2.48365
# Velocity P-wave (km/s) = 5.76615 4.39338 5.12593
#
# Compressibility (1/GPa) = 0.03305141
#
# Stress axis : x y z
#
# Youngs Moduli (GPa) = 53.92418 94.77529 43.32649
#
# Poissons Ratio (x) = 0.05071 0.33218
# Poissons Ratio (y) = 0.02885 0.05895
# Poissons Ratio (z) = 0.41343 0.12895
#
# Static dielectric constant tensor:
#      x y z
#    x 3.755550 0.000000 0.001230 
#    y 0.000000 4.042260 0.000000 
#    z 0.001230 0.000000 3.498420 
# 
# 
# High freq. dielectric constant tensor:
#      x y z
#    x 1.828800 0.000000 0.001340 
#    y 0.000000 1.831210 0.000000 
#    z 0.001340 0.000000 1.828460 
# 
# From -- ./inp_files/35601.got.cif
#   From: 2010.03.12/outbox.cif.g09.slc.cpg/sg14_18_cif.got.tgz:35601.got - 2010.03.31 13:35:05.
