data_PCOD8126308
_publ_section_title
;
Structure prediction by ZEFSAII (Michael W. Deem and Ramdas Pophale) SiO2 
 PCOD8126308
Probable space group: P 21/C
;
_chemical_formula_sum "Si O2"
_cell_formula_units_Z 32
_cell_length_a 22.465061
_cell_length_b 9.398664
_cell_length_c 14.632539
_cell_angle_alpha 90.000000
_cell_angle_beta 26.258148
_cell_angle_gamma 90.000000
_cell_volume 1366.861360
_symmetry_space_group_name_H-M "P 21/C"
_symmetry_group_IT_number 14
_symmetry_cell_setting 'monoclinic'
loop_
_space_group_symop_operation_xyz
x,y,z
-x,1/2+y,1/2-z
-x,-y,-z
x,1/2-y,1/2+z
loop_
_atom_site_type_symbol
_atom_site_label
_atom_site_fract_x
_atom_site_fract_y
_atom_site_fract_z
Si Si1 0.085414 0.594144 0.117220
Si Si2 0.754020 0.659289 0.170718
Si Si3 0.630397 0.312635 0.275733
Si Si4 0.132269 0.865366 0.757722
Si Si5 0.465412 0.957195 0.931917
Si Si6 0.337143 0.620695 0.423431
Si Si7 0.795766 0.667361 0.446705
Si Si8 0.843817 0.661232 0.708223
O O1 0.074228 0.576135 0.241485
O O2 0.951412 0.662447 0.261693
O O3 0.117405 0.443445 0.024355
O O4 0.210117 0.702513 0.925870
O O5 0.637137 0.573072 0.383095
O O6 0.797223 0.791237 0.173053
O O7 0.710717 0.735861 0.135054
O O8 0.551219 0.314490 0.482060
O O9 0.610139 0.467036 0.249957
O O10 0.579645 0.190751 0.275695
O O11 0.233739 0.733583 0.609200
O O12 0.203418 0.998495 0.710277
O O13 0.005353 0.819265 0.993779
O O14 0.441066 0.926428 0.859254
O O15 0.260069 0.490848 0.484348
O O16 0.775680 0.736917 0.376053
#
# Coordination Sequence:
#
# PCOD8126308 Si02
#       8
#     4   4   4   4   4   4   4   4
#     4  10  21  39  64  91 135 175 205 274 331 390
#     4  11  22  40  62  96 131 177 215 275 332 388
#     4   9  23  45  67  93 132 176 221 272 331 395
#     4  10  22  38  59  93 137 175 213 262 341 392
#     4  10  22  48  70  93 133 184 221 272 343 383
#     4  11  24  43  70 104 126 172 229 281 327 407
#     4  12  24  37  68 103 135 172 227 270 337 413
#     4  11  22  38  59  96 139 174 211 265 333 415
#
# _framework density 23.411297999999999
#
# number of rings (size 3 to 8) (size 9 to 14) (size 15 to 20)
#    0.000    1.500    3.750    0.750    5.250    2.000 
#   11.250    0.625    0.000    0.000    0.000    0.000 
#    0.000    0.000    0.000    0.000    0.000    0.000 
#
# Total GULP energy -396644.448303 kJ/mol
# GULP energy per Si atom -12395.139009 kJ/mol
# Density = 2.335801 g / cm^3
# Si number density = 23.411298 Si / 1000 Ang^3
#
#
#
# Elastic Constant Matrix: (Units=GPa)
#
#
# Indices 1 2 3 4 5 6 
#
# 1 94.2342 4.4687 4.0965 0.0000 16.7854 0.0000
# 2 4.4687 87.9364 13.7837 0.0000 18.7046 0.0000
# 3 4.0965 13.7837 45.9203 0.0000 8.4637 0.0000
# 4 0.0000 0.0000 0.0000 33.6527 0.0000 11.3820
# 5 16.7854 18.7046 8.4637 0.0000 31.0267 0.0000
# 6 0.0000 0.0000 0.0000 11.3820 0.0000 42.3624
#
#
#
# Elastic Compliance Matrix: (Units=1/GPa)
#
#
# Indices 1 2 3 4 5 6 
#
# 1 0.011801 0.000875 -0.000044 0.000000 -0.006900 0.000000
# 2 0.000875 0.013410 -0.002660 0.000000 -0.007832 0.000000
# 3 -0.000044 -0.002660 0.023459 0.000000 -0.004772 0.000000
# 4 0.000000 0.000000 0.000000 0.032686 0.000000 -0.008782
# 5 -0.006900 -0.007832 -0.004772 0.000000 0.041987 0.000000
# 6 0.000000 0.000000 0.000000 -0.008782 0.000000 0.025965
#
#
# Mechanical properties :
#
#
# Convention : Reuss Voigt Hill
#
# Bulk Modulus (GPa) = 22.21578 30.30986 26.26282
# Shear Modulus (GPa) = 29.76732 35.12448 32.44590
#
# Velocity S-wave (km/s) = 3.56967 3.87760 3.72682
# Velocity P-wave (km/s) = 5.14781 5.74652 5.45539
#
# Compressibility (1/GPa) = 0.04501306
#
# Stress axis : x y z
#
# Youngs Moduli (GPa) = 84.73625 74.56986 42.62810
#
# Poissons Ratio (x) = -0.06523 0.00186
# Poissons Ratio (y) = -0.07413 0.11338
# Poissons Ratio (z) = 0.00370 0.19834
#
# Static dielectric constant tensor:
#      x y z
#    x 4.211470 0.000000 0.205360 
#    y 0.000000 4.174770 0.000000 
#    z 0.205360 0.000000 4.274740 
# 
# 
# High freq. dielectric constant tensor:
#      x y z
#    x 1.924080 0.000000 0.013130 
#    y 0.000000 1.919400 0.000000 
#    z 0.013130 0.000000 1.923100 
# 
# From -- ./inp_files/51340.got.cif
#   From: 2010.03.12/outbox.cif.g09.slc.cpg/sg14_26_cif.got.tgz:51340.got - 2010.03.31 13:35:05.
