data_PCOD8126472
_publ_section_title
;
Structure prediction by ZEFSAII (Michael W. Deem and Ramdas Pophale) SiO2 
 PCOD8126472
Probable space group: P 21/C
;
_chemical_formula_sum "Si O2"
_cell_formula_units_Z 24
_cell_length_a 11.084100
_cell_length_b 8.751071
_cell_length_c 9.719023
_cell_angle_alpha 90.000000
_cell_angle_beta 80.100540
_cell_angle_gamma 90.000000
_cell_volume 928.687067
_symmetry_space_group_name_H-M "P 21/C"
_symmetry_group_IT_number 14
_symmetry_cell_setting 'monoclinic'
loop_
_space_group_symop_operation_xyz
x,y,z
-x,1/2+y,1/2-z
-x,-y,-z
x,1/2-y,1/2+z
loop_
_atom_site_type_symbol
_atom_site_label
_atom_site_fract_x
_atom_site_fract_y
_atom_site_fract_z
Si Si1 0.575064 0.136937 0.552724
Si Si2 0.960940 0.425216 0.174519
Si Si3 0.738483 0.395084 0.433914
Si Si4 0.333864 0.284252 0.641244
Si Si5 0.237112 0.090710 0.419855
Si Si6 0.075273 0.902303 0.879727
O O1 0.648938 0.248196 0.432029
O O2 0.474088 0.239972 0.650337
O O3 0.500000 0.000000 0.500000
O O4 0.673509 0.054274 0.632857
O O5 0.848191 0.394780 0.302732
O O6 0.903988 0.529996 0.059748
O O7 0.999441 0.257938 0.115817
O O8 0.071417 0.514248 0.230531
O O9 0.664087 0.552771 0.435571
O O10 0.789373 0.382976 0.582616
O O11 0.264529 0.158314 0.563098
O O12 0.258269 0.283744 0.797855
O O13 0.000000 0.000000 0.000000
#
# Coordination Sequence:
#
# PCOD8126472 Si02
#       6
#     4   4   4   4   4   4
#     4  10  21  40  64  95 133 180 226 272 340 404
#     4  10  22  42  69  97 131 175 224 283 350 411
#     4  10  21  42  63  95 138 173 221 284 340 408
#     4  10  23  40  66  99 136 181 230 275 339 413
#     4  10  22  43  64  98 140 177 232 278 342 406
#     4  10  22  43  68  95 129 169 227 279 347 408
#
# _framework density 25.842934
#
# number of rings (size 3 to 8) (size 9 to 14) (size 15 to 20)
#    0.000    2.000    1.667    0.500    2.333    6.667 
#    6.000    3.333    0.000    0.000    0.000    0.000 
#    0.000    0.000    0.000    0.000    0.000    0.000 
#
# Total GULP energy -297501.285409 kJ/mol
# GULP energy per Si atom -12395.886892 kJ/mol
# Density = 2.578411 g / cm^3
# Si number density = 25.842934 Si / 1000 Ang^3
#
#
#
# Elastic Constant Matrix: (Units=GPa)
#
#
# Indices 1 2 3 4 5 6 
#
# 1 99.9632 39.7269 15.5440 0.0000 12.8452 0.0000
# 2 39.7269 148.9552 22.3833 0.0000 7.8425 0.0000
# 3 15.5440 22.3833 46.2394 0.0000 23.3378 0.0000
# 4 0.0000 0.0000 0.0000 46.9300 0.0000 6.0463
# 5 12.8452 7.8425 23.3378 0.0000 33.4293 0.0000
# 6 0.0000 0.0000 0.0000 6.0463 0.0000 50.4632
#
#
#
# Elastic Compliance Matrix: (Units=1/GPa)
#
#
# Indices 1 2 3 4 5 6 
#
# 1 0.011673 -0.002800 -0.000982 0.000000 -0.003143 0.000000
# 2 -0.002800 0.007941 -0.003869 0.000000 0.001914 0.000000
# 3 -0.000982 -0.003869 0.035793 0.000000 -0.023703 0.000000
# 4 0.000000 0.000000 0.000000 0.021642 0.000000 -0.002593
# 5 -0.003143 0.001914 -0.023703 0.000000 0.047220 0.000000
# 6 0.000000 0.000000 0.000000 -0.002593 0.000000 0.020127
#
#
# Mechanical properties :
#
#
# Convention : Reuss Voigt Hill
#
# Bulk Modulus (GPa) = 24.93504 50.05179 37.49342
# Shear Modulus (GPa) = 28.89066 40.66474 34.77770
#
# Velocity S-wave (km/s) = 3.34718 3.97108 3.67240
# Velocity P-wave (km/s) = 4.96062 6.35891 5.70278
#
# Compressibility (1/GPa) = 0.04010420
#
# Stress axis : x y z
#
# Youngs Moduli (GPa) = 85.66704 125.93182 27.93871
#
# Poissons Ratio (x) = 0.35263 0.02745
# Poissons Ratio (y) = 0.23988 0.10808
# Poissons Ratio (z) = 0.08416 0.48717
#
# Static dielectric constant tensor:
#      x y z
#    x 5.458960 0.000000 0.632810 
#    y 0.000000 5.223670 0.000000 
#    z 0.632810 0.000000 4.706220 
# 
# 
# High freq. dielectric constant tensor:
#      x y z
#    x 2.040590 0.000000 0.014930 
#    y 0.000000 2.051040 0.000000 
#    z 0.014930 0.000000 2.019060 
# 
# From -- ./inp_files/28117.got.cif
#   From: 2010.03.12/outbox.cif.g09.slc.cpg/sg14_15_cif.got.tgz:28117.got - 2010.03.31 13:35:05.
