data_PCOD8126570
_publ_section_title
;
Structure prediction by ZEFSAII (Michael W. Deem and Ramdas Pophale) SiO2 
 PCOD8126570
Probable space group: P 21/C
;
_chemical_formula_sum "Si O2"
_cell_formula_units_Z 28
_cell_length_a 13.709002
_cell_length_b 8.923924
_cell_length_c 15.427644
_cell_angle_alpha 90.000000
_cell_angle_beta 139.790798
_cell_angle_gamma 90.000000
_cell_volume 1218.460946
_symmetry_space_group_name_H-M "P 21/C"
_symmetry_group_IT_number 14
_symmetry_cell_setting 'monoclinic'
loop_
_space_group_symop_operation_xyz
x,y,z
-x,1/2+y,1/2-z
-x,-y,-z
x,1/2-y,1/2+z
loop_
_atom_site_type_symbol
_atom_site_label
_atom_site_fract_x
_atom_site_fract_y
_atom_site_fract_z
Si Si1 0.633487 0.384679 0.083588
Si Si2 0.009468 0.253777 0.284278
Si Si3 0.818220 0.509112 0.689427
Si Si4 0.460833 0.318094 0.578381
Si Si5 0.086666 0.872598 0.111244
Si Si6 0.734302 0.947711 0.501749
Si Si7 0.238838 0.919400 0.659283
O O1 0.564269 0.222412 0.062823
O O2 0.763938 0.435008 0.239402
O O3 0.500000 0.500000 0.000000
O O4 0.696819 0.397194 0.027854
O O5 0.033739 0.385963 0.230343
O O6 0.136817 0.130859 0.353618
O O7 0.032312 0.320874 0.396195
O O8 0.847883 0.163142 0.175541
O O9 0.672915 0.571365 0.540216
O O10 0.801337 0.512716 0.781425
O O11 0.405544 0.169132 0.590852
O O12 0.579577 0.395862 0.723439
O O13 0.140053 0.733335 0.087115
O O14 0.000000 0.000000 0.000000
O O15 0.796854 0.979726 0.448347
#
# Coordination Sequence:
#
# PCOD8126570 Si02
#       7
#     4   4   4   4   4   4   4
#     4   9  19  41  65  90 133 171 215 266 328 394
#     4  10  22  43  61  97 130 173 220 267 337 395
#     4  10  21  41  68  90 137 173 222 276 327 401
#     4   9  20  41  64  96 129 174 226 267 333 401
#     4  10  22  44  64  96 130 169 225 272 324 404
#     4  10  21  41  61  95 134 169 214 278 331 396
#     4  10  22  42  64  97 134 169 224 279 328 391
#
# _framework density 22.979810000000001
#
# number of rings (size 3 to 8) (size 9 to 14) (size 15 to 20)
#    0.000    2.286    0.000    1.286    0.000    3.429 
#   46.286    0.000    0.000    0.000    0.000    0.000 
#    0.000    0.000    0.000    0.000    0.000    0.000 
#
# Total GULP energy -346941.383601 kJ/mol
# GULP energy per Si atom -12390.763700 kJ/mol
# Density = 2.292751 g / cm^3
# Si number density = 22.979810 Si / 1000 Ang^3
#
#
#
# Elastic Constant Matrix: (Units=GPa)
#
#
# Indices 1 2 3 4 5 6 
#
# 1 113.4016 47.0005 30.4847 0.0000 -9.6473 0.0000
# 2 47.0005 108.1098 46.7666 0.0000 -15.6872 0.0000
# 3 30.4847 46.7666 70.4433 0.0000 -0.3000 0.0000
# 4 0.0000 0.0000 0.0000 43.8621 0.0000 -0.3577
# 5 -9.6473 -15.6872 -0.3000 0.0000 34.3959 0.0000
# 6 0.0000 0.0000 0.0000 -0.3577 0.0000 40.1168
#
#
#
# Elastic Compliance Matrix: (Units=1/GPa)
#
#
# Indices 1 2 3 4 5 6 
#
# 1 0.011066 -0.003549 -0.002427 0.000000 0.001464 0.000000
# 2 -0.003549 0.015406 -0.008667 0.000000 0.005955 0.000000
# 3 -0.002427 -0.008667 0.020981 0.000000 -0.004450 0.000000
# 4 0.000000 0.000000 0.000000 0.022800 0.000000 0.000203
# 5 0.001464 0.005955 -0.004450 0.000000 0.032161 0.000000
# 6 0.000000 0.000000 0.000000 0.000203 0.000000 0.024929
#
#
# Mechanical properties :
#
#
# Convention : Reuss Voigt Hill
#
# Bulk Modulus (GPa) = 55.04065 60.05093 57.54579
# Shear Modulus (GPa) = 30.73452 34.85516 32.79484
#
# Velocity S-wave (km/s) = 3.66109 3.89880 3.78182
# Velocity P-wave (km/s) = 6.47111 6.81589 6.64573
#
# Compressibility (1/GPa) = 0.01816839
#
# Stress axis : x y z
#
# Youngs Moduli (GPa) = 90.36766 64.91020 47.66264
#
# Poissons Ratio (x) = 0.23035 0.11566
# Poissons Ratio (y) = 0.32069 0.41308
# Poissons Ratio (z) = 0.21929 0.56256
#
# Static dielectric constant tensor:
#      x y z
#    x 4.198610 0.000000 1.517790 
#    y 0.000000 4.568610 0.000000 
#    z 1.517790 0.000000 0.338430 
# 
# 
# High freq. dielectric constant tensor:
#      x y z
#    x 1.928540 0.000000 0.027050 
#    y 0.000000 1.910290 0.000000 
#    z 0.027050 0.000000 1.880640 
# 
# From -- ./inp_files/46769.got.cif
#   From: 2010.03.12/outbox.cif.g09.slc.cpg/sg14_24_cif.got.tgz:46769.got - 2010.03.31 13:35:05.
