data_PCOD8126902
_publ_section_title
;
Structure prediction by ZEFSAII (Michael W. Deem and Ramdas Pophale) SiO2 
 PCOD8126902
Probable space group: P 21/C
;
_chemical_formula_sum "Si O2"
_cell_formula_units_Z 24
_cell_length_a 5.190848
_cell_length_b 13.980139
_cell_length_c 14.628285
_cell_angle_alpha 90.000000
_cell_angle_beta 102.882821
_cell_angle_gamma 90.000000
_cell_volume 1034.835332
_symmetry_space_group_name_H-M "P 21/C"
_symmetry_group_IT_number 14
_symmetry_cell_setting 'monoclinic'
loop_
_space_group_symop_operation_xyz
x,y,z
-x,1/2+y,1/2-z
-x,-y,-z
x,1/2-y,1/2+z
loop_
_atom_site_type_symbol
_atom_site_label
_atom_site_fract_x
_atom_site_fract_y
_atom_site_fract_z
Si Si1 0.407610 0.735293 0.379597
Si Si2 0.161921 0.431781 0.950354
Si Si3 0.985286 0.735262 0.508648
Si Si4 0.360655 0.532787 0.296514
Si Si5 0.071063 0.955961 0.101914
Si Si6 0.531703 0.058433 0.639299
O O1 0.697890 0.714447 0.443085
O O2 0.343551 0.647284 0.305794
O O3 0.385456 0.834994 0.318619
O O4 0.193219 0.738975 0.442929
O O5 0.228305 0.481968 0.857884
O O6 0.012151 0.331146 0.929016
O O7 0.428302 0.413201 0.030135
O O8 0.000000 0.500000 0.000000
O O9 0.072874 0.657407 0.589474
O O10 0.649244 0.492567 0.342252
O O11 0.319377 0.496030 0.188176
O O12 0.148030 0.482203 0.342149
O O13 0.000000 0.000000 0.000000
#
# Coordination Sequence:
#
# PCOD8126902 Si02
#       6
#     4   4   4   4   4   4
#     4  11  21  41  64  92 130 174 203 272 324 374
#     4  10  21  44  69  88 127 174 213 269 310 394
#     4  11  22  39  69  93 124 171 222 249 326 385
#     4  12  25  41  67  96 136 166 213 276 320 386
#     4  12  23  42  65  97 127 174 213 261 322 395
#     4  10  25  41  64  98 130 167 222 264 331 377
#
# _framework density 23.192094000000001
#
# number of rings (size 3 to 8) (size 9 to 14) (size 15 to 20)
#    0.000    1.000    5.000    1.500    2.333    1.333 
#    3.000    0.000    0.000    0.000    0.000    0.000 
#    0.000    0.000    0.000    0.000    0.000    0.000 
#
# Total GULP energy -297442.636803 kJ/mol
# GULP energy per Si atom -12393.443200 kJ/mol
# Density = 2.313931 g / cm^3
# Si number density = 23.192094 Si / 1000 Ang^3
#
#
#
# Elastic Constant Matrix: (Units=GPa)
#
#
# Indices 1 2 3 4 5 6 
#
# 1 107.9726 21.5277 25.1092 0.0000 -38.8516 0.0000
# 2 21.5277 233.9452 51.0958 0.0000 -37.8617 0.0000
# 3 25.1092 51.0958 90.2409 0.0000 -37.5310 0.0000
# 4 0.0000 0.0000 0.0000 26.6993 0.0000 -12.2016
# 5 -38.8516 -37.8617 -37.5310 0.0000 51.0347 0.0000
# 6 0.0000 0.0000 0.0000 -12.2016 0.0000 31.1136
#
#
#
# Elastic Compliance Matrix: (Units=1/GPa)
#
#
# Indices 1 2 3 4 5 6 
#
# 1 0.012817 0.000391 0.000563 0.000000 0.010461 0.000000
# 2 0.000391 0.005082 -0.001865 0.000000 0.002696 0.000000
# 3 0.000563 -0.001865 0.016688 0.000000 0.011317 0.000000
# 4 0.000000 0.000000 0.000000 0.045632 0.000000 0.017895
# 5 0.010461 0.002696 0.011317 0.000000 0.037882 0.000000
# 6 0.000000 0.000000 0.000000 0.017895 0.000000 0.039158
#
#
# Mechanical properties :
#
#
# Convention : Reuss Voigt Hill
#
# Bulk Modulus (GPa) = 30.52037 69.73600 50.12818
# Shear Modulus (GPa) = 29.41132 44.06458 36.73795
#
# Velocity S-wave (km/s) = 3.56499 4.36361 3.98436
# Velocity P-wave (km/s) = 5.48944 7.45133 6.54432
#
# Compressibility (1/GPa) = 0.03276501
#
# Stress axis : x y z
#
# Youngs Moduli (GPa) = 78.02120 196.76310 59.92502
#
# Poissons Ratio (x) = -0.07685 -0.03377
# Poissons Ratio (y) = -0.03047 0.11176
# Poissons Ratio (z) = -0.04396 0.36695
#
# Static dielectric constant tensor:
#      x y z
#    x 4.315320 0.000000 0.415920 
#    y 0.000000 5.262450 0.000000 
#    z 0.415920 0.000000 9.224430 
# 
# 
# High freq. dielectric constant tensor:
#      x y z
#    x 1.928820 0.000000 -0.017270 
#    y 0.000000 1.942930 0.000000 
#    z -0.017270 0.000000 1.895780 
# 
# From -- ./inp_files/37138.got.cif
#   From: 2010.03.12/outbox.cif.g09.slc.cpg/sg14_19_cif.got.tgz:37138.got - 2010.03.31 13:35:05.
