data_PCOD8126986
_publ_section_title
;
Structure prediction by ZEFSAII (Michael W. Deem and Ramdas Pophale) SiO2 
 PCOD8126986
Probable space group: P 21/C
;
_chemical_formula_sum "Si O2"
_cell_formula_units_Z 24
_cell_length_a 21.974196
_cell_length_b 5.172793
_cell_length_c 18.514547
_cell_angle_alpha 90.000000
_cell_angle_beta 145.818535
_cell_angle_gamma 90.000000
_cell_volume 1182.347467
_symmetry_space_group_name_H-M "P 21/C"
_symmetry_group_IT_number 14
_symmetry_cell_setting 'monoclinic'
loop_
_space_group_symop_operation_xyz
x,y,z
-x,1/2+y,1/2-z
-x,-y,-z
x,1/2-y,1/2+z
loop_
_atom_site_type_symbol
_atom_site_label
_atom_site_fract_x
_atom_site_fract_y
_atom_site_fract_z
Si Si1 0.107064 0.852528 0.203291
Si Si2 0.136318 0.195468 0.504534
Si Si3 0.695939 0.142907 0.037280
Si Si4 0.793718 0.323104 0.347684
Si Si5 0.223984 0.364049 0.934931
Si Si6 0.431239 0.747807 0.449966
O O1 0.190936 0.623777 0.306635
O O2 0.122402 0.904290 0.133230
O O3 0.142225 0.103407 0.285887
O O4 0.986652 0.769957 0.102098
O O5 0.214235 0.422879 0.610052
O O6 0.152324 0.181529 0.434709
O O7 0.160754 0.921278 0.564489
O O8 0.704990 0.372729 0.986647
O O9 0.597758 0.219795 0.993839
O O10 0.687562 0.864217 0.991099
O O11 0.675445 0.254739 0.203193
O O12 0.500000 0.500000 0.500000
O O13 0.500000 0.000000 0.500000
#
# Coordination Sequence:
#
# PCOD8126986 Si02
#       6
#     4   4   4   4   4   4
#     4   9  24  36  64  85 132 169 216 226 298 365
#     4  12  24  37  62  92 137 163 199 252 311 362
#     4   9  21  37  61  90 118 154 221 242 295 352
#     4  11  25  40  59  96 126 156 205 270 318 347
#     4  10  22  37  61  88 132 170 209 237 291 378
#     4  11  22  41  71  89 112 155 216 263 307 377
#
# _framework density 20.2986
#
# number of rings (size 3 to 8) (size 9 to 14) (size 15 to 20)
#    1.000    0.667    0.000    4.000    9.333    0.000 
#    0.000    0.000    0.000   20.000    0.000    0.000 
#    0.000    0.000    0.000    0.000    0.000    0.000 
#
# Total GULP energy -297409.143297 kJ/mol
# GULP energy per Si atom -12392.047637 kJ/mol
# Density = 2.025240 g / cm^3
# Si number density = 20.298600 Si / 1000 Ang^3
#
#
#
# Elastic Constant Matrix: (Units=GPa)
#
#
# Indices 1 2 3 4 5 6 
#
# 1 131.8097 67.2521 50.5845 0.0000 11.6704 0.0000
# 2 67.2521 155.4466 30.0900 0.0000 -2.2911 0.0000
# 3 50.5845 30.0900 48.5971 0.0000 18.5033 0.0000
# 4 0.0000 0.0000 0.0000 28.7693 0.0000 -0.6397
# 5 11.6704 -2.2911 18.5033 0.0000 29.3292 0.0000
# 6 0.0000 0.0000 0.0000 -0.6397 0.0000 35.8471
#
#
#
# Elastic Compliance Matrix: (Units=1/GPa)
#
#
# Indices 1 2 3 4 5 6 
#
# 1 0.014501 -0.003531 -0.013958 0.000000 0.002760 0.000000
# 2 -0.003531 0.008652 -0.003256 0.000000 0.004135 0.000000
# 3 -0.013958 -0.003256 0.046203 0.000000 -0.023849 0.000000
# 4 0.000000 0.000000 0.000000 0.034773 0.000000 0.000621
# 5 0.002760 0.004135 -0.023849 0.000000 0.048366 0.000000
# 6 0.000000 0.000000 0.000000 0.000621 0.000000 0.027907
#
#
# Mechanical properties :
#
#
# Convention : Reuss Voigt Hill
#
# Bulk Modulus (GPa) = 35.88750 70.18961 53.03855
# Shear Modulus (GPa) = 21.62797 31.31758 26.47278
#
# Velocity S-wave (km/s) = 3.26773 3.93217 3.61524
# Velocity P-wave (km/s) = 5.65292 7.43435 6.60398
#
# Compressibility (1/GPa) = 0.02786486
#
# Stress axis : x y z
#
# Youngs Moduli (GPa) = 68.96242 115.58122 21.64345
#
# Poissons Ratio (x) = 0.40810 0.30211
# Poissons Ratio (y) = 0.24350 0.07048
# Poissons Ratio (z) = 0.96261 0.37635
#
# Static dielectric constant tensor:
#      x y z
#    x 3.812790 0.000000 0.032970 
#    y 0.000000 3.801200 0.000000 
#    z 0.032970 0.000000 3.411180 
# 
# 
# High freq. dielectric constant tensor:
#      x y z
#    x 1.803570 0.000000 0.008160 
#    y 0.000000 1.806680 0.000000 
#    z 0.008160 0.000000 1.760810 
# 
# From -- ./inp_files/69555.got.cif
#   From: 2010.03.12/outbox.cif.g09.slc.cpg/sg14_35_cif.got.tgz:69555.got - 2010.03.31 13:35:05.
