data_PCOD8126325
_publ_section_title
;
Structure prediction by ZEFSAII (Michael W. Deem and Ramdas Pophale) SiO2 
 PCOD8126325
Probable space group: P 21/C
;
_chemical_formula_sum "Si O2"
_cell_formula_units_Z 32
_cell_length_a 10.441468
_cell_length_b 16.788051
_cell_length_c 13.541790
_cell_angle_alpha 90.000000
_cell_angle_beta 39.485137
_cell_angle_gamma 90.000000
_cell_volume 1509.425694
_symmetry_space_group_name_H-M "P 21/C"
_symmetry_group_IT_number 14
_symmetry_cell_setting 'monoclinic'
loop_
_space_group_symop_operation_xyz
x,y,z
-x,1/2+y,1/2-z
-x,-y,-z
x,1/2-y,1/2+z
loop_
_atom_site_type_symbol
_atom_site_label
_atom_site_fract_x
_atom_site_fract_y
_atom_site_fract_z
Si Si1 0.747842 0.333256 0.195720
Si Si2 0.132634 0.623398 0.085248
Si Si3 0.568792 0.618737 0.121507
Si Si4 0.188618 0.974176 0.821856
Si Si5 0.057113 0.809732 0.820629
Si Si6 0.424007 0.378629 0.111556
Si Si7 0.634327 0.717962 0.667833
Si Si8 0.992196 0.534992 0.897316
O O1 0.881616 0.339840 0.016290
O O2 0.776511 0.247622 0.230499
O O3 0.514396 0.342038 0.303565
O O4 0.820784 0.403209 0.227816
O O5 0.359226 0.594968 0.976694
O O6 0.056579 0.695341 0.201530
O O7 0.995942 0.543147 0.179760
O O8 0.387208 0.558862 0.261162
O O9 0.548560 0.693000 0.208520
O O10 0.552893 0.647406 0.016101
O O11 0.784035 0.580101 0.007318
O O12 0.110125 0.902243 0.802316
O O13 0.263787 0.048844 0.712169
O O14 0.000000 0.000000 0.000000
O O15 0.846712 0.785241 0.989526
O O16 0.347960 0.306130 0.227267
O O17 0.000000 0.500000 0.000000
#
# Coordination Sequence:
#
# PCOD8126325 Si02
#       8
#     4   4   4   4   4   4   4   4
#     4  10  22  41  62  92 128 169 216 265 329 391
#     4  10  21  39  66  91 123 173 223 261 322 404
#     4  12  22  42  69  93 129 180 222 263 329 406
#     4  12  23  38  64  99 134 161 221 281 325 384
#     4  12  22  41  62  96 132 166 216 279 322 382
#     4  11  22  40  68  93 129 176 222 265 329 392
#     4  11  24  40  64  97 132 168 216 277 324 380
#     4  10  21  39  65  92 122 172 221 258 321 407
#
# _framework density 21.200116999999999
#
# number of rings (size 3 to 8) (size 9 to 14) (size 15 to 20)
#    0.000    1.000    6.250    1.125    0.000    1.000 
#    0.000    0.625    2.750    0.000    0.000    0.000 
#    0.000    0.000    0.000    0.000    0.000    0.000 
#
# Total GULP energy -396509.716532 kJ/mol
# GULP energy per Si atom -12390.928642 kJ/mol
# Density = 2.115186 g / cm^3
# Si number density = 21.200117 Si / 1000 Ang^3
#
#
#
# Elastic Constant Matrix: (Units=GPa)
#
#
# Indices 1 2 3 4 5 6 
#
# 1 78.7607 27.9812 10.0854 0.0000 8.2789 0.0000
# 2 27.9812 98.9670 15.2096 0.0000 21.8884 0.0000
# 3 10.0854 15.2096 64.1439 0.0000 5.6509 0.0000
# 4 0.0000 0.0000 0.0000 24.8745 0.0000 1.4925
# 5 8.2789 21.8884 5.6509 0.0000 30.5709 0.0000
# 6 0.0000 0.0000 0.0000 1.4925 0.0000 41.9492
#
#
#
# Elastic Compliance Matrix: (Units=1/GPa)
#
#
# Indices 1 2 3 4 5 6 
#
# 1 0.014251 -0.003600 -0.001295 0.000000 -0.001043 0.000000
# 2 -0.003600 0.013206 -0.001848 0.000000 -0.008139 0.000000
# 3 -0.001295 -0.001848 0.016351 0.000000 -0.001348 0.000000
# 4 0.000000 0.000000 0.000000 0.040288 0.000000 -0.001433
# 5 -0.001043 -0.008139 -0.001348 0.000000 0.039070 0.000000
# 6 0.000000 0.000000 0.000000 -0.001433 0.000000 0.023889
#
#
# Mechanical properties :
#
#
# Convention : Reuss Voigt Hill
#
# Bulk Modulus (GPa) = 32.98017 38.71380 35.84699
# Shear Modulus (GPa) = 29.30000 32.05197 30.67598
#
# Velocity S-wave (km/s) = 3.72165 3.89250 3.80804
# Velocity P-wave (km/s) = 5.83592 6.20507 6.02332
#
# Compressibility (1/GPa) = 0.03032125
#
# Stress axis : x y z
#
# Youngs Moduli (GPa) = 70.17077 75.72170 61.15959
#
# Poissons Ratio (x) = 0.27256 0.07922
# Poissons Ratio (y) = 0.25258 0.11305
# Poissons Ratio (z) = 0.09089 0.13997
#
# Static dielectric constant tensor:
#      x y z
#    x 3.904050 0.000000 -0.107150 
#    y 0.000000 4.178500 0.000000 
#    z -0.107150 0.000000 3.802500 
# 
# 
# High freq. dielectric constant tensor:
#      x y z
#    x 1.840620 0.000000 -0.010870 
#    y 0.000000 1.835800 0.000000 
#    z -0.010870 0.000000 1.805210 
# 
# From -- ./inp_files/45070.got.cif
#   From: 2010.03.12/outbox.cif.g09.slc.cpg/sg14_23_cif.got.tgz:45070.got - 2010.03.31 13:35:05.
