data_PCOD8126674
_publ_section_title
;
Structure prediction by ZEFSAII (Michael W. Deem and Ramdas Pophale) SiO2 
 PCOD8126674
Probable space group: P 21/C
;
_chemical_formula_sum "Si O2"
_cell_formula_units_Z 28
_cell_length_a 10.852228
_cell_length_b 12.877901
_cell_length_c 9.559654
_cell_angle_alpha 90.000000
_cell_angle_beta 97.145734
_cell_angle_gamma 90.000000
_cell_volume 1325.622344
_symmetry_space_group_name_H-M "P 21/C"
_symmetry_group_IT_number 14
_symmetry_cell_setting 'monoclinic'
loop_
_space_group_symop_operation_xyz
x,y,z
-x,1/2+y,1/2-z
-x,-y,-z
x,1/2-y,1/2+z
loop_
_atom_site_type_symbol
_atom_site_label
_atom_site_fract_x
_atom_site_fract_y
_atom_site_fract_z
Si Si1 0.929794 0.642306 0.399954
Si Si2 0.452301 0.673557 0.109142
Si Si3 0.904339 0.335485 0.115551
Si Si4 0.292994 0.427963 0.820967
Si Si5 0.237608 0.976674 0.598566
Si Si6 0.349751 0.836303 0.298733
Si Si7 0.920536 0.541608 0.677684
O O1 0.817159 0.626878 0.278298
O O2 0.881741 0.622509 0.551108
O O3 0.983354 0.757855 0.398040
O O4 0.048037 0.569035 0.386393
O O5 0.591883 0.650415 0.175542
O O6 0.368076 0.577968 0.150432
O O7 0.404704 0.781196 0.170110
O O8 0.445011 0.681315 0.940175
O O9 0.783157 0.286046 0.174076
O O10 0.954482 0.423912 0.226110
O O11 0.862599 0.389345 0.964201
O O12 0.329407 0.541375 0.764788
O O13 0.253511 0.439278 0.977395
O O14 0.193997 0.033940 0.731987
#
# Coordination Sequence:
#
# PCOD8126674 Si02
#       7
#     4   4   4   4   4   4   4
#     4  11  24  38  63  98 132 158 216 265 318 369
#     4  10  22  42  67  92 118 170 216 258 306 386
#     4  10  22  38  66  91 127 170 205 254 324 391
#     4  10  22  45  63  89 131 168 207 264 312 381
#     4  10  21  41  68  88 125 175 212 251 326 384
#     4  10  21  41  68  89 123 166 214 255 319 373
#     4  11  23  39  62  94 130 164 205 266 315 382
#
# _framework density 21.122156
#
# number of rings (size 3 to 8) (size 9 to 14) (size 15 to 20)
#    0.000    2.000    2.857    3.000    6.000    1.143 
#    7.714    1.429    0.000    0.000    0.000    0.000 
#    0.000    0.000    0.000    0.000    0.000    0.000 
#
# Total GULP energy -347212.755728 kJ/mol
# GULP energy per Si atom -12400.455562 kJ/mol
# Density = 2.107408 g / cm^3
# Si number density = 21.122156 Si / 1000 Ang^3
#
#
#
# Elastic Constant Matrix: (Units=GPa)
#
#
# Indices 1 2 3 4 5 6 
#
# 1 90.5847 30.4010 32.3266 0.0000 4.5681 0.0000
# 2 30.4010 63.6555 22.7082 0.0000 -9.6753 0.0000
# 3 32.3266 22.7082 61.5694 0.0000 -14.5787 0.0000
# 4 0.0000 0.0000 0.0000 18.3240 0.0000 1.9567
# 5 4.5681 -9.6753 -14.5787 0.0000 28.2031 0.0000
# 6 0.0000 0.0000 0.0000 1.9567 0.0000 32.0624
#
#
#
# Elastic Compliance Matrix: (Units=1/GPa)
#
#
# Indices 1 2 3 4 5 6 
#
# 1 0.016724 -0.006318 -0.008666 0.000000 -0.009356 0.000000
# 2 -0.006318 0.020724 -0.002735 0.000000 0.006719 0.000000
# 3 -0.008666 -0.002735 0.024967 0.000000 0.013371 0.000000
# 4 0.000000 0.000000 0.000000 0.054931 0.000000 -0.003352
# 5 -0.009356 0.006719 0.013371 0.000000 0.046189 0.000000
# 6 0.000000 0.000000 0.000000 -0.003352 0.000000 0.031394
#
#
# Mechanical properties :
#
#
# Convention : Reuss Voigt Hill
#
# Bulk Modulus (GPa) = 37.06957 42.96458 40.01708
# Shear Modulus (GPa) = 20.88909 24.40949 22.64929
#
# Velocity S-wave (km/s) = 3.14819 3.40315 3.27815
# Velocity P-wave (km/s) = 5.55005 5.98557 5.77192
#
# Compressibility (1/GPa) = 0.02697631
#
# Stress axis : x y z
#
# Youngs Moduli (GPa) = 59.79393 48.25356 40.05313
#
# Poissons Ratio (x) = 0.30485 0.34710
# Poissons Ratio (y) = 0.37776 0.10956
# Poissons Ratio (z) = 0.51818 0.13200
#
# Static dielectric constant tensor:
#      x y z
#    x 3.664720 0.000000 0.039910 
#    y 0.000000 3.595580 0.000000 
#    z 0.039910 0.000000 3.771370 
# 
# 
# High freq. dielectric constant tensor:
#      x y z
#    x 1.822200 0.000000 0.005430 
#    y 0.000000 1.813610 0.000000 
#    z 0.005430 0.000000 1.823410 
# 
# From -- ./inp_files/12901.got.cif
#   From: 2010.03.12/outbox.cif.g09.slc.cpg/sg14_7_cif.got.tgz:12901.got - 2010.03.31 13:35:05.
