data_PCOD8126407
_publ_section_title
;
Structure prediction by ZEFSAII (Michael W. Deem and Ramdas Pophale) SiO2 
 PCOD8126407
Probable space group: P 21/C
;
_chemical_formula_sum "Si O2"
_cell_formula_units_Z 20
_cell_length_a 22.198685
_cell_length_b 6.726075
_cell_length_c 5.330629
_cell_angle_alpha 90.000000
_cell_angle_beta 90.276437
_cell_angle_gamma 90.000000
_cell_volume 795.907060
_symmetry_space_group_name_H-M "P 21/C"
_symmetry_group_IT_number 14
_symmetry_cell_setting 'monoclinic'
loop_
_space_group_symop_operation_xyz
x,y,z
-x,1/2+y,1/2-z
-x,-y,-z
x,1/2-y,1/2+z
loop_
_atom_site_type_symbol
_atom_site_label
_atom_site_fract_x
_atom_site_fract_y
_atom_site_fract_z
Si Si1 0.878710 0.028908 0.476281
Si Si2 0.070739 0.524822 0.522919
Si Si3 0.439120 0.621112 0.482564
Si Si4 0.687391 0.536245 0.466002
Si Si5 0.737671 0.981310 0.466664
O O1 0.898350 0.920037 0.218170
O O2 0.905754 0.249861 0.455518
O O3 0.807732 0.017296 0.506203
O O4 0.908031 0.919087 0.718195
O O5 0.000000 0.500000 0.500000
O O6 0.500000 0.500000 0.500000
O O7 0.435441 0.724731 0.211491
O O8 0.384665 0.462231 0.502954
O O9 0.716720 0.752942 0.438999
O O10 0.717098 0.419205 0.702944
O O11 0.704199 0.422056 0.206972
#
# Coordination Sequence:
#
# PCOD8126407 Si02
#       5
#     4   4   4   4   4
#     4  10  21  40  61  96 125 179 234 281 361 430
#     4  10  21  40  62  92 133 174 226 297 352 428
#     4  12  28  49  78 114 153 201 252 307 366 444
#     4  10  23  43  68 103 138 187 236 294 365 418
#     4  10  21  42  72  96 139 187 234 300 353 445
#
# _framework density 25.128564000000001
#
# number of rings (size 3 to 8) (size 9 to 14) (size 15 to 20)
#    0.000    1.600    0.000    3.600    5.600    0.000 
#   21.600   24.000    0.000    0.000    0.000    0.000 
#    0.000    0.000    0.000    0.000    0.000    0.000 
#
# Total GULP energy -247799.555683 kJ/mol
# GULP energy per Si atom -12389.977784 kJ/mol
# Density = 2.507137 g / cm^3
# Si number density = 25.128564 Si / 1000 Ang^3
#
#
#
# Elastic Constant Matrix: (Units=GPa)
#
#
# Indices 1 2 3 4 5 6 
#
# 1 165.6639 9.4340 1.6800 0.0000 -2.6615 0.0000
# 2 9.4340 82.7773 -42.2992 0.0000 1.0051 0.0000
# 3 1.6800 -42.2992 237.7055 0.0000 -20.6967 0.0000
# 4 0.0000 0.0000 0.0000 -27.3336 0.0000 2.0673
# 5 -2.6615 1.0051 -20.6967 0.0000 53.0783 0.0000
# 6 0.0000 0.0000 0.0000 2.0673 0.0000 59.6545
#
#
#
# Elastic Compliance Matrix: (Units=1/GPa)
#
#
# Indices 1 2 3 4 5 6 
#
# 1 0.006086 -0.000778 -0.000159 0.000000 0.000258 0.000000
# 2 -0.000778 0.013413 0.002450 0.000000 0.000662 0.000000
# 3 -0.000159 0.002450 0.004802 0.000000 0.001818 0.000000
# 4 0.000000 0.000000 0.000000 -0.036489 0.000000 0.001264
# 5 0.000258 0.000662 0.001818 0.000000 0.019549 0.000000
# 6 0.000000 0.000000 0.000000 0.001264 0.000000 0.016719
#
#
# Mechanical properties :
#
#
# Convention : Reuss Voigt Hill
#
# Bulk Modulus (GPa) = 36.59278 47.08627 41.83953
# Shear Modulus (GPa) = 165.75670 51.56862 108.66266
#
# Velocity S-wave (km/s) = 8.13060 4.53503 6.58305
# Velocity P-wave (km/s) = 10.13588 6.79712 8.62951
#
# Compressibility (1/GPa) = 0.02732779
#
# Stress axis : x y z
#
# Youngs Moduli (GPa) = 164.30126 74.55343 208.23393
#
# Poissons Ratio (x) = 0.05801 0.03311
# Poissons Ratio (y) = 0.12783 -0.51018
# Poissons Ratio (z) = 0.02613 -0.18266
#
# Static dielectric constant tensor:
#      x y z
#    x 4.447680 0.000000 -0.513830 
#    y 0.000000 4.153340 0.000000 
#    z -0.513830 0.000000 10.244370 
# 
# 
# High freq. dielectric constant tensor:
#      x y z
#    x 2.002980 0.000000 -0.005650 
#    y 0.000000 1.995520 0.000000 
#    z -0.005650 0.000000 2.051590 
# 
# From -- ./inp_files/4042.got.cif
#   From: 2010.03.12/outbox.cif.g09.slc.cpg/sg14_3_cif.got.tgz:4042.got - 2010.03.31 13:35:05.
