data_PCOD8126953
_publ_section_title
;
Structure prediction by ZEFSAII (Michael W. Deem and Ramdas Pophale) SiO2 
 PCOD8126953
Probable space group: P 21/C
;
_chemical_formula_sum "Si O2"
_cell_formula_units_Z 28
_cell_length_a 14.910831
_cell_length_b 12.112264
_cell_length_c 18.921588
_cell_angle_alpha 90.000000
_cell_angle_beta 21.491950
_cell_angle_gamma 90.000000
_cell_volume 1252.002672
_symmetry_space_group_name_H-M "P 21/C"
_symmetry_group_IT_number 14
_symmetry_cell_setting 'monoclinic'
loop_
_space_group_symop_operation_xyz
x,y,z
-x,1/2+y,1/2-z
-x,-y,-z
x,1/2-y,1/2+z
loop_
_atom_site_type_symbol
_atom_site_label
_atom_site_fract_x
_atom_site_fract_y
_atom_site_fract_z
Si Si1 0.682344 0.268477 0.012712
Si Si2 0.422934 0.120517 0.305449
Si Si3 0.299658 0.068815 0.759473
Si Si4 0.404561 0.832951 0.668571
Si Si5 0.107966 0.330452 0.268777
Si Si6 0.816046 0.541653 0.504262
Si Si7 0.951517 0.232850 0.676046
O O1 0.911439 0.266743 0.899118
O O2 0.765484 0.214561 0.877044
O O3 0.463743 0.197045 0.207326
O O4 0.571461 0.390655 0.084717
O O5 0.587130 0.164755 0.252010
O O6 0.528150 0.997222 0.210329
O O7 0.131712 0.126616 0.535439
O O8 0.191245 0.165588 0.789347
O O9 0.342321 0.955882 0.684759
O O10 0.120579 0.049058 0.957876
O O11 0.671776 0.802342 0.444673
O O12 0.203075 0.750358 0.782861
O O13 0.980764 0.449157 0.344839
O O14 0.871457 0.662558 0.432574
#
# Coordination Sequence:
#
# PCOD8126953 Si02
#       7
#     4   4   4   4   4   4   4
#     4  11  23  34  58  90 129 163 195 253 316 367
#     4  10  24  39  55  98 128 157 205 260 315 369
#     4  11  20  36  57  95 124 155 204 256 310 363
#     4  11  22  37  65  91 122 160 208 260 312 365
#     4  11  20  35  55  96 125 153 202 252 307 367
#     4  10  22  35  61  90 128 161 197 258 311 361
#     4  12  21  40  62  90 127 164 200 262 313 365
#
# _framework density 22.364170000000001
#
# number of rings (size 3 to 8) (size 9 to 14) (size 15 to 20)
#    0.000    1.143    5.714    1.714    4.000    0.000 
#    0.000    0.000    0.000    0.857   11.143   14.000 
#    0.000    0.000    0.000    0.000    0.000    0.000 
#
# Total GULP energy -346934.040707 kJ/mol
# GULP energy per Si atom -12390.501454 kJ/mol
# Density = 2.231327 g / cm^3
# Si number density = 22.364170 Si / 1000 Ang^3
#
#
#
# Elastic Constant Matrix: (Units=GPa)
#
#
# Indices 1 2 3 4 5 6 
#
# 1 76.9407 7.5756 6.9398 0.0000 -0.3594 0.0000
# 2 7.5756 26.2950 9.5744 0.0000 -11.6149 0.0000
# 3 6.9398 9.5744 85.0419 0.0000 -2.8613 0.0000
# 4 0.0000 0.0000 0.0000 36.0068 0.0000 -5.3595
# 5 -0.3594 -11.6149 -2.8613 0.0000 39.8730 0.0000
# 6 0.0000 0.0000 0.0000 -5.3595 0.0000 28.2594
#
#
#
# Elastic Compliance Matrix: (Units=1/GPa)
#
#
# Indices 1 2 3 4 5 6 
#
# 1 0.013459 -0.004133 -0.000671 0.000000 -0.001131 0.000000
# 2 -0.004133 0.046701 -0.004475 0.000000 0.013245 0.000000
# 3 -0.000671 -0.004475 0.012303 0.000000 -0.000427 0.000000
# 4 0.000000 0.000000 0.000000 0.028579 0.000000 0.005420
# 5 -0.001131 0.013245 -0.000427 0.000000 0.028897 0.000000
# 6 0.000000 0.000000 0.000000 0.005420 0.000000 0.036414
#
#
# Mechanical properties :
#
#
# Convention : Reuss Voigt Hill
#
# Bulk Modulus (GPa) = 18.55089 26.27302 22.41196
# Shear Modulus (GPa) = 24.64513 31.77370 28.20941
#
# Velocity S-wave (km/s) = 3.32323 3.77336 3.55543
# Velocity P-wave (km/s) = 4.79980 5.54596 5.18631
#
# Compressibility (1/GPa) = 0.05390577
#
# Stress axis : x y z
#
# Youngs Moduli (GPa) = 74.29878 21.41291 81.28019
#
# Poissons Ratio (x) = 0.08849 0.05455
# Poissons Ratio (y) = 0.30705 0.36372
# Poissons Ratio (z) = 0.04986 0.09582
#
# Static dielectric constant tensor:
#      x y z
#    x 3.974030 0.000000 0.063030 
#    y 0.000000 3.676710 0.000000 
#    z 0.063030 0.000000 4.292380 
# 
# 
# High freq. dielectric constant tensor:
#      x y z
#    x 1.868680 0.000000 0.012210 
#    y 0.000000 1.823120 0.000000 
#    z 0.012210 0.000000 1.904700 
# 
# From -- ./inp_files/68589.got.cif
#   From: 2010.03.12/outbox.cif.g09.slc.cpg/sg14_35_cif.got.tgz:68589.got - 2010.03.31 13:35:05.
