data_PCOD8126108
_publ_section_title
;
Structure prediction by ZEFSAII (Michael W. Deem and Ramdas Pophale) SiO2 
 PCOD8126108
Probable space group: P 21/C
;
_chemical_formula_sum "Si O2"
_cell_formula_units_Z 20
_cell_length_a 8.071267
_cell_length_b 7.572263
_cell_length_c 18.820220
_cell_angle_alpha 90.000000
_cell_angle_beta 131.036678
_cell_angle_gamma 90.000000
_cell_volume 867.621153
_symmetry_space_group_name_H-M "P 21/C"
_symmetry_group_IT_number 14
_symmetry_cell_setting 'monoclinic'
loop_
_space_group_symop_operation_xyz
x,y,z
-x,1/2+y,1/2-z
-x,-y,-z
x,1/2-y,1/2+z
loop_
_atom_site_type_symbol
_atom_site_label
_atom_site_fract_x
_atom_site_fract_y
_atom_site_fract_z
Si Si1 0.299948 0.688966 0.541170
Si Si2 0.394460 0.524966 0.170932
Si Si3 0.178999 0.712508 0.858332
Si Si4 0.461506 0.349434 0.643833
Si Si5 0.256462 0.149660 0.327323
O O1 0.238361 0.838041 0.583346
O O2 0.149406 0.711074 0.429428
O O3 0.278104 0.491980 0.567335
O O4 0.557437 0.716802 0.590527
O O5 0.383912 0.562414 0.251875
O O6 0.330637 0.321128 0.137448
O O7 0.648151 0.551862 0.216586
O O8 0.387445 0.802170 0.880166
O O9 0.210692 0.501156 0.873306
O O10 0.961425 0.743427 0.751356
#
# Coordination Sequence:
#
# PCOD8126108 Si02
#       5
#     4   4   4   4   4
#     4  10  21  38  61  85 117 148 201 230 284 346
#     4   9  20  36  59  82 117 155 189 235 289 337
#     4  11  21  37  62  87 116 153 193 237 285 340
#     4  11  19  35  63  83 113 159 188 234 294 333
#     4   9  21  36  58  84 120 146 188 241 283 335
#
# _framework density 23.051537
#
# number of rings (size 3 to 8) (size 9 to 14) (size 15 to 20)
#    1.200    0.800    2.000    2.400    0.000    0.000 
#    0.000    1.000    4.400    3.600    0.000    0.000 
#    0.000    0.000    0.000    0.000    0.000    0.000 
#
# Total GULP energy -247904.447438 kJ/mol
# GULP energy per Si atom -12395.222372 kJ/mol
# Density = 2.299907 g / cm^3
# Si number density = 23.051537 Si / 1000 Ang^3
#
#
#
# Elastic Constant Matrix: (Units=GPa)
#
#
# Indices 1 2 3 4 5 6 
#
# 1 8.0984 -2.4836 1.2258 0.0000 -9.4170 0.0000
# 2 -2.4836 137.3466 2.7622 0.0000 -4.6118 0.0000
# 3 1.2258 2.7622 65.4377 0.0000 -15.1761 0.0000
# 4 0.0000 0.0000 0.0000 33.3827 0.0000 -9.7856
# 5 -9.4170 -4.6118 -15.1761 0.0000 31.3798 0.0000
# 6 0.0000 0.0000 0.0000 -9.7856 0.0000 23.0203
#
#
#
# Elastic Compliance Matrix: (Units=1/GPa)
#
#
# Indices 1 2 3 4 5 6 
#
# 1 0.201050 0.005645 0.011467 0.000000 0.066710 0.000000
# 2 0.005645 0.007476 0.000255 0.000000 0.002916 0.000000
# 3 0.011467 0.000255 0.017867 0.000000 0.012120 0.000000
# 4 0.000000 0.000000 0.000000 0.034220 0.000000 0.014546
# 5 0.066710 0.002916 0.012120 0.000000 0.058177 0.000000
# 6 0.000000 0.000000 0.000000 0.014546 0.000000 0.049623
#
#
# Mechanical properties :
#
#
# Convention : Reuss Voigt Hill
#
# Bulk Modulus (GPa) = 3.82957 23.76569 13.79763
# Shear Modulus (GPa) = 11.88437 31.51511 21.69974
#
# Velocity S-wave (km/s) = 2.27305 3.70152 3.07148
# Velocity P-wave (km/s) = 2.92471 5.34795 4.31013
#
# Compressibility (1/GPa) = 0.26112563
#
# Stress axis : x y z
#
# Youngs Moduli (GPa) = 4.97390 133.76650 55.96947
#
# Poissons Ratio (x) = -0.75510 -0.64179
# Poissons Ratio (y) = -0.02808 -0.01427
# Poissons Ratio (z) = -0.05704 -0.03411
#
# Static dielectric constant tensor:
#      x y z
#    x 3.598150 0.000000 -0.195330 
#    y 0.000000 4.302900 0.000000 
#    z -0.195330 0.000000 3.638260 
# 
# 
# High freq. dielectric constant tensor:
#      x y z
#    x 1.868080 0.000000 -0.020150 
#    y 0.000000 1.926510 0.000000 
#    z -0.020150 0.000000 1.886850 
# 
# From -- ./inp_files/27702.got.cif
#   From: 2010.03.12/outbox.cif.g09.slc.cpg/sg14_14_cif.got.tgz:27702.got - 2010.03.31 13:35:05.
