data_PCOD8126284
_publ_section_title
;
Structure prediction by ZEFSAII (Michael W. Deem and Ramdas Pophale) SiO2 
 PCOD8126284
Probable space group: P 21/C
;
_chemical_formula_sum "Si O2"
_cell_formula_units_Z 24
_cell_length_a 14.910888
_cell_length_b 11.711756
_cell_length_c 21.508577
_cell_angle_alpha 90.000000
_cell_angle_beta 19.437905
_cell_angle_gamma 90.000000
_cell_volume 1249.974142
_symmetry_space_group_name_H-M "P 21/C"
_symmetry_group_IT_number 14
_symmetry_cell_setting 'monoclinic'
loop_
_space_group_symop_operation_xyz
x,y,z
-x,1/2+y,1/2-z
-x,-y,-z
x,1/2-y,1/2+z
loop_
_atom_site_type_symbol
_atom_site_label
_atom_site_fract_x
_atom_site_fract_y
_atom_site_fract_z
Si Si1 0.370853 0.821370 0.103141
Si Si2 0.757116 0.587236 0.658724
Si Si3 0.901247 0.953933 0.760488
Si Si4 0.593740 0.087277 0.490440
Si Si5 0.754362 0.453897 0.083868
Si Si6 0.974880 0.178710 0.551129
O O1 0.390609 0.713957 0.045810
O O2 0.215102 0.787070 0.267451
O O3 0.216141 0.918621 0.165730
O O4 0.667507 0.863656 0.928233
O O5 0.550991 0.549066 0.739880
O O6 0.854696 0.714018 0.581588
O O7 0.000000 0.500000 0.500000
O O8 0.620875 0.583833 0.814565
O O9 0.112515 0.950936 0.678385
O O10 0.037328 0.919033 0.606359
O O11 0.500000 0.000000 0.500000
O O12 0.784740 0.363642 0.119554
O O13 0.811632 0.581276 0.070385
#
# Coordination Sequence:
#
# PCOD8126284 Si02
#       6
#     4   4   4   4   4   4
#     4  10  21  39  63  89 119 156 199 246 299 352
#     4  11  24  40  60  90 123 157 200 245 296 352
#     4   9  21  41  62  87 119 157 199 244 295 353
#     4  11  24  40  60  90 123 157 200 245 296 352
#     4   9  21  41  62  87 119 157 199 244 295 353
#     4  10  21  39  63  89 119 156 199 246 299 352
#
# _framework density 19.200396000000001
#
# number of rings (size 3 to 8) (size 9 to 14) (size 15 to 20)
#    0.000    2.000    0.000    2.000    4.667    4.000 
#    0.000    0.000    0.000    0.000    0.000    0.000 
#    0.000    0.000    0.000    0.000    0.000    0.000 
#
# Total GULP energy -297739.626257 kJ/mol
# GULP energy per Si atom -12405.817761 kJ/mol
# Density = 1.915670 g / cm^3
# Si number density = 19.200396 Si / 1000 Ang^3
#
#
#
# Elastic Constant Matrix: (Units=GPa)
#
#
# Indices 1 2 3 4 5 6 
#
# 1 156.5753 72.6393 76.4942 0.0000 -16.9586 0.0000
# 2 72.6393 111.3905 64.7291 0.0000 -10.0023 0.0000
# 3 76.4942 64.7291 125.8932 0.0000 -21.6752 0.0000
# 4 0.0000 0.0000 0.0000 34.3855 0.0000 10.3080
# 5 -16.9586 -10.0023 -21.6752 0.0000 27.3020 0.0000
# 6 0.0000 0.0000 0.0000 10.3080 0.0000 26.2136
#
#
#
# Elastic Compliance Matrix: (Units=1/GPa)
#
#
# Indices 1 2 3 4 5 6 
#
# 1 0.010513 -0.004511 -0.003740 0.000000 0.001908 0.000000
# 2 -0.004511 0.014747 -0.005089 0.000000 -0.001440 0.000000
# 3 -0.003740 -0.005089 0.014029 0.000000 0.006950 0.000000
# 4 0.000000 0.000000 0.000000 0.032968 0.000000 -0.012964
# 5 0.001908 -0.001440 0.006950 0.000000 0.042803 0.000000
# 6 0.000000 0.000000 0.000000 -0.012964 0.000000 0.043246
#
#
# Mechanical properties :
#
#
# Convention : Reuss Voigt Hill
#
# Bulk Modulus (GPa) = 79.31003 91.28711 85.29857
# Shear Modulus (GPa) = 26.42824 29.57998 28.00411
#
# Velocity S-wave (km/s) = 3.71407 3.92930 3.82320
# Velocity P-wave (km/s) = 7.73230 8.26035 8.00069
#
# Compressibility (1/GPa) = 0.01260875
#
# Stress axis : x y z
#
# Youngs Moduli (GPa) = 95.11603 67.80853 71.28085
#
# Poissons Ratio (x) = 0.30590 0.26659
# Poissons Ratio (y) = 0.42910 0.36277
# Poissons Ratio (z) = 0.35573 0.34510
#
# Static dielectric constant tensor:
#      x y z
#    x 3.651400 0.000000 -0.021610 
#    y 0.000000 3.614880 0.000000 
#    z -0.021610 0.000000 3.628680 
# 
# 
# High freq. dielectric constant tensor:
#      x y z
#    x 1.756860 0.000000 0.000680 
#    y 0.000000 1.753250 0.000000 
#    z 0.000680 0.000000 1.757010 
# 
# From -- ./inp_files/24166.got.cif
#   From: 2010.03.12/outbox.cif.g09.slc.cpg/sg14_13_cif.got.tgz:24166.got - 2010.03.31 13:35:05.
