data_PCOD8126457
_publ_section_title
;
Structure prediction by ZEFSAII (Michael W. Deem and Ramdas Pophale) SiO2 
 PCOD8126457
Probable space group: P 21/C
;
_chemical_formula_sum "Si O2"
_cell_formula_units_Z 32
_cell_length_a 13.998720
_cell_length_b 8.633977
_cell_length_c 24.869603
_cell_angle_alpha 90.000000
_cell_angle_beta 26.846158
_cell_angle_gamma 90.000000
_cell_volume 1357.433631
_symmetry_space_group_name_H-M "P 21/C"
_symmetry_group_IT_number 14
_symmetry_cell_setting 'monoclinic'
loop_
_space_group_symop_operation_xyz
x,y,z
-x,1/2+y,1/2-z
-x,-y,-z
x,1/2-y,1/2+z
loop_
_atom_site_type_symbol
_atom_site_label
_atom_site_fract_x
_atom_site_fract_y
_atom_site_fract_z
Si Si1 0.146707 0.228647 0.345888
Si Si2 0.495700 0.503474 0.297659
Si Si3 0.499425 0.690240 0.607677
Si Si4 0.557572 0.732655 0.965552
Si Si5 0.187927 0.919719 0.794938
Si Si6 0.799214 0.261718 0.607663
Si Si7 0.842441 0.441515 0.808119
Si Si8 0.185194 0.454221 0.726431
O O1 0.362189 0.146310 0.254852
O O2 0.194309 0.407060 0.313003
O O3 0.065230 0.147659 0.331871
O O4 0.973259 0.202900 0.478846
O O5 0.388995 0.417236 0.403301
O O6 0.307263 0.576287 0.357788
O O7 0.629627 0.376708 0.197578
O O8 0.639871 0.714992 0.483831
O O9 0.432088 0.859410 0.664502
O O10 0.268379 0.614559 0.708882
O O11 0.693737 0.589984 0.876379
O O12 0.599764 0.869947 0.902440
O O13 0.306260 0.697280 0.094517
O O14 0.091310 0.805530 0.889860
O O15 0.069293 0.906475 0.796523
O O16 0.030937 0.477729 0.753699
#
# Coordination Sequence:
#
# PCOD8126457 Si02
#       8
#     4   4   4   4   4   4   4   4
#     4  11  23  42  66  97 126 170 215 269 325 392
#     4  10  23  44  64  94 130 160 221 272 322 390
#     4   9  22  40  63  96 129 170 214 269 324 388
#     4  10  21  41  62  91 131 171 217 261 325 389
#     4  10  21  40  64  90 133 163 219 267 318 387
#     4  11  23  43  67  96 124 175 213 268 334 383
#     4  10  23  40  63  96 131 172 217 272 329 390
#     4  11  23  40  65  96 132 172 214 271 327 390
#
# _framework density 23.573896000000001
#
# number of rings (size 3 to 8) (size 9 to 14) (size 15 to 20)
#    0.000    1.750    1.250    1.875    3.500    3.000 
#    9.000    2.500    0.000    0.000    0.000    0.000 
#    0.000    0.000    0.000    0.000    0.000    0.000 
#
# Total GULP energy -396602.797736 kJ/mol
# GULP energy per Si atom -12393.837429 kJ/mol
# Density = 2.352024 g / cm^3
# Si number density = 23.573896 Si / 1000 Ang^3
#
#
#
# Elastic Constant Matrix: (Units=GPa)
#
#
# Indices 1 2 3 4 5 6 
#
# 1 83.7778 -7.4161 14.1728 0.0000 15.7225 0.0000
# 2 -7.4161 54.1402 -0.1278 0.0000 4.2536 0.0000
# 3 14.1728 -0.1278 68.0787 0.0000 36.7070 0.0000
# 4 0.0000 0.0000 0.0000 25.5415 0.0000 16.0635
# 5 15.7225 4.2536 36.7070 0.0000 39.1183 0.0000
# 6 0.0000 0.0000 0.0000 16.0635 0.0000 26.8984
#
#
#
# Elastic Compliance Matrix: (Units=1/GPa)
#
#
# Indices 1 2 3 4 5 6 
#
# 1 0.013183 0.002280 0.000507 0.000000 -0.006022 0.000000
# 2 0.002280 0.019201 0.002391 0.000000 -0.005248 0.000000
# 3 0.000507 0.002391 0.030033 0.000000 -0.028645 0.000000
# 4 0.000000 0.000000 0.000000 0.062702 0.000000 -0.037445
# 5 -0.006022 -0.005248 -0.028645 0.000000 0.055434 0.000000
# 6 0.000000 0.000000 0.000000 -0.037445 0.000000 0.059539
#
#
# Mechanical properties :
#
#
# Convention : Reuss Voigt Hill
#
# Bulk Modulus (GPa) = 13.74160 24.36163 19.05162
# Shear Modulus (GPa) = 19.68563 31.60283 25.64423
#
# Velocity S-wave (km/s) = 2.89288 3.66537 3.30179
# Velocity P-wave (km/s) = 4.12312 5.31694 4.75763
#
# Compressibility (1/GPa) = 0.07277171
#
# Stress axis : x y z
#
# Youngs Moduli (GPa) = 75.85796 52.08113 33.29672
#
# Poissons Ratio (x) = -0.11875 -0.01687
# Poissons Ratio (y) = -0.17296 -0.07961
# Poissons Ratio (z) = -0.03844 -0.12452
#
# Static dielectric constant tensor:
#      x y z
#    x 4.177540 0.000000 0.566220 
#    y 0.000000 4.438460 0.000000 
#    z 0.566220 0.000000 4.143470 
# 
# 
# High freq. dielectric constant tensor:
#      x y z
#    x 1.920040 0.000000 0.040990 
#    y 0.000000 1.952500 0.000000 
#    z 0.040990 0.000000 1.918170 
# 
# From -- ./inp_files/73742.got.cif
#   From: 2010.03.12/outbox.cif.g09.slc.cpg/sg14_37_cif.got.tgz:73742.got - 2010.03.31 13:35:05.
