data_PCOD8126073
_publ_section_title
;
Structure prediction by ZEFSAII (Michael W. Deem and Ramdas Pophale) SiO2 
 PCOD8126073
Probable space group: P 21/C
;
_chemical_formula_sum "Si O2"
_cell_formula_units_Z 32
_cell_length_a 7.482359
_cell_length_b 16.399608
_cell_length_c 14.795609
_cell_angle_alpha 90.000000
_cell_angle_beta 56.061527
_cell_angle_gamma 90.000000
_cell_volume 1506.236863
_symmetry_space_group_name_H-M "P 21/C"
_symmetry_group_IT_number 14
_symmetry_cell_setting 'monoclinic'
loop_
_space_group_symop_operation_xyz
x,y,z
-x,1/2+y,1/2-z
-x,-y,-z
x,1/2-y,1/2+z
loop_
_atom_site_type_symbol
_atom_site_label
_atom_site_fract_x
_atom_site_fract_y
_atom_site_fract_z
Si Si1 0.451135 0.105103 0.614258
Si Si2 0.202774 0.963715 0.604731
Si Si3 0.766726 0.768037 0.793295
Si Si4 0.123369 0.740336 0.835973
Si Si5 0.706899 0.941869 0.761229
Si Si6 0.466609 0.895140 0.209009
Si Si7 0.433262 0.868352 0.691200
Si Si8 0.237960 0.243122 0.917839
O O1 0.688199 0.079414 0.512772
O O2 0.409323 0.203065 0.620515
O O3 0.426691 0.078875 0.725475
O O4 0.279732 0.057295 0.598384
O O5 0.268415 0.914021 0.674423
O O6 0.949999 0.960049 0.663194
O O7 0.688029 0.862236 0.831740
O O8 0.810699 0.759357 0.674027
O O9 0.989144 0.752726 0.782102
O O10 0.250039 0.655405 0.793916
O O11 0.299474 0.811451 0.797611
O O12 0.980684 0.748853 0.965626
O O13 0.576480 0.931257 0.705746
O O14 0.602145 0.025269 0.831245
O O15 0.645606 0.844745 0.102085
O O16 0.596505 0.810252 0.588859
#
# Coordination Sequence:
#
# PCOD8126073 Si02
#       8
#     4   4   4   4   4   4   4   4
#     4  10  22  38  61  96 125 164 215 266 328 387
#     4  11  21  38  65  92 126 164 210 269 330 374
#     4  10  21  40  61  91 129 166 212 265 319 390
#     4  11  21  40  66  90 124 173 217 262 322 379
#     4  11  22  39  61  90 131 165 208 263 323 371
#     4  10  22  39  62  91 132 161 212 275 310 386
#     4  10  21  38  58  90 128 160 207 273 308 378
#     4   9  22  40  63  92 124 170 217 256 332 379
#
# _framework density 21.244997000000001
#
# number of rings (size 3 to 8) (size 9 to 14) (size 15 to 20)
#    0.000    1.750    2.500    2.250    3.500    1.500 
#    0.000    1.250    0.000    0.000    0.000    0.000 
#    0.000    0.000    0.000    0.000    0.000    0.000 
#
# Total GULP energy -396574.630950 kJ/mol
# GULP energy per Si atom -12392.957217 kJ/mol
# Density = 2.119664 g / cm^3
# Si number density = 21.244997 Si / 1000 Ang^3
#
#
#
# Elastic Constant Matrix: (Units=GPa)
#
#
# Indices 1 2 3 4 5 6 
#
# 1 78.6728 25.1099 12.0423 0.0000 -5.4933 0.0000
# 2 25.1099 143.0187 31.6732 0.0000 -6.1911 0.0000
# 3 12.0423 31.6732 67.1597 0.0000 -7.4124 0.0000
# 4 0.0000 0.0000 0.0000 20.0226 0.0000 -1.4667
# 5 -5.4933 -6.1911 -7.4124 0.0000 22.3454 0.0000
# 6 0.0000 0.0000 0.0000 -1.4667 0.0000 31.3298
#
#
#
# Elastic Compliance Matrix: (Units=1/GPa)
#
#
# Indices 1 2 3 4 5 6 
#
# 1 0.013716 -0.002030 -0.001237 0.000000 0.002399 0.000000
# 2 -0.002030 0.008129 -0.003401 0.000000 0.000625 0.000000
# 3 -0.001237 -0.003401 0.017208 0.000000 0.004462 0.000000
# 4 0.000000 0.000000 0.000000 0.050116 0.000000 0.002346
# 5 0.002399 0.000625 0.004462 0.000000 0.046995 0.000000
# 6 0.000000 0.000000 0.000000 0.002346 0.000000 0.032028
#
#
# Mechanical properties :
#
#
# Convention : Reuss Voigt Hill
#
# Bulk Modulus (GPa) = 38.88551 47.38912 43.13732
# Shear Modulus (GPa) = 26.30207 29.40794 27.85501
#
# Velocity S-wave (km/s) = 3.52239 3.72456 3.62488
# Velocity P-wave (km/s) = 5.90644 6.39147 6.15374
#
# Compressibility (1/GPa) = 0.02571652
#
# Stress axis : x y z
#
# Youngs Moduli (GPa) = 72.90902 123.02094 58.11287
#
# Poissons Ratio (x) = 0.24977 0.07189
# Poissons Ratio (y) = 0.14802 0.19762
# Poissons Ratio (z) = 0.09019 0.41834
#
# Static dielectric constant tensor:
#      x y z
#    x 3.925450 0.000000 -0.108350 
#    y 0.000000 4.279940 0.000000 
#    z -0.108350 0.000000 3.371460 
# 
# 
# High freq. dielectric constant tensor:
#      x y z
#    x 1.842360 0.000000 -0.007720 
#    y 0.000000 1.854000 0.000000 
#    z -0.007720 0.000000 1.789270 
# 
# From -- ./inp_files/55850.got.cif
#   From: 2010.03.12/outbox.cif.g09.slc.cpg/sg14_28_cif.got.tgz:55850.got - 2010.03.31 13:35:05.
