data_PCOD8126428
_publ_section_title
;
Structure prediction by ZEFSAII (Michael W. Deem and Ramdas Pophale) SiO2 
 PCOD8126428
Probable space group: P 21/C
;
_chemical_formula_sum "Si O2"
_cell_formula_units_Z 20
_cell_length_a 20.771576
_cell_length_b 5.701447
_cell_length_c 13.137310
_cell_angle_alpha 90.000000
_cell_angle_beta 145.321927
_cell_angle_gamma 90.000000
_cell_volume 885.210230
_symmetry_space_group_name_H-M "P 21/C"
_symmetry_group_IT_number 14
_symmetry_cell_setting 'monoclinic'
loop_
_space_group_symop_operation_xyz
x,y,z
-x,1/2+y,1/2-z
-x,-y,-z
x,1/2-y,1/2+z
loop_
_atom_site_type_symbol
_atom_site_label
_atom_site_fract_x
_atom_site_fract_y
_atom_site_fract_z
Si Si1 0.747348 0.179672 0.192822
Si Si2 0.564488 0.518630 0.320318
Si Si3 0.718745 0.022408 0.837217
Si Si4 0.118960 0.139480 0.500386
Si Si5 0.122895 0.673949 0.821110
O O1 0.677838 0.307721 0.192518
O O2 0.796450 0.362825 0.172481
O O3 0.858219 0.062538 0.387502
O O4 0.665363 0.990046 0.033483
O O5 0.497585 0.761855 0.253063
O O6 0.610928 0.538172 0.265825
O O7 0.770186 0.799398 0.847391
O O8 0.821619 0.124724 0.037709
O O9 0.001810 0.258376 0.378803
O O10 0.113319 0.060706 0.374773
#
# Coordination Sequence:
#
# PCOD8126428 Si02
#       5
#     4   4   4   4   4
#     4  10  25  41  67 100 131 176 234 280 342 414
#     4  11  28  49  73  97 136 182 236 297 354 395
#     4  10  24  42  67  99 134 176 227 283 335 417
#     4  11  21  40  66  96 140 178 221 275 338 420
#     4  10  21  40  62  98 139 180 216 268 346 409
#
# _framework density 22.593503999999999
#
# number of rings (size 3 to 8) (size 9 to 14) (size 15 to 20)
#    0.000    1.600    2.000    0.600   11.200    4.000 
#    0.000    0.000    0.000    0.000    0.000    0.000 
#    0.000    0.000    0.000    0.000    0.000    0.000 
#
# Total GULP energy -247867.719012 kJ/mol
# GULP energy per Si atom -12393.385951 kJ/mol
# Density = 2.254208 g / cm^3
# Si number density = 22.593504 Si / 1000 Ang^3
#
#
#
# Elastic Constant Matrix: (Units=GPa)
#
#
# Indices 1 2 3 4 5 6 
#
# 1 113.5075 15.3349 30.6440 0.0000 -3.4630 0.0000
# 2 15.3349 67.9677 10.1783 0.0000 4.9836 0.0000
# 3 30.6440 10.1783 75.2399 0.0000 -10.6840 0.0000
# 4 0.0000 0.0000 0.0000 24.3336 0.0000 4.8589
# 5 -3.4630 4.9836 -10.6840 0.0000 34.1406 0.0000
# 6 0.0000 0.0000 0.0000 4.8589 0.0000 33.3272
#
#
#
# Elastic Compliance Matrix: (Units=1/GPa)
#
#
# Indices 1 2 3 4 5 6 
#
# 1 0.010086 -0.001701 -0.003869 0.000000 0.000060 0.000000
# 2 -0.001701 0.015595 -0.001847 0.000000 -0.003027 0.000000
# 3 -0.003869 -0.001847 0.015801 0.000000 0.004822 0.000000
# 4 0.000000 0.000000 0.000000 0.042328 0.000000 -0.006171
# 5 0.000060 -0.003027 0.004822 0.000000 0.031248 0.000000
# 6 0.000000 0.000000 0.000000 -0.006171 0.000000 0.030905
#
#
# Mechanical properties :
#
#
# Convention : Reuss Voigt Hill
#
# Bulk Modulus (GPa) = 37.52490 41.00328 39.26409
# Shear Modulus (GPa) = 29.46729 31.73080 30.59905
#
# Velocity S-wave (km/s) = 3.61534 3.75163 3.68411
# Velocity P-wave (km/s) = 5.83715 6.07897 5.95929
#
# Compressibility (1/GPa) = 0.02664897
#
# Stress axis : x y z
#
# Youngs Moduli (GPa) = 99.14526 64.12275 63.28600
#
# Poissons Ratio (x) = 0.10905 0.24487
# Poissons Ratio (y) = 0.16861 0.11688
# Poissons Ratio (z) = 0.38362 0.11842
#
# Static dielectric constant tensor:
#      x y z
#    x 4.129150 0.000000 -0.175710 
#    y 0.000000 3.898060 0.000000 
#    z -0.175710 0.000000 4.035720 
# 
# 
# High freq. dielectric constant tensor:
#      x y z
#    x 1.896890 0.000000 -0.011710 
#    y 0.000000 1.876260 0.000000 
#    z -0.011710 0.000000 1.892230 
# 
# From -- ./inp_files/27382.got.cif
#   From: 2010.03.12/outbox.cif.g09.slc.cpg/sg14_14_cif.got.tgz:27382.got - 2010.03.31 13:35:05.
