data_PCOD8126466
_publ_section_title
;
Structure prediction by ZEFSAII (Michael W. Deem and Ramdas Pophale) SiO2 
 PCOD8126466
Probable space group: P 21/C
;
_chemical_formula_sum "Si O2"
_cell_formula_units_Z 28
_cell_length_a 12.847683
_cell_length_b 8.026751
_cell_length_c 19.421141
_cell_angle_alpha 90.000000
_cell_angle_beta 39.272871
_cell_angle_gamma 90.000000
_cell_volume 1267.806375
_symmetry_space_group_name_H-M "P 21/C"
_symmetry_group_IT_number 14
_symmetry_cell_setting 'monoclinic'
loop_
_space_group_symop_operation_xyz
x,y,z
-x,1/2+y,1/2-z
-x,-y,-z
x,1/2-y,1/2+z
loop_
_atom_site_type_symbol
_atom_site_label
_atom_site_fract_x
_atom_site_fract_y
_atom_site_fract_z
Si Si1 0.946400 0.681698 0.822523
Si Si2 0.333740 0.496582 0.955505
Si Si3 0.925474 0.531307 0.691803
Si Si4 0.708819 0.434165 0.319267
Si Si5 0.549581 0.194551 0.037231
Si Si6 0.213352 0.677326 0.467925
Si Si7 0.342645 0.646392 0.252199
O O1 0.988129 0.869822 0.819618
O O2 0.907901 0.667670 0.761094
O O3 0.097467 0.558470 0.764176
O O4 0.783289 0.633000 0.946898
O O5 0.439407 0.606696 0.956359
O O6 0.223720 0.620063 0.964500
O O7 0.463859 0.395116 0.843003
O O8 0.030484 0.611163 0.575896
O O9 0.749300 0.481194 0.751925
O O10 0.633747 0.621150 0.355181
O O11 0.610009 0.335249 0.429012
O O12 0.680746 0.335769 0.262027
O O13 0.670143 0.103309 0.030927
O O14 0.268823 0.617123 0.365112
#
# Coordination Sequence:
#
# PCOD8126466 Si02
#       7
#     4   4   4   4   4   4   4
#     4  11  22  40  66  95 125 159 212 261 309 362
#     4  10  24  38  60  94 120 165 203 255 309 369
#     4  11  23  42  65  93 125 167 207 260 313 364
#     4  10  21  40  64  93 118 170 203 262 307 370
#     4   9  21  40  62  91 126 157 216 250 314 362
#     4  10  23  44  60  91 129 165 203 256 319 372
#     4  11  25  40  65  92 129 163 213 253 314 377
#
# _framework density 22.085391999999999
#
# number of rings (size 3 to 8) (size 9 to 14) (size 15 to 20)
#    0.857    0.857    1.429    3.000    4.000    4.571 
#    0.000    2.857    0.000    0.000    0.000    0.000 
#    0.000    0.000    0.000    0.000    0.000    0.000 
#
# Total GULP energy -347092.965050 kJ/mol
# GULP energy per Si atom -12396.177323 kJ/mol
# Density = 2.203512 g / cm^3
# Si number density = 22.085392 Si / 1000 Ang^3
#
#
#
# Elastic Constant Matrix: (Units=GPa)
#
#
# Indices 1 2 3 4 5 6 
#
# 1 50.3251 12.4258 27.1904 0.0000 5.7539 0.0000
# 2 12.4258 38.0526 21.7743 0.0000 -2.7989 0.0000
# 3 27.1904 21.7743 145.9712 0.0000 -4.6122 0.0000
# 4 0.0000 0.0000 0.0000 30.0259 0.0000 -11.5236
# 5 5.7539 -2.7989 -4.6122 0.0000 28.8708 0.0000
# 6 0.0000 0.0000 0.0000 -11.5236 0.0000 22.9392
#
#
#
# Elastic Compliance Matrix: (Units=1/GPa)
#
#
# Indices 1 2 3 4 5 6 
#
# 1 0.024111 -0.006162 -0.003762 0.000000 -0.006004 0.000000
# 2 -0.006162 0.030436 -0.003277 0.000000 0.003655 0.000000
# 3 -0.003762 -0.003277 0.008095 0.000000 0.001725 0.000000
# 4 0.000000 0.000000 0.000000 0.041259 0.000000 0.020727
# 5 -0.006004 0.003655 0.001725 0.000000 0.036464 0.000000
# 6 0.000000 0.000000 0.000000 0.020727 0.000000 0.054006
#
#
# Mechanical properties :
#
#
# Convention : Reuss Voigt Hill
#
# Bulk Modulus (GPa) = 27.59394 39.68110 33.63752
# Shear Modulus (GPa) = 21.47289 27.89772 24.68530
#
# Velocity S-wave (km/s) = 3.12150 3.55797 3.34686
# Velocity P-wave (km/s) = 5.05104 5.90635 5.49536
#
# Compressibility (1/GPa) = 0.03623984
#
# Stress axis : x y z
#
# Youngs Moduli (GPa) = 41.47445 32.85629 123.53850
#
# Poissons Ratio (x) = 0.20248 0.46471
# Poissons Ratio (y) = 0.25559 0.40479
# Poissons Ratio (z) = 0.15601 0.10766
#
# Static dielectric constant tensor:
#      x y z
#    x 3.816160 0.000000 -0.107320 
#    y 0.000000 3.705920 0.000000 
#    z -0.107320 0.000000 3.846670 
# 
# 
# High freq. dielectric constant tensor:
#      x y z
#    x 1.852380 0.000000 -0.007180 
#    y 0.000000 1.856780 0.000000 
#    z -0.007180 0.000000 1.873870 
# 
# From -- ./inp_files/68321.got.cif
#   From: 2010.03.12/outbox.cif.g09.slc.cpg/sg14_35_cif.got.tgz:68321.got - 2010.03.31 13:35:05.
