data_PCOD8126399
_publ_section_title
;
Structure prediction by ZEFSAII (Michael W. Deem and Ramdas Pophale) SiO2 
 PCOD8126399
Probable space group: P 21/C
;
_chemical_formula_sum "Si O2"
_cell_formula_units_Z 32
_cell_length_a 14.953448
_cell_length_b 15.353665
_cell_length_c 21.084007
_cell_angle_alpha 90.000000
_cell_angle_beta 160.042478
_cell_angle_gamma 90.000000
_cell_volume 1652.237952
_symmetry_space_group_name_H-M "P 21/C"
_symmetry_group_IT_number 14
_symmetry_cell_setting 'monoclinic'
loop_
_space_group_symop_operation_xyz
x,y,z
-x,1/2+y,1/2-z
-x,-y,-z
x,1/2-y,1/2+z
loop_
_atom_site_type_symbol
_atom_site_label
_atom_site_fract_x
_atom_site_fract_y
_atom_site_fract_z
Si Si1 0.916495 0.765894 0.521686
Si Si2 0.772730 0.889258 0.842503
Si Si3 0.092772 0.984214 0.959768
Si Si4 0.612351 0.101633 0.146096
Si Si5 0.710042 0.903303 0.193956
Si Si6 0.188983 0.673289 0.944051
Si Si7 0.450229 0.844018 0.144749
Si Si8 0.094947 0.137123 0.874195
O O1 0.939065 0.692339 0.481403
O O2 0.648113 0.819290 0.333223
O O3 0.891454 0.722227 0.573495
O O4 0.165713 0.829168 0.687326
O O5 0.878205 0.915797 0.843054
O O6 0.471312 0.868495 0.635541
O O7 0.781245 0.970563 0.895288
O O8 0.970223 0.055783 0.830130
O O9 0.320487 0.935768 0.073414
O O10 0.730240 0.004828 0.225146
O O11 0.496445 0.118925 0.999057
O O12 0.386506 0.110622 0.047742
O O13 0.620033 0.848077 0.194031
O O14 0.999671 0.872642 0.368276
O O15 0.086828 0.660053 0.805354
O O16 0.214919 0.774841 0.978775
#
# Coordination Sequence:
#
# PCOD8126399 Si02
#       8
#     4   4   4   4   4   4   4   4
#     4  10  23  36  61  88 120 157 196 245 298 359
#     4   9  22  41  59  87 121 158 200 247 295 359
#     4  10  21  40  61  84 120 157 197 245 297 354
#     4  10  21  40  62  88 122 155 202 250 302 360
#     4  10  22  40  62  90 121 156 201 254 300 361
#     4  10  23  39  63  87 122 155 202 248 299 357
#     4  11  23  37  61  90 119 160 196 247 301 358
#     4  10  21  43  60  88 120 158 197 252 299 357
#
# _framework density 19.367671000000001
#
# number of rings (size 3 to 8) (size 9 to 14) (size 15 to 20)
#    0.000    2.000    1.250    0.750    7.000    3.000 
#    0.000    0.000    0.000    0.000    0.000    0.000 
#    0.000    0.000    0.000    0.000    0.000    0.000 
#
# Total GULP energy -396818.625514 kJ/mol
# GULP energy per Si atom -12400.582047 kJ/mol
# Density = 1.932359 g / cm^3
# Si number density = 19.367671 Si / 1000 Ang^3
#
#
#
# Elastic Constant Matrix: (Units=GPa)
#
#
# Indices 1 2 3 4 5 6 
#
# 1 94.5267 38.7335 46.1410 0.0000 6.6422 0.0000
# 2 38.7335 104.1873 61.4208 0.0000 6.2836 0.0000
# 3 46.1410 61.4208 106.4875 0.0000 5.2419 0.0000
# 4 0.0000 0.0000 0.0000 25.5759 0.0000 12.7995
# 5 6.6422 6.2836 5.2419 0.0000 17.8904 0.0000
# 6 0.0000 0.0000 0.0000 12.7995 0.0000 31.5214
#
#
#
# Elastic Compliance Matrix: (Units=1/GPa)
#
#
# Indices 1 2 3 4 5 6 
#
# 1 0.013972 -0.002319 -0.004567 0.000000 -0.003035 0.000000
# 2 -0.002319 0.015057 -0.007571 0.000000 -0.002209 0.000000
# 3 -0.004567 -0.007571 0.015749 0.000000 -0.000260 0.000000
# 4 0.000000 0.000000 0.000000 0.049071 0.000000 -0.019926
# 5 -0.003035 -0.002209 -0.000260 0.000000 0.057875 0.000000
# 6 0.000000 0.000000 0.000000 -0.019926 0.000000 0.039815
#
#
# Mechanical properties :
#
#
# Convention : Reuss Voigt Hill
#
# Bulk Modulus (GPa) = 63.03620 66.42133 64.72877
# Shear Modulus (GPa) = 22.14929 25.59130 23.87030
#
# Velocity S-wave (km/s) = 3.38542 3.63897 3.51448
# Velocity P-wave (km/s) = 6.92092 7.21287 7.06841
#
# Compressibility (1/GPa) = 0.01586390
#
# Stress axis : x y z
#
# Youngs Moduli (GPa) = 71.57300 66.41567 63.49458
#
# Poissons Ratio (x) = 0.15401 0.28999
# Poissons Ratio (y) = 0.16596 0.48072
# Poissons Ratio (z) = 0.32688 0.50284
#
# Static dielectric constant tensor:
#      x y z
#    x 3.642530 0.000000 -0.062220 
#    y 0.000000 3.728580 0.000000 
#    z -0.062220 0.000000 3.418700 
# 
# 
# High freq. dielectric constant tensor:
#      x y z
#    x 1.763730 0.000000 -0.002890 
#    y 0.000000 1.767190 0.000000 
#    z -0.002890 0.000000 1.742520 
# 
# From -- ./inp_files/25243.got.cif
#   From: 2010.03.12/outbox.cif.g09.slc.cpg/sg14_13_cif.got.tgz:25243.got - 2010.03.31 13:35:05.
