data_PCOD8126989
_publ_section_title
;
Structure prediction by ZEFSAII (Michael W. Deem and Ramdas Pophale) SiO2 
 PCOD8126989
Probable space group: P 21/C
;
_chemical_formula_sum "Si O2"
_cell_formula_units_Z 24
_cell_length_a 28.568173
_cell_length_b 9.905687
_cell_length_c 12.901608
_cell_angle_alpha 90.000000
_cell_angle_beta 18.244305
_cell_angle_gamma 90.000000
_cell_volume 1143.013981
_symmetry_space_group_name_H-M "P 21/C"
_symmetry_group_IT_number 14
_symmetry_cell_setting 'monoclinic'
loop_
_space_group_symop_operation_xyz
x,y,z
-x,1/2+y,1/2-z
-x,-y,-z
x,1/2-y,1/2+z
loop_
_atom_site_type_symbol
_atom_site_label
_atom_site_fract_x
_atom_site_fract_y
_atom_site_fract_z
Si Si1 0.382038 0.233809 0.585040
Si Si2 0.810759 0.267136 0.674417
Si Si3 0.167900 0.621311 0.073170
Si Si4 0.603970 0.219626 0.291645
Si Si5 0.569582 0.064424 0.566119
Si Si6 0.068028 0.175204 0.775348
O O1 0.449157 0.255794 0.559509
O O2 0.425604 0.360193 0.418890
O O3 0.445117 0.097768 0.397011
O O4 0.202883 0.219186 0.974615
O O5 0.845765 0.151730 0.518573
O O6 0.965262 0.332069 0.389066
O O7 0.723185 0.188737 0.949848
O O8 0.715006 0.387317 0.824025
O O9 0.147396 0.464726 0.135042
O O10 0.039737 0.710234 0.401104
O O11 0.331953 0.656076 0.774510
O O12 0.582923 0.095108 0.414891
#
# Coordination Sequence:
#
# PCOD8126989 Si02
#       6
#     4   4   4   4   4   4
#     4  11  24  39  63  95 122 164 208 251 307 366
#     4   9  20  40  62  86 124 165 199 258 307 360
#     4   9  20  41  60  86 124 163 200 255 307 361
#     4   9  20  41  62  83 126 161 202 253 307 357
#     4  10  23  42  61  92 127 163 207 254 306 364
#     4  10  22  37  61  92 122 160 211 246 306 371
#
# _framework density 20.997118
#
# number of rings (size 3 to 8) (size 9 to 14) (size 15 to 20)
#    0.000    2.333    0.000    0.500    9.333    2.000 
#    9.000    2.500    0.000    0.000    0.000    0.000 
#    0.000    0.000    0.000    0.000    0.000    0.000 
#
# Total GULP energy -297491.656170 kJ/mol
# GULP energy per Si atom -12395.485674 kJ/mol
# Density = 2.094933 g / cm^3
# Si number density = 20.997118 Si / 1000 Ang^3
#
#
#
# Elastic Constant Matrix: (Units=GPa)
#
#
# Indices 1 2 3 4 5 6 
#
# 1 130.6093 8.5671 49.4187 0.0000 2.9803 0.0000
# 2 8.5671 40.9239 9.7866 0.0000 5.8587 0.0000
# 3 49.4187 9.7866 87.6634 0.0000 -12.5031 0.0000
# 4 0.0000 0.0000 0.0000 26.7505 0.0000 2.9370
# 5 2.9803 5.8587 -12.5031 0.0000 39.3615 0.0000
# 6 0.0000 0.0000 0.0000 2.9370 0.0000 18.0494
#
#
#
# Elastic Compliance Matrix: (Units=1/GPa)
#
#
# Indices 1 2 3 4 5 6 
#
# 1 0.009996 -0.000290 -0.005975 0.000000 -0.002612 0.000000
# 2 -0.000290 0.026029 -0.003448 0.000000 -0.004948 0.000000
# 3 -0.005975 -0.003448 0.016024 0.000000 0.006056 0.000000
# 4 0.000000 0.000000 0.000000 0.038062 0.000000 -0.006193
# 5 -0.002612 -0.004948 0.006056 0.000000 0.028263 0.000000
# 6 0.000000 0.000000 0.000000 -0.006193 0.000000 0.056411
#
#
# Mechanical properties :
#
#
# Convention : Reuss Voigt Hill
#
# Bulk Modulus (GPa) = 30.65302 43.86014 37.25658
# Shear Modulus (GPa) = 24.37991 29.59390 26.98691
#
# Velocity S-wave (km/s) = 3.41120 3.75831 3.58895
# Velocity P-wave (km/s) = 5.49048 6.30612 5.91238
#
# Compressibility (1/GPa) = 0.03262322
#
# Stress axis : x y z
#
# Youngs Moduli (GPa) = 100.04163 38.41843 62.40528
#
# Poissons Ratio (x) = 0.01113 0.37288
# Poissons Ratio (y) = 0.02899 0.21518
# Poissons Ratio (z) = 0.59776 0.13247
#
# Static dielectric constant tensor:
#      x y z
#    x 4.026940 0.000000 0.020820 
#    y 0.000000 3.402030 0.000000 
#    z 0.020820 0.000000 4.013870 
# 
# 
# High freq. dielectric constant tensor:
#      x y z
#    x 1.834910 0.000000 0.001560 
#    y 0.000000 1.791590 0.000000 
#    z 0.001560 0.000000 1.825920 
# 
# From -- ./inp_files/24156.got.cif
#   From: 2010.03.12/outbox.cif.g09.slc.cpg/sg14_13_cif.got.tgz:24156.got - 2010.03.31 13:35:05.
