data_PCOD8126760
_publ_section_title
;
Structure prediction by ZEFSAII (Michael W. Deem and Ramdas Pophale) SiO2 
 PCOD8126760
Probable space group: P 21/C
;
_chemical_formula_sum "Si O2"
_cell_formula_units_Z 28
_cell_length_a 8.467610
_cell_length_b 15.105931
_cell_length_c 13.548826
_cell_angle_alpha 90.000000
_cell_angle_beta 127.513071
_cell_angle_gamma 90.000000
_cell_volume 1374.676859
_symmetry_space_group_name_H-M "P 21/C"
_symmetry_group_IT_number 14
_symmetry_cell_setting 'monoclinic'
loop_
_space_group_symop_operation_xyz
x,y,z
-x,1/2+y,1/2-z
-x,-y,-z
x,1/2-y,1/2+z
loop_
_atom_site_type_symbol
_atom_site_label
_atom_site_fract_x
_atom_site_fract_y
_atom_site_fract_z
Si Si1 0.825574 0.692214 0.759926
Si Si2 0.559673 0.457589 0.205645
Si Si3 0.418259 0.470706 0.364753
Si Si4 0.481098 0.348747 0.860959
Si Si5 0.261184 0.810140 0.348597
Si Si6 0.240608 0.855916 0.719661
Si Si7 0.116719 0.409677 0.021250
O O1 0.693675 0.619862 0.653109
O O2 0.704693 0.783333 0.720460
O O3 0.030296 0.703474 0.781226
O O4 0.878121 0.657688 0.887193
O O5 0.571203 0.455408 0.330608
O O6 0.614274 0.553362 0.182120
O O7 0.717777 0.386695 0.225762
O O8 0.342250 0.432602 0.078228
O O9 0.500000 0.500000 0.500000
O O10 0.270095 0.545547 0.270657
O O11 0.640932 0.337154 0.835574
O O12 0.599208 0.332643 0.006787
O O13 0.323521 0.715295 0.328322
O O14 0.001882 0.854636 0.608302
O O15 0.000000 0.500000 0.000000
#
# Coordination Sequence:
#
# PCOD8126760 Si02
#       7
#     4   4   4   4   4   4   4
#     4  11  23  40  64  93 130 166 216 264 323 380
#     4  10  23  41  69  91 128 169 219 264 317 383
#     4  10  21  42  65  91 129 170 207 265 327 381
#     4  11  23  43  64  94 129 172 215 267 320 384
#     4  12  25  40  62  98 128 167 218 270 314 387
#     4  11  22  38  66  92 127 166 216 256 328 377
#     4  11  18  42  69  92 121 171 213 264 316 392
#
# _framework density 20.368424000000001
#
# number of rings (size 3 to 8) (size 9 to 14) (size 15 to 20)
#    0.000    1.143    5.714    3.000    2.000    1.143 
#    5.143    0.714    0.000    0.000    0.000    0.000 
#    0.000    0.000    0.000    0.000    0.000    0.000 
#
# Total GULP energy -347058.359872 kJ/mol
# GULP energy per Si atom -12394.941424 kJ/mol
# Density = 2.032206 g / cm^3
# Si number density = 20.368424 Si / 1000 Ang^3
#
#
#
# Elastic Constant Matrix: (Units=GPa)
#
#
# Indices 1 2 3 4 5 6 
#
# 1 76.5334 60.9572 40.7964 0.0000 6.1585 0.0000
# 2 60.9572 119.0949 17.7114 0.0000 -3.7797 0.0000
# 3 40.7964 17.7114 102.1385 0.0000 -5.2944 0.0000
# 4 0.0000 0.0000 0.0000 29.7735 0.0000 -1.9425
# 5 6.1585 -3.7797 -5.2944 0.0000 19.8867 0.0000
# 6 0.0000 0.0000 0.0000 -1.9425 0.0000 28.9387
#
#
#
# Elastic Compliance Matrix: (Units=1/GPa)
#
#
# Indices 1 2 3 4 5 6 
#
# 1 0.032791 -0.015626 -0.011223 0.000000 -0.016112 0.000000
# 2 -0.015626 0.016096 0.003914 0.000000 0.008940 0.000000
# 3 -0.011223 0.003914 0.014007 0.000000 0.007948 0.000000
# 4 0.000000 0.000000 0.000000 0.033735 0.000000 0.002264
# 5 -0.016112 0.008940 0.007948 0.000000 0.059090 0.000000
# 6 0.000000 0.000000 0.000000 0.002264 0.000000 0.034708
#
#
# Mechanical properties :
#
#
# Convention : Reuss Voigt Hill
#
# Bulk Modulus (GPa) = 58.74321 59.63298 59.18810
# Shear Modulus (GPa) = 20.66364 27.60658 24.13511
#
# Velocity S-wave (km/s) = 3.18857 3.68552 3.44601
# Velocity P-wave (km/s) = 6.51605 6.88850 6.70486
#
# Compressibility (1/GPa) = 0.01702324
#
# Stress axis : x y z
#
# Youngs Moduli (GPa) = 30.49636 62.12612 71.39444
#
# Poissons Ratio (x) = 0.97077 0.80126
# Poissons Ratio (y) = 0.47653 -0.27941
# Poissons Ratio (z) = 0.34226 -0.24313
#
# Static dielectric constant tensor:
#      x y z
#    x 3.807980 0.000000 -0.612690 
#    y 0.000000 3.967320 0.000000 
#    z -0.612690 0.000000 7.217440 
# 
# 
# High freq. dielectric constant tensor:
#      x y z
#    x 1.784050 0.000000 -0.006920 
#    y 0.000000 1.812930 0.000000 
#    z -0.006920 0.000000 1.794580 
# 
# From -- ./inp_files/25597.got.cif
#   From: 2010.03.12/outbox.cif.g09.slc.cpg/sg14_13_cif.got.tgz:25597.got - 2010.03.31 13:35:05.
