data_PCOD8126396
_publ_section_title
;
Structure prediction by ZEFSAII (Michael W. Deem and Ramdas Pophale) SiO2 
 PCOD8126396
Probable space group: P 21/C
;
_chemical_formula_sum "Si O2"
_cell_formula_units_Z 32
_cell_length_a 12.040931
_cell_length_b 9.015983
_cell_length_c 13.692830
_cell_angle_alpha 90.000000
_cell_angle_beta 69.111356
_cell_angle_gamma 90.000000
_cell_volume 1388.804679
_symmetry_space_group_name_H-M "P 21/C"
_symmetry_group_IT_number 14
_symmetry_cell_setting 'monoclinic'
loop_
_space_group_symop_operation_xyz
x,y,z
-x,1/2+y,1/2-z
-x,-y,-z
x,1/2-y,1/2+z
loop_
_atom_site_type_symbol
_atom_site_label
_atom_site_fract_x
_atom_site_fract_y
_atom_site_fract_z
Si Si1 0.964280 0.280662 0.642512
Si Si2 0.068772 0.929213 0.176351
Si Si3 0.269196 0.421893 0.740824
Si Si4 0.173951 0.368263 0.980146
Si Si5 0.385871 0.301224 0.060540
Si Si6 0.208577 0.811639 0.535491
Si Si7 0.691822 0.280095 0.183802
Si Si8 0.601159 0.374609 0.878558
O O1 0.995311 0.182201 0.728457
O O2 0.833489 0.247647 0.646128
O O3 0.973400 0.456062 0.662591
O O4 0.058272 0.233344 0.530063
O O5 0.121140 0.829004 0.071315
O O6 0.168522 0.028832 0.196817
O O7 0.360451 0.316258 0.654086
O O8 0.342881 0.564111 0.755219
O O9 0.212894 0.345274 0.855097
O O10 0.275674 0.314967 0.022180
O O11 0.142659 0.540384 0.015696
O O12 0.423077 0.452992 0.102423
O O13 0.501337 0.267385 0.957648
O O14 0.323759 0.781189 0.428379
O O15 0.266656 0.834084 0.623632
O O16 0.609680 0.156584 0.259654
#
# Coordination Sequence:
#
# PCOD8126396 Si02
#       8
#     4   4   4   4   4   4   4   4
#     4  11  22  36  60  91 122 158 202 244 303 361
#     4  11  22  37  61  89 122 168 200 246 298 372
#     4  10  21  40  60  91 121 155 210 243 302 361
#     4  10  22  39  61  90 123 162 196 250 305 365
#     4  10  22  40  64  85 119 160 201 254 304 357
#     4  10  21  41  60  84 127 159 200 243 309 358
#     4  10  23  39  59  90 121 160 197 253 301 361
#     4  10  21  42  61  86 119 159 201 251 305 355
#
# _framework density 23.041397
#
# number of rings (size 3 to 8) (size 9 to 14) (size 15 to 20)
#    0.000    1.750    3.750    0.750    1.750    8.500 
#    0.000    0.000    0.000    0.000    0.000    0.000 
#    0.000    0.000    0.000    0.000    0.000    0.000 
#
# Total GULP energy -396682.192322 kJ/mol
# GULP energy per Si atom -12396.318510 kJ/mol
# Density = 2.298895 g / cm^3
# Si number density = 23.041397 Si / 1000 Ang^3
#
#
#
# Elastic Constant Matrix: (Units=GPa)
#
#
# Indices 1 2 3 4 5 6 
#
# 1 21.9673 14.9483 6.5780 0.0000 -9.9437 0.0000
# 2 14.9483 88.8799 28.2365 0.0000 -7.8059 0.0000
# 3 6.5780 28.2365 102.8322 0.0000 -8.5820 0.0000
# 4 0.0000 0.0000 0.0000 54.7296 0.0000 -8.0715
# 5 -9.9437 -7.8059 -8.5820 0.0000 29.6658 0.0000
# 6 0.0000 0.0000 0.0000 -8.0715 0.0000 22.7479
#
#
#
# Elastic Compliance Matrix: (Units=1/GPa)
#
#
# Indices 1 2 3 4 5 6 
#
# 1 0.059232 -0.008410 -0.000007 0.000000 0.017639 0.000000
# 2 -0.008410 0.013679 -0.003231 0.000000 -0.000155 0.000000
# 3 -0.000007 -0.003231 0.010802 0.000000 0.002272 0.000000
# 4 0.000000 0.000000 0.000000 0.019281 0.000000 0.006841
# 5 0.017639 -0.000155 0.002272 0.000000 0.040238 0.000000
# 6 0.000000 0.000000 0.000000 0.006841 0.000000 0.046387
#
#
# Mechanical properties :
#
#
# Convention : Reuss Voigt Hill
#
# Bulk Modulus (GPa) = 16.55222 34.80054 25.67638
# Shear Modulus (GPa) = 21.45423 32.35644 26.90534
#
# Velocity S-wave (km/s) = 3.05473 3.75143 3.42086
# Velocity P-wave (km/s) = 4.43183 5.82242 5.17406
#
# Compressibility (1/GPa) = 0.06041487
#
# Stress axis : x y z
#
# Youngs Moduli (GPa) = 16.88274 73.10742 92.57678
#
# Poissons Ratio (x) = 0.61487 0.00069
# Poissons Ratio (y) = 0.14199 0.29910
# Poissons Ratio (z) = 0.00013 0.23620
#
# Static dielectric constant tensor:
#      x y z
#    x 3.726590 0.000000 0.089120 
#    y 0.000000 4.126470 0.000000 
#    z 0.089120 0.000000 4.490060 
# 
# 
# High freq. dielectric constant tensor:
#      x y z
#    x 1.884150 0.000000 0.001920 
#    y 0.000000 1.898910 0.000000 
#    z 0.001920 0.000000 1.929950 
# 
# From -- ./inp_files/46504.got.cif
#   From: 2010.03.12/outbox.cif.g09.slc.cpg/sg14_24_cif.got.tgz:46504.got - 2010.03.31 13:35:05.
