data_PCOD8126105
_publ_section_title
;
Structure prediction by ZEFSAII (Michael W. Deem and Ramdas Pophale) SiO2 
 PCOD8126105
Probable space group: P 21/C
;
_chemical_formula_sum "Si O2"
_cell_formula_units_Z 28
_cell_length_a 9.237374
_cell_length_b 7.539875
_cell_length_c 26.362807
_cell_angle_alpha 90.000000
_cell_angle_beta 136.130307
_cell_angle_gamma 90.000000
_cell_volume 1272.478526
_symmetry_space_group_name_H-M "P 21/C"
_symmetry_group_IT_number 14
_symmetry_cell_setting 'monoclinic'
loop_
_space_group_symop_operation_xyz
x,y,z
-x,1/2+y,1/2-z
-x,-y,-z
x,1/2-y,1/2+z
loop_
_atom_site_type_symbol
_atom_site_label
_atom_site_fract_x
_atom_site_fract_y
_atom_site_fract_z
Si Si1 0.510244 0.774102 0.451269
Si Si2 0.812712 0.859908 0.317324
Si Si3 0.752084 0.375099 0.020062
Si Si4 0.749308 0.348180 0.207374
Si Si5 0.817667 0.752820 0.207758
Si Si6 0.531972 0.607351 0.300883
Si Si7 0.595944 0.072376 0.921740
O O1 0.413889 0.788409 0.482772
O O2 0.316774 0.777339 0.364181
O O3 0.629357 0.588305 0.470455
O O4 0.668915 0.935474 0.479836
O O5 0.869288 0.857935 0.272352
O O6 0.727695 0.671608 0.316752
O O7 0.018767 0.912518 0.400251
O O8 0.626310 0.002759 0.276071
O O9 0.760191 0.230667 0.976305
O O10 0.750625 0.558367 0.207145
O O11 0.588048 0.280425 0.208520
O O12 0.977344 0.263002 0.275868
O O13 0.636208 0.847320 0.130245
O O14 0.623633 0.488184 0.370231
#
# Coordination Sequence:
#
# PCOD8126105 Si02
#       7
#     4   4   4   4   4   4   4
#     4  10  21  38  60  99 129 160 210 273 315 386
#     4  11  23  43  61  96 120 177 207 273 309 390
#     4  11  22  39  64  91 136 164 212 260 336 369
#     4  11  20  38  63  95 121 171 206 274 309 386
#     4  11  21  37  67  91 128 161 225 254 329 367
#     4  10  24  42  65  87 133 161 227 255 325 369
#     4  10  22  41  62  93 128 171 206 271 312 389
#
# _framework density 22.004301000000002
#
# number of rings (size 3 to 8) (size 9 to 14) (size 15 to 20)
#    0.000    1.429    2.857    3.857    0.000    0.571 
#    5.143    2.857    0.000    0.000    0.000    0.000 
#    0.000    0.000    0.000    0.000    0.000    0.000 
#
# Total GULP energy -347188.822268 kJ/mol
# GULP energy per Si atom -12399.600795 kJ/mol
# Density = 2.195422 g / cm^3
# Si number density = 22.004301 Si / 1000 Ang^3
#
#
#
# Elastic Constant Matrix: (Units=GPa)
#
#
# Indices 1 2 3 4 5 6 
#
# 1 44.6878 9.7373 13.3575 0.0000 0.3335 0.0000
# 2 9.7373 131.2576 40.0202 0.0000 -2.1417 0.0000
# 3 13.3575 40.0202 87.9358 0.0000 -1.2090 0.0000
# 4 0.0000 0.0000 0.0000 37.6828 0.0000 -1.2495
# 5 0.3335 -2.1417 -1.2090 0.0000 15.4845 0.0000
# 6 0.0000 0.0000 0.0000 -1.2495 0.0000 23.8555
#
#
#
# Elastic Compliance Matrix: (Units=1/GPa)
#
#
# Indices 1 2 3 4 5 6 
#
# 1 0.023519 -0.000773 -0.003232 0.000000 -0.000866 0.000000
# 2 -0.000773 0.008884 -0.003913 0.000000 0.000940 0.000000
# 3 -0.003232 -0.003913 0.013652 0.000000 0.000594 0.000000
# 4 0.000000 0.000000 0.000000 0.026583 0.000000 0.001392
# 5 -0.000866 0.000940 0.000594 0.000000 0.064776 0.000000
# 6 0.000000 0.000000 0.000000 0.001392 0.000000 0.041992
#
#
# Mechanical properties :
#
#
# Convention : Reuss Voigt Hill
#
# Bulk Modulus (GPa) = 33.09337 43.34569 38.21953
# Shear Modulus (GPa) = 24.35268 28.78897 26.57083
#
# Velocity S-wave (km/s) = 3.33035 3.62101 3.47872
# Velocity P-wave (km/s) = 5.46448 6.10113 5.79156
#
# Compressibility (1/GPa) = 0.03021753
#
# Stress axis : x y z
#
# Youngs Moduli (GPa) = 42.51945 112.55727 73.24969
#
# Poissons Ratio (x) = 0.08704 0.23678
# Poissons Ratio (y) = 0.03288 0.28662
# Poissons Ratio (z) = 0.13744 0.44043
#
# Static dielectric constant tensor:
#      x y z
#    x 3.640430 0.000000 -0.082990 
#    y 0.000000 4.167380 0.000000 
#    z -0.082990 0.000000 3.891610 
# 
# 
# High freq. dielectric constant tensor:
#      x y z
#    x 1.837620 0.000000 -0.003600 
#    y 0.000000 1.879110 0.000000 
#    z -0.003600 0.000000 1.861290 
# 
# From -- ./inp_files/76508.got.cif
#   From: 2010.03.12/outbox.cif.g09.slc.cpg/sg14_39_cif.got.tgz:76508.got - 2010.03.31 13:35:05.
