data_PCOD8126796
_publ_section_title
;
Structure prediction by ZEFSAII (Michael W. Deem and Ramdas Pophale) SiO2 
 PCOD8126796
Probable space group: P 21/C
;
_chemical_formula_sum "Si O2"
_cell_formula_units_Z 28
_cell_length_a 12.863995
_cell_length_b 8.649855
_cell_length_c 19.165322
_cell_angle_alpha 90.000000
_cell_angle_beta 36.381640
_cell_angle_gamma 90.000000
_cell_volume 1264.949974
_symmetry_space_group_name_H-M "P 21/C"
_symmetry_group_IT_number 14
_symmetry_cell_setting 'monoclinic'
loop_
_space_group_symop_operation_xyz
x,y,z
-x,1/2+y,1/2-z
-x,-y,-z
x,1/2-y,1/2+z
loop_
_atom_site_type_symbol
_atom_site_label
_atom_site_fract_x
_atom_site_fract_y
_atom_site_fract_z
Si Si1 0.774011 0.798375 0.358305
Si Si2 0.887858 0.371363 0.817644
Si Si3 0.522789 0.580910 0.562068
Si Si4 0.781890 0.285378 0.724279
Si Si5 0.322456 0.790197 0.955638
Si Si6 0.986695 0.323644 0.486440
Si Si7 0.662362 0.620496 0.768440
O O1 0.647285 0.728894 0.485490
O O2 0.662045 0.842236 0.351048
O O3 0.921775 0.674765 0.256507
O O4 0.865800 0.946911 0.343285
O O5 0.885008 0.338813 0.736886
O O6 0.734485 0.277340 0.938586
O O7 0.500000 0.500000 0.500000
O O8 0.341895 0.640563 0.692685
O O9 0.606910 0.463482 0.571952
O O10 0.925096 0.230424 0.589008
O O11 0.677204 0.435106 0.749660
O O12 0.154956 0.792501 0.996880
O O13 0.476527 0.682826 0.839704
O O14 0.000000 0.500000 0.500000
O O15 0.180987 0.282003 0.353541
#
# Coordination Sequence:
#
# PCOD8126796 Si02
#       7
#     4   4   4   4   4   4   4
#     4  11  22  37  64 100 132 167 223 282 339 393
#     4  11  22  39  68  98 129 174 225 278 337 396
#     4  12  23  38  65 100 132 168 227 287 327 398
#     4  10  23  42  63  95 134 176 226 277 339 401
#     4  12  23  41  71  97 133 177 227 273 339 397
#     4  10  24  45  66  94 138 181 220 271 340 406
#     4  10  21  42  69  93 131 180 222 279 336 401
#
# _framework density 22.135262999999998
#
# number of rings (size 3 to 8) (size 9 to 14) (size 15 to 20)
#    0.000    1.143    4.286    1.714    4.000    4.571 
#    0.000    0.714    0.000    0.000    0.000    0.000 
#    0.000    0.000    0.000    0.000    0.000    0.000 
#
# Total GULP energy -347226.507910 kJ/mol
# GULP energy per Si atom -12400.946711 kJ/mol
# Density = 2.208488 g / cm^3
# Si number density = 22.135263 Si / 1000 Ang^3
#
#
#
# Elastic Constant Matrix: (Units=GPa)
#
#
# Indices 1 2 3 4 5 6 
#
# 1 57.4425 11.3505 27.7754 0.0000 -2.5262 0.0000
# 2 11.3505 71.1286 17.8089 0.0000 4.1231 0.0000
# 3 27.7754 17.8089 130.0416 0.0000 3.9523 0.0000
# 4 0.0000 0.0000 0.0000 41.2892 0.0000 -7.1706
# 5 -2.5262 4.1231 3.9523 0.0000 33.9309 0.0000
# 6 0.0000 0.0000 0.0000 -7.1706 0.0000 27.8284
#
#
#
# Elastic Compliance Matrix: (Units=1/GPa)
#
#
# Indices 1 2 3 4 5 6 
#
# 1 0.019897 -0.002302 -0.004002 0.000000 0.002227 0.000000
# 2 -0.002302 0.014905 -0.001495 0.000000 -0.001809 0.000000
# 3 -0.004002 -0.001495 0.008784 0.000000 -0.001140 0.000000
# 4 0.000000 0.000000 0.000000 0.025354 0.000000 0.006533
# 5 0.002227 -0.001809 -0.001140 0.000000 0.029990 0.000000
# 6 0.000000 0.000000 0.000000 0.006533 0.000000 0.037618
#
#
# Mechanical properties :
#
#
# Convention : Reuss Voigt Hill
#
# Bulk Modulus (GPa) = 35.72906 41.38693 38.55799
# Shear Modulus (GPa) = 30.96453 34.05489 32.50971
#
# Velocity S-wave (km/s) = 3.74421 3.92661 3.83650
# Velocity P-wave (km/s) = 5.90495 6.26862 6.08950
#
# Compressibility (1/GPa) = 0.02798843
#
# Stress axis : x y z
#
# Youngs Moduli (GPa) = 50.25957 67.08952 113.84373
#
# Poissons Ratio (x) = 0.15445 0.45562
# Poissons Ratio (y) = 0.11570 0.17015
# Poissons Ratio (z) = 0.20114 0.10027
#
# Static dielectric constant tensor:
#      x y z
#    x 3.879200 0.000000 0.433160 
#    y 0.000000 4.069950 0.000000 
#    z 0.433160 0.000000 5.254540 
# 
# 
# High freq. dielectric constant tensor:
#      x y z
#    x 1.848900 0.000000 -0.006370 
#    y 0.000000 1.861310 0.000000 
#    z -0.006370 0.000000 1.886460 
# 
# From -- ./inp_files/50263.got.cif
#   From: 2010.03.12/outbox.cif.g09.slc.cpg/sg14_26_cif.got.tgz:50263.got - 2010.03.31 13:35:05.
