data_PCOD8126988
_publ_section_title
;
Structure prediction by ZEFSAII (Michael W. Deem and Ramdas Pophale) SiO2 
 PCOD8126988
Probable space group: P 21/C
;
_chemical_formula_sum "Si O2"
_cell_formula_units_Z 28
_cell_length_a 13.373338
_cell_length_b 20.881504
_cell_length_c 13.470944
_cell_angle_alpha 90.000000
_cell_angle_beta 157.955707
_cell_angle_gamma 90.000000
_cell_volume 1411.903760
_symmetry_space_group_name_H-M "P 21/C"
_symmetry_group_IT_number 14
_symmetry_cell_setting 'monoclinic'
loop_
_space_group_symop_operation_xyz
x,y,z
-x,1/2+y,1/2-z
-x,-y,-z
x,1/2-y,1/2+z
loop_
_atom_site_type_symbol
_atom_site_label
_atom_site_fract_x
_atom_site_fract_y
_atom_site_fract_z
Si Si1 0.382811 0.725962 0.446905
Si Si2 0.105392 0.899941 0.642549
Si Si3 0.154657 0.802257 0.406747
Si Si4 0.611398 0.741985 0.957584
Si Si5 0.373087 0.135414 0.670793
Si Si6 0.846522 0.059769 0.526466
Si Si7 0.668012 0.479234 0.493618
O O1 0.208125 0.672620 0.229657
O O2 0.198240 0.777048 0.334585
O O3 0.558942 0.762640 0.527037
O O4 0.571509 0.691685 0.699761
O O5 0.010760 0.920542 0.446231
O O6 0.870901 0.905476 0.508783
O O7 0.325851 0.950295 0.887682
O O8 0.344897 0.765330 0.657937
O O9 0.209289 0.878075 0.458029
O O10 0.849696 0.791056 0.156820
O O11 0.690982 0.670603 0.992183
O O12 0.615357 0.084694 0.877594
O O13 0.563390 0.029991 0.238217
O O14 0.049435 0.013110 0.771843
#
# Coordination Sequence:
#
# PCOD8126988 Si02
#       7
#     4   4   4   4   4   4   4
#     4  10  22  37  61  89 120 151 197 248 293 354
#     4  11  20  37  58  85 120 152 189 241 293 356
#     4  11  23  38  59  89 118 157 193 243 298 349
#     4  11  22  40  61  86 119 156 194 243 301 345
#     4  10  22  38  60  87 119 153 197 240 290 353
#     4  12  23  35  57  84 121 154 191 234 294 350
#     4  11  24  36  55  85 118 158 193 231 288 356
#
# _framework density 19.831379999999999
#
# number of rings (size 3 to 8) (size 9 to 14) (size 15 to 20)
#    0.000    1.143    4.286    2.571    4.000    0.000 
#    0.000    0.000    0.000    1.714    0.000    0.000 
#    0.000    0.000    0.000    0.000    0.000    0.000 
#
# Total GULP energy -347093.287370 kJ/mol
# GULP energy per Si atom -12396.188835 kJ/mol
# Density = 1.978624 g / cm^3
# Si number density = 19.831380 Si / 1000 Ang^3
#
#
#
# Elastic Constant Matrix: (Units=GPa)
#
#
# Indices 1 2 3 4 5 6 
#
# 1 83.6056 29.2942 17.8650 0.0000 4.1715 0.0000
# 2 29.2942 97.0527 30.8564 0.0000 -9.3150 0.0000
# 3 17.8650 30.8564 82.9609 0.0000 6.1344 0.0000
# 4 0.0000 0.0000 0.0000 35.8451 0.0000 1.9403
# 5 4.1715 -9.3150 6.1344 0.0000 16.5233 0.0000
# 6 0.0000 0.0000 0.0000 1.9403 0.0000 21.7805
#
#
#
# Elastic Compliance Matrix: (Units=1/GPa)
#
#
# Indices 1 2 3 4 5 6 
#
# 1 0.014016 -0.004485 -0.000927 0.000000 -0.005723 0.000000
# 2 -0.004485 0.014387 -0.005212 0.000000 0.011178 0.000000
# 3 -0.000927 -0.005212 0.014798 0.000000 -0.008198 0.000000
# 4 0.000000 0.000000 0.000000 0.028033 0.000000 -0.002497
# 5 -0.005723 0.011178 -0.008198 0.000000 0.071311 0.000000
# 6 0.000000 0.000000 0.000000 -0.002497 0.000000 0.046135
#
#
# Mechanical properties :
#
#
# Convention : Reuss Voigt Hill
#
# Bulk Modulus (GPa) = 45.55045 46.62782 46.08913
# Shear Modulus (GPa) = 23.01534 27.20335 25.10934
#
# Velocity S-wave (km/s) = 3.41038 3.70771 3.56215
# Velocity P-wave (km/s) = 6.20696 6.47245 6.34110
#
# Compressibility (1/GPa) = 0.02195368
#
# Stress axis : x y z
#
# Youngs Moduli (GPa) = 71.34675 69.50527 67.57590
#
# Poissons Ratio (x) = 0.31174 0.06263
# Poissons Ratio (y) = 0.32000 0.35220
# Poissons Ratio (z) = 0.06613 0.36226
#
# Static dielectric constant tensor:
#      x y z
#    x 3.404490 0.000000 0.030530 
#    y 0.000000 3.872200 0.000000 
#    z 0.030530 0.000000 3.646980 
# 
# 
# High freq. dielectric constant tensor:
#      x y z
#    x 1.722290 0.000000 0.006110 
#    y 0.000000 1.781650 0.000000 
#    z 0.006110 0.000000 1.783850 
# 
# From -- ./inp_files/21504.got.cif
#   From: 2010.03.12/outbox.cif.g09.slc.cpg/sg14_11_cif.got.tgz:21504.got - 2010.03.31 13:35:05.
