data_PCOD8126129
_publ_section_title
;
Structure prediction by ZEFSAII (Michael W. Deem and Ramdas Pophale) SiO2 
 PCOD8126129
Probable space group: P 21/C
;
_chemical_formula_sum "Si O2"
_cell_formula_units_Z 28
_cell_length_a 9.143604
_cell_length_b 11.151922
_cell_length_c 19.829954
_cell_angle_alpha 90.000000
_cell_angle_beta 36.991296
_cell_angle_gamma 90.000000
_cell_volume 1216.646183
_symmetry_space_group_name_H-M "P 21/C"
_symmetry_group_IT_number 14
_symmetry_cell_setting 'monoclinic'
loop_
_space_group_symop_operation_xyz
x,y,z
-x,1/2+y,1/2-z
-x,-y,-z
x,1/2-y,1/2+z
loop_
_atom_site_type_symbol
_atom_site_label
_atom_site_fract_x
_atom_site_fract_y
_atom_site_fract_z
Si Si1 0.749043 0.271243 0.031550
Si Si2 0.133009 0.420911 0.372175
Si Si3 0.348307 0.427456 0.700691
Si Si4 0.352180 0.978847 0.348717
Si Si5 0.360986 0.366890 0.970789
Si Si6 0.729693 0.594358 0.523534
Si Si7 0.806271 0.077186 0.385376
O O1 0.532813 0.184041 0.134818
O O2 0.811349 0.362821 0.070436
O O3 0.995908 0.205283 0.918545
O O4 0.676125 0.347781 0.993281
O O5 0.958801 0.526056 0.406273
O O6 0.374467 0.429271 0.238833
O O7 0.223405 0.433322 0.415195
O O8 0.292175 0.476583 0.796376
O O9 0.469012 0.528912 0.607651
O O10 0.087238 0.391041 0.766236
O O11 0.298233 0.087528 0.419206
O O12 0.284246 0.227732 0.999667
O O13 0.649345 0.388092 0.877556
O O14 0.213939 0.437418 0.083916
#
# Coordination Sequence:
#
# PCOD8126129 Si02
#       7
#     4   4   4   4   4   4   4
#     4  10  21  38  62  87 124 163 197 253 315 363
#     4   9  19  38  60  91 127 148 197 262 309 356
#     4  10  22  39  62  92 118 156 211 250 311 368
#     4  10  22  36  62  93 117 157 206 255 306 368
#     4  10  23  41  60  89 122 161 208 247 311 366
#     4   9  20  38  60  92 120 156 199 255 309 367
#     4  10  23  43  58  85 128 163 203 254 299 381
#
# _framework density 23.014088000000001
#
# number of rings (size 3 to 8) (size 9 to 14) (size 15 to 20)
#    0.000    2.286    0.000    1.714    8.000    2.286 
#   12.857    1.429    0.000    0.000    0.000    0.000 
#    0.000    0.000    0.000    0.000    0.000    0.000 
#
# Total GULP energy -346969.803362 kJ/mol
# GULP energy per Si atom -12391.778692 kJ/mol
# Density = 2.296171 g / cm^3
# Si number density = 23.014088 Si / 1000 Ang^3
#
#
#
# Elastic Constant Matrix: (Units=GPa)
#
#
# Indices 1 2 3 4 5 6 
#
# 1 46.2209 24.3546 16.3178 0.0000 -25.3254 0.0000
# 2 24.3546 136.1525 16.1419 0.0000 0.5346 0.0000
# 3 16.3178 16.1419 50.0788 0.0000 -16.7988 0.0000
# 4 0.0000 0.0000 0.0000 16.5091 0.0000 0.6124
# 5 -25.3254 0.5346 -16.7988 0.0000 27.1291 0.0000
# 6 0.0000 0.0000 0.0000 0.6124 0.0000 23.6185
#
#
#
# Elastic Compliance Matrix: (Units=1/GPa)
#
#
# Indices 1 2 3 4 5 6 
#
# 1 0.055888 -0.010628 0.003517 0.000000 0.054560 0.000000
# 2 -0.010628 0.009755 -0.003880 0.000000 -0.012516 0.000000
# 3 0.003517 -0.003880 0.026758 0.000000 0.019929 0.000000
# 4 0.000000 0.000000 0.000000 0.060631 0.000000 -0.001572
# 5 0.054560 -0.012516 0.019929 0.000000 0.100380 0.000000
# 6 0.000000 0.000000 0.000000 -0.001572 0.000000 0.042380
#
#
# Mechanical properties :
#
#
# Convention : Reuss Voigt Hill
#
# Bulk Modulus (GPa) = 14.20070 38.45341 26.32705
# Shear Modulus (GPa) = 14.65211 25.16054 19.90633
#
# Velocity S-wave (km/s) = 2.52595 3.31005 2.94422
# Velocity P-wave (km/s) = 3.83289 5.59942 4.79815
#
# Compressibility (1/GPa) = 0.07041908
#
# Stress axis : x y z
#
# Youngs Moduli (GPa) = 17.89284 102.51181 37.37187
#
# Poissons Ratio (x) = 1.08953 -0.13143
# Poissons Ratio (y) = 0.19017 0.14499
# Poissons Ratio (z) = -0.06293 0.39771
#
# Static dielectric constant tensor:
#      x y z
#    x 3.906820 0.000000 -0.392220 
#    y 0.000000 4.213270 0.000000 
#    z -0.392220 0.000000 4.276620 
# 
# 
# High freq. dielectric constant tensor:
#      x y z
#    x 1.884730 0.000000 -0.023750 
#    y 0.000000 1.915810 0.000000 
#    z -0.023750 0.000000 1.907170 
# 
# From -- ./inp_files/65510.got.cif
#   From: 2010.03.12/outbox.cif.g09.slc.cpg/sg14_33_cif.got.tgz:65510.got - 2010.03.31 13:35:05.
