data_PCOD8126791
_publ_section_title
;
Structure prediction by ZEFSAII (Michael W. Deem and Ramdas Pophale) SiO2 
 PCOD8126791
Probable space group: P 21/C
;
_chemical_formula_sum "Si O2"
_cell_formula_units_Z 28
_cell_length_a 7.796175
_cell_length_b 8.905435
_cell_length_c 28.080303
_cell_angle_alpha 90.000000
_cell_angle_beta 41.334789
_cell_angle_gamma 90.000000
_cell_volume 1287.607552
_symmetry_space_group_name_H-M "P 21/C"
_symmetry_group_IT_number 14
_symmetry_cell_setting 'monoclinic'
loop_
_space_group_symop_operation_xyz
x,y,z
-x,1/2+y,1/2-z
-x,-y,-z
x,1/2-y,1/2+z
loop_
_atom_site_type_symbol
_atom_site_label
_atom_site_fract_x
_atom_site_fract_y
_atom_site_fract_z
Si Si1 0.885023 0.622946 0.577165
Si Si2 0.837453 0.355592 0.335632
Si Si3 0.068430 0.319597 0.709568
Si Si4 0.124964 0.358304 0.846053
Si Si5 0.973532 0.685753 0.884780
Si Si6 0.272950 0.384701 0.491326
Si Si7 0.530585 0.140040 0.183741
O O1 0.824386 0.782652 0.613631
O O2 0.907266 0.657825 0.516301
O O3 0.646161 0.512653 0.638771
O O4 0.156029 0.541622 0.536974
O O5 0.991088 0.506116 0.288323
O O6 0.560825 0.407454 0.412618
O O7 0.829823 0.246868 0.290864
O O8 0.978899 0.272479 0.348550
O O9 0.332119 0.294127 0.685588
O O10 0.082431 0.231610 0.657475
O O11 0.954098 0.506140 0.890461
O O12 0.384393 0.402776 0.763372
O O13 0.249168 0.739645 0.848676
O O14 0.745144 0.754632 0.965237
#
# Coordination Sequence:
#
# PCOD8126791 Si02
#       7
#     4   4   4   4   4   4   4
#     4  10  21  43  67  94 133 177 223 270 333 397
#     4  11  23  43  67 101 129 174 222 278 337 396
#     4  11  23  42  69  99 133 170 223 278 330 394
#     4  11  24  40  66 100 134 173 220 277 336 390
#     4  11  25  43  66 100 137 173 224 273 331 400
#     4  10  23  43  67  95 129 182 222 266 336 401
#     4  10  21  42  67  99 126 178 225 272 331 394
#
# _framework density 21.745757000000001
#
# number of rings (size 3 to 8) (size 9 to 14) (size 15 to 20)
#    0.000    1.429    1.429    4.286    2.000    4.571 
#    2.571    1.429    0.000    0.000    0.000    0.000 
#    0.000    0.000    0.000    0.000    0.000    0.000 
#
# Total GULP energy -347152.088667 kJ/mol
# GULP energy per Si atom -12398.288881 kJ/mol
# Density = 2.169626 g / cm^3
# Si number density = 21.745757 Si / 1000 Ang^3
#
#
#
# Elastic Constant Matrix: (Units=GPa)
#
#
# Indices 1 2 3 4 5 6 
#
# 1 66.7944 26.1925 14.3937 0.0000 16.7431 0.0000
# 2 26.1925 98.4213 24.9058 0.0000 10.4776 0.0000
# 3 14.3937 24.9058 112.1239 0.0000 9.6518 0.0000
# 4 0.0000 0.0000 0.0000 23.2392 0.0000 12.9713
# 5 16.7431 10.4776 9.6518 0.0000 34.0656 0.0000
# 6 0.0000 0.0000 0.0000 12.9713 0.0000 31.9339
#
#
#
# Elastic Compliance Matrix: (Units=1/GPa)
#
#
# Indices 1 2 3 4 5 6 
#
# 1 0.018624 -0.003919 -0.000857 0.000000 -0.007706 0.000000
# 2 -0.003919 0.011838 -0.002028 0.000000 -0.001140 0.000000
# 3 -0.000857 -0.002028 0.009624 0.000000 -0.001682 0.000000
# 4 0.000000 0.000000 0.000000 0.055647 0.000000 -0.022604
# 5 -0.007706 -0.001140 -0.001682 0.000000 0.033969 0.000000
# 6 0.000000 0.000000 0.000000 -0.022604 0.000000 0.040496
#
#
# Mechanical properties :
#
#
# Convention : Reuss Voigt Hill
#
# Bulk Modulus (GPa) = 37.76813 45.36929 41.56871
# Shear Modulus (GPa) = 25.95591 31.97091 28.96341
#
# Velocity S-wave (km/s) = 3.45861 3.83850 3.65349
# Velocity P-wave (km/s) = 5.77539 6.36822 6.07903
#
# Compressibility (1/GPa) = 0.02647735
#
# Stress axis : x y z
#
# Youngs Moduli (GPa) = 53.69299 84.47334 103.90664
#
# Poissons Ratio (x) = 0.33108 0.08905
# Poissons Ratio (y) = 0.21044 0.21075
# Poissons Ratio (z) = 0.04601 0.17134
#
# Static dielectric constant tensor:
#      x y z
#    x 3.918140 0.000000 0.207900 
#    y 0.000000 3.882490 0.000000 
#    z 0.207900 0.000000 4.175480 
# 
# 
# High freq. dielectric constant tensor:
#      x y z
#    x 1.850970 0.000000 0.019690 
#    y 0.000000 1.846060 0.000000 
#    z 0.019690 0.000000 1.864490 
# 
# From -- ./inp_files/79460.got.cif
#   From: 2010.03.12/outbox.cif.g09.slc.cpg/sg14_40_cif.got.tgz:79460.got - 2010.03.31 13:35:05.
