data_PCOD8126965
_publ_section_title
;
Structure prediction by ZEFSAII (Michael W. Deem and Ramdas Pophale) SiO2 
 PCOD8126965
Probable space group: P 21/C
;
_chemical_formula_sum "Si O2"
_cell_formula_units_Z 20
_cell_length_a 16.593599
_cell_length_b 10.254001
_cell_length_c 8.972153
_cell_angle_alpha 90.000000
_cell_angle_beta 36.637523
_cell_angle_gamma 90.000000
_cell_volume 911.010573
_symmetry_space_group_name_H-M "P 21/C"
_symmetry_group_IT_number 14
_symmetry_cell_setting 'monoclinic'
loop_
_space_group_symop_operation_xyz
x,y,z
-x,1/2+y,1/2-z
-x,-y,-z
x,1/2-y,1/2+z
loop_
_atom_site_type_symbol
_atom_site_label
_atom_site_fract_x
_atom_site_fract_y
_atom_site_fract_z
Si Si1 0.402760 0.592200 0.831006
Si Si2 0.907098 0.115175 0.591636
Si Si3 0.052856 0.245404 0.115832
Si Si4 0.863108 0.930068 0.248400
Si Si5 0.599505 0.366877 0.507864
O O1 0.503538 0.474483 0.728454
O O2 0.431380 0.637151 0.620957
O O3 0.252576 0.537427 0.075079
O O4 0.426117 0.719783 0.897475
O O5 0.750004 0.082816 0.817187
O O6 0.965815 0.150448 0.345219
O O7 0.931483 0.219315 0.683901
O O8 0.000000 0.000000 0.500000
O O9 0.124277 0.359055 0.107887
O O10 0.166009 0.174060 0.843485
O O11 0.000000 0.000000 0.000000
#
# Coordination Sequence:
#
# PCOD8126965 Si02
#       5
#     4   4   4   4   4
#     4  11  26  45  67  93 131 171 217 268 324 390
#     4  11  21  38  63  91 124 164 209 257 312 376
#     4  10  22  36  61  95 126 160 213 269 318 373
#     4  11  22  40  64  94 129 169 216 271 325 385
#     4  11  25  45  65  95 130 171 217 267 323 388
#
# _framework density 21.953641999999999
#
# number of rings (size 3 to 8) (size 9 to 14) (size 15 to 20)
#    0.000    1.200    0.000    7.200    0.000    8.800 
#    0.000    0.000    0.000    0.000    0.000    0.000 
#    0.000    0.000    0.000    0.000    0.000    0.000 
#
# Total GULP energy -247865.390634 kJ/mol
# GULP energy per Si atom -12393.269532 kJ/mol
# Density = 2.190367 g / cm^3
# Si number density = 21.953642 Si / 1000 Ang^3
#
#
#
# Elastic Constant Matrix: (Units=GPa)
#
#
# Indices 1 2 3 4 5 6 
#
# 1 86.3872 45.1773 45.0344 0.0000 7.3444 0.0000
# 2 45.1773 128.9527 49.6066 0.0000 -11.1253 0.0000
# 3 45.0344 49.6066 89.6695 0.0000 -3.0523 0.0000
# 4 0.0000 0.0000 0.0000 28.5840 0.0000 -22.5207
# 5 7.3444 -11.1253 -3.0523 0.0000 44.4617 0.0000
# 6 0.0000 0.0000 0.0000 -22.5207 0.0000 2.0521
#
#
#
# Elastic Compliance Matrix: (Units=1/GPa)
#
#
# Indices 1 2 3 4 5 6 
#
# 1 0.017525 -0.003902 -0.006791 0.000000 -0.004337 0.000000
# 2 -0.003902 0.010919 -0.003975 0.000000 0.003104 0.000000
# 3 -0.006791 -0.003975 0.016805 0.000000 0.001281 0.000000
# 4 0.000000 0.000000 0.000000 -0.004575 0.000000 -0.050211
# 5 -0.004337 0.003104 0.001281 0.000000 0.024072 0.000000
# 6 0.000000 0.000000 0.000000 -0.050211 0.000000 -0.063729
#
#
# Mechanical properties :
#
#
# Convention : Reuss Voigt Hill
#
# Bulk Modulus (GPa) = 62.83844 64.96066 63.89955
# Shear Modulus (GPa) = 140.22558 26.03230 83.12894
#
# Velocity S-wave (km/s) = 8.00076 3.44726 6.16018
# Velocity P-wave (km/s) = 10.67871 6.74529 8.93123
#
# Compressibility (1/GPa) = 0.01591383
#
# Stress axis : x y z
#
# Youngs Moduli (GPa) = 57.06141 91.58622 59.50497
#
# Poissons Ratio (x) = 0.35733 0.40408
# Poissons Ratio (y) = 0.22263 0.23655
# Poissons Ratio (z) = 0.38749 0.36408
#
# Static dielectric constant tensor:
#      x y z
#    x 3.962880 0.000000 0.289620 
#    y 0.000000 4.062130 0.000000 
#    z 0.289620 0.000000 4.071750 
# 
# 
# High freq. dielectric constant tensor:
#      x y z
#    x 1.862990 0.000000 0.016540 
#    y 0.000000 1.884590 0.000000 
#    z 0.016540 0.000000 1.865160 
# 
# From -- ./inp_files/12224.got.cif
#   From: 2010.03.12/outbox.cif.g09.slc.cpg/sg14_7_cif.got.tgz:12224.got - 2010.03.31 13:35:05.
