data_PCOD8126602
_publ_section_title
;
Structure prediction by ZEFSAII (Michael W. Deem and Ramdas Pophale) SiO2 
 PCOD8126602
Probable space group: P 21/C
;
_chemical_formula_sum "Si O2"
_cell_formula_units_Z 24
_cell_length_a 10.373080
_cell_length_b 12.353278
_cell_length_c 9.986043
_cell_angle_alpha 90.000000
_cell_angle_beta 122.951694
_cell_angle_gamma 90.000000
_cell_volume 1073.772654
_symmetry_space_group_name_H-M "P 21/C"
_symmetry_group_IT_number 14
_symmetry_cell_setting 'monoclinic'
loop_
_space_group_symop_operation_xyz
x,y,z
-x,1/2+y,1/2-z
-x,-y,-z
x,1/2-y,1/2+z
loop_
_atom_site_type_symbol
_atom_site_label
_atom_site_fract_x
_atom_site_fract_y
_atom_site_fract_z
Si Si1 0.294544 0.618066 0.496294
Si Si2 0.095203 0.343899 0.996627
Si Si3 0.304597 0.000179 0.267099
Si Si4 0.765810 0.051957 0.325805
Si Si5 0.419253 0.650950 0.052827
Si Si6 0.943072 0.841871 0.828446
O O1 0.357106 0.543166 0.651368
O O2 0.285200 0.545441 0.357736
O O3 0.409071 0.719101 0.534540
O O4 0.126266 0.659017 0.444545
O O5 0.224704 0.432264 0.106216
O O6 0.129096 0.241482 0.107808
O O7 0.109313 0.309006 0.850417
O O8 0.927864 0.389478 0.933714
O O9 0.409043 0.103854 0.366935
O O10 0.128034 0.040710 0.173407
O O11 0.314470 0.902180 0.378088
O O12 0.640759 0.120399 0.334619
#
# Coordination Sequence:
#
# PCOD8126602 Si02
#       6
#     4   4   4   4   4   4
#     4  11  24  41  72  96 125 179 221 272 330 401
#     4  10  22  38  65  97 131 172 211 282 317 386
#     4  11  26  43  66 100 135 171 220 282 322 399
#     4  10  21  41  63  94 130 169 222 264 328 386
#     4  11  23  46  64  89 141 175 214 271 341 391
#     4  11  23  41  67 100 133 170 223 269 333 384
#
# _framework density 22.351098
#
# number of rings (size 3 to 8) (size 9 to 14) (size 15 to 20)
#    0.000    1.333    3.333    1.500    4.667    2.000 
#    3.000    0.000    0.000    0.000    0.000    0.000 
#    0.000    0.000    0.000    0.000    0.000    0.000 
#
# Total GULP energy -297701.753894 kJ/mol
# GULP energy per Si atom -12404.239746 kJ/mol
# Density = 2.230023 g / cm^3
# Si number density = 22.351098 Si / 1000 Ang^3
#
#
#
# Elastic Constant Matrix: (Units=GPa)
#
#
# Indices 1 2 3 4 5 6 
#
# 1 47.5712 3.6687 16.8830 0.0000 -13.4623 0.0000
# 2 3.6687 77.6276 49.4777 0.0000 -3.8545 0.0000
# 3 16.8830 49.4777 98.0374 0.0000 -23.8169 0.0000
# 4 0.0000 0.0000 0.0000 34.9239 0.0000 -9.6240
# 5 -13.4623 -3.8545 -23.8169 0.0000 34.4015 0.0000
# 6 0.0000 0.0000 0.0000 -9.6240 0.0000 40.8458
#
#
#
# Elastic Compliance Matrix: (Units=1/GPa)
#
#
# Indices 1 2 3 4 5 6 
#
# 1 0.024092 0.001044 -0.002834 0.000000 0.007583 0.000000
# 2 0.001044 0.019915 -0.011528 0.000000 -0.005341 0.000000
# 3 -0.002834 -0.011528 0.019143 0.000000 0.010852 0.000000
# 4 0.000000 0.000000 0.000000 0.030622 0.000000 0.007215
# 5 0.007583 -0.005341 0.010852 0.000000 0.038951 0.000000
# 6 0.000000 0.000000 0.000000 0.007215 0.000000 0.026182
#
#
# Mechanical properties :
#
#
# Convention : Reuss Voigt Hill
#
# Bulk Modulus (GPa) = 27.38636 40.36610 33.87623
# Shear Modulus (GPa) = 25.28925 32.24803 28.76864
#
# Velocity S-wave (km/s) = 3.36736 3.80253 3.59154
# Velocity P-wave (km/s) = 5.23433 6.11377 5.69106
#
# Compressibility (1/GPa) = 0.03651452
#
# Stress axis : x y z
#
# Youngs Moduli (GPa) = 41.50713 50.21284 52.23932
#
# Poissons Ratio (x) = -0.05242 0.14802
# Poissons Ratio (y) = -0.04333 0.60223
# Poissons Ratio (z) = 0.11761 0.57887
#
# Static dielectric constant tensor:
#      x y z
#    x 3.848740 0.000000 -0.110170 
#    y 0.000000 3.912730 0.000000 
#    z -0.110170 0.000000 4.043430 
# 
# 
# High freq. dielectric constant tensor:
#      x y z
#    x 1.877060 0.000000 -0.014910 
#    y 0.000000 1.869890 0.000000 
#    z -0.014910 0.000000 1.883680 
# 
# From -- ./inp_files/28754.got.cif
#   From: 2010.03.12/outbox.cif.g09.slc.cpg/sg14_15_cif.got.tgz:28754.got - 2010.03.31 13:35:05.
