data_PCOD8126096
_publ_section_title
;
Structure prediction by ZEFSAII (Michael W. Deem and Ramdas Pophale) SiO2 
 PCOD8126096
Probable space group: P 21/C
;
_chemical_formula_sum "Si O2"
_cell_formula_units_Z 24
_cell_length_a 14.614760
_cell_length_b 13.337095
_cell_length_c 12.805651
_cell_angle_alpha 90.000000
_cell_angle_beta 151.954705
_cell_angle_gamma 90.000000
_cell_volume 1173.569948
_symmetry_space_group_name_H-M "P 21/C"
_symmetry_group_IT_number 14
_symmetry_cell_setting 'monoclinic'
loop_
_space_group_symop_operation_xyz
x,y,z
-x,1/2+y,1/2-z
-x,-y,-z
x,1/2-y,1/2+z
loop_
_atom_site_type_symbol
_atom_site_label
_atom_site_fract_x
_atom_site_fract_y
_atom_site_fract_z
Si Si1 0.441308 0.403779 0.539231
Si Si2 0.584677 0.111470 0.593294
Si Si3 0.197455 0.943520 0.722054
Si Si4 0.124807 0.769490 0.237037
Si Si5 0.683878 0.773832 0.275538
Si Si6 0.569367 0.277368 0.292870
O O1 0.654529 0.446930 0.726574
O O2 0.301961 0.499059 0.426033
O O3 0.321471 0.356242 0.320180
O O4 0.457756 0.324085 0.646869
O O5 0.792202 0.132440 0.742604
O O6 0.432819 0.177525 0.378389
O O7 0.602105 0.144576 0.731879
O O8 0.500000 0.000000 0.500000
O O9 0.176549 0.826792 0.720402
O O10 0.000000 0.000000 0.500000
O O11 0.222518 0.755483 0.449293
O O12 0.894178 0.770080 0.018090
O O13 0.576234 0.823467 0.267356
#
# Coordination Sequence:
#
# PCOD8126096 Si02
#       6
#     4   4   4   4   4   4
#     4  10  21  38  60  87 122 159 197 249 318 358
#     4  10  23  44  63  83 126 175 205 254 321 379
#     4  11  20  36  65  90 116 155 201 253 310 367
#     4  11  22  39  60  93 124 156 215 258 305 375
#     4  10  21  40  60  89 120 161 206 257 305 369
#     4  10  21  40  60  87 125 160 206 255 307 364
#
# _framework density 20.450420999999999
#
# number of rings (size 3 to 8) (size 9 to 14) (size 15 to 20)
#    0.000    1.667    6.667    0.000    0.000    7.333 
#    0.000    1.667    0.000    0.000    0.000    0.000 
#    0.000    0.000    0.000    0.000    0.000    0.000 
#
# Total GULP energy -297317.346725 kJ/mol
# GULP energy per Si atom -12388.222780 kJ/mol
# Density = 2.040388 g / cm^3
# Si number density = 20.450421 Si / 1000 Ang^3
#
#
#
# Elastic Constant Matrix: (Units=GPa)
#
#
# Indices 1 2 3 4 5 6 
#
# 1 76.5236 6.9255 52.7699 0.0000 -3.7377 0.0000
# 2 6.9255 69.0967 4.2767 0.0000 -1.0600 0.0000
# 3 52.7699 4.2767 114.3849 0.0000 9.1762 0.0000
# 4 0.0000 0.0000 0.0000 23.9008 0.0000 11.7572
# 5 -3.7377 -1.0600 9.1762 0.0000 34.0553 0.0000
# 6 0.0000 0.0000 0.0000 11.7572 0.0000 21.6293
#
#
#
# Elastic Compliance Matrix: (Units=1/GPa)
#
#
# Indices 1 2 3 4 5 6 
#
# 1 0.020015 -0.001342 -0.009563 0.000000 0.004732 0.000000
# 2 -0.001342 0.014608 0.000049 0.000000 0.000294 0.000000
# 3 -0.009563 0.000049 0.013529 0.000000 -0.004693 0.000000
# 4 0.000000 0.000000 0.000000 0.057111 0.000000 -0.031044
# 5 0.004732 0.000294 -0.004693 0.000000 0.031157 0.000000
# 6 0.000000 0.000000 0.000000 -0.031044 0.000000 0.063108
#
#
# Mechanical properties :
#
#
# Convention : Reuss Voigt Hill
#
# Bulk Modulus (GPa) = 37.81975 43.10550 40.46262
# Shear Modulus (GPa) = 21.73408 28.98596 25.36002
#
# Velocity S-wave (km/s) = 3.26355 3.76889 3.52529
# Velocity P-wave (km/s) = 5.72141 6.32955 6.03315
#
# Compressibility (1/GPa) = 0.02644121
#
# Stress axis : x y z
#
# Youngs Moduli (GPa) = 49.96258 68.45374 73.91591
#
# Poissons Ratio (x) = 0.09184 0.70686
# Poissons Ratio (y) = 0.06703 -0.00363
# Poissons Ratio (z) = 0.47780 -0.00336
#
# Static dielectric constant tensor:
#      x y z
#    x 3.765490 0.000000 0.426570 
#    y 0.000000 4.288370 0.000000 
#    z 0.426570 0.000000 5.303580 
# 
# 
# High freq. dielectric constant tensor:
#      x y z
#    x 1.777850 0.000000 0.008970 
#    y 0.000000 1.802520 0.000000 
#    z 0.008970 0.000000 1.807060 
# 
# From -- ./inp_files/32809.got.cif
#   From: 2010.03.12/outbox.cif.g09.slc.cpg/sg14_17_cif.got.tgz:32809.got - 2010.03.31 13:35:05.
