data_PCOD8126894
_publ_section_title
;
Structure prediction by ZEFSAII (Michael W. Deem and Ramdas Pophale) SiO2 
 PCOD8126894
Probable space group: P 21/C
;
_chemical_formula_sum "Si O2"
_cell_formula_units_Z 24
_cell_length_a 11.731673
_cell_length_b 12.519761
_cell_length_c 14.572816
_cell_angle_alpha 90.000000
_cell_angle_beta 29.853266
_cell_angle_gamma 90.000000
_cell_volume 1065.460443
_symmetry_space_group_name_H-M "P 21/C"
_symmetry_group_IT_number 14
_symmetry_cell_setting 'monoclinic'
loop_
_space_group_symop_operation_xyz
x,y,z
-x,1/2+y,1/2-z
-x,-y,-z
x,1/2-y,1/2+z
loop_
_atom_site_type_symbol
_atom_site_label
_atom_site_fract_x
_atom_site_fract_y
_atom_site_fract_z
Si Si1 0.184073 0.862928 0.707820
Si Si2 0.873067 0.849540 0.679334
Si Si3 0.049661 0.464498 0.172109
Si Si4 0.244930 0.259042 0.545606
Si Si5 0.369897 0.839103 0.968795
Si Si6 0.274368 0.719427 0.331853
O O1 0.320544 0.773886 0.553113
O O2 0.270950 0.868341 0.752001
O O3 0.914542 0.835913 0.902264
O O4 0.197228 0.977411 0.649396
O O5 0.826064 0.771806 0.798456
O O6 0.633637 0.874006 0.796633
O O7 0.043962 0.789887 0.489776
O O8 0.008250 0.956652 0.615153
O O9 0.203000 0.362405 0.040564
O O10 0.792348 0.431293 0.379121
O O11 0.505628 0.293946 0.344645
O O12 0.311239 0.835744 0.902812
#
# Coordination Sequence:
#
# PCOD8126894 Si02
#       6
#     4   4   4   4   4   4
#     4  10  22  42  68  93 135 176 215 275 330 386
#     4  11  22  44  69  93 136 176 216 273 328 387
#     4  10  21  44  67  97 137 170 216 282 323 382
#     4  10  22  43  65  97 135 168 222 271 327 390
#     4  11  22  43  67  97 134 172 222 274 323 392
#     4  12  22  42  68  93 131 181 213 264 340 385
#
# _framework density 22.525472000000001
#
# number of rings (size 3 to 8) (size 9 to 14) (size 15 to 20)
#    0.000    1.333    6.667    1.500    0.000    1.333 
#    6.000    4.167    0.000    0.000    0.000    0.000 
#    0.000    0.000    0.000    0.000    0.000    0.000 
#
# Total GULP energy -297494.114272 kJ/mol
# GULP energy per Si atom -12395.588095 kJ/mol
# Density = 2.247420 g / cm^3
# Si number density = 22.525472 Si / 1000 Ang^3
#
#
#
# Elastic Constant Matrix: (Units=GPa)
#
#
# Indices 1 2 3 4 5 6 
#
# 1 117.3480 -0.9401 7.8877 0.0000 0.2561 0.0000
# 2 -0.9401 52.6654 -13.3406 0.0000 9.0621 0.0000
# 3 7.8877 -13.3406 95.1956 0.0000 -11.0071 0.0000
# 4 0.0000 0.0000 0.0000 17.1805 0.0000 -5.1298
# 5 0.2561 9.0621 -11.0071 0.0000 29.7148 0.0000
# 6 0.0000 0.0000 0.0000 -5.1298 0.0000 12.8947
#
#
#
# Elastic Compliance Matrix: (Units=1/GPa)
#
#
# Indices 1 2 3 4 5 6 
#
# 1 0.008573 0.000025 -0.000748 0.000000 -0.000359 0.000000
# 2 0.000025 0.020489 0.002243 0.000000 -0.005418 0.000000
# 3 -0.000748 0.002243 0.011286 0.000000 0.003503 0.000000
# 4 0.000000 0.000000 0.000000 0.066051 0.000000 0.026277
# 5 -0.000359 -0.005418 0.003503 0.000000 0.036606 0.000000
# 6 0.000000 0.000000 0.000000 0.026277 0.000000 0.088005
#
#
# Mechanical properties :
#
#
# Convention : Reuss Voigt Hill
#
# Bulk Modulus (GPa) = 23.04846 28.04702 25.54774
# Shear Modulus (GPa) = 20.62424 30.06479 25.34452
#
# Velocity S-wave (km/s) = 3.02917 3.65732 3.35796
# Velocity P-wave (km/s) = 4.74224 5.50572 5.13818
#
# Compressibility (1/GPa) = 0.04338684
#
# Stress axis : x y z
#
# Youngs Moduli (GPa) = 116.64606 48.80761 88.60508
#
# Poissons Ratio (x) = -0.00123 0.06630
# Poissons Ratio (y) = -0.00294 -0.19871
# Poissons Ratio (z) = 0.08728 -0.10946
#
# Static dielectric constant tensor:
#      x y z
#    x 4.268430 0.000000 -0.248170 
#    y 0.000000 3.791370 0.000000 
#    z -0.248170 0.000000 4.225630 
# 
# 
# High freq. dielectric constant tensor:
#      x y z
#    x 1.900540 0.000000 -0.012600 
#    y 0.000000 1.859360 0.000000 
#    z -0.012600 0.000000 1.890290 
# 
# From -- ./inp_files/45009.got.cif
#   From: 2010.03.12/outbox.cif.g09.slc.cpg/sg14_23_cif.got.tgz:45009.got - 2010.03.31 13:35:05.
