data_PCOD8126693
_publ_section_title
;
Structure prediction by ZEFSAII (Michael W. Deem and Ramdas Pophale) SiO2 
 PCOD8126693
Probable space group: P 21/C
;
_chemical_formula_sum "Si O2"
_cell_formula_units_Z 28
_cell_length_a 5.128722
_cell_length_b 25.049323
_cell_length_c 9.966831
_cell_angle_alpha 90.000000
_cell_angle_beta 97.879447
_cell_angle_gamma 90.000000
_cell_volume 1268.359787
_symmetry_space_group_name_H-M "P 21/C"
_symmetry_group_IT_number 14
_symmetry_cell_setting 'monoclinic'
loop_
_space_group_symop_operation_xyz
x,y,z
-x,1/2+y,1/2-z
-x,-y,-z
x,1/2-y,1/2+z
loop_
_atom_site_type_symbol
_atom_site_label
_atom_site_fract_x
_atom_site_fract_y
_atom_site_fract_z
Si Si1 0.044418 0.573302 0.608440
Si Si2 0.005927 0.749583 0.069678
Si Si3 0.085158 0.960258 0.819039
Si Si4 0.544914 0.597966 0.228989
Si Si5 0.668957 0.840703 0.984388
Si Si6 0.503966 0.816587 0.516559
Si Si7 0.653168 0.172054 0.782854
O O1 0.174482 0.553768 0.477551
O O2 0.778238 0.604240 0.553231
O O3 0.977677 0.522962 0.697472
O O4 0.236361 0.611821 0.705026
O O5 0.894709 0.797021 0.963719
O O6 0.761387 0.712244 0.095003
O O7 0.231603 0.714472 0.018011
O O8 0.118451 0.782242 0.207590
O O9 0.836139 0.926057 0.753592
O O10 0.329402 0.947947 0.738751
O O11 0.509751 0.644879 0.338448
O O12 0.487511 0.625051 0.082151
O O13 0.488319 0.814157 0.086015
O O14 0.538029 0.823555 0.358370
#
# Coordination Sequence:
#
# PCOD8126693 Si02
#       7
#     4   4   4   4   4   4   4
#     4   9  21  38  69  99 125 167 220 271 315 388
#     4  11  26  43  63  93 123 179 215 265 313 391
#     4  10  21  41  69  95 128 170 216 267 327 371
#     4  11  24  42  63  97 129 170 209 272 315 388
#     4  10  22  41  68  92 130 159 224 264 320 374
#     4  12  28  42  67  90 139 168 221 260 333 382
#     4  11  24  45  65 100 127 174 212 276 315 395
#
# _framework density 22.075756999999999
#
# number of rings (size 3 to 8) (size 9 to 14) (size 15 to 20)
#    0.000    1.429    2.857    0.857   10.000    1.714 
#    0.000    1.429    0.000    0.000    0.000    0.000 
#    0.000    0.000    0.000    0.000    0.000    0.000 
#
# Total GULP energy -347144.957223 kJ/mol
# GULP energy per Si atom -12398.034187 kJ/mol
# Density = 2.202551 g / cm^3
# Si number density = 22.075757 Si / 1000 Ang^3
#
#
#
# Elastic Constant Matrix: (Units=GPa)
#
#
# Indices 1 2 3 4 5 6 
#
# 1 89.6006 14.5063 12.8988 0.0000 4.7746 0.0000
# 2 14.5063 89.9870 9.6215 0.0000 9.7701 0.0000
# 3 12.8988 9.6215 61.1845 0.0000 12.8852 0.0000
# 4 0.0000 0.0000 0.0000 15.1620 0.0000 -7.0980
# 5 4.7746 9.7701 12.8852 0.0000 18.8732 0.0000
# 6 0.0000 0.0000 0.0000 -7.0980 0.0000 34.4086
#
#
#
# Elastic Compliance Matrix: (Units=1/GPa)
#
#
# Indices 1 2 3 4 5 6 
#
# 1 0.011756 -0.001594 -0.002073 0.000000 -0.000734 0.000000
# 2 -0.001594 0.012014 -0.000384 0.000000 -0.005554 0.000000
# 3 -0.002073 -0.000384 0.019492 0.000000 -0.012584 0.000000
# 4 0.000000 0.000000 0.000000 0.073004 0.000000 0.015060
# 5 -0.000734 -0.005554 -0.012584 0.000000 0.064638 0.000000
# 6 0.000000 0.000000 0.000000 0.015060 0.000000 0.032169
#
#
# Mechanical properties :
#
#
# Convention : Reuss Voigt Hill
#
# Bulk Modulus (GPa) = 28.44125 34.98058 31.71091
# Shear Modulus (GPa) = 21.46900 27.27180 24.37040
#
# Velocity S-wave (km/s) = 3.12190 3.51860 3.32617
# Velocity P-wave (km/s) = 5.08984 5.69100 5.39879
#
# Compressibility (1/GPa) = 0.03516020
#
# Stress axis : x y z
#
# Youngs Moduli (GPa) = 85.06124 83.23850 51.30411
#
# Poissons Ratio (x) = 0.13267 0.10637
# Poissons Ratio (y) = 0.13557 0.01968
# Poissons Ratio (z) = 0.17636 0.03192
#
# Static dielectric constant tensor:
#      x y z
#    x 3.949380 0.000000 0.102760 
#    y 0.000000 4.055650 0.000000 
#    z 0.102760 0.000000 3.608610 
# 
# 
# High freq. dielectric constant tensor:
#      x y z
#    x 1.872140 0.000000 0.010950 
#    y 0.000000 1.877910 0.000000 
#    z 0.010950 0.000000 1.826920 
# 
# From -- ./inp_files/6577.got.cif
#   From: 2010.03.12/outbox.cif.g09.slc.cpg/sg14_4_cif.got.tgz:6577.got - 2010.03.31 13:35:05.
