data_PCOD8126746
_publ_section_title
;
Structure prediction by ZEFSAII (Michael W. Deem and Ramdas Pophale) SiO2 
 PCOD8126746
Probable space group: P 21/C
;
_chemical_formula_sum "Si O2"
_cell_formula_units_Z 28
_cell_length_a 10.184838
_cell_length_b 15.981698
_cell_length_c 17.863793
_cell_angle_alpha 90.000000
_cell_angle_beta 26.886703
_cell_angle_gamma 90.000000
_cell_volume 1314.945987
_symmetry_space_group_name_H-M "P 21/C"
_symmetry_group_IT_number 14
_symmetry_cell_setting 'monoclinic'
loop_
_space_group_symop_operation_xyz
x,y,z
-x,1/2+y,1/2-z
-x,-y,-z
x,1/2-y,1/2+z
loop_
_atom_site_type_symbol
_atom_site_label
_atom_site_fract_x
_atom_site_fract_y
_atom_site_fract_z
Si Si1 0.984065 0.224791 0.105027
Si Si2 0.437035 0.987672 0.644814
Si Si3 0.688771 0.541489 0.174677
Si Si4 0.450611 0.821437 0.420371
Si Si5 0.899799 0.714770 0.112037
Si Si6 0.577274 0.679741 0.021077
Si Si7 0.140224 0.040548 0.002206
O O1 0.667327 0.204585 0.295506
O O2 0.951571 0.275468 0.044480
O O3 0.129783 0.281132 0.095439
O O4 0.160149 0.140908 0.995150
O O5 0.571606 0.078561 0.567977
O O6 0.523770 0.946917 0.680492
O O7 0.579356 0.922557 0.512884
O O8 0.082311 0.989258 0.818486
O O9 0.719543 0.629070 0.201734
O O10 0.476247 0.488581 0.338386
O O11 0.000000 0.500000 0.000000
O O12 0.690137 0.791689 0.238988
O O13 0.522926 0.784895 0.465603
O O14 0.140087 0.786879 0.554294
O O15 0.000000 0.000000 0.000000
#
# Coordination Sequence:
#
# PCOD8126746 Si02
#       7
#     4   4   4   4   4   4   4
#     4  11  23  41  67  93 126 170 220 259 317 390
#     4  10  21  42  64  88 127 173 214 254 327 398
#     4  11  21  38  61  96 124 159 217 273 314 378
#     4  12  26  42  64  97 133 165 212 274 328 383
#     4  12  25  39  67  97 126 165 218 273 323 373
#     4  11  24  43  65  92 130 174 211 261 328 393
#     4   9  21  36  62  94 126 161 210 271 321 369
#
# _framework density 21.293651000000001
#
# number of rings (size 3 to 8) (size 9 to 14) (size 15 to 20)
#    0.000    1.143    2.857    3.857    8.000    0.000 
#    0.000    0.000    0.000    2.571    0.000    0.000 
#    0.000    0.000    0.000    0.000    0.000    0.000 
#
# Total GULP energy -347118.119930 kJ/mol
# GULP energy per Si atom -12397.075712 kJ/mol
# Density = 2.124519 g / cm^3
# Si number density = 21.293651 Si / 1000 Ang^3
#
#
#
# Elastic Constant Matrix: (Units=GPa)
#
#
# Indices 1 2 3 4 5 6 
#
# 1 91.4033 11.9987 8.8716 0.0000 0.5987 0.0000
# 2 11.9987 92.8610 14.4497 0.0000 -10.5520 0.0000
# 3 8.8716 14.4497 75.1065 0.0000 -14.1618 0.0000
# 4 0.0000 0.0000 0.0000 29.1204 0.0000 -4.2021
# 5 0.5987 -10.5520 -14.1618 0.0000 26.9871 0.0000
# 6 0.0000 0.0000 0.0000 -4.2021 0.0000 19.1079
#
#
#
# Elastic Compliance Matrix: (Units=1/GPa)
#
#
# Indices 1 2 3 4 5 6 
#
# 1 0.011267 -0.001418 -0.001343 0.000000 -0.001509 0.000000
# 2 -0.001418 0.011599 -0.001335 0.000000 0.003866 0.000000
# 3 -0.001343 -0.001335 0.015135 0.000000 0.007450 0.000000
# 4 0.000000 0.000000 0.000000 0.035466 0.000000 0.007799
# 5 -0.001509 0.003866 0.007450 0.000000 0.042509 0.000000
# 6 0.000000 0.000000 0.000000 0.007799 0.000000 0.054050
#
#
# Mechanical properties :
#
#
# Convention : Reuss Voigt Hill
#
# Bulk Modulus (GPa) = 33.54717 36.66786 35.10752
# Shear Modulus (GPa) = 26.57411 29.97981 28.27696
#
# Velocity S-wave (km/s) = 3.53651 3.75630 3.64806
# Velocity P-wave (km/s) = 5.69777 6.00587 5.85385
#
# Compressibility (1/GPa) = 0.02980877
#
# Stress axis : x y z
#
# Youngs Moduli (GPa) = 88.75548 86.21348 66.07393
#
# Poissons Ratio (x) = 0.12228 0.08870
# Poissons Ratio (y) = 0.12589 0.08821
# Poissons Ratio (z) = 0.11916 0.11510
#
# Static dielectric constant tensor:
#      x y z
#    x 3.709210 0.000000 -0.041680 
#    y 0.000000 4.014190 0.000000 
#    z -0.041680 0.000000 4.079100 
# 
# 
# High freq. dielectric constant tensor:
#      x y z
#    x 1.815540 0.000000 -0.002660 
#    y 0.000000 1.843000 0.000000 
#    z -0.002660 0.000000 1.838660 
# 
# From -- ./inp_files/56144.got.cif
#   From: 2010.03.12/outbox.cif.g09.slc.cpg/sg14_29_cif.got.tgz:56144.got - 2010.03.31 13:35:05.
