data_PCOD8126299
_publ_section_title
;
Structure prediction by ZEFSAII (Michael W. Deem and Ramdas Pophale) SiO2 
 PCOD8126299
Probable space group: P 21/C
;
_chemical_formula_sum "Si O2"
_cell_formula_units_Z 24
_cell_length_a 8.227714
_cell_length_b 15.224675
_cell_length_c 12.928345
_cell_angle_alpha 90.000000
_cell_angle_beta 134.266295
_cell_angle_gamma 90.000000
_cell_volume 1159.700712
_symmetry_space_group_name_H-M "P 21/C"
_symmetry_group_IT_number 14
_symmetry_cell_setting 'monoclinic'
loop_
_space_group_symop_operation_xyz
x,y,z
-x,1/2+y,1/2-z
-x,-y,-z
x,1/2-y,1/2+z
loop_
_atom_site_type_symbol
_atom_site_label
_atom_site_fract_x
_atom_site_fract_y
_atom_site_fract_z
Si Si1 0.781419 0.463204 0.815275
Si Si2 0.041537 0.371077 0.229935
Si Si3 0.313336 0.249566 0.219960
Si Si4 0.543863 0.185874 0.517224
Si Si5 0.747087 0.598255 0.956081
Si Si6 0.382883 0.353447 0.560009
O O1 0.905484 0.544736 0.815202
O O2 0.701537 0.499218 0.893041
O O3 0.563324 0.431212 0.656105
O O4 0.976540 0.388177 0.914677
O O5 0.106851 0.278535 0.203005
O O6 0.182401 0.384436 0.397389
O O7 0.779106 0.363715 0.139951
O O8 0.512745 0.212194 0.382740
O O9 0.375469 0.335848 0.180168
O O10 0.261776 0.172584 0.114805
O O11 0.355261 0.116209 0.475501
O O12 0.528661 0.273862 0.578151
#
# Coordination Sequence:
#
# PCOD8126299 Si02
#       6
#     4   4   4   4   4   4
#     4  10  21  39  64  84 125 159 197 247 305 358
#     4  10  22  40  59  90 120 159 199 249 303 355
#     4   9  21  36  58  88 116 153 200 241 295 351
#     4  10  22  38  62  88 120 155 203 251 292 361
#     4   9  21  39  59  91 117 160 197 245 301 359
#     4  10  22  38  62  86 119 161 201 249 295 359
#
# _framework density 20.694994000000001
#
# number of rings (size 3 to 8) (size 9 to 14) (size 15 to 20)
#    0.000    2.333    0.000    0.500   14.000    2.000 
#    0.000    0.833    0.000    0.000    0.000    0.000 
#    0.000    0.000    0.000    0.000    0.000    0.000 
#
# Total GULP energy -297337.386886 kJ/mol
# GULP energy per Si atom -12389.057787 kJ/mol
# Density = 2.064789 g / cm^3
# Si number density = 20.694994 Si / 1000 Ang^3
#
#
#
# Elastic Constant Matrix: (Units=GPa)
#
#
# Indices 1 2 3 4 5 6 
#
# 1 65.4053 27.1114 48.2772 0.0000 -3.9379 0.0000
# 2 27.1114 63.5822 38.7570 0.0000 5.0430 0.0000
# 3 48.2772 38.7570 138.7361 0.0000 -9.2022 0.0000
# 4 0.0000 0.0000 0.0000 34.0541 0.0000 0.2513
# 5 -3.9379 5.0430 -9.2022 0.0000 30.1559 0.0000
# 6 0.0000 0.0000 0.0000 0.2513 0.0000 28.5880
#
#
#
# Elastic Compliance Matrix: (Units=1/GPa)
#
#
# Indices 1 2 3 4 5 6 
#
# 1 0.022306 -0.006067 -0.005927 0.000000 0.002119 0.000000
# 2 -0.006067 0.021338 -0.004225 0.000000 -0.005650 0.000000
# 3 -0.005927 -0.004225 0.010662 0.000000 0.003186 0.000000
# 4 0.000000 0.000000 0.000000 0.029367 0.000000 -0.000258
# 5 0.002119 -0.005650 0.003186 0.000000 0.035355 0.000000
# 6 0.000000 0.000000 0.000000 -0.000258 0.000000 0.034982
#
#
# Mechanical properties :
#
#
# Convention : Reuss Voigt Hill
#
# Bulk Modulus (GPa) = 45.72523 55.11277 50.41900
# Shear Modulus (GPa) = 25.80841 28.79813 27.30327
#
# Velocity S-wave (km/s) = 3.53524 3.73440 3.63618
# Velocity P-wave (km/s) = 6.22950 6.72927 6.48420
#
# Compressibility (1/GPa) = 0.02186976
#
# Stress axis : x y z
#
# Youngs Moduli (GPa) = 44.83043 46.86545 93.79275
#
# Poissons Ratio (x) = 0.28432 0.55589
# Poissons Ratio (y) = 0.27197 0.39623
# Poissons Ratio (z) = 0.26570 0.19798
#
# Static dielectric constant tensor:
#      x y z
#    x 3.792210 0.000000 -0.284350 
#    y 0.000000 3.697500 0.000000 
#    z -0.284350 0.000000 3.795780 
# 
# 
# High freq. dielectric constant tensor:
#      x y z
#    x 1.800090 0.000000 -0.021410 
#    y 0.000000 1.797110 0.000000 
#    z -0.021410 0.000000 1.810860 
# 
# From -- ./inp_files/26148.got.cif
#   From: 2010.03.12/outbox.cif.g09.slc.cpg/sg14_14_cif.got.tgz:26148.got - 2010.03.31 13:35:05.
