data_PCOD8126168
_publ_section_title
;
Structure prediction by ZEFSAII (Michael W. Deem and Ramdas Pophale) SiO2 
 PCOD8126168
Probable space group: P 21/C
;
_chemical_formula_sum "Si O2"
_cell_formula_units_Z 32
_cell_length_a 8.242506
_cell_length_b 13.859069
_cell_length_c 23.463065
_cell_angle_alpha 90.000000
_cell_angle_beta 146.539654
_cell_angle_gamma 90.000000
_cell_volume 1477.791326
_symmetry_space_group_name_H-M "P 21/C"
_symmetry_group_IT_number 14
_symmetry_cell_setting 'monoclinic'
loop_
_space_group_symop_operation_xyz
x,y,z
-x,1/2+y,1/2-z
-x,-y,-z
x,1/2-y,1/2+z
loop_
_atom_site_type_symbol
_atom_site_label
_atom_site_fract_x
_atom_site_fract_y
_atom_site_fract_z
Si Si1 0.014419 0.643781 0.469088
Si Si2 0.792207 0.305078 0.356291
Si Si3 0.066002 0.631952 0.315551
Si Si4 0.853957 0.752321 0.151769
Si Si5 0.461117 0.385242 0.763267
Si Si6 0.264046 0.443869 0.206277
Si Si7 0.607998 0.548535 0.627702
Si Si8 0.226570 0.705894 0.953180
O O1 0.989910 0.652016 0.530816
O O2 0.254577 0.561493 0.522355
O O3 0.127770 0.749623 0.484405
O O4 0.709910 0.619333 0.348233
O O5 0.611710 0.213596 0.326143
O O6 0.541708 0.381370 0.267356
O O7 0.971686 0.276797 0.353731
O O8 0.049022 0.685513 0.249967
O O9 0.756497 0.588701 0.248107
O O10 0.298265 0.543558 0.382777
O O11 0.166212 0.711700 0.389331
O O12 0.762374 0.852522 0.153843
O O13 0.573632 0.685598 0.053996
O O14 0.720453 0.463233 0.830531
O O15 0.285635 0.474671 0.277869
O O16 0.950232 0.392320 0.107641
#
# Coordination Sequence:
#
# PCOD8126168 Si02
#       8
#     4   4   4   4   4   4   4   4
#     4   9  21  40  64  91 128 162 209 264 317 373
#     4  11  22  40  61  96 128 166 215 261 314 376
#     4  11  21  42  65  93 131 166 210 264 321 371
#     4  11  23  39  64  92 128 170 210 257 322 380
#     4  11  22  39  66  91 125 173 210 267 315 374
#     4  11  21  41  64  92 133 164 215 261 318 370
#     4  10  21  38  64  93 125 165 211 260 317 381
#     4  10  21  42  64  87 131 170 201 264 320 375
#
# _framework density 21.653936000000002
#
# number of rings (size 3 to 8) (size 9 to 14) (size 15 to 20)
#    0.000    1.500    3.750    3.000    0.000    9.500 
#    0.000    5.000    0.000    0.000    0.000    0.000 
#    0.000    0.000    0.000    0.000    0.000    0.000 
#
# Total GULP energy -396704.451424 kJ/mol
# GULP energy per Si atom -12397.014107 kJ/mol
# Density = 2.160465 g / cm^3
# Si number density = 21.653936 Si / 1000 Ang^3
#
#
#
# Elastic Constant Matrix: (Units=GPa)
#
#
# Indices 1 2 3 4 5 6 
#
# 1 94.7130 23.8504 14.3922 0.0000 -10.7535 0.0000
# 2 23.8504 69.5843 26.6628 0.0000 -1.8099 0.0000
# 3 14.3922 26.6628 50.0967 0.0000 -0.1171 0.0000
# 4 0.0000 0.0000 0.0000 13.2975 0.0000 10.3533
# 5 -10.7535 -1.8099 -0.1171 0.0000 18.9995 0.0000
# 6 0.0000 0.0000 0.0000 10.3533 0.0000 39.4474
#
#
#
# Elastic Compliance Matrix: (Units=1/GPa)
#
#
# Indices 1 2 3 4 5 6 
#
# 1 0.012446 -0.003426 -0.001737 0.000000 0.006707 0.000000
# 2 -0.003426 0.019048 -0.009154 0.000000 -0.000181 0.000000
# 3 -0.001737 -0.009154 0.025328 0.000000 -0.001699 0.000000
# 4 0.000000 0.000000 0.000000 0.094516 0.000000 -0.024806
# 5 0.006707 -0.000181 -0.001699 0.000000 0.056402 0.000000
# 6 0.000000 0.000000 0.000000 -0.024806 0.000000 0.031861
#
#
# Mechanical properties :
#
#
# Convention : Reuss Voigt Hill
#
# Bulk Modulus (GPa) = 35.47437 38.24498 36.85967
# Shear Modulus (GPa) = 18.00948 24.31480 21.16214
#
# Velocity S-wave (km/s) = 2.88704 3.35458 3.12955
# Velocity P-wave (km/s) = 5.24703 5.71878 5.48798
#
# Compressibility (1/GPa) = 0.02818937
#
# Stress axis : x y z
#
# Youngs Moduli (GPa) = 80.34433 52.49801 39.48142
#
# Poissons Ratio (x) = 0.17987 0.06856
# Poissons Ratio (y) = 0.27528 0.36142
# Poissons Ratio (z) = 0.13952 0.48057
#
# Static dielectric constant tensor:
#      x y z
#    x 4.004630 0.000000 0.010910 
#    y 0.000000 3.877310 0.000000 
#    z 0.010910 0.000000 3.918390 
# 
# 
# High freq. dielectric constant tensor:
#      x y z
#    x 1.856020 0.000000 -0.002770 
#    y 0.000000 1.847230 0.000000 
#    z -0.002770 0.000000 1.836000 
# 
# From -- ./inp_files/72462.got.cif
#   From: 2010.03.12/outbox.cif.g09.slc.cpg/sg14_37_cif.got.tgz:72462.got - 2010.03.31 13:35:05.
