data_PCOD8126028
_publ_section_title
;
Structure prediction by ZEFSAII (Michael W. Deem and Ramdas Pophale) SiO2 
 PCOD8126028
Probable space group: P 21/C
;
_chemical_formula_sum "Si O2"
_cell_formula_units_Z 32
_cell_length_a 26.097188
_cell_length_b 15.245519
_cell_length_c 12.270406
_cell_angle_alpha 90.000000
_cell_angle_beta 160.434874
_cell_angle_gamma 90.000000
_cell_volume 1634.863957
_symmetry_space_group_name_H-M "P 21/C"
_symmetry_group_IT_number 14
_symmetry_cell_setting 'monoclinic'
loop_
_space_group_symop_operation_xyz
x,y,z
-x,1/2+y,1/2-z
-x,-y,-z
x,1/2-y,1/2+z
loop_
_atom_site_type_symbol
_atom_site_label
_atom_site_fract_x
_atom_site_fract_y
_atom_site_fract_z
Si Si1 0.331403 0.600984 0.667887
Si Si2 0.331401 0.100982 0.167886
Si Si3 0.685890 0.345947 0.140462
Si Si4 0.314110 0.345942 0.859541
Si Si5 0.175468 0.499997 0.722079
Si Si6 0.814398 0.000004 0.506425
Si Si7 0.675870 0.146217 0.079913
Si Si8 0.324130 0.146211 0.920089
O O1 0.343961 0.500001 0.722572
O O2 0.245235 0.643779 0.598742
O O3 0.252131 0.615624 0.392011
O O4 0.500002 0.644430 0.000002
O O5 0.245235 0.143775 0.098746
O O6 0.252125 0.115624 0.892006
O O7 0.765352 0.411860 0.216359
O O8 0.723042 0.247099 0.182568
O O9 0.505899 0.367856 0.779249
O O10 0.234643 0.411849 0.783642
O O11 0.276955 0.247092 0.817416
O O12 0.494101 0.367852 0.220761
O O13 0.233602 0.500002 0.963121
O O14 0.994439 0.500000 0.352479
O O15 0.748044 0.088188 0.319764
O O16 0.748032 0.911825 0.319733
#
# Coordination Sequence:
#
# PCOD8126028 Si02
#       8
#     4   4   4   4   4   4   4   4
#     4   9  16  32  56  85 116 139 177 242 296 336
#     4   9  16  32  56  85 116 139 177 242 296 336
#     4  10  21  37  62  90 115 148 193 245 295 344
#     4  10  21  37  62  90 115 148 193 245 295 344
#     4  11  25  42  57  80 122 165 198 237 286 347
#     4  11  25  42  57  80 122 165 198 237 286 347
#     4  10  21  37  62  90 115 148 193 245 295 344
#     4  10  21  37  62  90 115 148 193 245 295 344
#
# _framework density 19.573492999999999
#
# number of rings (size 3 to 8) (size 9 to 14) (size 15 to 20)
#    0.000    2.000    2.500    0.750    3.500    3.000 
#    0.000    2.500    0.000    0.000    0.000    0.000 
#    0.000    0.000    0.000    0.000    0.000    0.000 
#
# Total GULP energy -396670.817484 kJ/mol
# GULP energy per Si atom -12395.963046 kJ/mol
# Density = 1.952894 g / cm^3
# Si number density = 19.573493 Si / 1000 Ang^3
#
#
#
# Elastic Constant Matrix: (Units=GPa)
#
#
# Indices 1 2 3 4 5 6 
#
# 1 160.0015 67.2696 46.8756 0.0000 -31.5445 0.0000
# 2 67.2696 129.0138 35.4063 0.0000 -8.4260 0.0000
# 3 46.8756 35.4063 56.9357 0.0000 -17.7318 0.0000
# 4 0.0000 0.0000 0.0000 18.3011 0.0000 -6.5731
# 5 -31.5445 -8.4260 -17.7318 0.0000 29.9066 0.0000
# 6 0.0000 0.0000 0.0000 -6.5731 0.0000 30.6481
#
#
#
# Elastic Compliance Matrix: (Units=1/GPa)
#
#
# Indices 1 2 3 4 5 6 
#
# 1 0.010560 -0.003951 -0.003821 0.000000 0.007760 0.000000
# 2 -0.003951 0.010849 -0.004709 0.000000 -0.003903 0.000000
# 3 -0.003821 -0.004709 0.026945 0.000000 0.010619 0.000000
# 4 0.000000 0.000000 0.000000 0.059202 0.000000 0.012697
# 5 0.007760 -0.003903 0.010619 0.000000 0.046819 0.000000
# 6 0.000000 0.000000 0.000000 0.012697 0.000000 0.035352
#
#
# Mechanical properties :
#
#
# Convention : Reuss Voigt Hill
#
# Bulk Modulus (GPa) = 42.74865 71.67266 57.21065
# Shear Modulus (GPa) = 22.47342 28.86445 25.66894
#
# Velocity S-wave (km/s) = 3.39212 3.84431 3.62527
# Velocity P-wave (km/s) = 6.10160 7.51010 6.84219
#
# Compressibility (1/GPa) = 0.02339255
#
# Stress axis : x y z
#
# Youngs Moduli (GPa) = 94.69429 92.17760 37.11296
#
# Poissons Ratio (x) = 0.36419 0.14179
# Poissons Ratio (y) = 0.37413 0.17477
# Poissons Ratio (z) = 0.36179 0.43407
#
# Static dielectric constant tensor:
#      x y z
#    x 3.866370 0.000000 -0.280420 
#    y 0.000000 3.512810 0.000000 
#    z -0.280420 0.000000 3.329700 
# 
# 
# High freq. dielectric constant tensor:
#      x y z
#    x 1.777750 0.000000 -0.024780 
#    y 0.000000 1.770510 0.000000 
#    z -0.024780 0.000000 1.728430 
# 
# From -- ./inp_files/36276.got.cif
#   From: 2010.03.12/outbox.cif.g09.slc.cpg/sg14_19_cif.got.tgz:36276.got - 2010.03.31 13:35:05.
