data_PCOD8126314
_publ_section_title
;
Structure prediction by ZEFSAII (Michael W. Deem and Ramdas Pophale) SiO2 
 PCOD8126314
Probable space group: P 21/C
;
_chemical_formula_sum "Si O2"
_cell_formula_units_Z 32
_cell_length_a 5.316445
_cell_length_b 12.062112
_cell_length_c 27.251911
_cell_angle_alpha 90.000000
_cell_angle_beta 56.344926
_cell_angle_gamma 90.000000
_cell_volume 1454.681570
_symmetry_space_group_name_H-M "P 21/C"
_symmetry_group_IT_number 14
_symmetry_cell_setting 'monoclinic'
loop_
_space_group_symop_operation_xyz
x,y,z
-x,1/2+y,1/2-z
-x,-y,-z
x,1/2-y,1/2+z
loop_
_atom_site_type_symbol
_atom_site_label
_atom_site_fract_x
_atom_site_fract_y
_atom_site_fract_z
Si Si1 0.986014 0.737658 0.865472
Si Si2 0.929446 0.112366 0.802667
Si Si3 0.918673 0.481962 0.195779
Si Si4 0.348410 0.931671 0.791865
Si Si5 0.286090 0.790171 0.935889
Si Si6 0.656094 0.517460 0.603646
Si Si7 0.726037 0.318387 0.867921
Si Si8 0.044603 0.242164 0.931199
O O1 0.627218 0.744665 0.895672
O O2 0.105434 0.613978 0.842045
O O3 0.135450 0.823696 0.809470
O O4 0.081547 0.761062 0.910831
O O5 0.933388 0.245304 0.807848
O O6 0.900627 0.079682 0.749554
O O7 0.657310 0.081426 0.869925
O O8 0.217880 0.052254 0.792827
O O9 0.644259 0.572600 0.225034
O O10 0.218900 0.553448 0.153144
O O11 0.414622 0.938939 0.842135
O O12 0.281196 0.924828 0.944860
O O13 0.128349 0.734298 0.999507
O O14 0.920600 0.608700 0.580377
O O15 0.369859 0.300665 0.899222
O O16 0.838950 0.294793 0.910997
#
# Coordination Sequence:
#
# PCOD8126314 Si02
#       8
#     4   4   4   4   4   4   4   4
#     4  11  26  44  65  99 133 169 226 268 319 402
#     4  10  21  39  64  94 129 166 204 266 325 391
#     4  11  28  40  68  92 136 182 214 259 332 390
#     4  10  21  39  64  94 129 166 204 266 325 391
#     4  11  23  43  68  95 131 174 222 278 331 376
#     4   9  19  38  61 102 129 160 207 275 332 394
#     4  11  26  44  65  99 133 169 226 268 319 402
#     4  11  23  43  68  95 131 174 222 278 331 376
#
# _framework density 21.997941999999998
#
# number of rings (size 3 to 8) (size 9 to 14) (size 15 to 20)
#    0.000    1.500    2.500    1.125    7.000    0.000 
#    0.000    7.500    0.000    0.000    0.000    0.000 
#    0.000    0.000    0.000    0.000    0.000    0.000 
#
# Total GULP energy -396498.367557 kJ/mol
# GULP energy per Si atom -12390.573986 kJ/mol
# Density = 2.194787 g / cm^3
# Si number density = 21.997942 Si / 1000 Ang^3
#
#
#
# Elastic Constant Matrix: (Units=GPa)
#
#
# Indices 1 2 3 4 5 6 
#
# 1 86.3826 10.2509 17.8886 0.0000 -0.7213 0.0000
# 2 10.2509 104.7423 42.4312 0.0000 -4.1260 0.0000
# 3 17.8886 42.4312 82.2447 0.0000 -2.0585 0.0000
# 4 0.0000 0.0000 0.0000 15.9037 0.0000 -3.1901
# 5 -0.7213 -4.1260 -2.0585 0.0000 30.7251 0.0000
# 6 0.0000 0.0000 0.0000 -3.1901 0.0000 23.8726
#
#
#
# Elastic Compliance Matrix: (Units=1/GPa)
#
#
# Indices 1 2 3 4 5 6 
#
# 1 0.012125 -0.000146 -0.002559 0.000000 0.000094 0.000000
# 2 -0.000146 0.012116 -0.006189 0.000000 0.001209 0.000000
# 3 -0.002559 -0.006189 0.015913 0.000000 0.000175 0.000000
# 4 0.000000 0.000000 0.000000 0.064610 0.000000 0.008634
# 5 0.000094 0.001209 0.000175 0.000000 0.032723 0.000000
# 6 0.000000 0.000000 0.000000 0.008634 0.000000 0.043043
#
#
# Mechanical properties :
#
#
# Convention : Reuss Voigt Hill
#
# Bulk Modulus (GPa) = 44.71313 46.05677 45.38495
# Shear Modulus (GPa) = 24.29855 27.62021 25.95938
#
# Velocity S-wave (km/s) = 3.32713 3.54726 3.43896
# Velocity P-wave (km/s) = 5.92705 6.14490 6.03696
#
# Compressibility (1/GPa) = 0.02236480
#
# Stress axis : x y z
#
# Youngs Moduli (GPa) = 82.47728 82.53337 62.84221
#
# Poissons Ratio (x) = 0.01206 0.16084
# Poissons Ratio (y) = 0.01205 0.38893
# Poissons Ratio (z) = 0.21110 0.51079
#
# Static dielectric constant tensor:
#      x y z
#    x 3.824300 0.000000 -0.082550 
#    y 0.000000 4.154600 0.000000 
#    z -0.082550 0.000000 3.968450 
# 
# 
# High freq. dielectric constant tensor:
#      x y z
#    x 1.860750 0.000000 -0.005470 
#    y 0.000000 1.862380 0.000000 
#    z -0.005470 0.000000 1.856510 
# 
# From -- ./inp_files/71261.got.cif
#   From: 2010.03.12/outbox.cif.g09.slc.cpg/sg14_36_cif.got.tgz:71261.got - 2010.03.31 13:35:05.
