data_PCOD8126016
_publ_section_title
;
Structure prediction by ZEFSAII (Michael W. Deem and Ramdas Pophale) SiO2 
 PCOD8126016
Probable space group: P 21/C
;
_chemical_formula_sum "Si O2"
_cell_formula_units_Z 28
_cell_length_a 17.570846
_cell_length_b 5.317165
_cell_length_c 32.851882
_cell_angle_alpha 90.000000
_cell_angle_beta 20.444712
_cell_angle_gamma 90.000000
_cell_volume 1072.101340
_symmetry_space_group_name_H-M "P 21/C"
_symmetry_group_IT_number 14
_symmetry_cell_setting 'monoclinic'
loop_
_space_group_symop_operation_xyz
x,y,z
-x,1/2+y,1/2-z
-x,-y,-z
x,1/2-y,1/2+z
loop_
_atom_site_type_symbol
_atom_site_label
_atom_site_fract_x
_atom_site_fract_y
_atom_site_fract_z
Si Si1 0.234810 0.146710 0.719051
Si Si2 0.753266 0.651030 0.961415
Si Si3 0.360519 0.248688 0.569270
Si Si4 0.363195 0.778780 0.274191
Si Si5 0.760315 0.349750 0.490479
Si Si6 0.230680 0.854306 0.254688
Si Si7 0.360598 0.777701 0.363752
O O1 0.211412 0.237488 0.684179
O O2 0.347808 0.370308 0.689727
O O3 0.994300 0.073984 0.855162
O O4 0.349655 0.868748 0.667949
O O5 0.780147 0.740889 0.901414
O O6 0.638235 0.373326 0.025213
O O7 0.991669 0.576089 0.858218
O O8 0.639393 0.875061 0.045947
O O9 0.500000 0.500000 0.500000
O O10 0.500000 0.000000 0.500000
O O11 0.204767 0.767039 0.314670
O O12 0.239735 0.757348 0.380051
O O13 0.534808 0.552714 0.184117
O O14 0.465770 0.054833 0.221370
O O15 0.797751 0.265013 0.518520
#
# Coordination Sequence:
#
# PCOD8126016 Si02
#       7
#     4   4   4   4   4   4   4
#     4  10  23  40  60  88 119 159 198 244 302 359
#     4  10  23  40  60  88 119 159 198 244 302 359
#     4  12  26  42  62  90 120 152 198 254 308 360
#     4  10  21  37  60  91 125 159 197 245 296 346
#     4  10  21  39  62  87 121 161 199 242 294 357
#     4  10  21  39  62  87 121 161 199 242 294 357
#     4  10  21  37  60  91 125 159 197 245 296 346
#
# _framework density 26.116935999999999
#
# number of rings (size 3 to 8) (size 9 to 14) (size 15 to 20)
#    0.000    1.714    0.000    3.429    0.000   11.429 
#    0.000    5.714    0.000    0.000    0.000    0.000 
#    0.000    0.000    0.000    0.000    0.000    0.000 
#
# Total GULP energy -347064.824612 kJ/mol
# GULP energy per Si atom -12395.172308 kJ/mol
# Density = 2.605749 g / cm^3
# Si number density = 26.116936 Si / 1000 Ang^3
#
#
#
# Elastic Constant Matrix: (Units=GPa)
#
#
# Indices 1 2 3 4 5 6 
#
# 1 178.5311 53.2113 37.8913 0.0000 62.1912 0.0000
# 2 53.2113 221.7320 36.9440 0.0000 6.4574 0.0000
# 3 37.8913 36.9440 70.3010 0.0002 40.5402 0.0000
# 4 0.0000 0.0000 0.0002 24.8939 -0.0001 15.4364
# 5 62.1912 6.4574 40.5402 -0.0001 55.0608 -0.0001
# 6 0.0000 0.0000 0.0000 15.4364 -0.0001 26.0202
#
#
#
# Elastic Compliance Matrix: (Units=1/GPa)
#
#
# Indices 1 2 3 4 5 6 
#
# 1 0.010777 -0.002880 0.004396 0.000000 -0.015071 0.000000
# 2 -0.002880 0.005888 -0.005248 0.000000 0.006426 0.000000
# 3 0.004396 -0.005248 0.029755 0.000000 -0.026258 0.000000
# 4 0.000000 0.000000 0.000000 0.063547 0.000000 -0.037699
# 5 -0.015071 0.006426 -0.026258 0.000000 0.053764 0.000000
# 6 0.000000 0.000000 0.000000 -0.037699 0.000000 0.060797
#
#
# Mechanical properties :
#
#
# Convention : Reuss Voigt Hill
#
# Bulk Modulus (GPa) = 25.66981 80.73970 53.20475
# Shear Modulus (GPa) = 20.41016 44.02947 32.21981
#
# Velocity S-wave (km/s) = 2.79855 4.11038 3.51618
# Velocity P-wave (km/s) = 4.50474 7.31497 6.07459
#
# Compressibility (1/GPa) = 0.03895627
#
# Stress axis : x y z
#
# Youngs Moduli (GPa) = 92.79425 169.83010 33.60784
#
# Poissons Ratio (x) = 0.48905 -0.14773
# Poissons Ratio (y) = 0.26721 0.17637
# Poissons Ratio (z) = -0.40790 0.89124
#
# Static dielectric constant tensor:
#      x y z
#    x 5.632080 0.000000 0.616880 
#    y 0.000000 5.697300 0.000000 
#    z 0.616880 0.000000 5.253920 
# 
# 
# High freq. dielectric constant tensor:
#      x y z
#    x 2.045670 0.000000 0.007780 
#    y 0.000000 2.111200 0.000000 
#    z 0.007780 0.000000 2.037850 
# 
# From -- ./inp_files/77414.got.cif
#   From: 2010.03.12/outbox.cif.g09.slc.cpg/sg14_39_cif.got.tgz:77414.got - 2010.03.31 13:35:05.
