data_PCOD8126416
_publ_section_title
;
Structure prediction by ZEFSAII (Michael W. Deem and Ramdas Pophale) SiO2 
 PCOD8126416
Probable space group: P 21/C
;
_chemical_formula_sum "Si O2"
_cell_formula_units_Z 32
_cell_length_a 15.026052
_cell_length_b 16.354161
_cell_length_c 17.845878
_cell_angle_alpha 90.000000
_cell_angle_beta 21.928201
_cell_angle_gamma 90.000000
_cell_volume 1637.710182
_symmetry_space_group_name_H-M "P 21/C"
_symmetry_group_IT_number 14
_symmetry_cell_setting 'monoclinic'
loop_
_space_group_symop_operation_xyz
x,y,z
-x,1/2+y,1/2-z
-x,-y,-z
x,1/2-y,1/2+z
loop_
_atom_site_type_symbol
_atom_site_label
_atom_site_fract_x
_atom_site_fract_y
_atom_site_fract_z
Si Si1 0.401704 0.905155 0.914659
Si Si2 0.016446 0.466778 0.755462
Si Si3 0.864240 0.718987 0.350128
Si Si4 0.196404 0.808700 0.203382
Si Si5 0.388045 0.789611 0.686000
Si Si6 0.942488 0.326255 0.428498
Si Si7 0.933145 0.542206 0.975297
Si Si8 0.663989 0.943555 0.422033
O O1 0.392186 0.843104 0.992450
O O2 0.289702 0.862674 0.929834
O O3 0.667493 0.925651 0.686567
O O4 0.259611 0.987038 0.046192
O O5 0.796522 0.502145 0.880287
O O6 0.052309 0.373285 0.705324
O O7 0.958656 0.476748 0.888425
O O8 0.576966 0.727456 0.577091
O O9 0.972610 0.772939 0.332428
O O10 0.950783 0.751498 0.202106
O O11 0.322777 0.739441 0.153541
O O12 0.106299 0.881075 0.327259
O O13 0.501115 0.879489 0.593691
O O14 0.142636 0.793003 0.924678
O O15 0.144519 0.396161 0.279718
O O16 0.000000 0.500000 0.000000
O O17 0.500000 0.000000 0.500000
#
# Coordination Sequence:
#
# PCOD8126416 Si02
#       8
#     4   4   4   4   4   4   4   4
#     4   9  20  40  58  81 120 158 191 247 300 351
#     4  10  22  38  61  88 118 157 205 245 305 365
#     4  10  22  39  59  84 120 156 197 249 300 362
#     4  10  23  39  58  87 120 158 201 245 308 362
#     4  11  22  37  63  84 119 155 199 249 303 358
#     4   9  20  38  60  84 114 156 197 241 300 355
#     4  11  24  36  60  86 122 153 203 249 297 362
#     4  10  21  40  62  87 120 156 201 254 303 361
#
# _framework density 19.539476000000001
#
# number of rings (size 3 to 8) (size 9 to 14) (size 15 to 20)
#    0.000    2.000    0.000    4.500    5.250    2.500 
#    0.000    2.500    0.000    0.000    0.000    0.000 
#    0.000    0.000    0.000    0.000    0.000    0.000 
#
# Total GULP energy -396901.829272 kJ/mol
# GULP energy per Si atom -12403.182165 kJ/mol
# Density = 1.949500 g / cm^3
# Si number density = 19.539476 Si / 1000 Ang^3
#
#
#
# Elastic Constant Matrix: (Units=GPa)
#
#
# Indices 1 2 3 4 5 6 
#
# 1 71.5278 34.0698 11.8671 0.0000 1.1281 0.0000
# 2 34.0698 101.0882 15.7098 0.0000 4.4474 0.0000
# 3 11.8671 15.7098 72.7354 0.0000 3.0071 0.0000
# 4 0.0000 0.0000 0.0000 24.0377 0.0000 -4.3515
# 5 1.1281 4.4474 3.0071 0.0000 27.6509 0.0000
# 6 0.0000 0.0000 0.0000 -4.3515 0.0000 36.4897
#
#
#
# Elastic Compliance Matrix: (Units=1/GPa)
#
#
# Indices 1 2 3 4 5 6 
#
# 1 0.016830 -0.005442 -0.001585 0.000000 0.000361 0.000000
# 2 -0.005442 0.012051 -0.001651 0.000000 -0.001537 0.000000
# 3 -0.001585 -0.001651 0.014415 0.000000 -0.001237 0.000000
# 4 0.000000 0.000000 0.000000 0.042519 0.000000 0.005071
# 5 0.000361 -0.001537 -0.001237 0.000000 0.036532 0.000000
# 6 0.000000 0.000000 0.000000 0.005071 0.000000 0.028010
#
#
# Mechanical properties :
#
#
# Convention : Reuss Voigt Hill
#
# Bulk Modulus (GPa) = 38.55291 40.96052 39.75672
# Shear Modulus (GPa) = 28.35115 29.88264 29.11690
#
# Velocity S-wave (km/s) = 3.81329 3.91493 3.86444
# Velocity P-wave (km/s) = 6.25794 6.43770 6.34846
#
# Compressibility (1/GPa) = 0.02593838
#
# Stress axis : x y z
#
# Youngs Moduli (GPa) = 59.41818 82.98343 69.37231
#
# Poissons Ratio (x) = 0.45157 0.10999
# Poissons Ratio (y) = 0.32333 0.11456
# Poissons Ratio (z) = 0.09421 0.13704
#
# Static dielectric constant tensor:
#      x y z
#    x 3.593670 0.000000 -0.047310 
#    y 0.000000 4.603780 0.000000 
#    z -0.047310 0.000000 3.562290 
# 
# 
# High freq. dielectric constant tensor:
#      x y z
#    x 1.761910 0.000000 -0.003020 
#    y 0.000000 1.763450 0.000000 
#    z -0.003020 0.000000 1.764270 
# 
# From -- ./inp_files/59708.got.cif
#   From: 2010.03.12/outbox.cif.g09.slc.cpg/sg14_30_cif.got.tgz:59708.got - 2010.03.31 13:35:05.
