data_PCOD8126876
_publ_section_title
;
Structure prediction by ZEFSAII (Michael W. Deem and Ramdas Pophale) SiO2 
 PCOD8126876
Probable space group: P 21/C
;
_chemical_formula_sum "Si O2"
_cell_formula_units_Z 24
_cell_length_a 7.034556
_cell_length_b 17.027433
_cell_length_c 9.905785
_cell_angle_alpha 90.000000
_cell_angle_beta 79.941624
_cell_angle_gamma 90.000000
_cell_volume 1168.282776
_symmetry_space_group_name_H-M "P 21/C"
_symmetry_group_IT_number 14
_symmetry_cell_setting 'monoclinic'
loop_
_space_group_symop_operation_xyz
x,y,z
-x,1/2+y,1/2-z
-x,-y,-z
x,1/2-y,1/2+z
loop_
_atom_site_type_symbol
_atom_site_label
_atom_site_fract_x
_atom_site_fract_y
_atom_site_fract_z
Si Si1 0.352305 0.533510 0.322405
Si Si2 0.269156 0.602741 0.069756
Si Si3 0.546716 0.246398 0.858582
Si Si4 0.948171 0.549003 0.283545
Si Si5 0.610326 0.664318 0.376106
Si Si6 0.340567 0.915817 0.252898
O O1 0.407320 0.558867 0.161436
O O2 0.440633 0.598886 0.411658
O O3 0.454503 0.449225 0.329213
O O4 0.120304 0.531348 0.371109
O O5 0.297728 0.695487 0.093118
O O6 0.047144 0.576933 0.129825
O O7 0.331279 0.577917 0.914686
O O8 0.420522 0.283605 0.754124
O O9 0.676399 0.174115 0.788875
O O10 0.395747 0.219761 0.992488
O O11 0.815276 0.620370 0.349268
O O12 0.831762 0.468293 0.284904
#
# Coordination Sequence:
#
# PCOD8126876 Si02
#       6
#     4   4   4   4   4   4
#     4   8  20  37  62  87 119 157 200 254 294 359
#     4   9  19  39  59  88 127 154 201 254 296 358
#     4  11  22  40  64  87 127 165 200 251 313 363
#     4   9  21  39  62  92 120 161 206 255 296 362
#     4  10  21  44  58  86 126 163 198 254 309 358
#     4  11  19  38  65  89 119 167 205 244 307 363
#
# _framework density 20.542971999999999
#
# number of rings (size 3 to 8) (size 9 to 14) (size 15 to 20)
#    1.000    1.333    1.667    1.000    0.000    2.667 
#    9.000    1.667    0.000    0.000    0.000    0.000 
#    0.000    0.000    0.000    0.000    0.000    0.000 
#
# Total GULP energy -297386.678551 kJ/mol
# GULP energy per Si atom -12391.111606 kJ/mol
# Density = 2.049621 g / cm^3
# Si number density = 20.542972 Si / 1000 Ang^3
#
#
#
# Elastic Constant Matrix: (Units=GPa)
#
#
# Indices 1 2 3 4 5 6 
#
# 1 124.2291 56.4064 18.2299 0.0000 -14.8626 0.0000
# 2 56.4064 105.8066 0.0286 0.0000 -13.6069 0.0000
# 3 18.2299 0.0286 36.5359 0.0000 -8.4071 0.0000
# 4 0.0000 0.0000 0.0000 29.3395 0.0000 -7.6609
# 5 -14.8626 -13.6069 -8.4071 0.0000 17.4551 0.0000
# 6 0.0000 0.0000 0.0000 -7.6609 0.0000 16.2578
#
#
#
# Elastic Compliance Matrix: (Units=1/GPa)
#
#
# Indices 1 2 3 4 5 6 
#
# 1 0.011872 -0.005949 -0.005241 0.000000 0.002947 0.000000
# 2 -0.005949 0.013632 0.004765 0.000000 0.007856 0.000000
# 3 -0.005241 0.004765 0.033525 0.000000 0.015399 0.000000
# 4 0.000000 0.000000 0.000000 0.038866 0.000000 0.018314
# 5 0.002947 0.007856 0.015399 0.000000 0.073341 0.000000
# 6 0.000000 0.000000 0.000000 0.018314 0.000000 0.070139
#
#
# Mechanical properties :
#
#
# Convention : Reuss Voigt Hill
#
# Bulk Modulus (GPa) = 21.65435 46.21128 33.93282
# Shear Modulus (GPa) = 18.54487 25.40427 21.97457
#
# Velocity S-wave (km/s) = 3.00782 3.52040 3.27416
# Velocity P-wave (km/s) = 4.75673 6.25045 5.55403
#
# Compressibility (1/GPa) = 0.04618010
#
# Stress axis : x y z
#
# Youngs Moduli (GPa) = 84.22872 73.35889 29.82842
#
# Poissons Ratio (x) = 0.43640 0.15633
# Poissons Ratio (y) = 0.50106 -0.14214
# Poissons Ratio (z) = 0.44144 -0.34958
#
# Static dielectric constant tensor:
#      x y z
#    x 3.433370 0.000000 0.055900 
#    y 0.000000 3.775470 0.000000 
#    z 0.055900 0.000000 3.591610 
# 
# 
# High freq. dielectric constant tensor:
#      x y z
#    x 1.778660 0.000000 0.004530 
#    y 0.000000 1.811110 0.000000 
#    z 0.004530 0.000000 1.806410 
# 
# From -- ./inp_files/25643.got.cif
#   From: 2010.03.12/outbox.cif.g09.slc.cpg/sg14_13_cif.got.tgz:25643.got - 2010.03.31 13:35:05.
