data_PCOD8126769
_publ_section_title
;
Structure prediction by ZEFSAII (Michael W. Deem and Ramdas Pophale) SiO2 
 PCOD8126769
Probable space group: P 21/C
;
_chemical_formula_sum "Si O2"
_cell_formula_units_Z 32
_cell_length_a 5.937597
_cell_length_b 28.065987
_cell_length_c 9.114112
_cell_angle_alpha 90.000000
_cell_angle_beta 88.019866
_cell_angle_gamma 90.000000
_cell_volume 1517.909887
_symmetry_space_group_name_H-M "P 21/C"
_symmetry_group_IT_number 14
_symmetry_cell_setting 'monoclinic'
loop_
_space_group_symop_operation_xyz
x,y,z
-x,1/2+y,1/2-z
-x,-y,-z
x,1/2-y,1/2+z
loop_
_atom_site_type_symbol
_atom_site_label
_atom_site_fract_x
_atom_site_fract_y
_atom_site_fract_z
Si Si1 0.749540 0.025250 0.480178
Si Si2 0.470695 0.783919 0.894858
Si Si3 0.533700 0.382129 0.495860
Si Si4 0.931373 0.208537 0.621641
Si Si5 0.186998 0.894706 0.293716
Si Si6 0.223948 0.251491 0.862402
Si Si7 0.757409 0.464727 0.647521
Si Si8 0.141102 0.434776 0.428349
O O1 0.715768 0.068663 0.591925
O O2 0.768627 0.046466 0.318207
O O3 0.500000 0.000000 0.500000
O O4 0.000000 0.000000 0.500000
O O5 0.375226 0.837640 0.910025
O O6 0.281265 0.743985 0.882058
O O7 0.635820 0.784173 0.752394
O O8 0.604516 0.779229 0.044771
O O9 0.634299 0.380251 0.332258
O O10 0.571965 0.431274 0.580433
O O11 0.266171 0.386305 0.476543
O O12 0.867889 0.153563 0.617782
O O13 0.062415 0.217576 0.770848
O O14 0.082596 0.215381 0.474363
O O15 0.981960 0.920815 0.218688
O O16 0.699329 0.520441 0.619774
O O17 0.993209 0.451078 0.568454
#
# Coordination Sequence:
#
# PCOD8126769 Si02
#       8
#     4   4   4   4   4   4   4   4
#     4  12  27  47  69 101 143 181 229 290 352 417
#     4  11  23  42  64  97 132 169 222 281 343 413
#     4  11  23  39  67  95 129 172 225 277 345 415
#     4  11  23  43  67  93 135 171 226 276 340 414
#     4  11  24  41  68  96 126 181 223 278 346 410
#     4  10  23  41  66  93 132 174 215 279 343 402
#     4  10  23  40  65  96 126 175 221 278 338 404
#     4  10  21  42  66  92 129 166 226 277 336 411
#
# _framework density 21.081620000000001
#
# number of rings (size 3 to 8) (size 9 to 14) (size 15 to 20)
#    0.000    1.250    1.250    4.125    1.750    7.000 
#    0.000    0.000    0.000    0.000    0.000    0.000 
#    0.000    0.000    0.000    0.000    0.000    0.000 
#
# Total GULP energy -396469.681658 kJ/mol
# GULP energy per Si atom -12389.677552 kJ/mol
# Density = 2.103364 g / cm^3
# Si number density = 21.081620 Si / 1000 Ang^3
#
#
#
# Elastic Constant Matrix: (Units=GPa)
#
#
# Indices 1 2 3 4 5 6 
#
# 1 100.9867 46.5505 37.5124 0.0000 2.5117 0.0000
# 2 46.5505 73.1469 59.7965 0.0000 -173.0799 0.0000
# 3 37.5124 59.7965 128.4987 0.0000 48.6406 0.0000
# 4 0.0000 0.0000 0.0000 24.6881 0.0000 -13.5411
# 5 2.5117 -173.0799 48.6406 0.0000 -451.4927 0.0000
# 6 0.0000 0.0000 0.0000 -13.5411 0.0000 5.0141
#
#
#
# Elastic Compliance Matrix: (Units=1/GPa)
#
#
# Indices 1 2 3 4 5 6 
#
# 1 0.012310 -0.003296 -0.002464 0.000000 0.001067 0.000000
# 2 -0.003296 0.008767 -0.001766 0.000000 -0.003569 0.000000
# 3 -0.002464 -0.001766 0.008717 0.000000 0.001602 0.000000
# 4 0.000000 0.000000 0.000000 -0.084167 0.000000 -0.227301
# 5 0.001067 -0.003569 0.001602 0.000000 -0.000668 0.000000
# 6 0.000000 0.000000 0.000000 -0.227301 0.000000 -0.414412
#
#
# Mechanical properties :
#
#
# Convention : Reuss Voigt Hill
#
# Bulk Modulus (GPa) = 67.83491 65.59456 66.71473
# Shear Modulus (GPa) = -11.12380 -73.77325 -42.44853
#
# Velocity S-wave (km/s) = -2.29956 -5.92200 -4.49211
# Velocity P-wave (km/s) = 5.01961 3.94690 2.19300
#
# Compressibility (1/GPa) = 0.01474167
#
# Stress axis : x y z
#
# Youngs Moduli (GPa) = 81.23257 114.06618 114.72227
#
# Poissons Ratio (x) = 0.37599 0.28263
# Poissons Ratio (y) = 0.26777 0.20263
# Poissons Ratio (z) = 0.20012 0.20147
#
# Static dielectric constant tensor:
#      x y z
#    x 3.994380 0.000000 -0.029490 
#    y 0.000000 3.813430 0.000000 
#    z -0.029490 0.000000 3.924750 
# 
# 
# High freq. dielectric constant tensor:
#      x y z
#    x 1.830260 0.000000 -0.001210 
#    y 0.000000 1.826150 0.000000 
#    z -0.001210 0.000000 1.842040 
# 
# From -- ./inp_files/6794.got.cif
#   From: 2010.03.12/outbox.cif.g09.slc.cpg/sg14_4_cif.got.tgz:6794.got - 2010.03.31 13:35:05.
