data_PCOD8126708
_publ_section_title
;
Structure prediction by ZEFSAII (Michael W. Deem and Ramdas Pophale) SiO2 
 PCOD8126708
Probable space group: P 21/C
;
_chemical_formula_sum "Si O2"
_cell_formula_units_Z 32
_cell_length_a 11.287134
_cell_length_b 14.005307
_cell_length_c 8.214119
_cell_angle_alpha 90.000000
_cell_angle_beta 78.635015
_cell_angle_gamma 90.000000
_cell_volume 1273.025104
_symmetry_space_group_name_H-M "P 21/C"
_symmetry_group_IT_number 14
_symmetry_cell_setting 'monoclinic'
loop_
_space_group_symop_operation_xyz
x,y,z
-x,1/2+y,1/2-z
-x,-y,-z
x,1/2-y,1/2+z
loop_
_atom_site_type_symbol
_atom_site_label
_atom_site_fract_x
_atom_site_fract_y
_atom_site_fract_z
Si Si1 0.244981 0.023665 0.831023
Si Si2 0.905927 0.355015 0.715159
Si Si3 0.814362 0.871270 0.817960
Si Si4 0.410428 0.888919 0.951519
Si Si5 0.686907 0.578218 0.040619
Si Si6 0.766104 0.224629 0.539522
Si Si7 0.613360 0.764619 0.373896
Si Si8 0.437743 0.590214 0.790556
O O1 0.130280 0.951942 0.867762
O O2 0.243863 0.073913 0.653852
O O3 0.371405 0.962801 0.819097
O O4 0.226477 0.091029 0.993502
O O5 0.879812 0.260624 0.615358
O O6 0.817709 0.348938 0.894409
O O7 0.043925 0.355418 0.729476
O O8 0.776141 0.936359 0.671749
O O9 0.749461 0.769675 0.800864
O O10 0.299422 0.817215 0.018576
O O11 0.434051 0.950741 0.108316
O O12 0.529758 0.828243 0.879750
O O13 0.585080 0.496091 0.078624
O O14 0.619685 0.683618 0.053657
O O15 0.665420 0.170140 0.669286
O O16 0.567383 0.855508 0.277305
#
# Coordination Sequence:
#
# PCOD8126708 Si02
#       8
#     4   4   4   4   4   4   4   4
#     4  11  26  49  75 106 141 193 248 294 356 431
#     4  11  24  45  74 107 146 192 242 298 355 423
#     4  12  29  50  70 105 154 194 234 298 369 426
#     4  10  22  45  76 102 144 186 243 300 357 427
#     4  12  27  48  73 107 146 190 243 292 364 434
#     4  10  21  41  73 107 136 188 248 296 352 416
#     4  11  28  44  72 110 147 193 234 299 372 427
#     4  11  21  46  75 103 144 188 243 302 351 430
#
# _framework density 25.136975
#
# number of rings (size 3 to 8) (size 9 to 14) (size 15 to 20)
#    0.000    1.000    3.750    1.500    5.250    3.000 
#    0.000    0.000    0.000    0.000    0.000    0.000 
#    0.000    0.000    0.000    0.000    0.000    0.000 
#
# Total GULP energy -396568.708205 kJ/mol
# GULP energy per Si atom -12392.772131 kJ/mol
# Density = 2.507976 g / cm^3
# Si number density = 25.136975 Si / 1000 Ang^3
#
#
#
# Elastic Constant Matrix: (Units=GPa)
#
#
# Indices 1 2 3 4 5 6 
#
# 1 132.0242 22.0257 28.7795 0.0000 20.4838 0.0000
# 2 22.0257 82.5507 16.7407 0.0000 9.3321 0.0000
# 3 28.7795 16.7407 137.9111 0.0000 13.4171 0.0000
# 4 0.0000 0.0000 0.0000 33.9509 0.0000 6.5501
# 5 20.4838 9.3321 13.4171 0.0000 32.3370 0.0000
# 6 0.0000 0.0000 0.0000 6.5501 0.0000 29.2284
#
#
#
# Elastic Compliance Matrix: (Units=1/GPa)
#
#
# Indices 1 2 3 4 5 6 
#
# 1 0.008819 -0.001587 -0.001197 0.000000 -0.004632 0.000000
# 2 -0.001587 0.013007 -0.001022 0.000000 -0.002325 0.000000
# 3 -0.001197 -0.001022 0.007839 0.000000 -0.002199 0.000000
# 4 0.000000 0.000000 0.000000 0.030785 0.000000 -0.006899
# 5 -0.004632 -0.002325 -0.002199 0.000000 0.035442 0.000000
# 6 0.000000 0.000000 0.000000 -0.006899 0.000000 0.035759
#
#
# Mechanical properties :
#
#
# Convention : Reuss Voigt Hill
#
# Bulk Modulus (GPa) = 45.34345 54.17532 49.75939
# Shear Modulus (GPa) = 34.10344 38.09926 36.10135
#
# Velocity S-wave (km/s) = 3.68734 3.89738 3.79381
# Velocity P-wave (km/s) = 6.01717 6.46928 6.24732
#
# Compressibility (1/GPa) = 0.02205390
#
# Stress axis : x y z
#
# Youngs Moduli (GPa) = 113.39661 76.88119 127.56990
#
# Poissons Ratio (x) = 0.12198 0.15271
# Poissons Ratio (y) = 0.17991 0.13033
# Poissons Ratio (z) = 0.13575 0.07854
#
# Static dielectric constant tensor:
#      x y z
#    x 4.389020 0.000000 0.391290 
#    y 0.000000 4.697810 0.000000 
#    z 0.391290 0.000000 4.509320 
# 
# 
# High freq. dielectric constant tensor:
#      x y z
#    x 1.990850 0.000000 0.020600 
#    y 0.000000 2.017240 0.000000 
#    z 0.020600 0.000000 2.008600 
# 
# From -- ./inp_files/13320.got.cif
#   From: 2010.03.12/outbox.cif.g09.slc.cpg/sg14_7_cif.got.tgz:13320.got - 2010.03.31 13:35:05.
