data_PCOD8126559
_publ_section_title
;
Structure prediction by ZEFSAII (Michael W. Deem and Ramdas Pophale) SiO2 
 PCOD8126559
Probable space group: P 21/C
;
_chemical_formula_sum "Si O2"
_cell_formula_units_Z 24
_cell_length_a 9.104725
_cell_length_b 15.851862
_cell_length_c 16.351597
_cell_angle_alpha 90.000000
_cell_angle_beta 147.658716
_cell_angle_gamma 90.000000
_cell_volume 1262.494868
_symmetry_space_group_name_H-M "P 21/C"
_symmetry_group_IT_number 14
_symmetry_cell_setting 'monoclinic'
loop_
_space_group_symop_operation_xyz
x,y,z
-x,1/2+y,1/2-z
-x,-y,-z
x,1/2-y,1/2+z
loop_
_atom_site_type_symbol
_atom_site_label
_atom_site_fract_x
_atom_site_fract_y
_atom_site_fract_z
Si Si1 0.735150 0.981946 0.174672
Si Si2 0.783835 0.184242 0.468393
Si Si3 0.823230 0.157554 0.301467
Si Si4 0.685302 0.080396 0.576014
Si Si5 0.651708 0.808305 0.190797
Si Si6 0.609654 0.766071 0.491449
O O1 0.623382 0.910103 0.184479
O O2 0.001164 0.942788 0.253979
O O3 0.830010 0.064764 0.266546
O O4 0.500000 0.000000 0.000000
O O5 0.826599 0.144268 0.399997
O O6 0.661847 0.112389 0.470972
O O7 0.586153 0.265028 0.368756
O O8 0.062966 0.221826 0.636574
O O9 0.090379 0.209784 0.400052
O O10 0.544455 0.204788 0.144287
O O11 0.580553 0.151717 0.588536
O O12 0.500000 0.000000 0.500000
O O13 0.640834 0.781778 0.091387
#
# Coordination Sequence:
#
# PCOD8126559 Si02
#       6
#     4   4   4   4   4   4
#     4  11  22  37  64  91 119 157 207 248 292 356
#     4  10  23  38  61  88 121 154 199 246 307 351
#     4  12  23  39  61  93 121 154 201 258 299 354
#     4  10  21  41  61  87 117 164 200 240 295 365
#     4  10  21  41  61  85 119 163 198 238 300 366
#     4  11  22  39  65  86 123 162 202 241 301 367
#
# _framework density 19.009978
#
# number of rings (size 3 to 8) (size 9 to 14) (size 15 to 20)
#    0.000    1.333    3.333    4.000    0.000    2.667 
#    3.000    0.000    0.000    3.000    0.000    0.000 
#    0.000    0.000    0.000    0.000    0.000    0.000 
#
# Total GULP energy -297625.874459 kJ/mol
# GULP energy per Si atom -12401.078102 kJ/mol
# Density = 1.896671 g / cm^3
# Si number density = 19.009978 Si / 1000 Ang^3
#
#
#
# Elastic Constant Matrix: (Units=GPa)
#
#
# Indices 1 2 3 4 5 6 
#
# 1 63.9851 13.2451 26.9034 0.0000 -3.4224 0.0000
# 2 13.2451 105.4539 43.9668 0.0000 12.8764 0.0000
# 3 26.9034 43.9668 114.5735 0.0000 10.1575 0.0000
# 4 0.0000 0.0000 0.0000 37.9895 0.0000 6.8110
# 5 -3.4224 12.8764 10.1575 0.0000 23.5664 0.0000
# 6 0.0000 0.0000 0.0000 6.8110 0.0000 21.2933
#
#
#
# Elastic Compliance Matrix: (Units=1/GPa)
#
#
# Indices 1 2 3 4 5 6 
#
# 1 0.017902 -0.001099 -0.004227 0.000000 0.005022 0.000000
# 2 -0.001099 0.011829 -0.003841 0.000000 -0.004967 0.000000
# 3 -0.004227 -0.003841 0.011502 0.000000 -0.003473 0.000000
# 4 0.000000 0.000000 0.000000 0.027924 0.000000 -0.008932
# 5 0.005022 -0.004967 -0.003473 0.000000 0.047374 0.000000
# 6 0.000000 0.000000 0.000000 -0.008932 0.000000 0.049820
#
#
# Mechanical properties :
#
#
# Convention : Reuss Voigt Hill
#
# Bulk Modulus (GPa) = 43.67007 50.24925 46.95966
# Shear Modulus (GPa) = 25.99850 29.89632 27.94741
#
# Velocity S-wave (km/s) = 3.70215 3.96999 3.83841
# Velocity P-wave (km/s) = 6.42625 6.89238 6.66339
#
# Compressibility (1/GPa) = 0.02289898
#
# Stress axis : x y z
#
# Youngs Moduli (GPa) = 55.85912 84.53998 86.93901
#
# Poissons Ratio (x) = 0.09294 0.36750
# Poissons Ratio (y) = 0.06141 0.33390
# Poissons Ratio (z) = 0.23612 0.32469
#
# Static dielectric constant tensor:
#      x y z
#    x 5.247420 0.000000 0.048110 
#    y 0.000000 3.813900 0.000000 
#    z 0.048110 0.000000 3.693870 
# 
# 
# High freq. dielectric constant tensor:
#      x y z
#    x 1.719850 0.000000 0.009810 
#    y 0.000000 1.751380 0.000000 
#    z 0.009810 0.000000 1.753920 
# 
# From -- ./inp_files/18042.got.cif
#   From: 2010.03.12/outbox.cif.g09.slc.cpg/sg14_10_cif.got.tgz:18042.got - 2010.03.31 13:35:05.
