data_PCOD8126081
_publ_section_title
;
Structure prediction by ZEFSAII (Michael W. Deem and Ramdas Pophale) SiO2 
 PCOD8126081
Probable space group: P 21/C
;
_chemical_formula_sum "Si O2"
_cell_formula_units_Z 32
_cell_length_a 8.393722
_cell_length_b 13.287332
_cell_length_c 28.049010
_cell_angle_alpha 90.000000
_cell_angle_beta 33.174154
_cell_angle_gamma 90.000000
_cell_volume 1711.766995
_symmetry_space_group_name_H-M "P 21/C"
_symmetry_group_IT_number 14
_symmetry_cell_setting 'monoclinic'
loop_
_space_group_symop_operation_xyz
x,y,z
-x,1/2+y,1/2-z
-x,-y,-z
x,1/2-y,1/2+z
loop_
_atom_site_type_symbol
_atom_site_label
_atom_site_fract_x
_atom_site_fract_y
_atom_site_fract_z
Si Si1 0.486703 0.277330 0.073850
Si Si2 0.182368 0.790404 0.258362
Si Si3 0.426439 0.114658 0.015357
Si Si4 0.239370 0.873746 0.820142
Si Si5 0.183060 0.755774 0.149484
Si Si6 0.344617 0.949625 0.289337
Si Si7 0.490426 0.280183 0.182145
Si Si8 0.763208 0.077547 0.432763
O O1 0.488076 0.165083 0.051407
O O2 0.587289 0.276640 0.103077
O O3 0.158169 0.318574 0.151146
O O4 0.716395 0.345947 0.988171
O O5 0.279362 0.691410 0.262479
O O6 0.273160 0.764262 0.182008
O O7 0.345651 0.888123 0.239100
O O8 0.095574 0.124373 0.081552
O O9 0.616294 0.166039 0.927560
O O10 0.500000 0.000000 0.000000
O O11 0.417555 0.826070 0.818953
O O12 0.361597 0.985491 0.781100
O O13 0.232120 0.641925 0.117705
O O14 0.853452 0.791768 0.225045
O O15 0.341846 0.871337 0.333934
O O16 0.066147 0.021165 0.364270
O O17 0.500000 0.000000 0.500000
#
# Coordination Sequence:
#
# PCOD8126081 Si02
#       8
#     4   4   4   4   4   4   4   4
#     4   9  20  38  59  83 116 151 194 240 285 346
#     4   9  20  39  60  83 114 156 195 232 289 353
#     4  10  21  39  60  81 113 155 196 233 283 352
#     4  10  21  39  56  86 118 148 186 245 290 333
#     4  10  21  40  61  84 113 157 198 237 286 355
#     4  11  21  37  61  86 119 154 190 242 295 347
#     4  10  21  38  59  85 116 150 192 240 295 341
#     4  11  21  37  61  88 117 151 198 241 293 348
#
# _framework density 18.694133999999998
#
# number of rings (size 3 to 8) (size 9 to 14) (size 15 to 20)
#    0.000    2.000    2.500    0.750    1.750    2.500 
#    4.500    1.250    0.000    0.000    0.000    0.000 
#    0.000    0.000    0.000    0.000    0.000    0.000 
#
# Total GULP energy -396823.007351 kJ/mol
# GULP energy per Si atom -12400.718980 kJ/mol
# Density = 1.865159 g / cm^3
# Si number density = 18.694134 Si / 1000 Ang^3
#
#
#
# Elastic Constant Matrix: (Units=GPa)
#
#
# Indices 1 2 3 4 5 6 
#
# 1 127.5087 53.8513 52.5763 0.0000 21.3054 0.0000
# 2 53.8513 119.3720 47.4872 0.0000 7.8705 0.0000
# 3 52.5763 47.4872 104.0665 0.0000 12.2919 0.0000
# 4 0.0000 0.0000 0.0000 35.1749 0.0000 -10.4826
# 5 21.3054 7.8705 12.2919 0.0000 27.6190 0.0000
# 6 0.0000 0.0000 0.0000 -10.4826 0.0000 25.7412
#
#
#
# Elastic Compliance Matrix: (Units=1/GPa)
#
#
# Indices 1 2 3 4 5 6 
#
# 1 0.011922 -0.003492 -0.003653 0.000000 -0.006576 0.000000
# 2 -0.003492 0.011278 -0.003505 0.000000 0.001039 0.000000
# 3 -0.003653 -0.003505 0.013303 0.000000 -0.002103 0.000000
# 4 0.000000 0.000000 0.000000 0.032356 0.000000 0.013176
# 5 -0.006576 0.001039 -0.002103 0.000000 0.041920 0.000000
# 6 0.000000 0.000000 0.000000 0.013176 0.000000 0.044214
#
#
# Mechanical properties :
#
#
# Convention : Reuss Voigt Hill
#
# Bulk Modulus (GPa) = 65.77571 73.19741 69.48656
# Shear Modulus (GPa) = 27.56926 30.84252 29.20589
#
# Velocity S-wave (km/s) = 3.84442 4.06624 3.95689
# Velocity P-wave (km/s) = 7.41402 7.82854 7.62410
#
# Compressibility (1/GPa) = 0.01520318
#
# Stress axis : x y z
#
# Youngs Moduli (GPa) = 83.87550 88.66715 75.17129
#
# Poissons Ratio (x) = 0.30958 0.27464
# Poissons Ratio (y) = 0.29285 0.26349
# Poissons Ratio (z) = 0.30644 0.31080
#
# Static dielectric constant tensor:
#      x y z
#    x 3.474870 0.000000 -0.016180 
#    y 0.000000 3.567090 0.000000 
#    z -0.016180 0.000000 3.457470 
# 
# 
# High freq. dielectric constant tensor:
#      x y z
#    x 1.724250 0.000000 -0.003350 
#    y 0.000000 1.733910 0.000000 
#    z -0.003350 0.000000 1.725990 
# 
# From -- ./inp_files/79640.got.cif
#   From: 2010.03.12/outbox.cif.g09.slc.cpg/sg14_40_cif.got.tgz:79640.got - 2010.03.31 13:35:05.
