data_PCOD8126433
_publ_section_title
;
Structure prediction by ZEFSAII (Michael W. Deem and Ramdas Pophale) SiO2 
 PCOD8126433
Probable space group: P 21/C
;
_chemical_formula_sum "Si O2"
_cell_formula_units_Z 28
_cell_length_a 4.944728
_cell_length_b 18.149302
_cell_length_c 15.641483
_cell_angle_alpha 90.000000
_cell_angle_beta 113.925348
_cell_angle_gamma 90.000000
_cell_volume 1283.104168
_symmetry_space_group_name_H-M "P 21/C"
_symmetry_group_IT_number 14
_symmetry_cell_setting 'monoclinic'
loop_
_space_group_symop_operation_xyz
x,y,z
-x,1/2+y,1/2-z
-x,-y,-z
x,1/2-y,1/2+z
loop_
_atom_site_type_symbol
_atom_site_label
_atom_site_fract_x
_atom_site_fract_y
_atom_site_fract_z
Si Si1 0.186883 0.923082 0.689808
Si Si2 0.300002 0.848774 0.379418
Si Si3 0.055016 0.175478 0.025595
Si Si4 0.773538 0.486983 0.235867
Si Si5 0.969369 0.839939 0.501590
Si Si6 0.712199 0.183864 0.146598
Si Si7 0.824631 0.533680 0.553292
O O1 0.151782 0.862185 0.759010
O O2 0.152829 0.885748 0.594092
O O3 0.491614 0.968851 0.735124
O O4 0.907213 0.976661 0.667597
O O5 0.310192 0.903640 0.300062
O O6 0.618218 0.847551 0.466489
O O7 0.190829 0.768997 0.332314
O O8 0.065684 0.872280 0.421964
O O9 0.942613 0.253970 0.975353
O O10 0.362080 0.183017 0.114758
O O11 0.818750 0.149303 0.068305
O O12 0.120705 0.121242 0.954198
O O13 0.039404 0.488069 0.338571
O O14 0.500000 0.500000 0.500000
O O15 0.000000 0.500000 0.500000
#
# Coordination Sequence:
#
# PCOD8126433 Si02
#       7
#     4   4   4   4   4   4   4
#     4  12  24  40  64  94 126 166 214 256 322 381
#     4  10  23  43  62  92 127 165 212 264 317 369
#     4  10  21  40  63  90 121 165 212 258 315 378
#     4  12  26  40  63  96 128 168 208 262 326 377
#     4  10  23  41  65  91 121 170 217 259 312 373
#     4  10  21  40  65  88 126 162 208 266 309 373
#     4  12  24  40  64  93 131 164 207 261 323 386
#
# _framework density 21.822078999999999
#
# number of rings (size 3 to 8) (size 9 to 14) (size 15 to 20)
#    0.000    1.143    0.000    6.857    2.000    3.429 
#    0.000    0.000    0.000    0.000    0.000    0.000 
#    0.000    0.000    0.000    0.000    0.000    0.000 
#
# Total GULP energy -347133.844027 kJ/mol
# GULP energy per Si atom -12397.637287 kJ/mol
# Density = 2.177241 g / cm^3
# Si number density = 21.822079 Si / 1000 Ang^3
#
#
#
# Elastic Constant Matrix: (Units=GPa)
#
#
# Indices 1 2 3 4 5 6 
#
# 1 123.2357 33.8943 20.8769 0.0000 -8.4145 0.0000
# 2 33.8943 106.1395 48.1080 0.0000 -9.5204 0.0000
# 3 20.8769 48.1080 73.8862 0.0000 -4.4582 0.0000
# 4 0.0000 0.0000 0.0000 33.2859 0.0000 -5.9434
# 5 -8.4145 -9.5204 -4.4582 0.0000 28.5846 0.0000
# 6 0.0000 0.0000 0.0000 -5.9434 0.0000 33.9307
#
#
#
# Elastic Compliance Matrix: (Units=1/GPa)
#
#
# Indices 1 2 3 4 5 6 
#
# 1 0.009026 -0.002295 -0.000951 0.000000 0.001744 0.000000
# 2 -0.002295 0.014232 -0.008452 0.000000 0.002746 0.000000
# 3 -0.000951 -0.008452 0.019301 0.000000 -0.000085 0.000000
# 4 0.000000 0.000000 0.000000 0.031013 0.000000 0.005432
# 5 0.001744 0.002746 -0.000085 0.000000 0.036399 0.000000
# 6 0.000000 0.000000 0.000000 0.005432 0.000000 0.030423
#
#
# Mechanical properties :
#
#
# Convention : Reuss Voigt Hill
#
# Bulk Modulus (GPa) = 52.18424 56.55775 54.37100
# Shear Modulus (GPa) = 29.38109 32.51905 30.95007
#
# Velocity S-wave (km/s) = 3.67330 3.86449 3.77011
# Velocity P-wave (km/s) = 6.47737 6.77394 6.62731
#
# Compressibility (1/GPa) = 0.01916287
#
# Stress axis : x y z
#
# Youngs Moduli (GPa) = 110.79247 70.26533 51.81006
#
# Poissons Ratio (x) = 0.16125 0.04926
# Poissons Ratio (y) = 0.25425 0.43792
# Poissons Ratio (z) = 0.10535 0.59390
#
# Static dielectric constant tensor:
#      x y z
#    x 3.937510 0.000000 -0.008330 
#    y 0.000000 4.109990 0.000000 
#    z -0.008330 0.000000 3.384580 
# 
# 
# High freq. dielectric constant tensor:
#      x y z
#    x 1.875730 0.000000 -0.006800 
#    y 0.000000 1.874800 0.000000 
#    z -0.006800 0.000000 1.829150 
# 
# From -- ./inp_files/37762.got.cif
#   From: 2010.03.12/outbox.cif.g09.slc.cpg/sg14_19_cif.got.tgz:37762.got - 2010.03.31 13:35:05.
