data_PCOD8126576
_publ_section_title
;
Structure prediction by ZEFSAII (Michael W. Deem and Ramdas Pophale) SiO2 
 PCOD8126576
Probable space group: P 21/C
;
_chemical_formula_sum "Si O2"
_cell_formula_units_Z 24
_cell_length_a 17.409152
_cell_length_b 9.163045
_cell_length_c 15.188810
_cell_angle_alpha 90.000000
_cell_angle_beta 29.039831
_cell_angle_gamma 90.000000
_cell_volume 1176.133542
_symmetry_space_group_name_H-M "P 21/C"
_symmetry_group_IT_number 14
_symmetry_cell_setting 'monoclinic'
loop_
_space_group_symop_operation_xyz
x,y,z
-x,1/2+y,1/2-z
-x,-y,-z
x,1/2-y,1/2+z
loop_
_atom_site_type_symbol
_atom_site_label
_atom_site_fract_x
_atom_site_fract_y
_atom_site_fract_z
Si Si1 0.339021 0.415877 0.147181
Si Si2 0.183008 0.580598 0.644031
Si Si3 0.814941 0.585619 0.007724
Si Si4 0.335437 0.419444 0.652628
Si Si5 0.312155 0.392427 0.364725
Si Si6 0.315063 0.603351 0.012106
O O1 0.370422 0.247466 0.091700
O O2 0.243088 0.428008 0.335845
O O3 0.500000 0.500000 0.000000
O O4 0.252688 0.493681 0.151415
O O5 0.233616 0.491021 0.678261
O O6 0.278581 0.526259 0.462755
O O7 0.218677 0.749317 0.622857
O O8 0.999231 0.556320 0.810985
O O9 0.766593 0.568130 0.157102
O O10 0.770414 0.746174 0.016226
O O11 0.721167 0.465117 0.046198
O O12 0.500000 0.500000 0.500000
O O13 0.499041 0.362636 0.168678
#
# Coordination Sequence:
#
# PCOD8126576 Si02
#       6
#     4   4   4   4   4   4
#     4   9  20  38  62  89 115 149 201 255 296 347
#     4  12  24  39  60  91 125 160 200 257 314 358
#     4  11  24  41  59  89 126 160 201 255 311 360
#     4  11  22  40  65  89 119 161 207 252 300 369
#     4  10  21  41  62  87 119 160 209 251 297 367
#     4  11  22  39  64  89 119 162 206 252 303 367
#
# _framework density 20.405847000000001
#
# number of rings (size 3 to 8) (size 9 to 14) (size 15 to 20)
#    0.000    1.333    0.000    7.500    0.000    5.333 
#    0.000    9.167    0.000    0.000    0.000    0.000 
#    0.000    0.000    0.000    0.000    0.000    0.000 
#
# Total GULP energy -297667.027346 kJ/mol
# GULP energy per Si atom -12402.792806 kJ/mol
# Density = 2.035940 g / cm^3
# Si number density = 20.405847 Si / 1000 Ang^3
#
#
#
# Elastic Constant Matrix: (Units=GPa)
#
#
# Indices 1 2 3 4 5 6 
#
# 1 101.9560 56.9039 24.5726 0.0000 12.1272 0.0000
# 2 56.9039 150.7910 17.0840 0.0000 20.7135 0.0000
# 3 24.5726 17.0840 55.5525 0.0000 5.3538 0.0000
# 4 0.0000 0.0000 0.0000 29.5156 0.0000 5.1063
# 5 12.1272 20.7135 5.3538 0.0000 33.7089 0.0000
# 6 0.0000 0.0000 0.0000 5.1063 0.0000 35.9126
#
#
#
# Elastic Compliance Matrix: (Units=1/GPa)
#
#
# Indices 1 2 3 4 5 6 
#
# 1 0.013513 -0.004392 -0.004487 0.000000 -0.001450 0.000000
# 2 -0.004392 0.008858 -0.000415 0.000000 -0.003797 0.000000
# 3 -0.004487 -0.000415 0.020243 0.000000 -0.001346 0.000000
# 4 0.000000 0.000000 0.000000 0.034735 0.000000 -0.004939
# 5 -0.001450 -0.003797 -0.001346 0.000000 0.032734 0.000000
# 6 0.000000 0.000000 0.000000 -0.004939 0.000000 0.028548
#
#
# Mechanical properties :
#
#
# Convention : Reuss Voigt Hill
#
# Bulk Modulus (GPa) = 41.62229 56.15781 48.89005
# Shear Modulus (GPa) = 30.26123 33.81002 32.03562
#
# Velocity S-wave (km/s) = 3.85511 4.07489 3.96652
# Velocity P-wave (km/s) = 6.34487 7.05123 6.70736
#
# Compressibility (1/GPa) = 0.02402559
#
# Stress axis : x y z
#
# Youngs Moduli (GPa) = 74.00121 112.89610 49.39950
#
# Poissons Ratio (x) = 0.49583 0.22165
# Poissons Ratio (y) = 0.32501 0.02052
# Poissons Ratio (z) = 0.33204 0.04690
#
# Static dielectric constant tensor:
#      x y z
#    x 4.058450 0.000000 0.283620 
#    y 0.000000 4.081940 0.000000 
#    z 0.283620 0.000000 3.597030 
# 
# 
# High freq. dielectric constant tensor:
#      x y z
#    x 1.811220 0.000000 0.013530 
#    y 0.000000 1.811180 0.000000 
#    z 0.013530 0.000000 1.787260 
# 
# From -- ./inp_files/38981.got.cif
#   From: 2010.03.12/outbox.cif.g09.slc.cpg/sg14_20_cif.got.tgz:38981.got - 2010.03.31 13:35:05.
