data_PCOD8126134
_publ_section_title
;
Structure prediction by ZEFSAII (Michael W. Deem and Ramdas Pophale) SiO2 
 PCOD8126134
Probable space group: P 21/C
;
_chemical_formula_sum "Si O2"
_cell_formula_units_Z 32
_cell_length_a 8.774126
_cell_length_b 20.639689
_cell_length_c 10.501585
_cell_angle_alpha 90.000000
_cell_angle_beta 50.549783
_cell_angle_gamma 90.000000
_cell_volume 1468.516093
_symmetry_space_group_name_H-M "P 21/C"
_symmetry_group_IT_number 14
_symmetry_cell_setting 'monoclinic'
loop_
_space_group_symop_operation_xyz
x,y,z
-x,1/2+y,1/2-z
-x,-y,-z
x,1/2-y,1/2+z
loop_
_atom_site_type_symbol
_atom_site_label
_atom_site_fract_x
_atom_site_fract_y
_atom_site_fract_z
Si Si1 0.207245 0.962375 0.207830
Si Si2 0.433786 0.584339 0.149105
Si Si3 0.158590 0.804771 0.778356
Si Si4 0.158608 0.195215 0.278223
Si Si5 0.566214 0.915660 0.850889
Si Si6 0.085252 0.834946 0.346463
Si Si7 0.085252 0.334927 0.346379
Si Si8 0.207319 0.462377 0.207907
O O1 0.199482 0.902472 0.313207
O O2 0.999922 0.977453 0.250037
O O3 0.269754 0.027739 0.246984
O O4 0.374221 0.942232 0.020356
O O5 0.338417 0.649373 0.137498
O O6 0.500248 0.608338 0.249815
O O7 0.269731 0.527743 0.247166
O O8 0.625527 0.557739 0.979542
O O9 0.222478 0.729584 0.767920
O O10 0.999891 0.806424 0.750178
O O11 0.077749 0.829417 0.957199
O O12 0.338510 0.149372 0.137387
O O13 0.222474 0.270396 0.267894
O O14 0.077555 0.170538 0.457099
O O15 0.999882 0.846124 0.250130
O O16 0.199425 0.402450 0.313295
#
# Coordination Sequence:
#
# PCOD8126134 Si02
#       8
#     4   4   4   4   4   4   4   4
#     4  10  22  39  58  82 115 154 196 243 291 343
#     4  11  23  37  58  88 117 153 199 241 290 350
#     4  10  21  38  62  90 119 153 193 238 291 349
#     4  10  21  38  62  90 119 153 193 238 291 349
#     4  11  23  37  58  88 117 153 199 241 290 350
#     4   9  19  38  62  86 117 155 193 237 291 345
#     4   9  19  38  62  86 117 155 193 237 291 345
#     4  10  22  39  58  82 115 154 196 243 291 343
#
# _framework density 21.790704000000002
#
# number of rings (size 3 to 8) (size 9 to 14) (size 15 to 20)
#    0.000    2.000    0.000    3.750    0.000    9.000 
#    0.000    1.250    0.000    0.000    0.000    0.000 
#    0.000    0.000    0.000    0.000    0.000    0.000 
#
# Total GULP energy -396438.485207 kJ/mol
# GULP energy per Si atom -12388.702663 kJ/mol
# Density = 2.174111 g / cm^3
# Si number density = 21.790704 Si / 1000 Ang^3
#
#
#
# Elastic Constant Matrix: (Units=GPa)
#
#
# Indices 1 2 3 4 5 6 
#
# 1 75.4510 28.8391 23.9418 0.0000 -13.3508 0.0000
# 2 28.8391 136.5972 11.2562 0.0000 -31.1246 0.0000
# 3 23.9418 11.2562 53.1617 0.0000 -1.3450 0.0000
# 4 0.0000 0.0000 0.0000 49.3001 0.0000 17.9769
# 5 -13.3508 -31.1246 -1.3450 0.0000 37.9570 0.0000
# 6 0.0000 0.0000 0.0000 17.9769 0.0000 20.1401
#
#
#
# Elastic Compliance Matrix: (Units=1/GPa)
#
#
# Indices 1 2 3 4 5 6 
#
# 1 0.017025 -0.002091 -0.007123 0.000000 0.004021 0.000000
# 2 -0.002091 0.009420 -0.000877 0.000000 0.006958 0.000000
# 3 -0.007123 -0.000877 0.022142 0.000000 -0.002440 0.000000
# 4 0.000000 0.000000 0.000000 0.030072 0.000000 -0.026842
# 5 0.004021 0.006958 -0.002440 0.000000 0.033379 0.000000
# 6 0.000000 0.000000 0.000000 -0.026842 0.000000 0.073611
#
#
# Mechanical properties :
#
#
# Convention : Reuss Voigt Hill
#
# Bulk Modulus (GPa) = 35.20437 43.69824 39.45131
# Shear Modulus (GPa) = 23.22366 34.89096 29.05731
#
# Velocity S-wave (km/s) = 3.26814 4.00582 3.65564
# Velocity P-wave (km/s) = 5.51650 6.44148 5.99685
#
# Compressibility (1/GPa) = 0.02840556
#
# Stress axis : x y z
#
# Youngs Moduli (GPa) = 58.73865 106.15837 45.16259
#
# Poissons Ratio (x) = 0.22199 0.32168
# Poissons Ratio (y) = 0.12283 0.03960
# Poissons Ratio (z) = 0.41838 0.09307
#
# Static dielectric constant tensor:
#      x y z
#    x 3.756410 0.000000 -0.038730 
#    y 0.000000 4.735000 0.000000 
#    z -0.038730 0.000000 3.794400 
# 
# 
# High freq. dielectric constant tensor:
#      x y z
#    x 1.829640 0.000000 0.005480 
#    y 0.000000 1.892070 0.000000 
#    z 0.005480 0.000000 1.844310 
# 
# From -- ./inp_files/26763.got.cif
#   From: 2010.03.12/outbox.cif.g09.slc.cpg/sg14_14_cif.got.tgz:26763.got - 2010.03.31 13:35:05.
