data_PCOD8126110
_publ_section_title
;
Structure prediction by ZEFSAII (Michael W. Deem and Ramdas Pophale) SiO2 
 PCOD8126110
Probable space group: P 21/C
;
_chemical_formula_sum "Si O2"
_cell_formula_units_Z 28
_cell_length_a 21.713317
_cell_length_b 9.865924
_cell_length_c 9.868622
_cell_angle_alpha 90.000000
_cell_angle_beta 43.712084
_cell_angle_gamma 90.000000
_cell_volume 1460.899760
_symmetry_space_group_name_H-M "P 21/C"
_symmetry_group_IT_number 14
_symmetry_cell_setting 'monoclinic'
loop_
_space_group_symop_operation_xyz
x,y,z
-x,1/2+y,1/2-z
-x,-y,-z
x,1/2-y,1/2+z
loop_
_atom_site_type_symbol
_atom_site_label
_atom_site_fract_x
_atom_site_fract_y
_atom_site_fract_z
Si Si1 0.562943 0.122334 0.558230
Si Si2 0.954561 0.759447 0.292972
Si Si3 0.939826 0.007896 0.966371
Si Si4 0.765597 0.131940 0.228680
Si Si5 0.559913 0.127608 0.249671
Si Si6 0.089163 0.408357 0.878841
Si Si7 0.763046 0.121443 0.921965
O O1 0.665968 0.083516 0.421999
O O2 0.547676 0.165897 0.426852
O O3 0.532647 0.244052 0.703015
O O4 0.504603 0.993432 0.690724
O O5 0.976214 0.611451 0.315077
O O6 0.897072 0.849388 0.490795
O O7 0.910305 0.727700 0.216979
O O8 0.044567 0.845820 0.129795
O O9 0.832931 0.007206 0.158989
O O10 0.000000 0.000000 0.000000
O O11 0.794153 0.260050 0.272904
O O12 0.773743 0.172444 0.058482
O O13 0.660662 0.080991 0.056926
O O14 0.176237 0.491678 0.701542
O O15 0.000000 0.500000 0.000000
#
# Coordination Sequence:
#
# PCOD8126110 Si02
#       7
#     4   4   4   4   4   4   4
#     4   9  19  38  61  87 118 148 193 234 295 341
#     4  12  24  39  57  81 113 151 191 239 287 334
#     4  12  25  38  59  86 115 152 200 239 288 339
#     4  10  21  38  62  83 116 154 194 235 286 351
#     4   9  19  38  61  89 115 153 188 241 285 351
#     4  12  23  39  57  82 117 152 192 239 285 340
#     4  10  21  38  61  86 116 153 197 235 291 343
#
# _framework density 19.166270000000001
#
# number of rings (size 3 to 8) (size 9 to 14) (size 15 to 20)
#    0.000    1.429    4.286    0.857    2.000    0.571 
#    2.571    0.000    0.000    0.000    0.000    0.000 
#    0.000    0.000    0.000    0.000    0.000    0.000 
#
# Total GULP energy -347053.717770 kJ/mol
# GULP energy per Si atom -12394.775635 kJ/mol
# Density = 1.912265 g / cm^3
# Si number density = 19.166270 Si / 1000 Ang^3
#
#
#
# Elastic Constant Matrix: (Units=GPa)
#
#
# Indices 1 2 3 4 5 6 
#
# 1 83.3833 51.3845 45.3128 0.0000 -5.2047 0.0000
# 2 51.3845 115.3008 56.1476 0.0000 -11.6231 0.0000
# 3 45.3128 56.1476 96.4851 0.0000 3.1801 0.0000
# 4 0.0000 0.0000 0.0000 37.2601 0.0000 6.9517
# 5 -5.2047 -11.6231 3.1801 0.0000 24.1183 0.0000
# 6 0.0000 0.0000 0.0000 6.9517 0.0000 38.9253
#
#
#
# Elastic Compliance Matrix: (Units=1/GPa)
#
#
# Indices 1 2 3 4 5 6 
#
# 1 0.018445 -0.005223 -0.005696 0.000000 0.002214 0.000000
# 2 -0.005223 0.014801 -0.006386 0.000000 0.006847 0.000000
# 3 -0.005696 -0.006386 0.016971 0.000000 -0.006544 0.000000
# 4 0.000000 0.000000 0.000000 0.027763 0.000000 -0.004958
# 5 0.002214 0.006847 -0.006544 0.000000 0.046103 0.000000
# 6 0.000000 0.000000 0.000000 -0.004958 0.000000 0.026576
#
#
# Mechanical properties :
#
#
# Convention : Reuss Voigt Hill
#
# Bulk Modulus (GPa) = 64.07300 66.76212 65.41756
# Shear Modulus (GPa) = 26.25081 29.54905 27.89993
#
# Velocity S-wave (km/s) = 3.70487 3.93074 3.81948
# Velocity P-wave (km/s) = 7.19751 7.45048 7.32509
#
# Compressibility (1/GPa) = 0.01560720
#
# Stress axis : x y z
#
# Youngs Moduli (GPa) = 54.21489 67.56504 58.92439
#
# Poissons Ratio (x) = 0.35291 0.33563
# Poissons Ratio (y) = 0.28318 0.37626
# Poissons Ratio (z) = 0.30880 0.43144
#
# Static dielectric constant tensor:
#      x y z
#    x 3.527570 0.000000 -0.031370 
#    y 0.000000 1.174760 0.000000 
#    z -0.031370 0.000000 3.452230 
# 
# 
# High freq. dielectric constant tensor:
#      x y z
#    x 1.742140 0.000000 0.013670 
#    y 0.000000 1.738640 0.000000 
#    z 0.013670 0.000000 1.755270 
# 
# From -- ./inp_files/18716.got.cif
#   From: 2010.03.12/outbox.cif.g09.slc.cpg/sg14_10_cif.got.tgz:18716.got - 2010.03.31 13:35:05.
