data_PCOD8126001
_publ_section_title
;
Structure prediction by ZEFSAII (Michael W. Deem and Ramdas Pophale) SiO2 
 PCOD8126001
Probable space group: P 21/C
;
_chemical_formula_sum "Si O2"
_cell_formula_units_Z 32
_cell_length_a 25.273300
_cell_length_b 14.845264
_cell_length_c 8.839516
_cell_angle_alpha 90.000000
_cell_angle_beta 150.974821
_cell_angle_gamma 90.000000
_cell_volume 1609.139604
_symmetry_space_group_name_H-M "P 21/C"
_symmetry_group_IT_number 14
_symmetry_cell_setting 'monoclinic'
loop_
_space_group_symop_operation_xyz
x,y,z
-x,1/2+y,1/2-z
-x,-y,-z
x,1/2-y,1/2+z
loop_
_atom_site_type_symbol
_atom_site_label
_atom_site_fract_x
_atom_site_fract_y
_atom_site_fract_z
Si Si1 0.779910 0.652518 0.772491
Si Si2 0.992191 0.653343 0.156362
Si Si3 0.617676 0.004045 0.221902
Si Si4 0.382331 0.995984 0.133549
Si Si5 0.767243 0.152106 0.094896
Si Si6 0.220077 0.347528 0.872798
Si Si7 0.992182 0.653311 0.804675
Si Si8 0.232757 0.652130 0.758746
O O1 0.678918 0.588645 0.479259
O O2 0.757966 0.750028 0.644995
O O3 0.890008 0.604126 0.981727
O O4 0.794468 0.664702 0.986228
O O5 0.997238 0.750022 0.243121
O O6 0.111217 0.608972 0.479512
O O7 0.964710 0.660976 0.911827
O O8 0.680465 0.088540 0.446580
O O9 0.678913 0.911394 0.415379
O O10 0.607613 0.018286 0.019027
O O11 0.500000 0.000000 0.000000
O O12 0.500000 0.000000 0.500000
O O13 0.319471 0.911532 0.044148
O O14 0.758212 0.249975 0.145540
O O15 0.888788 0.108939 0.423325
O O16 0.741072 0.161002 0.852653
O O17 0.109986 0.395922 0.531563
#
# Coordination Sequence:
#
# PCOD8126001 Si02
#       8
#     4   4   4   4   4   4   4   4
#     4  10  21  37  59  86 115 149 187 231 285 340
#     4   9  17  31  55  86 117 148 183 226 279 340
#     4  11  25  42  59  82 113 151 197 244 287 338
#     4  11  25  42  59  82 113 151 197 244 287 338
#     4  10  21  38  61  88 118 152 189 232 285 341
#     4  10  21  37  59  86 115 149 187 231 285 340
#     4   9  17  31  55  86 117 148 183 226 279 340
#     4  10  21  38  61  88 118 152 189 232 285 341
#
# _framework density 19.886405
#
# number of rings (size 3 to 8) (size 9 to 14) (size 15 to 20)
#    0.000    2.000    0.000    4.500    0.000    9.000 
#    0.000    7.500    0.000    0.000    0.000    0.000 
#    0.000    0.000    0.000    0.000    0.000    0.000 
#
# Total GULP energy -396634.514672 kJ/mol
# GULP energy per Si atom -12394.828584 kJ/mol
# Density = 1.984114 g / cm^3
# Si number density = 19.886405 Si / 1000 Ang^3
#
#
#
# Elastic Constant Matrix: (Units=GPa)
#
#
# Indices 1 2 3 4 5 6 
#
# 1 145.5240 68.4252 91.6272 0.0000 15.1220 0.0000
# 2 68.4252 98.4891 76.6766 0.0000 5.2609 0.0000
# 3 91.6272 76.6766 188.2706 0.0000 12.2025 0.0000
# 4 0.0000 0.0000 0.0000 37.3192 0.0000 3.1987
# 5 15.1220 5.2609 12.2025 0.0000 36.9065 0.0000
# 6 0.0000 0.0000 0.0000 3.1987 0.0000 32.2513
#
#
#
# Elastic Compliance Matrix: (Units=1/GPa)
#
#
# Indices 1 2 3 4 5 6 
#
# 1 0.011866 -0.005475 -0.003352 0.000000 -0.002973 0.000000
# 2 -0.005475 0.017394 -0.004501 0.000000 0.001252 0.000000
# 3 -0.003352 -0.004501 0.008835 0.000000 -0.000906 0.000000
# 4 0.000000 0.000000 0.000000 0.027026 0.000000 -0.002680
# 5 -0.002973 0.001252 -0.000906 0.000000 0.028435 0.000000
# 6 0.000000 0.000000 0.000000 -0.002680 0.000000 0.031272
#
#
# Mechanical properties :
#
#
# Convention : Reuss Voigt Hill
#
# Bulk Modulus (GPa) = 87.42302 100.63796 94.03049
# Shear Modulus (GPa) = 32.19653 34.33237 33.26445
#
# Velocity S-wave (km/s) = 4.02807 4.15953 4.09433
# Velocity P-wave (km/s) = 8.10497 8.58983 8.35092
#
# Compressibility (1/GPa) = 0.01143864
#
# Stress axis : x y z
#
# Youngs Moduli (GPa) = 84.27621 57.49037 113.19017
#
# Poissons Ratio (x) = 0.31476 0.37945
# Poissons Ratio (y) = 0.46142 0.50943
# Poissons Ratio (z) = 0.28252 0.25874
#
# Static dielectric constant tensor:
#      x y z
#    x 3.929940 0.000000 0.153700 
#    y 0.000000 3.458150 0.000000 
#    z 0.153700 0.000000 4.169190 
# 
# 
# High freq. dielectric constant tensor:
#      x y z
#    x 1.793470 0.000000 -0.002530 
#    y 0.000000 1.760100 0.000000 
#    z -0.002530 0.000000 1.789440 
# 
# From -- ./inp_files/19559.got.cif
#   From: 2010.03.12/outbox.cif.g09.slc.cpg/sg14_10_cif.got.tgz:19559.got - 2010.03.31 13:35:05.
