data_PCOD8126167
_publ_section_title
;
Structure prediction by ZEFSAII (Michael W. Deem and Ramdas Pophale) SiO2 
 PCOD8126167
Probable space group: P 21/C
;
_chemical_formula_sum "Si O2"
_cell_formula_units_Z 32
_cell_length_a 5.176953
_cell_length_b 23.816436
_cell_length_c 11.547293
_cell_angle_alpha 90.000000
_cell_angle_beta 77.069139
_cell_angle_gamma 90.000000
_cell_volume 1387.636675
_symmetry_space_group_name_H-M "P 21/C"
_symmetry_group_IT_number 14
_symmetry_cell_setting 'monoclinic'
loop_
_space_group_symop_operation_xyz
x,y,z
-x,1/2+y,1/2-z
-x,-y,-z
x,1/2-y,1/2+z
loop_
_atom_site_type_symbol
_atom_site_label
_atom_site_fract_x
_atom_site_fract_y
_atom_site_fract_z
Si Si1 0.355319 0.596501 0.218283
Si Si2 0.687731 0.698372 0.563575
Si Si3 0.282545 0.499811 0.857201
Si Si4 0.492532 0.363977 0.206818
Si Si5 0.338257 0.171132 0.477837
Si Si6 0.043157 0.924231 0.213593
Si Si7 0.074253 0.590322 0.020274
Si Si8 0.221413 0.864079 0.984236
O O1 0.452286 0.531487 0.211382
O O2 0.119000 0.601877 0.150334
O O3 0.252093 0.613273 0.352795
O O4 0.573528 0.640887 0.150378
O O5 0.617692 0.688335 0.705785
O O6 0.657998 0.763136 0.537877
O O7 0.497155 0.662025 0.500034
O O8 0.992130 0.682571 0.509634
O O9 0.108401 0.513848 0.758936
O O10 0.149032 0.458133 0.963493
O O11 0.322580 0.560574 0.922866
O O12 0.530549 0.344589 0.067609
O O13 0.777972 0.380039 0.231062
O O14 0.270820 0.413165 0.241448
O O15 0.043356 0.146016 0.531195
O O16 0.132300 0.917536 0.071215
#
# Coordination Sequence:
#
# PCOD8126167 Si02
#       8
#     4   4   4   4   4   4   4   4
#     4  11  25  39  64  95 137 166 211 271 330 381
#     4  10  25  44  67  93 127 173 213 265 320 378
#     4  10  21  38  64  92 130 170 214 267 325 379
#     4  10  22  41  64  94 125 161 220 264 308 381
#     4  11  24  39  67  96 125 172 213 264 328 383
#     4  10  21  42  67  91 126 171 215 260 314 382
#     4  10  22  39  60  99 130 164 218 270 320 383
#     4  10  25  46  64  95 134 168 217 268 315 390
#
# _framework density 23.060790999999998
#
# number of rings (size 3 to 8) (size 9 to 14) (size 15 to 20)
#    0.000    1.750    1.250    1.125    8.750    0.500 
#    2.250    0.625    0.000    0.000    0.000    0.000 
#    0.000    0.000    0.000    0.000    0.000    0.000 
#
# Total GULP energy -396534.835548 kJ/mol
# GULP energy per Si atom -12391.713611 kJ/mol
# Density = 2.300830 g / cm^3
# Si number density = 23.060791 Si / 1000 Ang^3
#
#
#
# Elastic Constant Matrix: (Units=GPa)
#
#
# Indices 1 2 3 4 5 6 
#
# 1 66.8323 -13.7093 7.4272 0.0000 1.6775 0.0000
# 2 -13.7093 63.7268 17.1618 0.0000 -8.3315 0.0000
# 3 7.4272 17.1618 164.6241 0.0000 -9.1799 0.0000
# 4 0.0000 0.0000 0.0000 26.9078 0.0000 6.2220
# 5 1.6775 -8.3315 -9.1799 0.0000 34.0910 0.0000
# 6 0.0000 0.0000 0.0000 6.2220 0.0000 20.4155
#
#
#
# Elastic Compliance Matrix: (Units=1/GPa)
#
#
# Indices 1 2 3 4 5 6 
#
# 1 0.015846 0.003684 -0.001109 0.000000 -0.000178 0.000000
# 2 0.003684 0.017435 -0.001783 0.000000 0.003600 0.000000
# 3 -0.001109 -0.001783 0.006385 0.000000 0.001338 0.000000
# 4 0.000000 0.000000 0.000000 0.039982 0.000000 -0.012185
# 5 -0.000178 0.003600 0.001338 0.000000 0.030582 0.000000
# 6 0.000000 0.000000 0.000000 -0.012185 0.000000 0.052696
#
#
# Mechanical properties :
#
#
# Convention : Reuss Voigt Hill
#
# Bulk Modulus (GPa) = 24.24170 35.21584 29.72877
# Shear Modulus (GPa) = 28.55637 35.23642 31.89639
#
# Velocity S-wave (km/s) = 3.52278 3.91318 3.72310
# Velocity P-wave (km/s) = 5.20399 5.97673 5.60370
#
# Compressibility (1/GPa) = 0.04125123
#
# Stress axis : x y z
#
# Youngs Moduli (GPa) = 63.10625 57.35464 156.61758
#
# Poissons Ratio (x) = -0.21131 0.17368
# Poissons Ratio (y) = -0.23250 0.27927
# Poissons Ratio (z) = 0.06998 0.10227
#
# Static dielectric constant tensor:
#      x y z
#    x 4.258390 0.000000 -0.083460 
#    y 0.000000 4.098360 0.000000 
#    z -0.083460 0.000000 4.421310 
# 
# 
# High freq. dielectric constant tensor:
#      x y z
#    x 1.925630 0.000000 -0.001780 
#    y 0.000000 1.898030 0.000000 
#    z -0.001780 0.000000 1.914270 
# 
# From -- ./inp_files/22109.got.cif
#   From: 2010.03.12/outbox.cif.g09.slc.cpg/sg14_12_cif.got.tgz:22109.got - 2010.03.31 13:35:05.
