data_PCOD8126141
_publ_section_title
;
Structure prediction by ZEFSAII (Michael W. Deem and Ramdas Pophale) SiO2 
 PCOD8126141
Probable space group: P 21/C
;
_chemical_formula_sum "Si O2"
_cell_formula_units_Z 28
_cell_length_a 16.431294
_cell_length_b 8.625143
_cell_length_c 15.292765
_cell_angle_alpha 90.000000
_cell_angle_beta 144.129849
_cell_angle_gamma 90.000000
_cell_volume 1269.944811
_symmetry_space_group_name_H-M "P 21/C"
_symmetry_group_IT_number 14
_symmetry_cell_setting 'monoclinic'
loop_
_space_group_symop_operation_xyz
x,y,z
-x,1/2+y,1/2-z
-x,-y,-z
x,1/2-y,1/2+z
loop_
_atom_site_type_symbol
_atom_site_label
_atom_site_fract_x
_atom_site_fract_y
_atom_site_fract_z
Si Si1 0.936784 0.126795 0.881543
Si Si2 0.528709 0.675545 0.999798
Si Si3 0.823772 0.639726 0.187410
Si Si4 0.092953 0.826692 0.486506
Si Si5 0.402123 0.692559 0.224138
Si Si6 0.853216 0.841780 0.510775
Si Si7 0.446282 0.343533 0.305086
O O1 0.878733 0.268260 0.889533
O O2 0.825364 0.037677 0.724785
O O3 0.050674 0.191520 0.913173
O O4 0.000000 0.000000 0.000000
O O5 0.686959 0.715591 0.109270
O O6 0.491281 0.790992 0.047152
O O7 0.500000 0.500000 0.000000
O O8 0.428738 0.699271 0.830391
O O9 0.963029 0.735711 0.331694
O O10 0.807514 0.629069 0.069892
O O11 0.237388 0.803721 0.559625
O O12 0.064313 0.010948 0.458514
O O13 0.464637 0.525255 0.303810
O O14 0.477256 0.748111 0.203050
O O15 0.716884 0.803447 0.335917
#
# Coordination Sequence:
#
# PCOD8126141 Si02
#       7
#     4   4   4   4   4   4   4
#     4  10  21  38  62  92 128 170 215 266 332 394
#     4  12  25  45  71  99 137 182 226 281 340 409
#     4  11  23  43  66 101 133 175 229 274 342 400
#     4  10  23  42  65  96 135 172 225 279 337 398
#     4  11  24  45  66 102 133 178 228 279 342 408
#     4  11  22  42  68  99 134 175 225 283 335 405
#     4  11  24  43  72  95 138 176 229 283 341 406
#
# _framework density 22.048200999999999
#
# number of rings (size 3 to 8) (size 9 to 14) (size 15 to 20)
#    0.000    1.143    1.429    5.143    2.000    4.571 
#    5.143    0.000    0.000    0.000    0.000    0.000 
#    0.000    0.000    0.000    0.000    0.000    0.000 
#
# Total GULP energy -347160.114498 kJ/mol
# GULP energy per Si atom -12398.575518 kJ/mol
# Density = 2.199802 g / cm^3
# Si number density = 22.048201 Si / 1000 Ang^3
#
#
#
# Elastic Constant Matrix: (Units=GPa)
#
#
# Indices 1 2 3 4 5 6 
#
# 1 113.4541 48.0748 21.6979 0.0000 -17.6578 0.0000
# 2 48.0748 86.9107 14.1674 0.0000 9.3417 0.0000
# 3 21.6979 14.1674 69.0469 0.0000 3.6648 0.0000
# 4 0.0000 0.0000 0.0000 34.5674 0.0000 -0.6967
# 5 -17.6578 9.3417 3.6648 0.0000 36.1939 0.0000
# 6 0.0000 0.0000 0.0000 -0.6967 0.0000 25.3384
#
#
#
# Elastic Compliance Matrix: (Units=1/GPa)
#
#
# Indices 1 2 3 4 5 6 
#
# 1 0.014585 -0.008562 -0.003339 0.000000 0.009663 0.000000
# 2 -0.008562 0.017228 -0.000389 0.000000 -0.008584 0.000000
# 3 -0.003339 -0.000389 0.015778 0.000000 -0.003126 0.000000
# 4 0.000000 0.000000 0.000000 0.028945 0.000000 0.000796
# 5 0.009663 -0.008584 -0.003126 0.000000 0.034876 0.000000
# 6 0.000000 0.000000 0.000000 0.000796 0.000000 0.039488
#
#
# Mechanical properties :
#
#
# Convention : Reuss Voigt Hill
#
# Bulk Modulus (GPa) = 43.45774 48.58798 46.02286
# Shear Modulus (GPa) = 27.30008 31.58474 29.44241
#
# Velocity S-wave (km/s) = 3.52262 3.78899 3.65823
# Velocity P-wave (km/s) = 6.02481 6.42082 6.22596
#
# Compressibility (1/GPa) = 0.02301086
#
# Stress axis : x y z
#
# Youngs Moduli (GPa) = 68.56452 58.04441 63.37935
#
# Poissons Ratio (x) = 0.49697 0.21165
# Poissons Ratio (y) = 0.58705 0.02464
# Poissons Ratio (z) = 0.22896 0.02256
#
# Static dielectric constant tensor:
#      x y z
#    x 4.069290 0.000000 -0.106020 
#    y 0.000000 1.587500 0.000000 
#    z -0.106020 0.000000 4.040580 
# 
# 
# High freq. dielectric constant tensor:
#      x y z
#    x 1.880160 0.000000 -0.002870 
#    y 0.000000 1.873260 0.000000 
#    z -0.002870 0.000000 1.861000 
# 
# From -- ./inp_files/46758.got.cif
#   From: 2010.03.12/outbox.cif.g09.slc.cpg/sg14_24_cif.got.tgz:46758.got - 2010.03.31 13:35:05.
