data_PCOD8126496
_publ_section_title
;
Structure prediction by ZEFSAII (Michael W. Deem and Ramdas Pophale) SiO2 
 PCOD8126496
Probable space group: P 21/C
;
_chemical_formula_sum "Si O2"
_cell_formula_units_Z 28
_cell_length_a 17.705071
_cell_length_b 8.147907
_cell_length_c 9.362266
_cell_angle_alpha 90.000000
_cell_angle_beta 76.172470
_cell_angle_gamma 90.000000
_cell_volume 1311.452871
_symmetry_space_group_name_H-M "P 21/C"
_symmetry_group_IT_number 14
_symmetry_cell_setting 'monoclinic'
loop_
_space_group_symop_operation_xyz
x,y,z
-x,1/2+y,1/2-z
-x,-y,-z
x,1/2-y,1/2+z
loop_
_atom_site_type_symbol
_atom_site_label
_atom_site_fract_x
_atom_site_fract_y
_atom_site_fract_z
Si Si1 0.527719 0.362792 0.881545
Si Si2 0.583309 0.932401 0.115201
Si Si3 0.088778 0.047436 0.460540
Si Si4 0.675399 0.194698 0.918522
Si Si5 0.239895 0.597709 0.885529
Si Si6 0.839380 0.729667 0.337516
Si Si7 0.737175 0.789153 0.133627
O O1 0.470984 0.208379 0.924339
O O2 0.527495 0.439828 0.723274
O O3 0.616667 0.320281 0.871751
O O4 0.500000 0.500000 0.000000
O O5 0.649357 0.853072 0.187333
O O6 0.627133 0.028894 0.970606
O O7 0.110098 0.119729 0.294033
O O8 0.101600 0.167265 0.590207
O O9 0.146719 0.891420 0.457323
O O10 0.000000 0.000000 0.500000
O O11 0.745876 0.151392 0.782852
O O12 0.710561 0.279437 0.041666
O O13 0.263505 0.407081 0.894657
O O14 0.782040 0.837014 0.260155
O O15 0.782905 0.631263 0.475412
#
# Coordination Sequence:
#
# PCOD8126496 Si02
#       7
#     4   4   4   4   4   4   4
#     4  12  28  42  64  95 133 176 229 281 354 390
#     4  12  26  42  67  90 130 176 228 282 343 391
#     4  10  21  40  65  97 138 172 211 280 336 414
#     4  12  24  46  63  94 130 176 223 288 331 407
#     4  10  24  41  67  94 130 166 231 265 338 405
#     4   8  19  39  61  94 125 165 226 259 334 393
#     4  10  21  40  68  90 122 176 222 278 314 406
#
# _framework density 21.350366000000001
#
# number of rings (size 3 to 8) (size 9 to 14) (size 15 to 20)
#    0.000    1.714    1.429    3.857   10.000    1.143 
#    0.000    2.857    0.000    0.000    0.000    0.000 
#    0.000    0.000    0.000    0.000    0.000    0.000 
#
# Total GULP energy -346975.224050 kJ/mol
# GULP energy per Si atom -12391.972288 kJ/mol
# Density = 2.130177 g / cm^3
# Si number density = 21.350366 Si / 1000 Ang^3
#
#
#
# Elastic Constant Matrix: (Units=GPa)
#
#
# Indices 1 2 3 4 5 6 
#
# 1 129.2927 40.1606 39.4771 0.0000 -6.5092 0.0000
# 2 40.1606 77.3387 32.6150 0.0000 -3.0015 0.0000
# 3 39.4771 32.6150 123.5372 0.0000 3.3574 0.0000
# 4 0.0000 0.0000 0.0000 26.3095 0.0000 -2.9954
# 5 -6.5092 -3.0015 3.3574 0.0000 31.4913 0.0000
# 6 0.0000 0.0000 0.0000 -2.9954 0.0000 36.4282
#
#
#
# Elastic Compliance Matrix: (Units=1/GPa)
#
#
# Indices 1 2 3 4 5 6 
#
# 1 0.009738 -0.004109 -0.002077 0.000000 0.001843 0.000000
# 2 -0.004109 0.016387 -0.003041 0.000000 0.001037 0.000000
# 3 -0.002077 -0.003041 0.009609 0.000000 -0.001744 0.000000
# 4 0.000000 0.000000 0.000000 0.038368 0.000000 0.003155
# 5 0.001843 0.001037 -0.001744 0.000000 0.032420 0.000000
# 6 0.000000 0.000000 0.000000 0.003155 0.000000 0.027711
#
#
# Mechanical properties :
#
#
# Convention : Reuss Voigt Hill
#
# Bulk Modulus (GPa) = 57.87613 61.63043 59.75328
# Shear Modulus (GPa) = 31.55631 33.37354 32.46492
#
# Velocity S-wave (km/s) = 3.84868 3.95794 3.90369
# Velocity P-wave (km/s) = 6.84955 7.05804 6.95458
#
# Compressibility (1/GPa) = 0.01727828
#
# Stress axis : x y z
#
# Youngs Moduli (GPa) = 102.69360 61.02469 104.07181
#
# Poissons Ratio (x) = 0.25076 0.21615
# Poissons Ratio (y) = 0.42199 0.31652
# Poissons Ratio (z) = 0.21329 0.18560
#
# Static dielectric constant tensor:
#      x y z
#    x 4.012980 0.000000 -0.109170 
#    y 0.000000 3.781060 0.000000 
#    z -0.109170 0.000000 4.049650 
# 
# 
# High freq. dielectric constant tensor:
#      x y z
#    x 1.834540 0.000000 -0.000580 
#    y 0.000000 1.820650 0.000000 
#    z -0.000580 0.000000 1.854970 
# 
# From -- ./inp_files/17539.got.cif
#   From: 2010.03.12/outbox.cif.g09.slc.cpg/sg14_9_cif.got.tgz:17539.got - 2010.03.31 13:35:05.
