data_PCOD8126348
_publ_section_title
;
Structure prediction by ZEFSAII (Michael W. Deem and Ramdas Pophale) SiO2 
 PCOD8126348
Probable space group: P 21/C
;
_chemical_formula_sum "Si O2"
_cell_formula_units_Z 28
_cell_length_a 8.034040
_cell_length_b 9.431953
_cell_length_c 14.380450
_cell_angle_alpha 90.000000
_cell_angle_beta 81.266895
_cell_angle_gamma 90.000000
_cell_volume 1077.069207
_symmetry_space_group_name_H-M "P 21/C"
_symmetry_group_IT_number 14
_symmetry_cell_setting 'monoclinic'
loop_
_space_group_symop_operation_xyz
x,y,z
-x,1/2+y,1/2-z
-x,-y,-z
x,1/2-y,1/2+z
loop_
_atom_site_type_symbol
_atom_site_label
_atom_site_fract_x
_atom_site_fract_y
_atom_site_fract_z
Si Si1 0.832289 0.169199 0.529784
Si Si2 0.058920 0.621734 0.285090
Si Si3 0.407965 0.934891 0.812762
Si Si4 0.120703 0.646247 0.651105
Si Si5 0.863519 0.922737 0.390580
Si Si6 0.505667 0.274952 0.342335
Si Si7 0.539475 0.751473 0.441958
O O1 0.891274 0.291317 0.451977
O O2 0.635615 0.174377 0.575051
O O3 0.966423 0.176510 0.606618
O O4 0.844124 0.011923 0.486482
O O5 0.219865 0.633405 0.341514
O O6 0.999246 0.768698 0.237601
O O7 0.133157 0.532333 0.192803
O O8 0.916840 0.523214 0.345611
O O9 0.505701 0.868591 0.715985
O O10 0.518471 0.904047 0.896885
O O11 0.392364 0.104010 0.803220
O O12 0.305529 0.668337 0.674516
O O13 0.702658 0.824780 0.385264
O O14 0.435713 0.248124 0.450386
#
# Coordination Sequence:
#
# PCOD8126348 Si02
#       7
#     4   4   4   4   4   4   4
#     4   9  21  40  62  97 131 167 220 271 320 399
#     4  10  22  39  63  93 130 165 223 268 325 399
#     4  11  24  43  66  97 131 172 224 269 335 397
#     4   9  21  41  60  92 131 166 212 274 325 391
#     4  10  21  39  66  96 127 176 221 263 334 391
#     4  10  24  44  64  99 130 172 221 270 331 399
#     4  11  23  42  67  95 136 170 220 275 332 386
#
# _framework density 25.996473999999999
#
# number of rings (size 3 to 8) (size 9 to 14) (size 15 to 20)
#    0.000    2.000    0.000    2.571    6.000    3.429 
#    2.571    1.429    0.000    0.000    0.000    0.000 
#    0.000    0.000    0.000    0.000    0.000    0.000 
#
# Total GULP energy -347068.076322 kJ/mol
# GULP energy per Si atom -12395.288440 kJ/mol
# Density = 2.593731 g / cm^3
# Si number density = 25.996474 Si / 1000 Ang^3
#
#
#
# Elastic Constant Matrix: (Units=GPa)
#
#
# Indices 1 2 3 4 5 6 
#
# 1 90.1673 7.5172 13.0260 0.0000 11.5083 0.0000
# 2 7.5172 47.4865 -10.5039 0.0000 5.3755 0.0000
# 3 13.0260 -10.5039 73.1112 0.0000 11.0674 0.0000
# 4 0.0000 0.0000 0.0000 18.5350 0.0000 -2.8381
# 5 11.5083 5.3755 11.0674 0.0000 20.9804 0.0000
# 6 0.0000 0.0000 0.0000 -2.8381 0.0000 44.0447
#
#
#
# Elastic Compliance Matrix: (Units=1/GPa)
#
#
# Indices 1 2 3 4 5 6 
#
# 1 0.012147 -0.001662 -0.001586 0.000000 -0.005401 0.000000
# 2 -0.001662 0.023235 0.004779 0.000000 -0.007562 0.000000
# 3 -0.001586 0.004779 0.015976 0.000000 -0.008782 0.000000
# 4 0.000000 0.000000 0.000000 0.054490 0.000000 0.003511
# 5 -0.005401 -0.007562 -0.008782 0.000000 0.057196 0.000000
# 6 0.000000 0.000000 0.000000 0.003511 0.000000 0.022930
#
#
# Mechanical properties :
#
#
# Convention : Reuss Voigt Hill
#
# Bulk Modulus (GPa) = 18.37513 25.64928 22.01221
# Shear Modulus (GPa) = 24.86906 30.09375 27.48140
#
# Velocity S-wave (km/s) = 3.09630 3.40606 3.25487
# Velocity P-wave (km/s) = 4.45718 5.03549 4.75513
#
# Compressibility (1/GPa) = 0.05442137
#
# Stress axis : x y z
#
# Youngs Moduli (GPa) = 82.32167 43.03859 62.59247
#
# Poissons Ratio (x) = 0.07154 0.09924
# Poissons Ratio (y) = 0.13684 -0.29914
# Poissons Ratio (z) = 0.13052 -0.20569
#
# Static dielectric constant tensor:
#      x y z
#    x 4.568770 0.000000 0.061050 
#    y 0.000000 5.145230 0.000000 
#    z 0.061050 0.000000 4.748720 
# 
# 
# High freq. dielectric constant tensor:
#      x y z
#    x 2.029090 0.000000 0.008280 
#    y 0.000000 2.050000 0.000000 
#    z 0.008280 0.000000 2.053540 
# 
# From -- ./inp_files/39649.got.cif
#   From: 2010.03.12/outbox.cif.g09.slc.cpg/sg14_20_cif.got.tgz:39649.got - 2010.03.31 13:35:05.
