data_PCOD8126936
_publ_section_title
;
Structure prediction by ZEFSAII (Michael W. Deem and Ramdas Pophale) SiO2 
 PCOD8126936
Probable space group: P 21/C
;
_chemical_formula_sum "Si O2"
_cell_formula_units_Z 28
_cell_length_a 15.268091
_cell_length_b 9.489165
_cell_length_c 11.286307
_cell_angle_alpha 90.000000
_cell_angle_beta 126.118471
_cell_angle_gamma 90.000000
_cell_volume 1320.895288
_symmetry_space_group_name_H-M "P 21/C"
_symmetry_group_IT_number 14
_symmetry_cell_setting 'monoclinic'
loop_
_space_group_symop_operation_xyz
x,y,z
-x,1/2+y,1/2-z
-x,-y,-z
x,1/2-y,1/2+z
loop_
_atom_site_type_symbol
_atom_site_label
_atom_site_fract_x
_atom_site_fract_y
_atom_site_fract_z
Si Si1 0.691018 0.499079 0.655059
Si Si2 0.085175 0.895725 0.281523
Si Si3 0.233673 0.550643 0.690810
Si Si4 0.876369 0.420245 0.642615
Si Si5 0.596877 0.218439 0.529430
Si Si6 0.299485 0.980894 0.561337
Si Si7 0.356842 0.315095 0.909092
O O1 0.810601 0.449627 0.710978
O O2 0.602626 0.388448 0.533784
O O3 0.678462 0.503577 0.785104
O O4 0.670079 0.653356 0.587708
O O5 0.125150 0.911080 0.177883
O O6 0.071268 0.733588 0.308304
O O7 0.170630 0.972677 0.436111
O O8 0.968590 0.964331 0.202004
O O9 0.208638 0.566892 0.533097
O O10 0.328892 0.658588 0.804206
O O11 0.271895 0.390853 0.752082
O O12 0.644650 0.162292 0.442839
O O13 0.475204 0.166059 0.447657
O O14 0.352136 0.111707 0.533495
#
# Coordination Sequence:
#
# PCOD8126936 Si02
#       7
#     4   4   4   4   4   4   4
#     4  12  25  40  66 100 135 167 218 272 320 380
#     4  10  24  42  67  93 125 170 220 264 330 386
#     4  10  22  46  67  90 130 173 212 264 328 388
#     4  12  25  43  66  95 129 170 216 270 328 387
#     4  10  21  46  68  93 132 174 216 265 326 381
#     4  10  23  46  63  94 135 170 215 269 321 389
#     4  10  24  43  67  98 129 175 218 263 318 387
#
# _framework density 21.197742999999999
#
# number of rings (size 3 to 8) (size 9 to 14) (size 15 to 20)
#    0.000    1.714    2.857    3.429    6.000    1.714 
#    5.143    0.000    0.000    0.000    0.000    0.000 
#    0.000    0.000    0.000    0.000    0.000    0.000 
#
# Total GULP energy -347258.933357 kJ/mol
# GULP energy per Si atom -12402.104763 kJ/mol
# Density = 2.114950 g / cm^3
# Si number density = 21.197743 Si / 1000 Ang^3
#
#
#
# Elastic Constant Matrix: (Units=GPa)
#
#
# Indices 1 2 3 4 5 6 
#
# 1 104.3641 34.5962 52.6277 0.0000 0.3098 0.0000
# 2 34.5962 161.0657 37.9641 0.0000 -4.2441 0.0000
# 3 52.6277 37.9641 65.0743 0.0000 -13.8528 0.0000
# 4 0.0000 0.0000 0.0000 15.9315 0.0000 7.1101
# 5 0.3098 -4.2441 -13.8528 0.0000 31.0190 0.0000
# 6 0.0000 0.0000 0.0000 7.1101 0.0000 35.5141
#
#
#
# Elastic Compliance Matrix: (Units=1/GPa)
#
#
# Indices 1 2 3 4 5 6 
#
# 1 0.017531 -0.000294 -0.015529 0.000000 -0.007150 0.000000
# 2 -0.000294 0.007231 -0.004166 0.000000 -0.000868 0.000000
# 3 -0.015529 -0.004166 0.033447 0.000000 0.014522 0.000000
# 4 0.000000 0.000000 0.000000 0.068928 0.000000 -0.013800
# 5 -0.007150 -0.000868 0.014522 0.000000 0.038677 0.000000
# 6 0.000000 0.000000 0.000000 -0.013800 0.000000 0.030921
#
#
# Mechanical properties :
#
#
# Convention : Reuss Voigt Hill
#
# Bulk Modulus (GPa) = 54.84564 64.54223 59.69394
# Shear Modulus (GPa) = 20.59411 30.18064 25.38737
#
# Velocity S-wave (km/s) = 3.12031 3.77738 3.46446
# Velocity P-wave (km/s) = 6.23789 7.03836 6.65018
#
# Compressibility (1/GPa) = 0.01823299
#
# Stress axis : x y z
#
# Youngs Moduli (GPa) = 57.04138 138.29868 29.89778
#
# Poissons Ratio (x) = 0.04063 0.46427
# Poissons Ratio (y) = 0.01676 0.12454
# Poissons Ratio (z) = 0.88578 0.57609
#
# Static dielectric constant tensor:
#      x y z
#    x 3.828520 0.000000 -0.024570 
#    y 0.000000 4.064170 0.000000 
#    z -0.024570 0.000000 3.554470 
# 
# 
# High freq. dielectric constant tensor:
#      x y z
#    x 1.839490 0.000000 -0.002510 
#    y 0.000000 1.845820 0.000000 
#    z -0.002510 0.000000 1.807550 
# 
# From -- ./inp_files/31895.got.cif
#   From: 2010.03.12/outbox.cif.g09.slc.cpg/sg14_16_cif.got.tgz:31895.got - 2010.03.31 13:35:05.
