data_PCOD8126201
_publ_section_title
;
Structure prediction by ZEFSAII (Michael W. Deem and Ramdas Pophale) SiO2 
 PCOD8126201
Probable space group: P 21/C
;
_chemical_formula_sum "Si O2"
_cell_formula_units_Z 16
_cell_length_a 13.333133
_cell_length_b 4.853405
_cell_length_c 17.437167
_cell_angle_alpha 90.000000
_cell_angle_beta 38.029477
_cell_angle_gamma 90.000000
_cell_volume 695.156324
_symmetry_space_group_name_H-M "P 21/C"
_symmetry_group_IT_number 14
_symmetry_cell_setting 'monoclinic'
loop_
_space_group_symop_operation_xyz
x,y,z
-x,1/2+y,1/2-z
-x,-y,-z
x,1/2-y,1/2+z
loop_
_atom_site_type_symbol
_atom_site_label
_atom_site_fract_x
_atom_site_fract_y
_atom_site_fract_z
Si Si1 0.569970 0.754933 0.912057
Si Si2 0.913522 0.750684 0.146963
Si Si3 0.121981 0.263077 0.004387
Si Si4 0.551662 0.044832 0.174619
O O1 0.766550 0.759460 0.796189
O O2 0.510350 0.784918 0.860892
O O3 0.500000 0.500000 0.000000
O O4 0.500000 0.000000 0.000000
O O5 0.063806 0.547649 0.080591
O O6 0.844344 0.665815 0.104904
O O7 0.969621 0.063808 0.108291
O O8 0.280737 0.117382 0.944039
O O9 0.571976 0.297548 0.224136
#
# Coordination Sequence:
#
# PCOD8126201 Si02
#       4
#     4   4   4   4
#     4  12  26  44  66 100 144 184 221 281 360 422
#     4  10  21  40  64  99 133 173 223 278 348 393
#     4  10  21  38  68  98 130 167 232 292 321 395
#     4  12  24  42  69 103 135 179 244 289 334 407
#
# _framework density 23.016404999999999
#
# number of rings (size 3 to 8) (size 9 to 14) (size 15 to 20)
#    0.000    1.000    2.500    4.500    7.000    0.000 
#    0.000    5.000    0.000    0.000    0.000    0.000 
#    0.000    0.000    0.000    0.000    0.000    0.000 
#
# Total GULP energy -198279.404988 kJ/mol
# GULP energy per Si atom -12392.462812 kJ/mol
# Density = 2.296402 g / cm^3
# Si number density = 23.016405 Si / 1000 Ang^3
#
#
#
# Elastic Constant Matrix: (Units=GPa)
#
#
# Indices 1 2 3 4 5 6 
#
# 1 57.7043 23.2203 29.8734 0.0000 -6.3076 0.0000
# 2 23.2203 163.9007 66.2193 0.0000 8.6194 0.0000
# 3 29.8734 66.2193 173.2763 0.0000 -13.0100 0.0000
# 4 0.0000 0.0000 0.0000 50.6590 0.0000 1.8537
# 5 -6.3076 8.6194 -13.0100 0.0000 18.9873 0.0000
# 6 0.0000 0.0000 0.0000 1.8537 0.0000 37.4184
#
#
#
# Elastic Compliance Matrix: (Units=1/GPa)
#
#
# Indices 1 2 3 4 5 6 
#
# 1 0.020035 -0.002322 -0.002096 0.000000 0.006273 0.000000
# 2 -0.002322 0.008061 -0.003176 0.000000 -0.006607 0.000000
# 3 -0.002096 -0.003176 0.007804 0.000000 0.006093 0.000000
# 4 0.000000 0.000000 0.000000 0.019776 0.000000 -0.000980
# 5 0.006273 -0.006607 0.006093 0.000000 0.061925 0.000000
# 6 0.000000 0.000000 0.000000 -0.000980 0.000000 0.026773
#
#
# Mechanical properties :
#
#
# Convention : Reuss Voigt Hill
#
# Bulk Modulus (GPa) = 48.28138 70.38969 59.33554
# Shear Modulus (GPa) = 30.03640 39.78415 34.91028
#
# Velocity S-wave (km/s) = 3.61640 4.16205 3.89878
# Velocity P-wave (km/s) = 6.20163 7.33114 6.78992
#
# Compressibility (1/GPa) = 0.02071192
#
# Stress axis : x y z
#
# Youngs Moduli (GPa) = 49.91348 124.05501 128.14243
#
# Poissons Ratio (x) = 0.28800 0.26856
# Poissons Ratio (y) = 0.11588 0.40703
# Poissons Ratio (z) = 0.10461 0.39405
#
# Static dielectric constant tensor:
#      x y z
#    x 3.687880 0.000000 -0.161600 
#    y 0.000000 4.348170 0.000000 
#    z -0.161600 0.000000 4.278230 
# 
# 
# High freq. dielectric constant tensor:
#      x y z
#    x 1.860980 0.000000 -0.023940 
#    y 0.000000 1.938750 0.000000 
#    z -0.023940 0.000000 1.918280 
# 
# From -- ./inp_files/42398.got.cif
#   From: 2010.03.12/outbox.cif.g09.slc.cpg/sg14_22_cif.got.tgz:42398.got - 2010.03.31 13:35:05.
