data_PCOD8126158
_publ_section_title
;
Structure prediction by ZEFSAII (Michael W. Deem and Ramdas Pophale) SiO2 
 PCOD8126158
Probable space group: P 21/C
;
_chemical_formula_sum "Si O2"
_cell_formula_units_Z 28
_cell_length_a 10.852114
_cell_length_b 22.844344
_cell_length_c 11.165483
_cell_angle_alpha 90.000000
_cell_angle_beta 151.795151
_cell_angle_gamma 90.000000
_cell_volume 1308.240423
_symmetry_space_group_name_H-M "P 21/C"
_symmetry_group_IT_number 14
_symmetry_cell_setting 'monoclinic'
loop_
_space_group_symop_operation_xyz
x,y,z
-x,1/2+y,1/2-z
-x,-y,-z
x,1/2-y,1/2+z
loop_
_atom_site_type_symbol
_atom_site_label
_atom_site_fract_x
_atom_site_fract_y
_atom_site_fract_z
Si Si1 0.916908 0.201652 0.888652
Si Si2 0.876465 0.391599 0.148243
Si Si3 0.247840 0.689521 0.361498
Si Si4 0.537513 0.727146 0.817715
Si Si5 0.436750 0.351736 0.588497
Si Si6 0.888007 0.862524 0.727531
Si Si7 0.202486 0.493406 0.781362
O O1 0.836852 0.151423 0.726889
O O2 0.985461 0.265418 0.885523
O O3 0.683611 0.223853 0.771192
O O4 0.128429 0.172187 0.159118
O O5 0.860398 0.458673 0.173475
O O6 0.166772 0.386992 0.338877
O O7 0.639327 0.380593 0.854408
O O8 0.443345 0.732671 0.599780
O O9 0.401623 0.652384 0.395290
O O10 0.162468 0.644050 0.392857
O O11 0.676344 0.789616 0.960346
O O12 0.699603 0.668244 0.972104
O O13 0.824294 0.929830 0.684690
O O14 0.000000 0.500000 0.500000
O O15 0.500000 0.500000 0.000000
#
# Coordination Sequence:
#
# PCOD8126158 Si02
#       7
#     4   4   4   4   4   4   4
#     4  10  21  38  64 100 133 167 224 282 348 399
#     4  12  24  44  65 100 136 179 225 281 340 402
#     4  10  23  42  63  98 140 180 225 277 350 415
#     4  10  22  38  66  97 133 181 220 291 338 411
#     4  11  26  41  66  98 141 182 223 276 346 411
#     4  11  24  41  71  99 134 179 230 287 342 404
#     4  12  26  47  73 102 136 178 234 291 337 396
#
# _framework density 21.402795000000001
#
# number of rings (size 3 to 8) (size 9 to 14) (size 15 to 20)
#    0.000    1.143    2.857    2.571   10.000    1.143 
#    0.000    1.429    0.000    0.000    0.000    0.000 
#    0.000    0.000    0.000    0.000    0.000    0.000 
#
# Total GULP energy -346916.368004 kJ/mol
# GULP energy per Si atom -12389.870286 kJ/mol
# Density = 2.135408 g / cm^3
# Si number density = 21.402795 Si / 1000 Ang^3
#
#
#
# Elastic Constant Matrix: (Units=GPa)
#
#
# Indices 1 2 3 4 5 6 
#
# 1 68.4616 55.1335 31.3273 0.0000 -14.2276 0.0000
# 2 55.1335 168.5785 43.0478 0.0000 3.5143 0.0000
# 3 31.3273 43.0478 98.5794 0.0000 6.9979 0.0000
# 4 0.0000 0.0000 0.0000 33.2380 0.0000 -3.9993
# 5 -14.2276 3.5143 6.9979 0.0000 25.2469 0.0000
# 6 0.0000 0.0000 0.0000 -3.9993 0.0000 34.9835
#
#
#
# Elastic Compliance Matrix: (Units=1/GPa)
#
#
# Indices 1 2 3 4 5 6 
#
# 1 0.027833 -0.007760 -0.006780 0.000000 0.018645 0.000000
# 2 -0.007760 0.008840 -0.001017 0.000000 -0.005322 0.000000
# 3 -0.006780 -0.001017 0.013265 0.000000 -0.007356 0.000000
# 4 0.000000 0.000000 0.000000 0.030506 0.000000 0.003487
# 5 0.018645 -0.005322 -0.007356 0.000000 0.052895 0.000000
# 6 0.000000 0.000000 0.000000 0.003487 0.000000 0.028984
#
#
# Mechanical properties :
#
#
# Convention : Reuss Voigt Hill
#
# Bulk Modulus (GPa) = 53.12032 66.07074 59.59553
# Shear Modulus (GPa) = 25.03612 32.43442 28.73527
#
# Velocity S-wave (km/s) = 3.42388 3.89707 3.66812
# Velocity P-wave (km/s) = 6.36426 7.15449 6.77092
#
# Compressibility (1/GPa) = 0.01882519
#
# Stress axis : x y z
#
# Youngs Moduli (GPa) = 35.92819 113.11609 75.38774
#
# Poissons Ratio (x) = 0.87781 0.51112
# Poissons Ratio (y) = 0.27881 0.07664
# Poissons Ratio (z) = 0.24359 0.11499
#
# Static dielectric constant tensor:
#      x y z
#    x 4.157740 0.000000 -0.012030 
#    y 0.000000 3.937640 0.000000 
#    z -0.012030 0.000000 4.012960 
# 
# 
# High freq. dielectric constant tensor:
#      x y z
#    x 1.854450 0.000000 0.002080 
#    y 0.000000 1.826040 0.000000 
#    z 0.002080 0.000000 1.845870 
# 
# From -- ./inp_files/22010.got.cif
#   From: 2010.03.12/outbox.cif.g09.slc.cpg/sg14_12_cif.got.tgz:22010.got - 2010.03.31 13:35:05.
