data_PCOD8126382
_publ_section_title
;
Structure prediction by ZEFSAII (Michael W. Deem and Ramdas Pophale) SiO2 
 PCOD8126382
Probable space group: P 21/C
;
_chemical_formula_sum "Si O2"
_cell_formula_units_Z 32
_cell_length_a 8.401183
_cell_length_b 12.244328
_cell_length_c 28.515336
_cell_angle_alpha 90.000000
_cell_angle_beta 35.220262
_cell_angle_gamma 90.000000
_cell_volume 1691.686369
_symmetry_space_group_name_H-M "P 21/C"
_symmetry_group_IT_number 14
_symmetry_cell_setting 'monoclinic'
loop_
_space_group_symop_operation_xyz
x,y,z
-x,1/2+y,1/2-z
-x,-y,-z
x,1/2-y,1/2+z
loop_
_atom_site_type_symbol
_atom_site_label
_atom_site_fract_x
_atom_site_fract_y
_atom_site_fract_z
Si Si1 0.358638 0.278940 0.125272
Si Si2 0.255077 0.762955 0.226834
Si Si3 0.375965 0.119093 0.036430
Si Si4 0.265991 0.880510 0.807404
Si Si5 0.582942 0.726610 0.059095
Si Si6 0.264700 0.955754 0.298832
Si Si7 0.779012 0.300736 0.108212
Si Si8 0.310732 0.987366 0.589652
O O1 0.452754 0.184355 0.065744
O O2 0.583145 0.292662 0.111054
O O3 0.328694 0.397057 0.110209
O O4 0.056379 0.247299 0.218269
O O5 0.342007 0.657094 0.236313
O O6 0.469561 0.783787 0.133401
O O7 0.261569 0.861754 0.261359
O O8 0.054519 0.093944 0.111671
O O9 0.484016 0.196183 0.968663
O O10 0.500000 0.000000 0.000000
O O11 0.332827 0.790552 0.829948
O O12 0.444219 0.985432 0.776871
O O13 0.421353 0.611729 0.094623
O O14 0.909745 0.712140 0.985006
O O15 0.236161 0.913631 0.359257
O O16 0.005268 0.035439 0.350425
O O17 0.500000 0.000000 0.500000
#
# Coordination Sequence:
#
# PCOD8126382 Si02
#       8
#     4   4   4   4   4   4   4   4
#     4  10  22  40  59  88 119 152 196 241 295 349
#     4   9  22  40  57  86 121 151 194 241 293 352
#     4  10  22  42  61  82 119 160 195 237 293 357
#     4   9  21  41  59  81 121 155 190 243 292 346
#     4  11  22  40  61  87 118 155 197 242 293 347
#     4  10  21  40  59  85 121 156 194 243 296 344
#     4  10  22  38  60  87 118 153 194 244 291 346
#     4  11  20  39  63  85 119 155 191 246 299 343
#
# _framework density 18.916035999999998
#
# number of rings (size 3 to 8) (size 9 to 14) (size 15 to 20)
#    0.000    2.000    2.500    1.500    3.500    4.500 
#    6.750    2.500    0.000    0.000    0.000    0.000 
#    0.000    0.000    0.000    0.000    0.000    0.000 
#
# Total GULP energy -396631.581899 kJ/mol
# GULP energy per Si atom -12394.736934 kJ/mol
# Density = 1.887298 g / cm^3
# Si number density = 18.916036 Si / 1000 Ang^3
#
#
#
# Elastic Constant Matrix: (Units=GPa)
#
#
# Indices 1 2 3 4 5 6 
#
# 1 125.4484 39.2699 46.7441 0.0000 -4.4956 0.0000
# 2 39.2699 82.7125 32.1493 0.0000 -10.2094 0.0000
# 3 46.7441 32.1493 107.5486 0.0000 15.6473 0.0000
# 4 0.0000 0.0000 0.0000 29.2787 0.0000 -10.1472
# 5 -4.4956 -10.2094 15.6473 0.0000 21.9672 0.0000
# 6 0.0000 0.0000 0.0000 -10.1472 0.0000 17.2382
#
#
#
# Elastic Compliance Matrix: (Units=1/GPa)
#
#
# Indices 1 2 3 4 5 6 
#
# 1 0.010626 -0.002879 -0.004328 0.000000 0.003919 0.000000
# 2 -0.002879 0.016949 -0.005439 0.000000 0.011162 0.000000
# 3 -0.004328 -0.005439 0.014840 0.000000 -0.013984 0.000000
# 4 0.000000 0.000000 0.000000 0.042908 0.000000 0.025258
# 5 0.003919 0.011162 -0.013984 0.000000 0.061473 0.000000
# 6 0.000000 0.000000 0.000000 0.025258 0.000000 0.072878
#
#
# Mechanical properties :
#
#
# Convention : Reuss Voigt Hill
#
# Bulk Modulus (GPa) = 58.40393 61.33734 59.87064
# Shear Modulus (GPa) = 19.94630 26.86657 23.40643
#
# Velocity S-wave (km/s) = 3.25078 3.77278 3.52147
# Velocity P-wave (km/s) = 6.71062 7.17461 6.94649
#
# Compressibility (1/GPa) = 0.01712213
#
# Stress axis : x y z
#
# Youngs Moduli (GPa) = 94.11153 59.00109 67.38702
#
# Poissons Ratio (x) = 0.16985 0.29165
# Poissons Ratio (y) = 0.27093 0.36654
# Poissons Ratio (z) = 0.40731 0.32092
#
# Static dielectric constant tensor:
#      x y z
#    x 3.624360 0.000000 -0.021480 
#    y 0.000000 3.207310 0.000000 
#    z -0.021480 0.000000 3.562830 
# 
# 
# High freq. dielectric constant tensor:
#      x y z
#    x 1.737980 0.000000 -0.001450 
#    y 0.000000 1.731800 0.000000 
#    z -0.001450 0.000000 1.742340 
# 
# From -- ./inp_files/61980.got.cif
#   From: 2010.03.12/outbox.cif.g09.slc.cpg/sg14_31_cif.got.tgz:61980.got - 2010.03.31 13:35:05.
