data_PCOD8126011
_publ_section_title
;
Structure prediction by ZEFSAII (Michael W. Deem and Ramdas Pophale) SiO2 
 PCOD8126011
Probable space group: P 21/C
;
_chemical_formula_sum "Si O2"
_cell_formula_units_Z 32
_cell_length_a 18.014969
_cell_length_b 9.750912
_cell_length_c 20.521262
_cell_angle_alpha 90.000000
_cell_angle_beta 25.629250
_cell_angle_gamma 90.000000
_cell_volume 1559.248044
_symmetry_space_group_name_H-M "P 21/C"
_symmetry_group_IT_number 14
_symmetry_cell_setting 'monoclinic'
loop_
_space_group_symop_operation_xyz
x,y,z
-x,1/2+y,1/2-z
-x,-y,-z
x,1/2-y,1/2+z
loop_
_atom_site_type_symbol
_atom_site_label
_atom_site_fract_x
_atom_site_fract_y
_atom_site_fract_z
Si Si1 0.891118 0.821769 0.432841
Si Si2 0.341866 0.627227 0.008544
Si Si3 0.841867 0.127225 0.008544
Si Si4 0.216240 0.584583 0.594988
Si Si5 0.283758 0.584584 0.905012
Si Si6 0.393253 0.586014 0.189608
Si Si7 0.893251 0.413985 0.689611
Si Si8 0.391117 0.178231 0.932841
O O1 0.749998 0.750000 0.500003
O O2 0.037741 0.891918 0.272671
O O3 0.969565 0.710332 0.420466
O O4 0.802455 0.940309 0.547151
O O5 0.313215 0.572988 0.958787
O O6 0.515703 0.558897 0.899016
O O7 0.350192 0.792434 0.004503
O O8 0.183054 0.575775 0.177550
O O9 0.813212 0.072987 0.958792
O O10 0.850193 0.292433 0.004503
O O11 0.683059 0.075773 0.177548
O O12 0.015706 0.058896 0.899014
O O13 0.302451 0.440307 0.547154
O O14 0.462255 0.608081 0.727329
O O15 0.250005 0.619158 0.249994
O O16 0.530439 0.710330 0.079531
#
# Coordination Sequence:
#
# PCOD8126011 Si02
#       8
#     4   4   4   4   4   4   4   4
#     4  11  23  38  62  89 120 154 195 253 289 350
#     4  10  21  37  60  86 120 151 198 246 288 351
#     4  10  21  37  60  86 120 151 198 246 288 351
#     4  10  22  37  60  93 113 150 204 245 298 336
#     4  10  22  37  60  93 113 150 204 245 298 336
#     4  11  23  39  58  89 123 159 197 239 298 355
#     4  11  23  39  58  89 123 159 197 239 298 355
#     4  11  23  38  62  89 120 154 195 253 289 350
#
# _framework density 20.522713
#
# number of rings (size 3 to 8) (size 9 to 14) (size 15 to 20)
#    0.000    1.500    2.500    2.250    7.000    0.000 
#    0.000    6.250    0.000    0.000    0.000    0.000 
#    0.000    0.000    0.000    0.000    0.000    0.000 
#
# Total GULP energy -396794.442273 kJ/mol
# GULP energy per Si atom -12399.826321 kJ/mol
# Density = 2.047600 g / cm^3
# Si number density = 20.522713 Si / 1000 Ang^3
#
#
#
# Elastic Constant Matrix: (Units=GPa)
#
#
# Indices 1 2 3 4 5 6 
#
# 1 74.6466 49.9813 31.3157 0.0000 -32.1317 0.0000
# 2 49.9813 158.3297 69.9991 0.0000 -33.6496 0.0000
# 3 31.3157 69.9991 96.8592 0.0000 -14.8548 0.0000
# 4 0.0000 0.0000 0.0000 51.7154 0.0000 -12.3986
# 5 -32.1317 -33.6496 -14.8548 0.0000 34.7731 0.0000
# 6 0.0000 0.0000 0.0000 -12.3986 0.0000 26.8077
#
#
#
# Elastic Compliance Matrix: (Units=1/GPa)
#
#
# Indices 1 2 3 4 5 6 
#
# 1 0.024495 -0.002161 -0.003432 0.000000 0.019077 0.000000
# 2 -0.002161 0.011110 -0.006407 0.000000 0.006017 0.000000
# 3 -0.003432 -0.006407 0.015653 0.000000 -0.002685 0.000000
# 4 0.000000 0.000000 0.000000 0.021748 0.000000 0.010059
# 5 0.019077 0.006017 -0.002685 0.000000 0.051061 0.000000
# 6 0.000000 0.000000 0.000000 0.010059 0.000000 0.041955
#
#
# Mechanical properties :
#
#
# Convention : Reuss Voigt Hill
#
# Bulk Modulus (GPa) = 36.68856 70.26977 53.47917
# Shear Modulus (GPa) = 25.11212 34.56186 29.83699
#
# Velocity S-wave (km/s) = 3.50183 4.10820 3.81708
# Velocity P-wave (km/s) = 5.85374 7.53774 6.74847
#
# Compressibility (1/GPa) = 0.02725645
#
# Stress axis : x y z
#
# Youngs Moduli (GPa) = 40.82510 90.01271 63.88678
#
# Poissons Ratio (x) = 0.19449 0.21927
# Poissons Ratio (y) = 0.08821 0.40935
# Poissons Ratio (z) = 0.14012 0.57675
#
# Static dielectric constant tensor:
#      x y z
#    x 3.335940 0.000000 -0.046800 
#    y 0.000000 4.060450 0.000000 
#    z -0.046800 0.000000 3.888790 
# 
# 
# High freq. dielectric constant tensor:
#      x y z
#    x 1.761280 0.000000 -0.004490 
#    y 0.000000 1.818390 0.000000 
#    z -0.004490 0.000000 1.812820 
# 
# From -- ./inp_files/69129.got.cif
#   From: 2010.03.12/outbox.cif.g09.slc.cpg/sg14_35_cif.got.tgz:69129.got - 2010.03.31 13:35:05.
