data_PCOD8126943
_publ_section_title
;
Structure prediction by ZEFSAII (Michael W. Deem and Ramdas Pophale) SiO2 
 PCOD8126943
Probable space group: P 21/C
;
_chemical_formula_sum "Si O2"
_cell_formula_units_Z 20
_cell_length_a 11.816117
_cell_length_b 16.115530
_cell_length_c 8.434552
_cell_angle_alpha 90.000000
_cell_angle_beta 37.262550
_cell_angle_gamma 90.000000
_cell_volume 972.462418
_symmetry_space_group_name_H-M "P 21/C"
_symmetry_group_IT_number 14
_symmetry_cell_setting 'monoclinic'
loop_
_space_group_symop_operation_xyz
x,y,z
-x,1/2+y,1/2-z
-x,-y,-z
x,1/2-y,1/2+z
loop_
_atom_site_type_symbol
_atom_site_label
_atom_site_fract_x
_atom_site_fract_y
_atom_site_fract_z
Si Si1 0.542646 0.880723 0.408232
Si Si2 0.194679 0.646959 0.471310
Si Si3 0.574544 0.444063 0.274932
Si Si4 0.654489 0.283852 0.374336
Si Si5 0.859394 0.546780 0.769759
O O1 0.566247 0.932812 0.218112
O O2 0.520245 0.780645 0.405319
O O3 0.714303 0.897860 0.332757
O O4 0.347023 0.912582 0.709701
O O5 0.172175 0.730667 0.390304
O O6 0.290174 0.668764 0.530192
O O7 0.991892 0.608007 0.724445
O O8 0.500000 0.500000 0.500000
O O9 0.605263 0.351282 0.298122
O O10 0.765785 0.484913 0.999344
O O11 0.000000 0.500000 0.500000
#
# Coordination Sequence:
#
# PCOD8126943 Si02
#       5
#     4   4   4   4   4
#     4  10  22  47  68  93 141 188 224 272 354 409
#     4  10  22  45  71  95 138 180 234 279 344 415
#     4  12  25  43  70 106 136 180 232 287 343 404
#     4  10  21  47  68  94 140 185 226 287 334 420
#     4  12  25  43  73 104 135 183 225 292 355 403
#
# _framework density 20.566348000000001
#
# number of rings (size 3 to 8) (size 9 to 14) (size 15 to 20)
#    1.200    0.000    4.000    1.800    2.800    0.800 
#   10.800    0.000    0.000    0.000    0.000    0.000 
#    0.000    0.000    0.000    0.000    0.000    0.000 
#
# Total GULP energy -247772.573278 kJ/mol
# GULP energy per Si atom -12388.628664 kJ/mol
# Density = 2.051954 g / cm^3
# Si number density = 20.566348 Si / 1000 Ang^3
#
#
#
# Elastic Constant Matrix: (Units=GPa)
#
#
# Indices 1 2 3 4 5 6 
#
# 1 121.5048 44.0956 47.6780 0.0000 -3.0620 0.0000
# 2 44.0956 101.8758 40.5430 0.0000 -5.1226 0.0000
# 3 47.6780 40.5430 101.2971 0.0000 1.6764 0.0000
# 4 0.0000 0.0000 0.0000 43.4041 0.0000 2.1885
# 5 -3.0620 -5.1226 1.6764 0.0000 36.9173 0.0000
# 6 0.0000 0.0000 0.0000 2.1885 0.0000 37.9367
#
#
#
# Elastic Compliance Matrix: (Units=1/GPa)
#
#
# Indices 1 2 3 4 5 6 
#
# 1 0.010913 -0.003143 -0.003889 0.000000 0.000646 0.000000
# 2 -0.003143 0.012706 -0.003634 0.000000 0.001667 0.000000
# 3 -0.003889 -0.003634 0.013180 0.000000 -0.001425 0.000000
# 4 0.000000 0.000000 0.000000 0.023106 0.000000 -0.001333
# 5 0.000646 0.001667 -0.001425 0.000000 0.027437 0.000000
# 6 0.000000 0.000000 0.000000 -0.001333 0.000000 0.026437
#
#
# Mechanical properties :
#
#
# Convention : Reuss Voigt Hill
#
# Bulk Modulus (GPa) = 64.65144 65.47897 65.06520
# Shear Modulus (GPa) = 35.64589 36.47572 36.06080
#
# Velocity S-wave (km/s) = 4.16771 4.21594 4.19189
# Velocity P-wave (km/s) = 7.39348 7.45693 7.42527
#
# Compressibility (1/GPa) = 0.01546756
#
# Stress axis : x y z
#
# Youngs Moduli (GPa) = 91.63145 78.70070 75.87031
#
# Poissons Ratio (x) = 0.24739 0.29507
# Poissons Ratio (y) = 0.28804 0.27568
# Poissons Ratio (z) = 0.35637 0.28597
#
# Static dielectric constant tensor:
#      x y z
#    x 3.699860 0.000000 0.091020 
#    y 0.000000 3.772690 0.000000 
#    z 0.091020 0.000000 3.646490 
# 
# 
# High freq. dielectric constant tensor:
#      x y z
#    x 1.806580 0.000000 0.022410 
#    y 0.000000 1.820260 0.000000 
#    z 0.022410 0.000000 1.780890 
# 
# From -- ./inp_files/13651.got.cif
#   From: 2010.03.12/outbox.cif.g09.slc.cpg/sg14_7_cif.got.tgz:13651.got - 2010.03.31 13:35:05.
