data_PCOD8126359
_publ_section_title
;
Structure prediction by ZEFSAII (Michael W. Deem and Ramdas Pophale) SiO2 
 PCOD8126359
Probable space group: P 21/C
;
_chemical_formula_sum "Si O2"
_cell_formula_units_Z 24
_cell_length_a 10.107932
_cell_length_b 7.553944
_cell_length_c 13.437997
_cell_angle_alpha 90.000000
_cell_angle_beta 72.896619
_cell_angle_gamma 90.000000
_cell_volume 980.678332
_symmetry_space_group_name_H-M "P 21/C"
_symmetry_group_IT_number 14
_symmetry_cell_setting 'monoclinic'
loop_
_space_group_symop_operation_xyz
x,y,z
-x,1/2+y,1/2-z
-x,-y,-z
x,1/2-y,1/2+z
loop_
_atom_site_type_symbol
_atom_site_label
_atom_site_fract_x
_atom_site_fract_y
_atom_site_fract_z
Si Si1 0.974195 0.623957 0.393216
Si Si2 0.744330 0.377507 0.934973
Si Si3 0.308554 0.462806 0.846483
Si Si4 0.229462 0.936135 0.945827
Si Si5 0.960121 0.723814 0.180478
Si Si6 0.396516 0.663395 0.238577
O O1 0.105922 0.693666 0.427101
O O2 0.020485 0.422281 0.360184
O O3 0.835879 0.616750 0.493424
O O4 0.943009 0.738387 0.303796
O O5 0.657246 0.411774 0.854616
O O6 0.906923 0.396260 0.874190
O O7 0.703792 0.512315 0.031677
O O8 0.705077 0.178226 0.979251
O O9 0.173165 0.369461 0.834871
O O10 0.438131 0.333796 0.797816
O O11 0.334932 0.645519 0.781009
O O12 0.341655 0.975688 0.835346
#
# Coordination Sequence:
#
# PCOD8126359 Si02
#       6
#     4   4   4   4   4   4
#     4  10  21  39  67  96 128 162 215 261 325 370
#     4  10  21  42  68  91 125 168 219 268 318 371
#     4  11  25  40  65  94 131 169 216 262 323 382
#     4   9  20  39  64  88 128 168 202 264 315 372
#     4  11  22  40  67  99 125 166 214 268 318 380
#     4  11  23  44  64  91 134 172 209 262 323 383
#
# _framework density 24.472857000000001
#
# number of rings (size 3 to 8) (size 9 to 14) (size 15 to 20)
#    0.000    1.667    1.667    3.000    4.667    0.000 
#    3.000    7.500    3.667    0.000    0.000    0.000 
#    0.000    0.000    0.000    0.000    0.000    0.000 
#
# Total GULP energy -297494.649338 kJ/mol
# GULP energy per Si atom -12395.610389 kJ/mol
# Density = 2.441716 g / cm^3
# Si number density = 24.472857 Si / 1000 Ang^3
#
#
#
# Elastic Constant Matrix: (Units=GPa)
#
#
# Indices 1 2 3 4 5 6 
#
# 1 118.7535 8.9193 36.7305 0.0000 -11.9083 0.0000
# 2 8.9193 43.9956 3.9715 0.0000 -3.7978 0.0000
# 3 36.7305 3.9715 154.8866 0.0000 10.8528 0.0000
# 4 0.0000 0.0000 0.0000 20.6802 0.0000 -2.5908
# 5 -11.9083 -3.7978 10.8528 0.0000 27.1198 0.0000
# 6 0.0000 0.0000 0.0000 -2.5908 0.0000 24.3945
#
#
#
# Elastic Compliance Matrix: (Units=1/GPa)
#
#
# Indices 1 2 3 4 5 6 
#
# 1 0.009869 -0.001309 -0.002673 0.000000 0.005220 0.000000
# 2 -0.001309 0.023288 -0.000489 0.000000 0.002882 0.000000
# 3 -0.002673 -0.000489 0.007397 0.000000 -0.004202 0.000000
# 4 0.000000 0.000000 0.000000 0.049007 0.000000 0.005205
# 5 0.005220 0.002882 -0.004202 0.000000 0.041251 0.000000
# 6 0.000000 0.000000 0.000000 0.005205 0.000000 0.041546
#
#
# Mechanical properties :
#
#
# Convention : Reuss Voigt Hill
#
# Bulk Modulus (GPa) = 31.63191 46.31983 38.97587
# Shear Modulus (GPa) = 26.06391 32.30653 29.18522
#
# Velocity S-wave (km/s) = 3.26699 3.63725 3.45708
# Velocity P-wave (km/s) = 5.21386 6.05042 5.64765
#
# Compressibility (1/GPa) = 0.03161365
#
# Stress axis : x y z
#
# Youngs Moduli (GPa) = 101.32556 42.94091 135.18811
#
# Poissons Ratio (x) = 0.05621 0.36130
# Poissons Ratio (y) = 0.13263 0.06606
# Poissons Ratio (z) = 0.27080 0.02098
#
# Static dielectric constant tensor:
#      x y z
#    x 4.296880 0.000000 -0.215920 
#    y 0.000000 4.021130 0.000000 
#    z -0.215920 0.000000 5.007860 
# 
# 
# High freq. dielectric constant tensor:
#      x y z
#    x 1.959610 0.000000 -0.006320 
#    y 0.000000 1.945660 0.000000 
#    z -0.006320 0.000000 2.004270 
# 
# From -- ./inp_files/38917.got.cif
#   From: 2010.03.12/outbox.cif.g09.slc.cpg/sg14_20_cif.got.tgz:38917.got - 2010.03.31 13:35:05.
