data_PCOD8126095
_publ_section_title
;
Structure prediction by ZEFSAII (Michael W. Deem and Ramdas Pophale) SiO2 
 PCOD8126095
Probable space group: P 21/C
;
_chemical_formula_sum "Si O2"
_cell_formula_units_Z 24
_cell_length_a 7.895949
_cell_length_b 12.360412
_cell_length_c 11.898309
_cell_angle_alpha 90.000000
_cell_angle_beta 64.954929
_cell_angle_gamma 90.000000
_cell_volume 1052.055781
_symmetry_space_group_name_H-M "P 21/C"
_symmetry_group_IT_number 14
_symmetry_cell_setting 'monoclinic'
loop_
_space_group_symop_operation_xyz
x,y,z
-x,1/2+y,1/2-z
-x,-y,-z
x,1/2-y,1/2+z
loop_
_atom_site_type_symbol
_atom_site_label
_atom_site_fract_x
_atom_site_fract_y
_atom_site_fract_z
Si Si1 0.789942 0.176919 0.199762
Si Si2 0.913463 0.055674 0.372613
Si Si3 0.910635 0.665223 0.973379
Si Si4 0.287731 0.413821 0.649273
Si Si5 0.614390 0.736447 0.720159
Si Si6 0.332063 0.478343 0.393963
O O1 0.781458 0.123250 0.325824
O O2 0.606255 0.249821 0.239473
O O3 0.981689 0.244916 0.132468
O O4 0.792373 0.080850 0.106305
O O5 0.933892 0.124670 0.480906
O O6 0.112945 0.034952 0.260065
O O7 0.836186 0.935585 0.419960
O O8 0.727259 0.709461 0.086125
O O9 0.324416 0.289319 0.677971
O O10 0.248829 0.419778 0.527437
O O11 0.458161 0.487401 0.639398
O O12 0.662917 0.609101 0.708698
#
# Coordination Sequence:
#
# PCOD8126095 Si02
#       6
#     4   4   4   4   4   4
#     4  11  24  39  65  94 117 161 209 247 299 363
#     4  10  22  40  62  87 122 161 201 251 303 358
#     4  10  23  42  60  87 125 159 199 251 307 359
#     4   9  20  38  58  84 120 160 195 251 308 351
#     4  10  22  39  59  87 121 159 201 248 304 363
#     4  10  21  38  60  87 121 158 205 251 301 362
#
# _framework density 22.812479
#
# number of rings (size 3 to 8) (size 9 to 14) (size 15 to 20)
#    0.000    2.000    0.000    2.000    0.000   14.000 
#    0.000    0.000    0.000    0.000    0.000    0.000 
#    0.000    0.000    0.000    0.000    0.000    0.000 
#
# Total GULP energy -297600.425829 kJ/mol
# GULP energy per Si atom -12400.017743 kJ/mol
# Density = 2.276056 g / cm^3
# Si number density = 22.812479 Si / 1000 Ang^3
#
#
#
# Elastic Constant Matrix: (Units=GPa)
#
#
# Indices 1 2 3 4 5 6 
#
# 1 40.3247 -5.2155 3.2313 0.0000 -6.5184 0.0000
# 2 -5.2155 112.1344 34.1045 0.0000 3.1416 0.0000
# 3 3.2313 34.1045 68.6501 0.0000 4.2696 0.0000
# 4 0.0000 0.0000 0.0000 34.3524 0.0000 0.8301
# 5 -6.5184 3.1416 4.2696 0.0000 36.0721 0.0000
# 6 0.0000 0.0000 0.0000 0.8301 0.0000 18.4149
#
#
#
# Elastic Compliance Matrix: (Units=1/GPa)
#
#
# Indices 1 2 3 4 5 6 
#
# 1 0.026008 0.001812 -0.002425 0.000000 0.004829 0.000000
# 2 0.001812 0.010635 -0.005371 0.000000 0.000037 0.000000
# 3 -0.002425 -0.005371 0.017476 0.000000 -0.002039 0.000000
# 4 0.000000 0.000000 0.000000 0.029142 0.000000 -0.001314
# 5 0.004829 0.000037 -0.002039 0.000000 0.028833 0.000000
# 6 0.000000 0.000000 0.000000 -0.001314 0.000000 0.054363
#
#
# Mechanical properties :
#
#
# Convention : Reuss Voigt Hill
#
# Bulk Modulus (GPa) = 23.72414 31.70553 27.71484
# Shear Modulus (GPa) = 25.97764 30.36714 28.17239
#
# Velocity S-wave (km/s) = 3.37819 3.65247 3.51801
# Velocity P-wave (km/s) = 5.06344 5.63169 5.35511
#
# Compressibility (1/GPa) = 0.04215115
#
# Stress axis : x y z
#
# Youngs Moduli (GPa) = 38.44985 94.03328 57.22263
#
# Poissons Ratio (x) = -0.17037 0.13874
# Poissons Ratio (y) = -0.06966 0.30732
# Poissons Ratio (z) = 0.09322 0.50502
#
# Static dielectric constant tensor:
#      x y z
#    x 3.876400 0.000000 0.120050 
#    y 0.000000 4.160740 0.000000 
#    z 0.120050 0.000000 4.223790 
# 
# 
# High freq. dielectric constant tensor:
#      x y z
#    x 1.891710 0.000000 0.000380 
#    y 0.000000 1.908660 0.000000 
#    z 0.000380 0.000000 1.896320 
# 
# From -- ./inp_files/24116.got.cif
#   From: 2010.03.12/outbox.cif.g09.slc.cpg/sg14_13_cif.got.tgz:24116.got - 2010.03.31 13:35:05.
