data_PCOD8126593
_publ_section_title
;
Structure prediction by ZEFSAII (Michael W. Deem and Ramdas Pophale) SiO2 
 PCOD8126593
Probable space group: P 21/C
;
_chemical_formula_sum "Si O2"
_cell_formula_units_Z 32
_cell_length_a 26.469732
_cell_length_b 8.446109
_cell_length_c 13.703866
_cell_angle_alpha 90.000000
_cell_angle_beta 29.603026
_cell_angle_gamma 90.000000
_cell_volume 1513.441161
_symmetry_space_group_name_H-M "P 21/C"
_symmetry_group_IT_number 14
_symmetry_cell_setting 'monoclinic'
loop_
_space_group_symop_operation_xyz
x,y,z
-x,1/2+y,1/2-z
-x,-y,-z
x,1/2-y,1/2+z
loop_
_atom_site_type_symbol
_atom_site_label
_atom_site_fract_x
_atom_site_fract_y
_atom_site_fract_z
Si Si1 0.355177 0.346040 0.199198
Si Si2 0.626796 0.541306 0.613312
Si Si3 0.005579 0.815540 0.099628
Si Si4 0.131469 0.113926 0.843915
Si Si5 0.799656 0.117734 0.710733
Si Si6 0.499111 0.265784 0.313486
Si Si7 0.839035 0.828932 0.528218
Si Si8 0.317537 0.929636 0.579438
O O1 0.380497 0.428106 0.258985
O O2 0.250176 0.249110 0.386958
O O3 0.348612 0.476499 0.124384
O O4 0.447364 0.229126 0.008682
O O5 0.741658 0.486090 0.391457
O O6 0.592209 0.699098 0.611968
O O7 0.546495 0.407002 0.716032
O O8 0.914962 0.805974 0.173385
O O9 0.949665 0.794845 0.296530
O O10 0.089326 0.679058 0.938168
O O11 0.052777 0.990222 0.022951
O O12 0.156572 0.255842 0.872734
O O13 0.237350 0.021827 0.644819
O O14 0.731160 0.267922 0.796959
O O15 0.815735 0.014962 0.585104
O O16 0.587641 0.396146 0.151865
#
# Coordination Sequence:
#
# PCOD8126593 Si02
#       8
#     4   4   4   4   4   4   4   4
#     4  11  23  41  65  93 127 172 210 254 326 380
#     4  11  24  43  65  95 127 169 213 261 319 383
#     4  10  21  41  63  90 121 170 204 258 321 377
#     4   9  21  41  60  87 128 163 208 254 322 372
#     4  10  22  42  61  95 129 158 217 265 307 374
#     4  11  21  41  67  89 129 167 207 270 315 369
#     4  11  22  38  63  91 126 163 209 267 308 371
#     4   9  21  41  62  90 129 168 203 264 313 369
#
# _framework density 21.143868999999999
#
# number of rings (size 3 to 8) (size 9 to 14) (size 15 to 20)
#    0.000    1.750    2.500    1.125    1.750    0.500 
#   15.750    0.625    0.000    0.000    0.000    0.000 
#    0.000    0.000    0.000    0.000    0.000    0.000 
#
# Total GULP energy -396630.855434 kJ/mol
# GULP energy per Si atom -12394.714232 kJ/mol
# Density = 2.109575 g / cm^3
# Si number density = 21.143869 Si / 1000 Ang^3
#
#
#
# Elastic Constant Matrix: (Units=GPa)
#
#
# Indices 1 2 3 4 5 6 
#
# 1 91.3214 52.6597 49.8463 0.0000 -6.0315 0.0000
# 2 52.6597 83.6578 52.0789 0.0000 -6.4862 0.0000
# 3 49.8463 52.0789 163.6379 0.0000 0.2573 0.0000
# 4 0.0000 0.0000 0.0000 34.8094 0.0000 -3.5419
# 5 -6.0315 -6.4862 0.2573 0.0000 26.8578 0.0000
# 6 0.0000 0.0000 0.0000 -3.5419 0.0000 23.7931
#
#
#
# Elastic Compliance Matrix: (Units=1/GPa)
#
#
# Indices 1 2 3 4 5 6 
#
# 1 0.017949 -0.009677 -0.002390 0.000000 0.001717 0.000000
# 2 -0.009677 0.020490 -0.003578 0.000000 0.002809 0.000000
# 3 -0.002390 -0.003578 0.007980 0.000000 -0.001477 0.000000
# 4 0.000000 0.000000 0.000000 0.029170 0.000000 0.004342
# 5 0.001717 0.002809 -0.001477 0.000000 0.038311 0.000000
# 6 0.000000 0.000000 0.000000 0.004342 0.000000 0.042675
#
#
# Mechanical properties :
#
#
# Convention : Reuss Voigt Hill
#
# Bulk Modulus (GPa) = 66.10001 71.97633 69.03817
# Shear Modulus (GPa) = 25.91919 29.36089 27.64004
#
# Velocity S-wave (km/s) = 3.50501 3.73047 3.61950
# Velocity P-wave (km/s) = 6.90724 7.25743 7.08450
#
# Compressibility (1/GPa) = 0.01512859
#
# Stress axis : x y z
#
# Youngs Moduli (GPa) = 55.71494 48.80497 125.31108
#
# Poissons Ratio (x) = 0.47228 0.29954
# Poissons Ratio (y) = 0.53914 0.44833
# Poissons Ratio (z) = 0.13318 0.17461
#
# Static dielectric constant tensor:
#      x y z
#    x 3.483100 0.000000 -0.216670 
#    y 0.000000 3.947310 0.000000 
#    z -0.216670 0.000000 4.179320 
# 
# 
# High freq. dielectric constant tensor:
#      x y z
#    x 1.795030 0.000000 -0.015840 
#    y 0.000000 1.835710 0.000000 
#    z -0.015840 0.000000 1.853100 
# 
# From -- ./inp_files/51911.got.cif
#   From: 2010.03.12/outbox.cif.g09.slc.cpg/sg14_26_cif.got.tgz:51911.got - 2010.03.31 13:35:05.
