data_PCOD8126240
_publ_section_title
;
Structure prediction by ZEFSAII (Michael W. Deem and Ramdas Pophale) SiO2 
 PCOD8126240
Probable space group: P 21/C
;
_chemical_formula_sum "Si O2"
_cell_formula_units_Z 24
_cell_length_a 9.229117
_cell_length_b 8.022792
_cell_length_c 29.173451
_cell_angle_alpha 90.000000
_cell_angle_beta 151.472138
_cell_angle_gamma 90.000000
_cell_volume 1031.632774
_symmetry_space_group_name_H-M "P 21/C"
_symmetry_group_IT_number 14
_symmetry_cell_setting 'monoclinic'
loop_
_space_group_symop_operation_xyz
x,y,z
-x,1/2+y,1/2-z
-x,-y,-z
x,1/2-y,1/2+z
loop_
_atom_site_type_symbol
_atom_site_label
_atom_site_fract_x
_atom_site_fract_y
_atom_site_fract_z
Si Si1 0.719906 0.728467 0.118614
Si Si2 0.669330 0.660198 0.773477
Si Si3 0.940525 0.335912 0.549996
Si Si4 0.264108 0.181887 0.048372
Si Si5 0.837719 0.518892 0.725803
Si Si6 0.046409 0.682425 0.116224
O O1 0.859365 0.883894 0.184655
O O2 0.831788 0.553542 0.171095
O O3 0.844121 0.744411 0.102109
O O4 0.358398 0.730977 0.020265
O O5 0.726276 0.645569 0.734682
O O6 0.794982 0.494862 0.832852
O O7 0.310142 0.681408 0.680191
O O8 0.839891 0.817378 0.844711
O O9 0.870953 0.525196 0.517602
O O10 0.098470 0.261768 0.548699
O O11 0.611608 0.140740 0.157728
O O12 0.192616 0.330625 0.992702
#
# Coordination Sequence:
#
# PCOD8126240 Si02
#       6
#     4   4   4   4   4   4
#     4  10  23  38  59  92 119 154 201 251 300 351
#     4  11  23  40  62  88 122 163 201 246 299 364
#     4  10  21  39  61  85 119 157 198 245 301 353
#     4  10  21  41  62  85 121 163 199 242 301 362
#     4  10  23  41  61  85 123 160 197 249 302 357
#     4  11  23  38  61  90 120 158 206 249 297 358
#
# _framework density 23.264092000000002
#
# number of rings (size 3 to 8) (size 9 to 14) (size 15 to 20)
#    0.000    1.667    0.000    6.000    0.000   12.667 
#    0.000    0.000    0.000    0.000    0.000    0.000 
#    0.000    0.000    0.000    0.000    0.000    0.000 
#
# Total GULP energy -297485.507742 kJ/mol
# GULP energy per Si atom -12395.229489 kJ/mol
# Density = 2.321114 g / cm^3
# Si number density = 23.264092 Si / 1000 Ang^3
#
#
#
# Elastic Constant Matrix: (Units=GPa)
#
#
# Indices 1 2 3 4 5 6 
#
# 1 64.3393 4.6590 26.8834 0.0000 16.8735 0.0000
# 2 4.6590 27.0767 1.0709 0.0000 8.0359 0.0000
# 3 26.8834 1.0709 100.7610 0.0000 -0.1479 0.0000
# 4 0.0000 0.0000 0.0000 40.4792 0.0000 -14.6410
# 5 16.8735 8.0359 -0.1479 0.0000 32.7912 0.0000
# 6 0.0000 0.0000 0.0000 -14.6410 0.0000 21.4134
#
#
#
# Elastic Compliance Matrix: (Units=1/GPa)
#
#
# Indices 1 2 3 4 5 6 
#
# 1 0.020644 -0.000187 -0.005521 0.000000 -0.010602 0.000000
# 2 -0.000187 0.039850 -0.000388 0.000000 -0.009671 0.000000
# 3 -0.005521 -0.000388 0.011406 0.000000 0.002988 0.000000
# 4 0.000000 0.000000 0.000000 0.032821 0.000000 0.022441
# 5 -0.010602 -0.009671 0.002988 0.000000 0.038335 0.000000
# 6 0.000000 0.000000 0.000000 0.022441 0.000000 0.062043
#
#
# Mechanical properties :
#
#
# Convention : Reuss Voigt Hill
#
# Bulk Modulus (GPa) = 16.74854 28.60040 22.67447
# Shear Modulus (GPa) = 21.07987 29.57434 25.32711
#
# Velocity S-wave (km/s) = 3.01344 3.56932 3.30309
# Velocity P-wave (km/s) = 4.39575 5.41361 4.93102
#
# Compressibility (1/GPa) = 0.05970671
#
# Stress axis : x y z
#
# Youngs Moduli (GPa) = 48.44125 25.09418 87.67247
#
# Poissons Ratio (x) = 0.00470 0.48407
# Poissons Ratio (y) = 0.00907 0.03400
# Poissons Ratio (z) = 0.26746 0.00973
#
# Static dielectric constant tensor:
#      x y z
#    x 4.141350 0.000000 -0.108370 
#    y 0.000000 3.906690 0.000000 
#    z -0.108370 0.000000 4.438380 
# 
# 
# High freq. dielectric constant tensor:
#      x y z
#    x 1.919470 0.000000 -0.007420 
#    y 0.000000 1.899340 0.000000 
#    z -0.007420 0.000000 1.939140 
# 
# From -- ./inp_files/79433.got.cif
#   From: 2010.03.12/outbox.cif.g09.slc.cpg/sg14_40_cif.got.tgz:79433.got - 2010.03.31 13:35:05.
