data_PCOD8126165
_publ_section_title
;
Structure prediction by ZEFSAII (Michael W. Deem and Ramdas Pophale) SiO2 
 PCOD8126165
Probable space group: P 21/C
;
_chemical_formula_sum "Si O2"
_cell_formula_units_Z 24
_cell_length_a 5.481125
_cell_length_b 8.954260
_cell_length_c 22.338888
_cell_angle_alpha 90.000000
_cell_angle_beta 77.466029
_cell_angle_gamma 90.000000
_cell_volume 1070.250170
_symmetry_space_group_name_H-M "P 21/C"
_symmetry_group_IT_number 14
_symmetry_cell_setting 'monoclinic'
loop_
_space_group_symop_operation_xyz
x,y,z
-x,1/2+y,1/2-z
-x,-y,-z
x,1/2-y,1/2+z
loop_
_atom_site_type_symbol
_atom_site_label
_atom_site_fract_x
_atom_site_fract_y
_atom_site_fract_z
Si Si1 0.408038 0.875730 0.084663
Si Si2 0.188056 0.773633 0.390857
Si Si3 0.937607 0.256732 0.303800
Si Si4 0.351196 0.196991 0.045829
Si Si5 0.234922 0.529978 0.781921
Si Si6 0.317197 0.496503 0.316043
O O1 0.196837 0.769013 0.124387
O O2 0.584793 0.928403 0.127694
O O3 0.286170 0.022710 0.060571
O O4 0.559731 0.781262 0.027255
O O5 0.419317 0.751993 0.424220
O O6 0.252440 0.924667 0.350691
O O7 0.156854 0.639703 0.344470
O O8 0.909583 0.788962 0.434414
O O9 0.776971 0.319749 0.257362
O O10 0.172882 0.365721 0.290759
O O11 0.004864 0.085270 0.286626
O O12 0.478026 0.445489 0.743133
#
# Coordination Sequence:
#
# PCOD8126165 Si02
#       6
#     4   4   4   4   4   4
#     4   9  21  38  63  97 118 174 210 270 308 381
#     4  11  23  41  64  97 126 170 208 268 318 374
#     4  11  22  41  63  90 129 164 220 262 328 380
#     4  10  22  40  68  92 133 163 221 259 313 378
#     4  11  25  38  62  94 128 173 208 273 321 390
#     4  10  21  38  64  90 127 164 223 260 321 378
#
# _framework density 22.424664
#
# number of rings (size 3 to 8) (size 9 to 14) (size 15 to 20)
#    0.000    1.667    1.667    2.000    9.333    3.333 
#    0.000    1.667    0.000    0.000    0.000    0.000 
#    0.000    0.000    0.000    0.000    0.000    0.000 
#
# Total GULP energy -297426.495210 kJ/mol
# GULP energy per Si atom -12392.770634 kJ/mol
# Density = 2.237362 g / cm^3
# Si number density = 22.424664 Si / 1000 Ang^3
#
#
#
# Elastic Constant Matrix: (Units=GPa)
#
#
# Indices 1 2 3 4 5 6 
#
# 1 88.4811 7.7985 38.8595 0.0000 -30.0983 0.0000
# 2 7.7985 53.7735 31.9916 0.0000 -9.4069 0.0000
# 3 38.8595 31.9916 146.8389 0.0000 -34.2922 0.0000
# 4 0.0000 0.0000 0.0000 17.9821 0.0000 2.3169
# 5 -30.0983 -9.4069 -34.2922 0.0000 26.5939 0.0000
# 6 0.0000 0.0000 0.0000 2.3169 0.0000 24.0343
#
#
#
# Elastic Compliance Matrix: (Units=1/GPa)
#
#
# Indices 1 2 3 4 5 6 
#
# 1 0.018436 0.001130 -0.000228 0.000000 0.020972 0.000000
# 2 0.001130 0.021528 -0.004167 0.000000 0.003521 0.000000
# 3 -0.000228 -0.004167 0.010551 0.000000 0.011874 0.000000
# 4 0.000000 0.000000 0.000000 0.056310 0.000000 -0.005428
# 5 0.020972 0.003521 0.011874 0.000000 0.077895 0.000000
# 6 0.000000 0.000000 0.000000 -0.005428 0.000000 0.042130
#
#
# Mechanical properties :
#
#
# Convention : Reuss Voigt Hill
#
# Bulk Modulus (GPa) = 22.73418 49.59919 36.16669
# Shear Modulus (GPa) = 20.15795 27.75168 23.95482
#
# Velocity S-wave (km/s) = 3.00145 3.52170 3.27193
# Velocity P-wave (km/s) = 4.70868 6.22115 5.51699
#
# Compressibility (1/GPa) = 0.04398663
#
# Stress axis : x y z
#
# Youngs Moduli (GPa) = 54.24145 46.45192 94.77499
#
# Poissons Ratio (x) = -0.05251 0.02156
# Poissons Ratio (y) = -0.06131 0.39494
# Poissons Ratio (z) = 0.01234 0.19357
#
# Static dielectric constant tensor:
#      x y z
#    x 3.909750 0.000000 -0.077930 
#    y 0.000000 3.736820 0.000000 
#    z -0.077930 0.000000 4.282730 
# 
# 
# High freq. dielectric constant tensor:
#      x y z
#    x 1.878140 0.000000 -0.009180 
#    y 0.000000 1.853800 0.000000 
#    z -0.009180 0.000000 1.895630 
# 
# From -- ./inp_files/70979.got.cif
#   From: 2010.03.12/outbox.cif.g09.slc.cpg/sg14_36_cif.got.tgz:70979.got - 2010.03.31 13:35:05.
