data_PCOD8126606
_publ_section_title
;
Structure prediction by ZEFSAII (Michael W. Deem and Ramdas Pophale) SiO2 
 PCOD8126606
Probable space group: P 21/C
;
_chemical_formula_sum "Si O2"
_cell_formula_units_Z 28
_cell_length_a 19.042455
_cell_length_b 9.059316
_cell_length_c 15.194405
_cell_angle_alpha 90.000000
_cell_angle_beta 28.192284
_cell_angle_gamma 90.000000
_cell_volume 1238.344333
_symmetry_space_group_name_H-M "P 21/C"
_symmetry_group_IT_number 14
_symmetry_cell_setting 'monoclinic'
loop_
_space_group_symop_operation_xyz
x,y,z
-x,1/2+y,1/2-z
-x,-y,-z
x,1/2-y,1/2+z
loop_
_atom_site_type_symbol
_atom_site_label
_atom_site_fract_x
_atom_site_fract_y
_atom_site_fract_z
Si Si1 0.713122 0.520464 0.695825
Si Si2 0.205746 0.588628 0.009947
Si Si3 0.355541 0.808903 0.175486
Si Si4 0.526973 0.497965 0.173504
Si Si5 0.061548 0.897163 0.185162
Si Si6 0.726066 0.027133 0.904619
Si Si7 0.657256 0.763244 0.405136
O O1 0.673297 0.364497 0.782072
O O2 0.571698 0.580752 0.794210
O O3 0.858141 0.500695 0.476007
O O4 0.746801 0.632999 0.738158
O O5 0.089994 0.724249 0.139451
O O6 0.113515 0.436552 0.125074
O O7 0.279511 0.588604 0.833042
O O8 0.334728 0.599934 0.942749
O O9 0.296654 0.854211 0.146221
O O10 0.531947 0.829832 0.991080
O O11 0.417536 0.538590 0.373900
O O12 0.588844 0.649124 0.063536
O O13 0.122782 0.933080 0.213584
O O14 0.761730 0.862857 0.829430
#
# Coordination Sequence:
#
# PCOD8126606 Si02
#       7
#     4   4   4   4   4   4   4
#     4   9  22  43  67  94 128 165 212 261 320 385
#     4  11  24  45  64  90 130 174 213 264 314 374
#     4  10  21  41  63  98 131 158 205 272 321 364
#     4  10  22  39  67  93 127 167 209 262 320 374
#     4  10  26  44  65  91 127 175 218 255 314 381
#     4  11  24  39  66 101 126 162 217 263 318 376
#     4  11  22  37  67 101 125 159 209 264 319 382
#
# _framework density 22.610835999999999
#
# number of rings (size 3 to 8) (size 9 to 14) (size 15 to 20)
#    0.000    1.714    1.429    3.000    6.000    2.857 
#    0.000    0.714    0.000    0.000    0.000    0.000 
#    0.000    0.000    0.000    0.000    0.000    0.000 
#
# Total GULP energy -347147.388969 kJ/mol
# GULP energy per Si atom -12398.121035 kJ/mol
# Density = 2.255937 g / cm^3
# Si number density = 22.610836 Si / 1000 Ang^3
#
#
#
# Elastic Constant Matrix: (Units=GPa)
#
#
# Indices 1 2 3 4 5 6 
#
# 1 93.5700 29.6861 37.0160 0.0000 22.4532 0.0000
# 2 29.6861 47.2650 22.6151 0.0000 12.4992 0.0000
# 3 37.0160 22.6151 61.1521 0.0000 10.1476 0.0000
# 4 0.0000 0.0000 0.0000 33.0443 0.0000 -0.5886
# 5 22.4532 12.4992 10.1476 0.0000 37.0842 0.0000
# 6 0.0000 0.0000 0.0000 -0.5886 0.0000 38.7726
#
#
#
# Elastic Compliance Matrix: (Units=1/GPa)
#
#
# Indices 1 2 3 4 5 6 
#
# 1 0.016736 -0.005451 -0.007059 0.000000 -0.006364 0.000000
# 2 -0.005451 0.028993 -0.006651 0.000000 -0.004652 0.000000
# 3 -0.007059 -0.006651 0.023050 0.000000 0.000208 0.000000
# 4 0.000000 0.000000 0.000000 0.030271 0.000000 0.000460
# 5 -0.006364 -0.004652 0.000208 0.000000 0.032330 0.000000
# 6 0.000000 0.000000 0.000000 0.000460 0.000000 0.025798
#
#
# Mechanical properties :
#
#
# Convention : Reuss Voigt Hill
#
# Bulk Modulus (GPa) = 32.83092 42.29128 37.56110
# Shear Modulus (GPa) = 24.31283 29.29155 26.80219
#
# Velocity S-wave (km/s) = 3.28269 3.60316 3.44665
# Velocity P-wave (km/s) = 5.37770 6.00458 5.69976
#
# Compressibility (1/GPa) = 0.03045909
#
# Stress axis : x y z
#
# Youngs Moduli (GPa) = 59.75080 34.49054 43.38346
#
# Poissons Ratio (x) = 0.18802 0.30622
# Poissons Ratio (y) = 0.32572 0.28853
# Poissons Ratio (z) = 0.42175 0.22938
#
# Static dielectric constant tensor:
#      x y z
#    x 4.220640 0.000000 0.189530 
#    y 0.000000 3.894690 0.000000 
#    z 0.189530 0.000000 3.924260 
# 
# 
# High freq. dielectric constant tensor:
#      x y z
#    x 1.891190 0.000000 0.019100 
#    y 0.000000 1.887380 0.000000 
#    z 0.019100 0.000000 1.877910 
# 
# From -- ./inp_files/50036.got.cif
#   From: 2010.03.12/outbox.cif.g09.slc.cpg/sg14_26_cif.got.tgz:50036.got - 2010.03.31 13:35:05.
