data_PCOD8126573
_publ_section_title
;
Structure prediction by ZEFSAII (Michael W. Deem and Ramdas Pophale) SiO2 
 PCOD8126573
Probable space group: P 21/C
;
_chemical_formula_sum "Si O2"
_cell_formula_units_Z 32
_cell_length_a 8.767797
_cell_length_b 24.555478
_cell_length_c 14.198736
_cell_angle_alpha 90.000000
_cell_angle_beta 147.144359
_cell_angle_gamma 90.000000
_cell_volume 1658.470359
_symmetry_space_group_name_H-M "P 21/C"
_symmetry_group_IT_number 14
_symmetry_cell_setting 'monoclinic'
loop_
_space_group_symop_operation_xyz
x,y,z
-x,1/2+y,1/2-z
-x,-y,-z
x,1/2-y,1/2+z
loop_
_atom_site_type_symbol
_atom_site_label
_atom_site_fract_x
_atom_site_fract_y
_atom_site_fract_z
Si Si1 0.838954 0.121890 0.040056
Si Si2 0.215133 0.866999 0.687065
Si Si3 0.474342 0.684757 0.961041
Si Si4 0.543195 0.614187 0.179657
Si Si5 0.652845 0.000178 0.480601
Si Si6 0.247707 0.538742 0.339549
Si Si7 0.568689 0.610909 0.839647
Si Si8 0.897204 0.213921 0.212916
O O1 0.574630 0.114985 0.835768
O O2 0.854352 0.074826 0.125974
O O3 0.812808 0.180910 0.075233
O O4 0.124131 0.116158 0.127763
O O5 0.393890 0.853444 0.686924
O O6 0.340572 0.920605 0.803945
O O7 0.238456 0.815027 0.766798
O O8 0.893044 0.875758 0.492415
O O9 0.424234 0.652935 0.837444
O O10 0.219435 0.725158 0.850889
O O11 0.480398 0.640508 0.046470
O O12 0.765996 0.717711 0.106557
O O13 0.420408 0.553431 0.117178
O O14 0.500000 0.000000 0.500000
O O15 0.535202 0.949840 0.360272
O O16 0.988006 0.997855 0.669910
O O17 0.500000 0.500000 0.500000
#
# Coordination Sequence:
#
# PCOD8126573 Si02
#       8
#     4   4   4   4   4   4   4   4
#     4  10  22  39  57  86 117 150 193 239 283 342
#     4   9  22  40  56  83 118 150 188 237 286 341
#     4  10  21  41  62  83 113 155 190 240 294 339
#     4  11  22  38  61  87 118 153 194 234 289 346
#     4  11  20  39  59  83 122 158 188 234 286 344
#     4  10  22  38  56  82 119 155 191 232 282 338
#     4  10  22  38  60  85 118 154 191 234 289 343
#     4   9  21  42  60  80 117 148 191 244 289 338
#
# _framework density 19.294888
#
# number of rings (size 3 to 8) (size 9 to 14) (size 15 to 20)
#    0.000    2.000    2.500    1.500    3.500    5.500 
#    2.250    5.000    0.000    0.000    0.000    0.000 
#    0.000    0.000    0.000    0.000    0.000    0.000 
#
# Total GULP energy -396908.383899 kJ/mol
# GULP energy per Si atom -12403.386997 kJ/mol
# Density = 1.925097 g / cm^3
# Si number density = 19.294888 Si / 1000 Ang^3
#
#
#
# Elastic Constant Matrix: (Units=GPa)
#
#
# Indices 1 2 3 4 5 6 
#
# 1 90.6161 10.6962 16.4502 0.0000 3.8220 0.0000
# 2 10.6962 89.2457 37.0538 0.0000 10.4078 0.0000
# 3 16.4502 37.0538 83.5265 0.0000 -11.3416 0.0000
# 4 0.0000 0.0000 0.0000 27.1502 0.0000 6.3834
# 5 3.8220 10.4078 -11.3416 0.0000 24.4865 0.0000
# 6 0.0000 0.0000 0.0000 6.3834 0.0000 22.5483
#
#
#
# Elastic Compliance Matrix: (Units=1/GPa)
#
#
# Indices 1 2 3 4 5 6 
#
# 1 0.011659 0.000126 -0.002782 0.000000 -0.003162 0.000000
# 2 0.000126 0.016022 -0.008601 0.000000 -0.010813 0.000000
# 3 -0.002782 -0.008601 0.018024 0.000000 0.012438 0.000000
# 4 0.000000 0.000000 0.000000 0.039459 0.000000 -0.011171
# 5 -0.003162 -0.010813 0.012438 0.000000 0.051690 0.000000
# 6 0.000000 0.000000 0.000000 -0.011171 0.000000 0.047512
#
#
# Mechanical properties :
#
#
# Convention : Reuss Voigt Hill
#
# Bulk Modulus (GPa) = 43.11597 43.53208 43.32402
# Shear Modulus (GPa) = 23.29825 28.11620 25.70722
#
# Velocity S-wave (km/s) = 3.47866 3.82145 3.65407
# Velocity P-wave (km/s) = 6.20718 6.48704 6.34865
#
# Compressibility (1/GPa) = 0.02319326
#
# Stress axis : x y z
#
# Youngs Moduli (GPa) = 85.77087 62.41464 55.48026
#
# Poissons Ratio (x) = -0.00788 0.15432
# Poissons Ratio (y) = -0.01083 0.47717
# Poissons Ratio (z) = 0.23857 0.53681
#
# Static dielectric constant tensor:
#      x y z
#    x 3.595870 0.000000 -0.035520 
#    y 0.000000 3.629900 0.000000 
#    z -0.035520 0.000000 3.542500 
# 
# 
# High freq. dielectric constant tensor:
#      x y z
#    x 1.756100 0.000000 -0.001350 
#    y 0.000000 1.748150 0.000000 
#    z -0.001350 0.000000 1.747700 
# 
# From -- ./inp_files/10814.got.cif
#   From: 2010.03.12/outbox.cif.g09.slc.cpg/sg14_6_cif.got.tgz:10814.got - 2010.03.31 13:35:05.
