data_PCOD8126859
_publ_section_title
;
Structure prediction by ZEFSAII (Michael W. Deem and Ramdas Pophale) SiO2 
 PCOD8126859
Probable space group: P 21/C
;
_chemical_formula_sum "Si O2"
_cell_formula_units_Z 28
_cell_length_a 15.073977
_cell_length_b 9.245396
_cell_length_c 9.099501
_cell_angle_alpha 90.000000
_cell_angle_beta 55.324961
_cell_angle_gamma 90.000000
_cell_volume 1042.917139
_symmetry_space_group_name_H-M "P 21/C"
_symmetry_group_IT_number 14
_symmetry_cell_setting 'monoclinic'
loop_
_space_group_symop_operation_xyz
x,y,z
-x,1/2+y,1/2-z
-x,-y,-z
x,1/2-y,1/2+z
loop_
_atom_site_type_symbol
_atom_site_label
_atom_site_fract_x
_atom_site_fract_y
_atom_site_fract_z
Si Si1 0.370109 0.166048 0.916622
Si Si2 0.534637 0.541498 0.140567
Si Si3 0.202647 0.826801 0.484558
Si Si4 0.704984 0.903092 0.701717
Si Si5 0.094941 0.093675 0.984868
Si Si6 0.713964 0.402462 0.787039
Si Si7 0.974460 0.861383 0.621352
O O1 0.462431 0.282759 0.882690
O O2 0.284861 0.247884 0.889627
O O3 0.417344 0.028111 0.783232
O O4 0.305770 0.107108 0.114917
O O5 0.604075 0.509495 0.222477
O O6 0.592192 0.457655 0.947123
O O7 0.224518 0.829041 0.635609
O O8 0.293511 0.724096 0.326264
O O9 0.082322 0.769668 0.564334
O O10 0.196223 0.990696 0.424911
O O11 0.083289 0.095881 0.171952
O O12 0.099076 0.254423 0.908282
O O13 0.214104 0.033084 0.839935
O O14 0.000000 0.000000 0.000000
O O15 0.000000 0.000000 0.500000
#
# Coordination Sequence:
#
# PCOD8126859 Si02
#       7
#     4   4   4   4   4   4   4
#     4  10  21  43  68  98 136 182 232 287 345 420
#     4   9  23  41  69  99 136 178 234 284 348 414
#     4  11  23  45  68 100 140 177 236 287 352 417
#     4   9  23  42  67  98 140 175 233 286 349 417
#     4  12  24  45  72 101 142 181 241 284 346 434
#     4  11  25  45  69 101 140 182 236 290 347 422
#     4  12  26  44  73 104 138 189 228 295 360 415
#
# _framework density 26.847771000000002
#
# number of rings (size 3 to 8) (size 9 to 14) (size 15 to 20)
#    0.857    0.571    2.857    1.286    4.000    2.857 
#    5.143    0.000    0.000    0.000    0.000    0.000 
#    0.000    0.000    0.000    0.000    0.000    0.000 
#
# Total GULP energy -347173.319341 kJ/mol
# GULP energy per Si atom -12399.047119 kJ/mol
# Density = 2.678666 g / cm^3
# Si number density = 26.847771 Si / 1000 Ang^3
#
#
#
# Elastic Constant Matrix: (Units=GPa)
#
#
# Indices 1 2 3 4 5 6 
#
# 1 51.3217 8.5381 39.2264 0.0000 -0.5085 0.0000
# 2 8.5381 112.0457 40.7052 0.0000 18.0622 0.0000
# 3 39.2264 40.7052 184.0853 0.0000 35.2613 0.0000
# 4 0.0000 0.0000 0.0000 57.1161 0.0000 0.1598
# 5 -0.5085 18.0622 35.2613 0.0000 44.1510 0.0000
# 6 0.0000 0.0000 0.0000 0.1598 0.0000 42.1691
#
#
#
# Elastic Compliance Matrix: (Units=1/GPa)
#
#
# Indices 1 2 3 4 5 6 
#
# 1 0.024272 -0.000500 -0.006085 0.000000 0.005344 0.000000
# 2 -0.000500 0.009988 -0.001556 0.000000 -0.002849 0.000000
# 3 -0.006085 -0.001556 0.008222 0.000000 -0.006000 0.000000
# 4 0.000000 0.000000 0.000000 0.017508 0.000000 -0.000066
# 5 0.005344 -0.002849 -0.006000 0.000000 0.028669 0.000000
# 6 0.000000 0.000000 0.000000 -0.000066 0.000000 0.023714
#
#
# Mechanical properties :
#
#
# Convention : Reuss Voigt Hill
#
# Bulk Modulus (GPa) = 38.16969 58.26579 48.21774
# Shear Modulus (GPa) = 36.39280 45.95278 41.17279
#
# Velocity S-wave (km/s) = 3.68574 4.14164 3.92032
# Velocity P-wave (km/s) = 5.68866 6.67985 6.20408
#
# Compressibility (1/GPa) = 0.02619880
#
# Stress axis : x y z
#
# Youngs Moduli (GPa) = 41.19952 100.12365 121.61949
#
# Poissons Ratio (x) = 0.05010 0.74007
# Poissons Ratio (y) = 0.02062 0.18926
# Poissons Ratio (z) = 0.25070 0.15581
#
# Static dielectric constant tensor:
#      x y z
#    x 4.959270 0.000000 0.148350 
#    y 0.000000 4.866900 0.000000 
#    z 0.148350 0.000000 4.730850 
# 
# 
# High freq. dielectric constant tensor:
#      x y z
#    x 2.103510 0.000000 0.017730 
#    y 0.000000 2.085320 0.000000 
#    z 0.017730 0.000000 2.080930 
# 
# From -- ./inp_files/18706.got.cif
#   From: 2010.03.12/outbox.cif.g09.slc.cpg/sg14_10_cif.got.tgz:18706.got - 2010.03.31 13:35:05.
