data_PCOD8126510
_publ_section_title
;
Structure prediction by ZEFSAII (Michael W. Deem and Ramdas Pophale) SiO2 
 PCOD8126510
Probable space group: P 21/C
;
_chemical_formula_sum "Si O2"
_cell_formula_units_Z 28
_cell_length_a 15.688538
_cell_length_b 19.114713
_cell_length_c 8.759032
_cell_angle_alpha 90.000000
_cell_angle_beta 32.005602
_cell_angle_gamma 90.000000
_cell_volume 1392.143561
_symmetry_space_group_name_H-M "P 21/C"
_symmetry_group_IT_number 14
_symmetry_cell_setting 'monoclinic'
loop_
_space_group_symop_operation_xyz
x,y,z
-x,1/2+y,1/2-z
-x,-y,-z
x,1/2-y,1/2+z
loop_
_atom_site_type_symbol
_atom_site_label
_atom_site_fract_x
_atom_site_fract_y
_atom_site_fract_z
Si Si1 0.748733 0.590932 0.212551
Si Si2 0.419010 0.024233 0.468358
Si Si3 0.283070 0.936218 0.146056
Si Si4 0.612505 0.109318 0.690834
Si Si5 0.109088 0.068302 0.832291
Si Si6 0.127135 0.810710 0.861089
Si Si7 0.940455 0.333264 0.187025
O O1 0.753768 0.519021 0.300299
O O2 0.572862 0.626351 0.490083
O O3 0.792759 0.572981 0.973334
O O4 0.871925 0.647264 0.093632
O O5 0.247471 0.064014 0.754237
O O6 0.500000 0.000000 0.500000
O O7 0.372708 0.958355 0.435851
O O8 0.541638 0.075428 0.194905
O O9 0.285874 0.904042 0.310213
O O10 0.150719 0.899441 0.243868
O O11 0.694932 0.173784 0.475848
O O12 0.999378 0.136143 0.024690
O O13 0.000000 0.000000 0.000000
O O14 0.078158 0.732459 0.894854
O O15 0.130332 0.818041 0.038314
#
# Coordination Sequence:
#
# PCOD8126510 Si02
#       7
#     4   4   4   4   4   4   4
#     4  10  21  40  66  96 127 158 215 261 319 368
#     4  11  21  36  60 100 125 158 206 261 311 374
#     4  11  20  39  68  92 127 161 208 262 322 365
#     4  11  20  42  64  91 127 163 202 267 317 370
#     4  11  20  39  67  91 128 170 205 264 313 370
#     4  11  24  43  64  86 129 167 214 251 322 375
#     4  11  25  43  62  92 123 170 211 258 310 392
#
# _framework density 20.112869
#
# number of rings (size 3 to 8) (size 9 to 14) (size 15 to 20)
#    0.000    1.143    4.286    3.000    2.000    0.000 
#   12.857    1.429    0.000    0.000    0.000    0.000 
#    0.000    0.000    0.000    0.000    0.000    0.000 
#
# Total GULP energy -347226.513674 kJ/mol
# GULP energy per Si atom -12400.946917 kJ/mol
# Density = 2.006709 g / cm^3
# Si number density = 20.112869 Si / 1000 Ang^3
#
#
#
# Elastic Constant Matrix: (Units=GPa)
#
#
# Indices 1 2 3 4 5 6 
#
# 1 125.0514 29.5272 43.0280 0.0000 -3.4265 0.0000
# 2 29.5272 77.8072 39.9270 0.0000 -7.5045 0.0000
# 3 43.0280 39.9270 130.1984 0.0000 -11.3123 0.0000
# 4 0.0000 0.0000 0.0000 26.5655 0.0000 -2.1092
# 5 -3.4265 -7.5045 -11.3123 0.0000 30.4995 0.0000
# 6 0.0000 0.0000 0.0000 -2.1092 0.0000 32.4084
#
#
#
# Elastic Compliance Matrix: (Units=1/GPa)
#
#
# Indices 1 2 3 4 5 6 
#
# 1 0.009372 -0.002361 -0.002410 0.000000 -0.000422 0.000000
# 2 -0.002361 0.015976 -0.003927 0.000000 0.002209 0.000000
# 3 -0.002410 -0.003927 0.009893 0.000000 0.002432 0.000000
# 4 0.000000 0.000000 0.000000 0.037838 0.000000 0.002463
# 5 -0.000422 0.002209 0.002432 0.000000 0.034186 0.000000
# 6 0.000000 0.000000 0.000000 0.002463 0.000000 0.031016
#
#
# Mechanical properties :
#
#
# Convention : Reuss Voigt Hill
#
# Bulk Modulus (GPa) = 56.03701 62.00237 59.01969
# Shear Modulus (GPa) = 30.93572 32.59967 31.76770
#
# Velocity S-wave (km/s) = 3.92612 4.03033 3.97857
# Velocity P-wave (km/s) = 6.96235 7.24929 7.10727
#
# Compressibility (1/GPa) = 0.01784535
#
# Stress axis : x y z
#
# Youngs Moduli (GPa) = 106.70380 62.59198 101.08458
#
# Poissons Ratio (x) = 0.14775 0.24361
# Poissons Ratio (y) = 0.25188 0.39699
# Poissons Ratio (z) = 0.25715 0.24582
#
# Static dielectric constant tensor:
#      x y z
#    x 3.829690 0.000000 -0.102090 
#    y 0.000000 3.450740 0.000000 
#    z -0.102090 0.000000 4.075840 
# 
# 
# High freq. dielectric constant tensor:
#      x y z
#    x 1.789690 0.000000 -0.004790 
#    y 0.000000 1.760360 0.000000 
#    z -0.004790 0.000000 1.802230 
# 
# From -- ./inp_files/9986.got.cif
#   From: 2010.03.12/outbox.cif.g09.slc.cpg/sg14_5_cif.got.tgz:9986.got - 2010.03.31 13:35:05.
