data_PCOD8126837
_publ_section_title
;
Structure prediction by ZEFSAII (Michael W. Deem and Ramdas Pophale) SiO2 
 PCOD8126837
Probable space group: P 21/C
;
_chemical_formula_sum "Si O2"
_cell_formula_units_Z 28
_cell_length_a 5.482145
_cell_length_b 17.322503
_cell_length_c 15.181834
_cell_angle_alpha 90.000000
_cell_angle_beta 128.217904
_cell_angle_gamma 90.000000
_cell_volume 1132.718624
_symmetry_space_group_name_H-M "P 21/C"
_symmetry_group_IT_number 14
_symmetry_cell_setting 'monoclinic'
loop_
_space_group_symop_operation_xyz
x,y,z
-x,1/2+y,1/2-z
-x,-y,-z
x,1/2-y,1/2+z
loop_
_atom_site_type_symbol
_atom_site_label
_atom_site_fract_x
_atom_site_fract_y
_atom_site_fract_z
Si Si1 0.451638 0.554032 0.251621
Si Si2 0.003849 0.169009 0.103898
Si Si3 0.129018 0.340863 0.140128
Si Si4 0.136869 0.666010 0.721901
Si Si5 0.204783 0.567455 0.582305
Si Si6 0.411147 0.566290 0.047273
Si Si7 0.040287 0.166110 0.314465
O O1 0.475777 0.473702 0.312284
O O2 0.504475 0.530684 0.162194
O O3 0.114170 0.591205 0.176415
O O4 0.683597 0.619446 0.341069
O O5 0.040302 0.257071 0.082281
O O6 0.921403 0.165651 0.187538
O O7 0.735153 0.130605 0.981701
O O8 0.029620 0.347361 0.221399
O O9 0.492222 0.348705 0.200448
O O10 0.947658 0.408123 0.046409
O O11 0.013073 0.606179 0.620677
O O12 0.057337 0.751696 0.667293
O O13 0.000000 0.500000 0.500000
O O14 0.599412 0.648331 0.083752
O O15 0.500000 0.500000 0.000000
#
# Coordination Sequence:
#
# PCOD8126837 Si02
#       7
#     4   4   4   4   4   4   4
#     4  10  21  43  65  97 141 182 236 302 368 423
#     4   9  21  42  65 100 134 180 240 295 366 429
#     4  11  25  45  72 107 142 191 244 300 363 448
#     4  11  25  47  72 106 146 189 243 307 368 435
#     4  10  23  44  71 103 143 190 247 306 376 442
#     4  11  26  42  71 104 146 197 247 303 372 448
#     4  10  23  43  69  98 143 187 239 310 362 440
#
# _framework density 24.719291999999999
#
# number of rings (size 3 to 8) (size 9 to 14) (size 15 to 20)
#    0.000    1.714    1.429    0.857    6.000    1.143 
#    7.714    0.000    0.000    0.000    0.000    0.000 
#    0.000    0.000    0.000    0.000    0.000    0.000 
#
# Total GULP energy -346906.687392 kJ/mol
# GULP energy per Si atom -12389.524550 kJ/mol
# Density = 2.466303 g / cm^3
# Si number density = 24.719292 Si / 1000 Ang^3
#
#
#
# Elastic Constant Matrix: (Units=GPa)
#
#
# Indices 1 2 3 4 5 6 
#
# 1 75.4281 11.1682 18.6554 0.0000 8.8029 0.0000
# 2 11.1682 115.4841 49.6193 0.0000 -6.5375 0.0000
# 3 18.6554 49.6193 107.9330 0.0000 -3.3371 0.0000
# 4 0.0000 0.0000 0.0000 53.0952 0.0000 -9.3566
# 5 8.8029 -6.5375 -3.3371 0.0000 23.7964 0.0000
# 6 0.0000 0.0000 0.0000 -9.3566 0.0000 32.6526
#
#
#
# Elastic Compliance Matrix: (Units=1/GPa)
#
#
# Indices 1 2 3 4 5 6 
#
# 1 0.014649 -0.000731 -0.002380 0.000000 -0.005954 0.000000
# 2 -0.000731 0.010952 -0.004828 0.000000 0.002602 0.000000
# 3 -0.002380 -0.004828 0.011934 0.000000 0.001228 0.000000
# 4 0.000000 0.000000 0.000000 0.019836 0.000000 0.005684
# 5 -0.005954 0.002602 0.001228 0.000000 0.045113 0.000000
# 6 0.000000 0.000000 0.000000 0.005684 0.000000 0.032254
#
#
# Mechanical properties :
#
#
# Convention : Reuss Voigt Hill
#
# Bulk Modulus (GPa) = 46.17498 50.85900 48.51699
# Shear Modulus (GPa) = 31.67879 36.53565 34.10722
#
# Velocity S-wave (km/s) = 3.58375 3.84868 3.71857
# Velocity P-wave (km/s) = 5.98704 6.35366 6.17307
#
# Compressibility (1/GPa) = 0.02165675
#
# Stress axis : x y z
#
# Youngs Moduli (GPa) = 68.26223 91.31109 83.79565
#
# Poissons Ratio (x) = 0.06676 0.19943
# Poissons Ratio (y) = 0.04991 0.40455
# Poissons Ratio (z) = 0.16246 0.44084
#
# Static dielectric constant tensor:
#      x y z
#    x 4.470210 0.000000 0.051100 
#    y 0.000000 4.968340 0.000000 
#    z 0.051100 0.000000 4.856510 
# 
# 
# High freq. dielectric constant tensor:
#      x y z
#    x 1.952820 0.000000 -0.002910 
#    y 0.000000 2.007750 0.000000 
#    z -0.002910 0.000000 1.992120 
# 
# From -- ./inp_files/37907.got.cif
#   From: 2010.03.12/outbox.cif.g09.slc.cpg/sg14_19_cif.got.tgz:37907.got - 2010.03.31 13:35:05.
