data_PCOD8126320
_publ_section_title
;
Structure prediction by ZEFSAII (Michael W. Deem and Ramdas Pophale) SiO2 
 PCOD8126320
Probable space group: P 21/C
;
_chemical_formula_sum "Si O2"
_cell_formula_units_Z 32
_cell_length_a 11.784518
_cell_length_b 8.948935
_cell_length_c 23.521827
_cell_angle_alpha 90.000000
_cell_angle_beta 35.527235
_cell_angle_gamma 90.000000
_cell_volume 1441.443205
_symmetry_space_group_name_H-M "P 21/C"
_symmetry_group_IT_number 14
_symmetry_cell_setting 'monoclinic'
loop_
_space_group_symop_operation_xyz
x,y,z
-x,1/2+y,1/2-z
-x,-y,-z
x,1/2-y,1/2+z
loop_
_atom_site_type_symbol
_atom_site_label
_atom_site_fract_x
_atom_site_fract_y
_atom_site_fract_z
Si Si1 0.631768 0.796453 0.368842
Si Si2 0.106763 0.693050 0.518063
Si Si3 0.246070 0.809849 0.078806
Si Si4 0.181240 0.023279 0.608389
Si Si5 0.538243 0.009103 0.166941
Si Si6 0.327349 0.273176 0.832571
Si Si7 0.648195 0.482686 0.079871
Si Si8 0.759088 0.009542 0.804973
O O1 0.447781 0.693063 0.461484
O O2 0.701114 0.885830 0.393996
O O3 0.790638 0.671216 0.288142
O O4 0.566395 0.907137 0.343971
O O5 0.088496 0.654113 0.593082
O O6 0.239749 0.565038 0.434140
O O7 0.890559 0.708095 0.581370
O O8 0.199718 0.853917 0.466245
O O9 0.200968 0.646799 0.122110
O O10 0.253967 0.933468 0.124665
O O11 0.280595 0.056917 0.507920
O O12 0.956065 0.076338 0.697197
O O13 0.402838 0.145014 0.245044
O O14 0.432265 0.945303 0.153321
O O15 0.539127 0.872544 0.211104
O O16 0.357348 0.389023 0.871583
#
# Coordination Sequence:
#
# PCOD8126320 Si02
#       8
#     4   4   4   4   4   4   4   4
#     4  10  21  39  65  89 138 168 222 266 333 405
#     4  10  22  47  70  97 133 179 226 278 341 403
#     4  10  21  40  66  94 130 171 212 271 344 398
#     4  10  22  37  63  98 130 172 220 271 330 410
#     4  12  26  44  68 101 132 176 229 276 339 398
#     4  12  27  44  72  95 139 179 227 285 329 413
#     4  10  21  43  67  93 130 183 220 272 343 392
#     4  12  23  40  64  99 133 169 219 278 339 399
#
# _framework density 22.199974000000001
#
# number of rings (size 3 to 8) (size 9 to 14) (size 15 to 20)
#    0.000    1.500    2.500    5.625    3.500    1.000 
#    0.000    0.000    0.000    0.000    0.000    0.000 
#    0.000    0.000    0.000    0.000    0.000    0.000 
#
# Total GULP energy -396586.562084 kJ/mol
# GULP energy per Si atom -12393.330065 kJ/mol
# Density = 2.214945 g / cm^3
# Si number density = 22.199974 Si / 1000 Ang^3
#
#
#
# Elastic Constant Matrix: (Units=GPa)
#
#
# Indices 1 2 3 4 5 6 
#
# 1 89.1259 45.8108 18.1608 0.0000 7.9216 0.0000
# 2 45.8108 73.6145 7.3950 0.0000 8.7586 0.0000
# 3 18.1608 7.3950 38.1668 0.0000 -5.4476 0.0000
# 4 0.0000 0.0000 0.0000 34.1319 0.0000 14.0466
# 5 7.9216 8.7586 -5.4476 0.0000 23.7557 0.0000
# 6 0.0000 0.0000 0.0000 14.0466 0.0000 34.6915
#
#
#
# Elastic Compliance Matrix: (Units=1/GPa)
#
#
# Indices 1 2 3 4 5 6 
#
# 1 0.018296 -0.010172 -0.007310 0.000000 -0.004027 0.000000
# 2 -0.010172 0.020364 0.000318 0.000000 -0.004043 0.000000
# 3 -0.007310 0.000318 0.030962 0.000000 0.009421 0.000000
# 4 0.000000 0.000000 0.000000 0.035156 0.000000 -0.014235
# 5 -0.004027 -0.004043 0.009421 0.000000 0.047089 0.000000
# 6 0.000000 0.000000 0.000000 -0.014235 0.000000 0.034589
#
#
# Mechanical properties :
#
#
# Convention : Reuss Voigt Hill
#
# Bulk Modulus (GPa) = 28.33408 38.18225 33.25817
# Shear Modulus (GPa) = 21.50083 27.15185 24.32634
#
# Velocity S-wave (km/s) = 3.11546 3.50102 3.31385
# Velocity P-wave (km/s) = 5.07270 5.79477 5.44572
#
# Compressibility (1/GPa) = 0.03529319
#
# Stress axis : x y z
#
# Youngs Moduli (GPa) = 54.65664 49.10684 32.29769
#
# Poissons Ratio (x) = 0.49953 0.23608
# Poissons Ratio (y) = 0.55599 -0.01026
# Poissons Ratio (z) = 0.39952 -0.01560
#
# Static dielectric constant tensor:
#      x y z
#    x 4.065320 0.000000 -0.109220 
#    y 0.000000 3.925060 0.000000 
#    z -0.109220 0.000000 3.965280 
# 
# 
# High freq. dielectric constant tensor:
#      x y z
#    x 1.884540 0.000000 -0.002960 
#    y 0.000000 1.865220 0.000000 
#    z -0.002960 0.000000 1.866840 
# 
# From -- ./inp_files/73094.got.cif
#   From: 2010.03.12/outbox.cif.g09.slc.cpg/sg14_37_cif.got.tgz:73094.got - 2010.03.31 13:35:05.
