data_PCOD8126076
_publ_section_title
;
Structure prediction by ZEFSAII (Michael W. Deem and Ramdas Pophale) SiO2 
 PCOD8126076
Probable space group: P 21/C
;
_chemical_formula_sum "Si O2"
_cell_formula_units_Z 32
_cell_length_a 9.490791
_cell_length_b 18.220897
_cell_length_c 12.629473
_cell_angle_alpha 90.000000
_cell_angle_beta 48.190297
_cell_angle_gamma 90.000000
_cell_volume 1627.890870
_symmetry_space_group_name_H-M "P 21/C"
_symmetry_group_IT_number 14
_symmetry_cell_setting 'monoclinic'
loop_
_space_group_symop_operation_xyz
x,y,z
-x,1/2+y,1/2-z
-x,-y,-z
x,1/2-y,1/2+z
loop_
_atom_site_type_symbol
_atom_site_label
_atom_site_fract_x
_atom_site_fract_y
_atom_site_fract_z
Si Si1 0.193802 0.182852 0.682036
Si Si2 0.878942 0.269647 0.490411
Si Si3 0.557475 0.220885 0.984108
Si Si4 0.919129 0.493853 0.157627
Si Si5 0.448657 0.434984 0.605308
Si Si6 0.869731 0.328514 0.182164
Si Si7 0.782062 0.073497 0.092153
Si Si8 0.108612 0.024057 0.777083
O O1 0.397927 0.216990 0.555123
O O2 0.224919 0.099911 0.708739
O O3 0.070036 0.185018 0.638041
O O4 0.074842 0.227802 0.828271
O O5 0.690469 0.262293 0.516386
O O6 0.896542 0.195817 0.548687
O O7 0.854785 0.343335 0.573161
O O8 0.458143 0.142126 0.040487
O O9 0.695606 0.219669 0.813712
O O10 0.763787 0.556433 0.247570
O O11 0.820710 0.414144 0.219164
O O12 0.070947 0.505769 0.176717
O O13 0.000000 0.500000 0.000000
O O14 0.500000 0.500000 0.500000
O O15 0.574265 0.432638 0.648145
O O16 0.775750 0.034193 0.209982
O O17 0.911843 0.035737 0.937386
#
# Coordination Sequence:
#
# PCOD8126076 Si02
#       8
#     4   4   4   4   4   4   4   4
#     4   9  20  37  58  84 113 153 193 235 285 344
#     4   9  20  37  55  84 118 146 190 240 288 337
#     4  10  21  38  59  82 115 154 193 240 283 348
#     4  11  23  38  58  87 119 153 187 245 298 346
#     4  11  19  38  61  85 110 148 202 235 284 350
#     4  10  21  40  56  82 122 151 187 243 291 337
#     4   9  18  36  63  86 113 150 191 243 283 342
#     4   9  18  38  60  86 118 148 190 239 292 341
#
# _framework density 19.657339
#
# number of rings (size 3 to 8) (size 9 to 14) (size 15 to 20)
#    0.000    2.250    2.500    1.500    1.750    3.000 
#   11.250    0.625    0.000    0.000    0.000    0.000 
#    0.000    0.000    0.000    0.000    0.000    0.000 
#
# Total GULP energy -396679.015674 kJ/mol
# GULP energy per Si atom -12396.219240 kJ/mol
# Density = 1.961260 g / cm^3
# Si number density = 19.657339 Si / 1000 Ang^3
#
#
#
# Elastic Constant Matrix: (Units=GPa)
#
#
# Indices 1 2 3 4 5 6 
#
# 1 64.2997 21.9650 32.5669 0.0000 3.8363 0.0000
# 2 21.9650 35.5811 5.1099 0.0000 -0.5102 0.0000
# 3 32.5669 5.1099 63.3946 0.0000 6.3326 0.0000
# 4 0.0000 0.0000 0.0000 34.6811 0.0000 0.6621
# 5 3.8363 -0.5102 6.3326 0.0000 36.4459 0.0000
# 6 0.0000 0.0000 0.0000 0.6621 0.0000 34.6780
#
#
#
# Elastic Compliance Matrix: (Units=1/GPa)
#
#
# Indices 1 2 3 4 5 6 
#
# 1 0.027102 -0.014929 -0.012633 0.000000 -0.000867 0.000000
# 2 -0.014929 0.036681 0.004584 0.000000 0.001288 0.000000
# 3 -0.012633 0.004584 0.022139 0.000000 -0.002453 0.000000
# 4 0.000000 0.000000 0.000000 0.028845 0.000000 -0.000551
# 5 -0.000867 0.001288 -0.002453 0.000000 0.027973 0.000000
# 6 0.000000 0.000000 0.000000 -0.000551 0.000000 0.028847
#
#
# Mechanical properties :
#
#
# Convention : Reuss Voigt Hill
#
# Bulk Modulus (GPa) = 25.02083 31.39543 28.20813
# Shear Modulus (GPa) = 21.65762 28.06990 24.86376
#
# Velocity S-wave (km/s) = 3.32287 3.78294 3.56034
# Velocity P-wave (km/s) = 5.24196 5.92341 5.59307
#
# Compressibility (1/GPa) = 0.03996669
#
# Stress axis : x y z
#
# Youngs Moduli (GPa) = 36.89765 27.26213 45.16818
#
# Poissons Ratio (x) = 0.40699 0.57060
# Poissons Ratio (y) = 0.55084 -0.20704
# Poissons Ratio (z) = 0.46612 -0.12497
#
# Static dielectric constant tensor:
#      x y z
#    x 3.503370 0.000000 0.051030 
#    y 0.000000 3.604640 0.000000 
#    z 0.051030 0.000000 3.445100 
# 
# 
# High freq. dielectric constant tensor:
#      x y z
#    x 1.759080 0.000000 0.006040 
#    y 0.000000 1.763420 0.000000 
#    z 0.006040 0.000000 1.756460 
# 
# From -- ./inp_files/26770.got.cif
#   From: 2010.03.12/outbox.cif.g09.slc.cpg/sg14_14_cif.got.tgz:26770.got - 2010.03.31 13:35:05.
