data_PCOD8126302
_publ_section_title
;
Structure prediction by ZEFSAII (Michael W. Deem and Ramdas Pophale) SiO2 
 PCOD8126302
Probable space group: P 21/C
;
_chemical_formula_sum "Si O2"
_cell_formula_units_Z 24
_cell_length_a 24.329176
_cell_length_b 10.524287
_cell_length_c 12.083617
_cell_angle_alpha 90.000000
_cell_angle_beta 158.902397
_cell_angle_gamma 90.000000
_cell_volume 1113.700965
_symmetry_space_group_name_H-M "P 21/C"
_symmetry_group_IT_number 14
_symmetry_cell_setting 'monoclinic'
loop_
_space_group_symop_operation_xyz
x,y,z
-x,1/2+y,1/2-z
-x,-y,-z
x,1/2-y,1/2+z
loop_
_atom_site_type_symbol
_atom_site_label
_atom_site_fract_x
_atom_site_fract_y
_atom_site_fract_z
Si Si1 0.893330 0.804760 0.807150
Si Si2 0.024871 0.498337 0.711444
Si Si3 0.716126 0.331407 0.743706
Si Si4 0.897693 0.110680 0.183102
Si Si5 0.438685 0.296849 0.826107
Si Si6 0.357930 0.935763 0.128133
O O1 0.971460 0.862422 0.843426
O O2 0.719861 0.773462 0.452407
O O3 0.980248 0.677334 0.007137
O O4 0.902566 0.909312 0.922455
O O5 0.981694 0.488915 0.760161
O O6 0.195903 0.557423 0.024304
O O7 0.547622 0.308281 0.475175
O O8 0.709074 0.364774 0.602314
O O9 0.814847 0.204854 0.942610
O O10 0.773526 0.042133 0.026733
O O11 0.420313 0.423456 0.714663
O O12 0.507815 0.345589 0.072417
#
# Coordination Sequence:
#
# PCOD8126302 Si02
#       6
#     4   4   4   4   4   4
#     4  10  22  39  60  90 122 154 198 246 293 351
#     4  10  22  39  61  89 120 157 198 242 296 350
#     4  10  22  39  58  84 118 155 195 242 298 352
#     4  10  21  39  64  89 116 153 197 247 296 349
#     4  10  23  38  58  86 117 157 195 240 297 348
#     4  10  22  40  59  86 119 152 199 247 292 353
#
# _framework density 21.549771
#
# number of rings (size 3 to 8) (size 9 to 14) (size 15 to 20)
#    0.000    2.000    0.000    2.000    0.000   14.000 
#    0.000    0.000    0.000    0.000    0.000    0.000 
#    0.000    0.000    0.000    0.000    0.000    0.000 
#
# Total GULP energy -297603.958063 kJ/mol
# GULP energy per Si atom -12400.164919 kJ/mol
# Density = 2.150072 g / cm^3
# Si number density = 21.549771 Si / 1000 Ang^3
#
#
#
# Elastic Constant Matrix: (Units=GPa)
#
#
# Indices 1 2 3 4 5 6 
#
# 1 70.1869 21.9647 37.4963 0.0000 -11.4536 0.0000
# 2 21.9647 56.4011 32.2643 0.0000 -5.4354 0.0000
# 3 37.4963 32.2643 120.9594 0.0000 6.4082 0.0000
# 4 0.0000 0.0000 0.0000 37.9086 0.0000 -4.7245
# 5 -11.4536 -5.4354 6.4082 0.0000 25.9638 0.0000
# 6 0.0000 0.0000 0.0000 -4.7245 0.0000 28.4666
#
#
#
# Elastic Compliance Matrix: (Units=1/GPa)
#
#
# Indices 1 2 3 4 5 6 
#
# 1 0.019984 -0.003585 -0.005741 0.000000 0.009482 0.000000
# 2 -0.003585 0.022476 -0.005116 0.000000 0.004387 0.000000
# 3 -0.005741 -0.005116 0.011756 0.000000 -0.006505 0.000000
# 4 0.000000 0.000000 0.000000 0.026936 0.000000 0.004471
# 5 0.009482 0.004387 -0.006505 0.000000 0.045222 0.000000
# 6 0.000000 0.000000 0.000000 0.004471 0.000000 0.035871
#
#
# Mechanical properties :
#
#
# Convention : Reuss Voigt Hill
#
# Bulk Modulus (GPa) = 39.47572 47.88868 43.68220
# Shear Modulus (GPa) = 25.05352 28.85594 26.95473
#
# Velocity S-wave (km/s) = 3.41337 3.66326 3.54052
# Velocity P-wave (km/s) = 5.82177 6.33744 6.08507
#
# Compressibility (1/GPa) = 0.02533203
#
# Stress axis : x y z
#
# Youngs Moduli (GPa) = 50.04038 44.49261 85.06107
#
# Poissons Ratio (x) = 0.15948 0.48834
# Poissons Ratio (y) = 0.17937 0.43520
# Poissons Ratio (z) = 0.28728 0.22764
#
# Static dielectric constant tensor:
#      x y z
#    x 3.586270 0.000000 -0.103170 
#    y 0.000000 3.890320 0.000000 
#    z -0.103170 0.000000 4.089700 
# 
# 
# High freq. dielectric constant tensor:
#      x y z
#    x 1.823070 0.000000 -0.010520 
#    y 0.000000 1.846340 0.000000 
#    z -0.010520 0.000000 1.864360 
# 
# From -- ./inp_files/35943.got.cif
#   From: 2010.03.12/outbox.cif.g09.slc.cpg/sg14_18_cif.got.tgz:35943.got - 2010.03.31 13:35:05.
