data_PCOD8126724
_publ_section_title
;
Structure prediction by ZEFSAII (Michael W. Deem and Ramdas Pophale) SiO2 
 PCOD8126724
Probable space group: P 21/C
;
_chemical_formula_sum "Si O2"
_cell_formula_units_Z 24
_cell_length_a 13.566131
_cell_length_b 14.575100
_cell_length_c 12.084797
_cell_angle_alpha 90.000000
_cell_angle_beta 151.229473
_cell_angle_gamma 90.000000
_cell_volume 1150.072797
_symmetry_space_group_name_H-M "P 21/C"
_symmetry_group_IT_number 14
_symmetry_cell_setting 'monoclinic'
loop_
_space_group_symop_operation_xyz
x,y,z
-x,1/2+y,1/2-z
-x,-y,-z
x,1/2-y,1/2+z
loop_
_atom_site_type_symbol
_atom_site_label
_atom_site_fract_x
_atom_site_fract_y
_atom_site_fract_z
Si Si1 0.939155 0.397166 0.970438
Si Si2 0.859075 0.250270 0.706546
Si Si3 0.201517 0.016491 0.125430
Si Si4 0.600891 0.299577 0.761887
Si Si5 0.812666 0.864954 0.077353
Si Si6 0.546551 0.354375 0.046642
O O1 0.907599 0.339498 0.827208
O O2 0.731266 0.383850 0.836989
O O3 0.000000 0.500000 0.000000
O O4 0.120276 0.361955 0.228430
O O5 0.740046 0.268864 0.474005
O O6 0.720284 0.172435 0.628457
O O7 0.079792 0.211652 0.891877
O O8 0.330086 0.107104 0.289954
O O9 0.350798 0.930209 0.273655
O O10 0.140774 0.037066 0.937361
O O11 0.000000 0.000000 0.000000
O O12 0.428614 0.346707 0.666448
O O13 0.495068 0.236904 0.564930
#
# Coordination Sequence:
#
# PCOD8126724 Si02
#       6
#     4   4   4   4   4   4
#     4  10  25  43  64  95 132 166 213 271 323 384
#     4  10  21  42  62  90 129 167 214 258 318 386
#     4  11  22  38  66  93 127 155 214 265 316 372
#     4  10  23  42  66  91 130 170 216 256 324 389
#     4  11  23  40  65  93 123 171 213 262 317 385
#     4  10  22  38  62  93 120 167 204 264 314 377
#
# _framework density 20.868244000000001
#
# number of rings (size 3 to 8) (size 9 to 14) (size 15 to 20)
#    0.000    1.667    3.333    0.000    4.667    2.000 
#    3.000    0.000    0.000    0.000    0.000    0.000 
#    0.000    0.000    0.000    0.000    0.000    0.000 
#
# Total GULP energy -297379.639563 kJ/mol
# GULP energy per Si atom -12390.818315 kJ/mol
# Density = 2.082075 g / cm^3
# Si number density = 20.868244 Si / 1000 Ang^3
#
#
#
# Elastic Constant Matrix: (Units=GPa)
#
#
# Indices 1 2 3 4 5 6 
#
# 1 126.6620 57.7620 54.3861 0.0000 11.5608 0.0000
# 2 57.7620 106.4304 49.1291 0.0000 6.7063 0.0000
# 3 54.3861 49.1291 90.4402 0.0000 8.2009 0.0000
# 4 0.0000 0.0000 0.0000 37.6989 0.0000 -1.7904
# 5 11.5608 6.7063 8.2009 0.0000 34.0444 0.0000
# 6 0.0000 0.0000 0.0000 -1.7904 0.0000 35.1925
#
#
#
# Elastic Compliance Matrix: (Units=1/GPa)
#
#
# Indices 1 2 3 4 5 6 
#
# 1 0.012056 -0.004206 -0.004773 0.000000 -0.002116 0.000000
# 2 -0.004206 0.014032 -0.005083 0.000000 -0.000111 0.000000
# 3 -0.004773 -0.005083 0.016818 0.000000 -0.001429 0.000000
# 4 0.000000 0.000000 0.000000 0.026590 0.000000 0.001353
# 5 -0.002116 -0.000111 -0.001429 0.000000 0.030458 0.000000
# 6 0.000000 0.000000 0.000000 0.001353 0.000000 0.028484
#
#
# Mechanical properties :
#
#
# Convention : Reuss Voigt Hill
#
# Bulk Modulus (GPa) = 67.65273 71.78745 69.72009
# Shear Modulus (GPa) = 30.96179 32.20419 31.58299
#
# Velocity S-wave (km/s) = 3.85604 3.93264 3.89453
# Velocity P-wave (km/s) = 7.23289 7.42266 7.32839
#
# Compressibility (1/GPa) = 0.01478137
#
# Stress axis : x y z
#
# Youngs Moduli (GPa) = 82.94793 71.26550 59.46044
#
# Poissons Ratio (x) = 0.29977 0.28380
# Poissons Ratio (y) = 0.34891 0.30223
# Poissons Ratio (z) = 0.39590 0.36223
#
# Static dielectric constant tensor:
#      x y z
#    x 3.803830 0.000000 -0.086130 
#    y 0.000000 3.523980 0.000000 
#    z -0.086130 0.000000 3.879690 
# 
# 
# High freq. dielectric constant tensor:
#      x y z
#    x 1.823440 0.000000 -0.002790 
#    y 0.000000 1.793880 0.000000 
#    z -0.002790 0.000000 1.831460 
# 
# From -- ./inp_files/32641.got.cif
#   From: 2010.03.12/outbox.cif.g09.slc.cpg/sg14_17_cif.got.tgz:32641.got - 2010.03.31 13:35:05.
