data_PCOD8126432
_publ_section_title
;
Structure prediction by ZEFSAII (Michael W. Deem and Ramdas Pophale) SiO2 
 PCOD8126432
Probable space group: P 21/C
;
_chemical_formula_sum "Si O2"
_cell_formula_units_Z 24
_cell_length_a 10.846573
_cell_length_b 10.445954
_cell_length_c 17.385005
_cell_angle_alpha 90.000000
_cell_angle_beta 146.088891
_cell_angle_gamma 90.000000
_cell_volume 1098.946440
_symmetry_space_group_name_H-M "P 21/C"
_symmetry_group_IT_number 14
_symmetry_cell_setting 'monoclinic'
loop_
_space_group_symop_operation_xyz
x,y,z
-x,1/2+y,1/2-z
-x,-y,-z
x,1/2-y,1/2+z
loop_
_atom_site_type_symbol
_atom_site_label
_atom_site_fract_x
_atom_site_fract_y
_atom_site_fract_z
Si Si1 0.025899 0.939854 0.198268
Si Si2 0.318596 0.973988 0.621565
Si Si3 0.502863 0.656049 0.904965
Si Si4 0.164539 0.214833 0.299062
Si Si5 0.698191 0.636809 0.406609
Si Si6 0.091573 0.318616 0.097603
O O1 0.260165 0.901571 0.283513
O O2 0.965596 0.829326 0.227222
O O3 0.031034 0.081051 0.238187
O O4 0.838633 0.952609 0.035919
O O5 0.568449 0.941328 0.774811
O O6 0.168601 0.849300 0.525985
O O7 0.332881 0.053350 0.549857
O O8 0.217594 0.050152 0.642139
O O9 0.512657 0.782705 0.857216
O O10 0.596696 0.690388 0.038195
O O11 0.199244 0.254854 0.228826
O O12 0.881033 0.723870 0.459703
#
# Coordination Sequence:
#
# PCOD8126432 Si02
#       6
#     4   4   4   4   4   4
#     4  11  24  41  61  90 126 162 208 257 304 368
#     4  10  21  40  63  89 123 163 205 251 310 367
#     4  10  22  40  60  86 124 164 204 253 310 369
#     4  11  24  40  62  90 123 166 204 250 311 364
#     4  10  22  38  62  91 118 158 208 260 307 360
#     4  10  22  39  62  90 123 160 203 254 308 368
#
# _framework density 21.839098
#
# number of rings (size 3 to 8) (size 9 to 14) (size 15 to 20)
#    0.000    1.667    0.000    3.500    0.000   12.000 
#    0.000    3.333    0.000    0.000    0.000    0.000 
#    0.000    0.000    0.000    0.000    0.000    0.000 
#
# Total GULP energy -297595.117884 kJ/mol
# GULP energy per Si atom -12399.796578 kJ/mol
# Density = 2.178939 g / cm^3
# Si number density = 21.839098 Si / 1000 Ang^3
#
#
#
# Elastic Constant Matrix: (Units=GPa)
#
#
# Indices 1 2 3 4 5 6 
#
# 1 60.5933 18.8797 23.9504 0.0000 -5.4808 0.0000
# 2 18.8797 95.7678 30.7507 0.0000 -6.5275 0.0000
# 3 23.9504 30.7507 105.4459 0.0000 -10.3344 0.0000
# 4 0.0000 0.0000 0.0000 31.2068 0.0000 -3.0161
# 5 -5.4808 -6.5275 -10.3344 0.0000 36.0476 0.0000
# 6 0.0000 0.0000 0.0000 -3.0161 0.0000 27.1278
#
#
#
# Elastic Compliance Matrix: (Units=1/GPa)
#
#
# Indices 1 2 3 4 5 6 
#
# 1 0.018754 -0.002512 -0.003387 0.000000 0.001425 0.000000
# 2 -0.002512 0.011904 -0.002806 0.000000 0.000969 0.000000
# 3 -0.003387 -0.002806 0.011288 0.000000 0.002213 0.000000
# 4 0.000000 0.000000 0.000000 0.032392 0.000000 0.003601
# 5 0.001425 0.000969 0.002213 0.000000 0.028768 0.000000
# 6 0.000000 0.000000 0.000000 0.003601 0.000000 0.037263
#
#
# Mechanical properties :
#
#
# Convention : Reuss Voigt Hill
#
# Bulk Modulus (GPa) = 40.75787 45.44096 43.09942
# Shear Modulus (GPa) = 30.12787 31.42486 30.77636
#
# Velocity S-wave (km/s) = 3.71824 3.79743 3.75805
# Velocity P-wave (km/s) = 6.09402 6.33085 6.21356
#
# Compressibility (1/GPa) = 0.02453514
#
# Stress axis : x y z
#
# Youngs Moduli (GPa) = 53.32161 84.00356 88.58892
#
# Poissons Ratio (x) = 0.21105 0.30008
# Poissons Ratio (y) = 0.13396 0.24858
# Poissons Ratio (z) = 0.18062 0.23571
#
# Static dielectric constant tensor:
#      x y z
#    x 3.824350 0.000000 -0.126660 
#    y 0.000000 4.035660 0.000000 
#    z -0.126660 0.000000 3.811290 
# 
# 
# High freq. dielectric constant tensor:
#      x y z
#    x 1.853020 0.000000 -0.010620 
#    y 0.000000 1.861610 0.000000 
#    z -0.010620 0.000000 1.859390 
# 
# From -- ./inp_files/28985.got.cif
#   From: 2010.03.12/outbox.cif.g09.slc.cpg/sg14_15_cif.got.tgz:28985.got - 2010.03.31 13:35:05.
