data_PCOD8126815
_publ_section_title
;
Structure prediction by ZEFSAII (Michael W. Deem and Ramdas Pophale) SiO2 
 PCOD8126815
Probable space group: P 21/C
;
_chemical_formula_sum "Si O2"
_cell_formula_units_Z 16
_cell_length_a 9.426651
_cell_length_b 11.615111
_cell_length_c 11.388148
_cell_angle_alpha 90.000000
_cell_angle_beta 138.981012
_cell_angle_gamma 90.000000
_cell_volume 818.356103
_symmetry_space_group_name_H-M "P 21/C"
_symmetry_group_IT_number 14
_symmetry_cell_setting 'monoclinic'
loop_
_space_group_symop_operation_xyz
x,y,z
-x,1/2+y,1/2-z
-x,-y,-z
x,1/2-y,1/2+z
loop_
_atom_site_type_symbol
_atom_site_label
_atom_site_fract_x
_atom_site_fract_y
_atom_site_fract_z
Si Si1 0.853689 0.160842 0.464771
Si Si2 0.055233 0.541695 0.201404
Si Si3 0.166429 0.575067 0.528805
Si Si4 0.417427 0.007286 0.579418
O O1 0.909487 0.293127 0.518064
O O2 0.824234 0.133535 0.307284
O O3 0.057197 0.084986 0.640728
O O4 0.637981 0.120015 0.401452
O O5 0.174612 0.531746 0.400228
O O6 0.804110 0.581830 0.060672
O O7 0.405875 0.569258 0.730106
O O8 0.000000 0.500000 0.500000
O O9 0.500000 0.000000 0.500000
#
# Coordination Sequence:
#
# PCOD8126815 Si02
#       4
#     4   4   4   4
#     4   9  23  44  60  95 131 159 213 265 301 386
#     4   9  22  45  60  88 134 162 207 262 313 367
#     4  12  23  38  71  94 121 173 210 250 330 367
#     4  10  21  43  57  91 126 159 211 254 306 370
#
# _framework density 19.551390999999999
#
# number of rings (size 3 to 8) (size 9 to 14) (size 15 to 20)
#    1.500    0.500    2.500    0.000    7.000    3.000 
#    0.000    0.000    0.000    0.000    0.000    0.000 
#    0.000    0.000    0.000    0.000    0.000    0.000 
#
# Total GULP energy -198263.480589 kJ/mol
# GULP energy per Si atom -12391.467537 kJ/mol
# Density = 1.950689 g / cm^3
# Si number density = 19.551391 Si / 1000 Ang^3
#
#
#
# Elastic Constant Matrix: (Units=GPa)
#
#
# Indices 1 2 3 4 5 6 
#
# 1 133.8069 32.2385 37.3521 0.0000 -28.8487 0.0000
# 2 32.2385 113.3144 14.1329 0.0000 -12.9929 0.0000
# 3 37.3521 14.1329 125.1864 0.0000 -25.9269 0.0000
# 4 0.0000 0.0000 0.0000 17.8793 0.0000 0.6710
# 5 -28.8487 -12.9929 -25.9269 0.0000 45.2879 0.0000
# 6 0.0000 0.0000 0.0000 0.6710 0.0000 21.4765
#
#
#
# Elastic Compliance Matrix: (Units=1/GPa)
#
#
# Indices 1 2 3 4 5 6 
#
# 1 0.009365 -0.001947 -0.001650 0.000000 0.004462 0.000000
# 2 -0.001947 0.009564 -0.000213 0.000000 0.001382 0.000000
# 3 -0.001650 -0.000213 0.009387 0.000000 0.004262 0.000000
# 4 0.000000 0.000000 0.000000 0.055996 0.000000 -0.001749
# 5 0.004462 0.001382 0.004262 0.000000 0.027760 0.000000
# 6 0.000000 0.000000 0.000000 -0.001749 0.000000 0.046617
#
#
# Mechanical properties :
#
#
# Convention : Reuss Voigt Hill
#
# Bulk Modulus (GPa) = 48.31727 59.97274 54.14501
# Shear Modulus (GPa) = 28.86700 36.16771 32.51736
#
# Velocity S-wave (km/s) = 3.84665 4.30569 4.08263
# Velocity P-wave (km/s) = 6.67050 7.44712 7.06948
#
# Compressibility (1/GPa) = 0.02069653
#
# Stress axis : x y z
#
# Youngs Moduli (GPa) = 106.77682 104.55996 106.52861
#
# Poissons Ratio (x) = 0.20358 0.17581
# Poissons Ratio (y) = 0.20789 0.02265
# Poissons Ratio (z) = 0.17622 0.02223
#
# Static dielectric constant tensor:
#      x y z
#    x 3.654500 0.000000 -0.187940 
#    y 0.000000 3.282710 0.000000 
#    z -0.187940 0.000000 3.550160 
# 
# 
# High freq. dielectric constant tensor:
#      x y z
#    x 1.771180 0.000000 -0.022630 
#    y 0.000000 1.733750 0.000000 
#    z -0.022630 0.000000 1.754640 
# 
# From -- ./inp_files/23194.got.cif
#   From: 2010.03.12/outbox.cif.g09.slc.cpg/sg14_12_cif.got.tgz:23194.got - 2010.03.31 13:35:05.
