data_PCOD8126962
_publ_section_title
;
Structure prediction by ZEFSAII (Michael W. Deem and Ramdas Pophale) SiO2 
 PCOD8126962
Probable space group: P 21/C
;
_chemical_formula_sum "Si O2"
_cell_formula_units_Z 24
_cell_length_a 19.602072
_cell_length_b 10.830918
_cell_length_c 21.033164
_cell_angle_alpha 90.000000
_cell_angle_beta 166.301442
_cell_angle_gamma 90.000000
_cell_volume 1057.495843
_symmetry_space_group_name_H-M "P 21/C"
_symmetry_group_IT_number 14
_symmetry_cell_setting 'monoclinic'
loop_
_space_group_symop_operation_xyz
x,y,z
-x,1/2+y,1/2-z
-x,-y,-z
x,1/2-y,1/2+z
loop_
_atom_site_type_symbol
_atom_site_label
_atom_site_fract_x
_atom_site_fract_y
_atom_site_fract_z
Si Si1 0.530967 0.393709 0.831492
Si Si2 0.932007 0.764572 0.641016
Si Si3 0.422740 0.142728 0.562093
Si Si4 0.967205 0.742707 0.889324
Si Si5 0.200639 0.499304 0.045960
Si Si6 0.701497 0.568065 0.732136
O O1 0.220713 0.328457 0.546986
O O2 0.526279 0.497072 0.881957
O O3 0.571185 0.460194 0.800262
O O4 0.776204 0.292146 0.067224
O O5 0.701871 0.791266 0.488247
O O6 0.003190 0.890305 0.667036
O O7 0.192701 0.155016 0.297334
O O8 0.717601 0.208185 0.807137
O O9 0.768390 0.710493 0.771353
O O10 0.992243 0.613254 0.873756
O O11 0.391516 0.445513 0.278138
O O12 0.500000 0.500000 0.500000
O O13 0.000000 0.500000 0.000000
#
# Coordination Sequence:
#
# PCOD8126962 Si02
#       6
#     4   4   4   4   4   4
#     4  11  23  37  58  85 119 153 195 232 296 353
#     4  11  22  37  57  84 117 156 187 243 287 353
#     4  11  21  36  57  83 115 156 185 242 287 351
#     4  11  20  38  59  85 119 144 195 238 295 344
#     4  10  22  38  60  87 120 147 196 240 296 349
#     4  10  22  36  59  88 117 156 190 246 297 342
#
# _framework density 22.695124
#
# number of rings (size 3 to 8) (size 9 to 14) (size 15 to 20)
#    0.000    1.333    3.333    3.000    0.000    8.000 
#    0.000    0.000    0.000    6.000    0.000    0.000 
#    0.000    0.000    0.000    0.000    0.000    0.000 
#
# Total GULP energy -297510.718621 kJ/mol
# GULP energy per Si atom -12396.279943 kJ/mol
# Density = 2.264347 g / cm^3
# Si number density = 22.695124 Si / 1000 Ang^3
#
#
#
# Elastic Constant Matrix: (Units=GPa)
#
#
# Indices 1 2 3 4 5 6 
#
# 1 39.8733 12.5110 18.4290 0.0000 -18.3669 0.0000
# 2 12.5110 70.6438 3.0297 0.0000 -2.0906 0.0000
# 3 18.4290 3.0297 103.2775 0.0000 -12.6496 0.0000
# 4 0.0000 0.0000 0.0000 29.5455 0.0000 -5.4652
# 5 -18.3669 -2.0906 -12.6496 0.0000 27.3463 0.0000
# 6 0.0000 0.0000 0.0000 -5.4652 0.0000 22.9384
#
#
#
# Elastic Compliance Matrix: (Units=1/GPa)
#
#
# Indices 1 2 3 4 5 6 
#
# 1 0.040259 -0.006228 -0.003973 0.000000 0.024726 0.000000
# 2 -0.006228 0.015160 0.000314 0.000000 -0.002879 0.000000
# 3 -0.003973 0.000314 0.010663 0.000000 0.002288 0.000000
# 4 0.000000 0.000000 0.000000 0.035406 0.000000 0.008436
# 5 0.024726 -0.002879 0.002288 0.000000 0.054013 0.000000
# 6 0.000000 0.000000 0.000000 0.008436 0.000000 0.045605
#
#
# Mechanical properties :
#
#
# Convention : Reuss Voigt Hill
#
# Bulk Modulus (GPa) = 21.59423 31.30377 26.44900
# Shear Modulus (GPa) = 21.15812 27.95437 24.55624
#
# Velocity S-wave (km/s) = 3.05663 3.51341 3.29295
# Velocity P-wave (km/s) = 4.68966 5.50290 5.11247
#
# Compressibility (1/GPa) = 0.04630867
#
# Stress axis : x y z
#
# Youngs Moduli (GPa) = 24.83893 65.96388 93.78598
#
# Poissons Ratio (x) = 0.41081 0.37259
# Poissons Ratio (y) = 0.15469 -0.02945
# Poissons Ratio (z) = 0.09868 -0.02071
#
# Static dielectric constant tensor:
#      x y z
#    x 5.633410 0.000000 -0.635080 
#    y 0.000000 4.256140 0.000000 
#    z -0.635080 0.000000 3.963270 
# 
# 
# High freq. dielectric constant tensor:
#      x y z
#    x 1.873390 0.000000 -0.013470 
#    y 0.000000 1.892380 0.000000 
#    z -0.013470 0.000000 1.896730 
# 
# From -- ./inp_files/74967.got.cif
#   From: 2010.03.12/outbox.cif.g09.slc.cpg/sg14_38_cif.got.tgz:74967.got - 2010.03.31 13:35:05.
