data_PCOD8126629
_publ_section_title
;
Structure prediction by ZEFSAII (Michael W. Deem and Ramdas Pophale) SiO2 
 PCOD8126629
Probable space group: P 21/C
;
_chemical_formula_sum "Si O2"
_cell_formula_units_Z 32
_cell_length_a 6.376886
_cell_length_b 13.628359
_cell_length_c 17.299942
_cell_angle_alpha 90.000000
_cell_angle_beta 87.393240
_cell_angle_gamma 90.000000
_cell_volume 1501.921484
_symmetry_space_group_name_H-M "P 21/C"
_symmetry_group_IT_number 14
_symmetry_cell_setting 'monoclinic'
loop_
_space_group_symop_operation_xyz
x,y,z
-x,1/2+y,1/2-z
-x,-y,-z
x,1/2-y,1/2+z
loop_
_atom_site_type_symbol
_atom_site_label
_atom_site_fract_x
_atom_site_fract_y
_atom_site_fract_z
Si Si1 0.886934 0.181284 0.717976
Si Si2 0.430189 0.813451 0.689233
Si Si3 0.724671 0.234616 0.466877
Si Si4 0.446765 0.093603 0.550717
Si Si5 0.113327 0.246256 0.557834
Si Si6 0.744875 0.646644 0.671179
Si Si7 0.605204 0.603735 0.515589
Si Si8 0.463631 0.531845 0.788090
O O1 0.712568 0.262649 0.742720
O O2 0.772069 0.077228 0.701714
O O3 0.014570 0.227010 0.643751
O O4 0.034697 0.157423 0.788672
O O5 0.289164 0.825931 0.613645
O O6 0.640043 0.753105 0.668135
O O7 0.528018 0.914895 0.717692
O O8 0.640681 0.168394 0.539057
O O9 0.594187 0.332733 0.455720
O O10 0.955597 0.264748 0.489543
O O11 0.238089 0.149718 0.526621
O O12 0.407869 0.066161 0.639388
O O13 0.500000 0.000000 0.500000
O O14 0.268324 0.342595 0.557514
O O15 0.769551 0.600879 0.584748
O O16 0.585198 0.571635 0.713005
O O17 0.500000 0.500000 0.500000
#
# Coordination Sequence:
#
# PCOD8126629 Si02
#       8
#     4   4   4   4   4   4   4   4
#     4  11  23  41  66  95 132 168 215 265 322 390
#     4  10  23  41  64  90 133 170 210 265 323 383
#     4  10  21  41  64  97 129 168 211 265 324 384
#     4  11  21  39  64  96 133 162 202 260 324 392
#     4  11  23  40  69  97 129 168 214 268 324 385
#     4  10  23  44  62  93 132 171 216 268 320 382
#     4  10  24  44  69  91 128 173 224 272 318 376
#     4  11  22  41  65  94 132 171 208 263 329 387
#
# _framework density 21.306041
#
# number of rings (size 3 to 8) (size 9 to 14) (size 15 to 20)
#    0.000    1.500    3.750    0.750    0.000    4.000 
#    2.250    2.500    0.000    0.000    0.000    0.000 
#    0.000    0.000    0.000    0.000    0.000    0.000 
#
# Total GULP energy -396604.029698 kJ/mol
# GULP energy per Si atom -12393.875928 kJ/mol
# Density = 2.125755 g / cm^3
# Si number density = 21.306041 Si / 1000 Ang^3
#
#
#
# Elastic Constant Matrix: (Units=GPa)
#
#
# Indices 1 2 3 4 5 6 
#
# 1 107.2459 51.5393 36.5579 0.0000 11.7670 0.0000
# 2 51.5393 150.8155 49.3680 0.0000 0.4908 0.0000
# 3 36.5579 49.3680 93.0775 0.0000 2.5663 0.0000
# 4 0.0000 0.0000 0.0000 26.8600 0.0000 2.7056
# 5 11.7670 0.4908 2.5663 0.0000 41.2047 0.0000
# 6 0.0000 0.0000 0.0000 2.7056 0.0000 26.7997
#
#
#
# Elastic Compliance Matrix: (Units=1/GPa)
#
#
# Indices 1 2 3 4 5 6 
#
# 1 0.012246 -0.003182 -0.003032 0.000000 -0.003270 0.000000
# 2 -0.003182 0.008852 -0.003473 0.000000 0.001020 0.000000
# 3 -0.003032 -0.003473 0.013775 0.000000 0.000049 0.000000
# 4 0.000000 0.000000 0.000000 0.037613 0.000000 -0.003797
# 5 -0.003270 0.001020 0.000049 0.000000 0.025188 0.000000
# 6 0.000000 0.000000 0.000000 -0.003797 0.000000 0.037697
#
#
# Mechanical properties :
#
#
# Convention : Reuss Voigt Hill
#
# Bulk Modulus (GPa) = 64.52110 69.56328 67.04219
# Shear Modulus (GPa) = 31.26747 33.21779 32.24263
#
# Velocity S-wave (km/s) = 3.83500 3.95280 3.89435
# Velocity P-wave (km/s) = 7.06813 7.31801 7.19415
#
# Compressibility (1/GPa) = 0.01549881
#
# Stress axis : x y z
#
# Youngs Moduli (GPa) = 81.66085 112.97462 72.59276
#
# Poissons Ratio (x) = 0.35945 0.22010
# Poissons Ratio (y) = 0.25982 0.25213
# Poissons Ratio (z) = 0.24760 0.39239
#
# Static dielectric constant tensor:
#      x y z
#    x 3.915520 0.000000 0.289110 
#    y 0.000000 -2.632370 0.000000 
#    z 0.289110 0.000000 5.049330 
# 
# 
# High freq. dielectric constant tensor:
#      x y z
#    x 1.833780 0.000000 0.000050 
#    y 0.000000 1.829910 0.000000 
#    z 0.000050 0.000000 1.841360 
# 
# From -- ./inp_files/53489.got.cif
#   From: 2010.03.12/outbox.cif.g09.slc.cpg/sg14_27_cif.got.tgz:53489.got - 2010.03.31 13:35:05.
