data_PCOD8126595
_publ_section_title
;
Structure prediction by ZEFSAII (Michael W. Deem and Ramdas Pophale) SiO2 
 PCOD8126595
Probable space group: P 21/C
;
_chemical_formula_sum "Si O2"
_cell_formula_units_Z 28
_cell_length_a 12.445987
_cell_length_b 8.302382
_cell_length_c 13.855535
_cell_angle_alpha 90.000000
_cell_angle_beta 64.361454
_cell_angle_gamma 90.000000
_cell_volume 1290.747054
_symmetry_space_group_name_H-M "P 21/C"
_symmetry_group_IT_number 14
_symmetry_cell_setting 'monoclinic'
loop_
_space_group_symop_operation_xyz
x,y,z
-x,1/2+y,1/2-z
-x,-y,-z
x,1/2-y,1/2+z
loop_
_atom_site_type_symbol
_atom_site_label
_atom_site_fract_x
_atom_site_fract_y
_atom_site_fract_z
Si Si1 0.284294 0.302124 0.003470
Si Si2 0.873153 0.830653 0.785179
Si Si3 0.886986 0.204495 0.750528
Si Si4 0.882364 0.389021 0.561719
Si Si5 0.478538 0.341959 0.069722
Si Si6 0.292823 0.150530 0.799634
Si Si7 0.741163 0.318731 0.966419
O O1 0.319256 0.262692 0.881010
O O2 0.250937 0.490782 0.017866
O O3 0.171613 0.199561 0.086876
O O4 0.390198 0.242402 0.034376
O O5 0.794498 0.736983 0.739632
O O6 0.004279 0.758845 0.723907
O O7 0.871795 0.015051 0.757665
O O8 0.911371 0.259733 0.632598
O O9 0.769874 0.288853 0.842114
O O10 0.767977 0.488736 0.640162
O O11 0.839333 0.286010 0.486208
O O12 0.000000 0.500000 0.500000
O O13 0.417698 0.382344 0.196505
O O14 0.605952 0.256441 0.039884
O O15 0.500000 0.500000 0.000000
#
# Coordination Sequence:
#
# PCOD8126595 Si02
#       7
#     4   4   4   4   4   4   4
#     4  10  21  41  63  91 124 160 207 258 311 375
#     4  11  23  40  63  91 122 163 206 256 317 377
#     4  12  23  40  62  89 124 161 203 258 314 375
#     4  12  25  41  64  96 128 166 214 262 318 385
#     4   9  21  40  62  89 124 164 208 258 313 373
#     4  11  22  40  63  89 126 167 207 262 315 369
#     4  11  23  40  63  93 125 165 210 258 315 380
#
# _framework density 21.692862000000002
#
# number of rings (size 3 to 8) (size 9 to 14) (size 15 to 20)
#    0.000    1.143    0.000    8.571    0.000    3.429 
#    0.000   10.714    0.000    0.000    0.000    0.000 
#    0.000    0.000    0.000    0.000    0.000    0.000 
#
# Total GULP energy -347092.945794 kJ/mol
# GULP energy per Si atom -12396.176636 kJ/mol
# Density = 2.164349 g / cm^3
# Si number density = 21.692862 Si / 1000 Ang^3
#
#
#
# Elastic Constant Matrix: (Units=GPa)
#
#
# Indices 1 2 3 4 5 6 
#
# 1 77.1295 3.1363 13.2373 0.0000 -13.7050 0.0000
# 2 3.1363 74.3467 -0.4972 0.0000 -5.9508 0.0000
# 3 13.2373 -0.4972 101.5917 0.0000 -9.6031 0.0000
# 4 0.0000 0.0000 0.0000 43.4568 0.0000 1.2701
# 5 -13.7050 -5.9508 -9.6031 0.0000 39.5475 0.0000
# 6 0.0000 0.0000 0.0000 1.2701 0.0000 28.2558
#
#
#
# Elastic Compliance Matrix: (Units=1/GPa)
#
#
# Indices 1 2 3 4 5 6 
#
# 1 0.014012 -0.000242 -0.001404 0.000000 0.004478 0.000000
# 2 -0.000242 0.013626 0.000291 0.000000 0.002037 0.000000
# 3 -0.001404 0.000291 0.010220 0.000000 0.002039 0.000000
# 4 0.000000 0.000000 0.000000 0.023042 0.000000 -0.001036
# 5 0.004478 0.002037 0.002039 0.000000 0.027640 0.000000
# 6 0.000000 0.000000 0.000000 -0.001036 0.000000 0.035437
#
#
# Mechanical properties :
#
#
# Convention : Reuss Voigt Hill
#
# Bulk Modulus (GPa) = 28.45095 31.64673 30.04884
# Shear Modulus (GPa) = 36.12659 38.06481 37.09570
#
# Velocity S-wave (km/s) = 4.08532 4.19348 4.13975
# Velocity P-wave (km/s) = 5.94953 6.16986 6.06070
#
# Compressibility (1/GPa) = 0.03514821
#
# Stress axis : x y z
#
# Youngs Moduli (GPa) = 71.36888 73.39072 97.84374
#
# Poissons Ratio (x) = 0.01776 0.13733
# Poissons Ratio (y) = 0.01727 -0.02845
# Poissons Ratio (z) = 0.10017 -0.02134
#
# Static dielectric constant tensor:
#      x y z
#    x 4.623570 0.000000 -0.340150 
#    y 0.000000 3.738560 0.000000 
#    z -0.340150 0.000000 4.467730 
# 
# 
# High freq. dielectric constant tensor:
#      x y z
#    x 1.853100 0.000000 -0.005140 
#    y 0.000000 1.844250 0.000000 
#    z -0.005140 0.000000 1.873540 
# 
# From -- ./inp_files/43299.got.cif
#   From: 2010.03.12/outbox.cif.g09.slc.cpg/sg14_22_cif.got.tgz:43299.got - 2010.03.31 13:35:05.
