data_PCOD8126194
_publ_section_title
;
Structure prediction by ZEFSAII (Michael W. Deem and Ramdas Pophale) SiO2 
 PCOD8126194
Probable space group: P 21/C
;
_chemical_formula_sum "Si O2"
_cell_formula_units_Z 16
_cell_length_a 8.607377
_cell_length_b 4.947179
_cell_length_c 17.512883
_cell_angle_alpha 90.000000
_cell_angle_beta 73.761737
_cell_angle_gamma 90.000000
_cell_volume 715.988098
_symmetry_space_group_name_H-M "P 21/C"
_symmetry_group_IT_number 14
_symmetry_cell_setting 'monoclinic'
loop_
_space_group_symop_operation_xyz
x,y,z
-x,1/2+y,1/2-z
-x,-y,-z
x,1/2-y,1/2+z
loop_
_atom_site_type_symbol
_atom_site_label
_atom_site_fract_x
_atom_site_fract_y
_atom_site_fract_z
Si Si1 0.598002 0.104786 0.716237
Si Si2 0.146184 0.261534 0.053766
Si Si3 0.212484 0.759570 0.951816
Si Si4 0.892607 0.590844 0.275708
O O1 0.535872 0.369147 0.769717
O O2 0.639078 0.194754 0.624403
O O3 0.754468 0.986775 0.735830
O O4 0.189939 0.191050 0.134611
O O5 0.952392 0.257744 0.073757
O O6 0.212210 0.556559 0.023704
O O7 0.232843 0.057663 0.983224
O O8 0.006157 0.333217 0.276772
#
# Coordination Sequence:
#
# PCOD8126194 Si02
#       4
#     4   4   4   4
#     4  12  26  44  64  96 139 176 207 266 339 396
#     4  10  21  38  67  96 122 164 222 279 304 373
#     4  10  21  40  63  95 128 168 213 265 330 374
#     4  12  24  42  68 100 128 167 230 271 311 382
#
# _framework density 22.34674
#
# number of rings (size 3 to 8) (size 9 to 14) (size 15 to 20)
#    0.000    1.000    2.500    4.500    7.000    0.000 
#    0.000    7.500    0.000    0.000    0.000    0.000 
#    0.000    0.000    0.000    0.000    0.000    0.000 
#
# Total GULP energy -198509.404264 kJ/mol
# GULP energy per Si atom -12406.837766 kJ/mol
# Density = 2.229588 g / cm^3
# Si number density = 22.346740 Si / 1000 Ang^3
#
#
#
# Elastic Constant Matrix: (Units=GPa)
#
#
# Indices 1 2 3 4 5 6 
#
# 1 39.5721 21.2417 32.4393 0.0000 -8.7623 0.0000
# 2 21.2417 117.5585 20.2979 0.0000 -14.9205 0.0000
# 3 32.4393 20.2979 107.9066 0.0000 -7.9558 0.0000
# 4 0.0000 0.0000 0.0000 24.3740 0.0000 -1.2455
# 5 -8.7623 -14.9205 -7.9558 0.0000 22.2520 0.0000
# 6 0.0000 0.0000 0.0000 -1.2455 0.0000 34.0620
#
#
#
# Elastic Compliance Matrix: (Units=1/GPa)
#
#
# Indices 1 2 3 4 5 6 
#
# 1 0.037371 -0.003968 -0.009859 0.000000 0.008530 0.000000
# 2 -0.003968 0.009907 -0.000304 0.000000 0.004972 0.000000
# 3 -0.009859 -0.000304 0.012312 0.000000 0.000315 0.000000
# 4 0.000000 0.000000 0.000000 0.041104 0.000000 0.001503
# 5 0.008530 0.004972 0.000315 0.000000 0.051745 0.000000
# 6 0.000000 0.000000 0.000000 0.001503 0.000000 0.029413
#
#
# Mechanical properties :
#
#
# Convention : Reuss Voigt Hill
#
# Bulk Modulus (GPa) = 31.92108 45.88832 38.90470
# Shear Modulus (GPa) = 22.66987 28.87483 25.77235
#
# Velocity S-wave (km/s) = 3.18851 3.59852 3.39970
# Velocity P-wave (km/s) = 5.27929 6.15183 5.73219
#
# Compressibility (1/GPa) = 0.03132726
#
# Stress axis : x y z
#
# Youngs Moduli (GPa) = 26.75862 100.94040 81.22327
#
# Poissons Ratio (x) = 0.40049 0.80081
# Poissons Ratio (y) = 0.10617 0.02471
# Poissons Ratio (z) = 0.26382 0.03071
#
# Static dielectric constant tensor:
#      x y z
#    x 3.665230 0.000000 -0.205110 
#    y 0.000000 4.375970 0.000000 
#    z -0.205110 0.000000 3.973920 
# 
# 
# High freq. dielectric constant tensor:
#      x y z
#    x 1.842830 0.000000 -0.009050 
#    y 0.000000 1.904760 0.000000 
#    z -0.009050 0.000000 1.888870 
# 
# From -- ./inp_files/38427.got.cif
#   From: 2010.03.12/outbox.cif.g09.slc.cpg/sg14_20_cif.got.tgz:38427.got - 2010.03.31 13:35:05.
