data_PCOD8126952
_publ_section_title
;
Structure prediction by ZEFSAII (Michael W. Deem and Ramdas Pophale) SiO2 
 PCOD8126952
Probable space group: P 21/C
;
_chemical_formula_sum "Si O2"
_cell_formula_units_Z 28
_cell_length_a 25.057285
_cell_length_b 10.628866
_cell_length_c 23.924895
_cell_angle_alpha 90.000000
_cell_angle_beta 11.705639
_cell_angle_gamma 90.000000
_cell_volume 1292.760501
_symmetry_space_group_name_H-M "P 21/C"
_symmetry_group_IT_number 14
_symmetry_cell_setting 'monoclinic'
loop_
_space_group_symop_operation_xyz
x,y,z
-x,1/2+y,1/2-z
-x,-y,-z
x,1/2-y,1/2+z
loop_
_atom_site_type_symbol
_atom_site_label
_atom_site_fract_x
_atom_site_fract_y
_atom_site_fract_z
Si Si1 0.061457 0.372199 0.221285
Si Si2 0.425503 0.786209 0.296486
Si Si3 0.631428 0.730720 0.759558
Si Si4 0.747165 0.980346 0.585581
Si Si5 0.177934 0.618158 0.162501
Si Si6 0.291701 0.339509 0.701784
Si Si7 0.821190 0.095483 0.621097
O O1 0.282104 0.265019 0.996614
O O2 0.055708 0.437535 0.165914
O O3 0.133315 0.471027 0.196106
O O4 0.775347 0.312363 0.527238
O O5 0.452246 0.915829 0.234775
O O6 0.308754 0.810849 0.476857
O O7 0.673706 0.743409 0.782520
O O8 0.895130 0.676793 0.462875
O O9 0.576569 0.866422 0.786755
O O10 0.379692 0.640258 0.007226
O O11 0.910943 0.045431 0.468073
O O12 0.236659 0.480897 0.777990
O O13 0.546780 0.328282 0.400247
O O14 0.040753 0.308374 0.919948
#
# Coordination Sequence:
#
# PCOD8126952 Si02
#       7
#     4   4   4   4   4   4   4
#     4  11  23  38  53  79 112 148 185 220 253 324
#     4  11  22  37  53  79 108 148 182 220 261 317
#     4  11  20  36  56  85 109 146 173 222 276 318
#     4  10  22  35  58  80 115 143 177 220 276 321
#     4  11  21  35  55  78 109 145 184 216 265 318
#     4   9  18  31  51  76 111 132 173 214 268 331
#     4   9  18  32  48  79 106 140 166 216 271 325
#
# _framework density 21.659078000000001
#
# number of rings (size 3 to 8) (size 9 to 14) (size 15 to 20)
#    0.000    1.714    2.857    1.714    0.000   10.286 
#    0.000    0.000    0.000    0.000    0.000   20.000 
#    0.000    0.000    0.000    0.000    0.000    0.000 
#
# Total GULP energy -347118.937856 kJ/mol
# GULP energy per Si atom -12397.104923 kJ/mol
# Density = 2.160978 g / cm^3
# Si number density = 21.659078 Si / 1000 Ang^3
#
#
#
# Elastic Constant Matrix: (Units=GPa)
#
#
# Indices 1 2 3 4 5 6 
#
# 1 47.9188 9.3902 27.5199 0.0000 -9.8681 0.0000
# 2 9.3902 35.4595 10.1600 0.0000 3.5207 0.0000
# 3 27.5199 10.1600 104.4650 0.0000 -17.7165 0.0000
# 4 0.0000 0.0000 0.0000 14.4388 0.0000 -4.5403
# 5 -9.8681 3.5207 -17.7165 0.0000 27.1874 0.0000
# 6 0.0000 0.0000 0.0000 -4.5403 0.0000 17.5026
#
#
#
# Elastic Compliance Matrix: (Units=1/GPa)
#
#
# Indices 1 2 3 4 5 6 
#
# 1 0.026521 -0.006239 -0.005183 0.000000 0.007057 0.000000
# 2 -0.006239 0.031467 -0.002802 0.000000 -0.008165 0.000000
# 3 -0.005183 -0.002802 0.012314 0.000000 0.006506 0.000000
# 4 0.000000 0.000000 0.000000 0.075409 0.000000 0.019562
# 5 0.007057 -0.008165 0.006506 0.000000 0.044640 0.000000
# 6 0.000000 0.000000 0.000000 0.019562 0.000000 0.062209
#
#
# Mechanical properties :
#
#
# Convention : Reuss Voigt Hill
#
# Bulk Modulus (GPa) = 23.89216 31.33150 27.61183
# Shear Modulus (GPa) = 16.95159 21.21064 19.08111
#
# Velocity S-wave (km/s) = 2.80063 3.13276 2.97134
# Velocity P-wave (km/s) = 4.63821 5.25193 4.95458
#
# Compressibility (1/GPa) = 0.04185474
#
# Stress axis : x y z
#
# Youngs Moduli (GPa) = 37.70598 31.77968 81.20970
#
# Poissons Ratio (x) = 0.19826 0.42092
# Poissons Ratio (y) = 0.23524 0.22752
# Poissons Ratio (z) = 0.19543 0.08903
#
# Static dielectric constant tensor:
#      x y z
#    x 3.926010 0.000000 -0.202070 
#    y 0.000000 3.770410 0.000000 
#    z -0.202070 0.000000 3.983930 
# 
# 
# High freq. dielectric constant tensor:
#      x y z
#    x 1.843330 0.000000 -0.012680 
#    y 0.000000 1.818960 0.000000 
#    z -0.012680 0.000000 1.848360 
# 
# From -- ./inp_files/21731.got.cif
#   From: 2010.03.12/outbox.cif.g09.slc.cpg/sg14_11_cif.got.tgz:21731.got - 2010.03.31 13:35:05.
