data_PCOD8126085
_publ_section_title
;
Structure prediction by ZEFSAII (Michael W. Deem and Ramdas Pophale) SiO2 
 PCOD8126085
Probable space group: P 21/C
;
_chemical_formula_sum "Si O2"
_cell_formula_units_Z 24
_cell_length_a 10.528121
_cell_length_b 8.368999
_cell_length_c 12.831315
_cell_angle_alpha 90.000000
_cell_angle_beta 90.579494
_cell_angle_gamma 90.000000
_cell_volume 1130.507211
_symmetry_space_group_name_H-M "P 21/C"
_symmetry_group_IT_number 14
_symmetry_cell_setting 'monoclinic'
loop_
_space_group_symop_operation_xyz
x,y,z
-x,1/2+y,1/2-z
-x,-y,-z
x,1/2-y,1/2+z
loop_
_atom_site_type_symbol
_atom_site_label
_atom_site_fract_x
_atom_site_fract_y
_atom_site_fract_z
Si Si1 0.620560 0.480773 0.329317
Si Si2 0.869925 0.334477 0.412592
Si Si3 0.315755 0.248594 0.022719
Si Si4 0.142546 0.462880 0.386837
Si Si5 0.232961 0.980085 0.656722
Si Si6 0.490076 0.158214 0.358138
O O1 0.760290 0.403681 0.336490
O O2 0.606135 0.605749 0.423157
O O3 0.510658 0.346849 0.334282
O O4 0.607143 0.579692 0.223491
O O5 0.853616 0.387711 0.532879
O O6 0.860791 0.141941 0.404909
O O7 0.000379 0.400764 0.367274
O O8 0.225864 0.345286 0.103201
O O9 0.223881 0.182468 0.932366
O O10 0.422622 0.359521 0.969973
O O11 0.198444 0.518559 0.277659
O O12 0.377593 0.930236 0.642916
#
# Coordination Sequence:
#
# PCOD8126085 Si02
#       6
#     4   4   4   4   4   4
#     4  10  21  38  59  86 119 163 202 250 309 361
#     4   9  23  42  63  87 120 160 204 256 306 361
#     4  11  22  37  59  87 122 160 202 252 308 364
#     4  10  22  43  62  87 124 160 203 256 309 362
#     4  11  24  39  63  93 120 161 207 251 307 367
#     4  11  22  37  58  87 122 158 203 251 304 367
#
# _framework density 21.229410999999999
#
# number of rings (size 3 to 8) (size 9 to 14) (size 15 to 20)
#    0.000    1.667    0.000    4.000    0.000   11.333 
#    0.000    0.000    0.000    0.000    0.000    0.000 
#    0.000    0.000    0.000    0.000    0.000    0.000 
#
# Total GULP energy -297616.446947 kJ/mol
# GULP energy per Si atom -12400.685289 kJ/mol
# Density = 2.118109 g / cm^3
# Si number density = 21.229411 Si / 1000 Ang^3
#
#
#
# Elastic Constant Matrix: (Units=GPa)
#
#
# Indices 1 2 3 4 5 6 
#
# 1 51.5330 20.4246 22.3654 0.0000 -4.3141 0.0000
# 2 20.4246 108.2776 44.4921 0.0000 -0.0072 0.0000
# 3 22.3654 44.4921 90.1075 0.0000 -18.4637 0.0000
# 4 0.0000 0.0000 0.0000 40.1777 0.0000 5.4954
# 5 -4.3141 -0.0072 -18.4637 0.0000 31.1654 0.0000
# 6 0.0000 0.0000 0.0000 5.4954 0.0000 27.7414
#
#
#
# Elastic Compliance Matrix: (Units=1/GPa)
#
#
# Indices 1 2 3 4 5 6 
#
# 1 0.022251 -0.002483 -0.004172 0.000000 0.000608 0.000000
# 2 -0.002483 0.012285 -0.006282 0.000000 -0.004063 0.000000
# 3 -0.004172 -0.006282 0.017205 0.000000 0.009614 0.000000
# 4 0.000000 0.000000 0.000000 0.025583 0.000000 -0.005068
# 5 0.000608 -0.004063 0.009614 0.000000 0.037866 0.000000
# 6 0.000000 0.000000 0.000000 -0.005068 0.000000 0.037051
#
#
# Mechanical properties :
#
#
# Convention : Reuss Voigt Hill
#
# Bulk Modulus (GPa) = 38.65992 47.16470 42.91231
# Shear Modulus (GPa) = 26.77558 30.65930 28.71744
#
# Velocity S-wave (km/s) = 3.55526 3.80437 3.68192
# Velocity P-wave (km/s) = 5.92480 6.44690 6.19136
#
# Compressibility (1/GPa) = 0.02586658
#
# Stress axis : x y z
#
# Youngs Moduli (GPa) = 44.94228 81.40054 58.12126
#
# Poissons Ratio (x) = 0.20209 0.24251
# Poissons Ratio (y) = 0.11158 0.36513
# Poissons Ratio (z) = 0.18752 0.51137
#
# Static dielectric constant tensor:
#      x y z
#    x 3.820400 0.000000 0.043230 
#    y 0.000000 4.120430 0.000000 
#    z 0.043230 0.000000 3.733590 
# 
# 
# High freq. dielectric constant tensor:
#      x y z
#    x 1.831130 0.000000 0.001690 
#    y 0.000000 1.840410 0.000000 
#    z 0.001690 0.000000 1.829930 
# 
# From -- ./inp_files/28114.got.cif
#   From: 2010.03.12/outbox.cif.g09.slc.cpg/sg14_15_cif.got.tgz:28114.got - 2010.03.31 13:35:05.
