data_PCOD8126628
_publ_section_title
;
Structure prediction by ZEFSAII (Michael W. Deem and Ramdas Pophale) SiO2 
 PCOD8126628
Probable space group: P 21/C
;
_chemical_formula_sum "Si O2"
_cell_formula_units_Z 20
_cell_length_a 12.201205
_cell_length_b 7.655483
_cell_length_c 18.556342
_cell_angle_alpha 90.000000
_cell_angle_beta 31.902657
_cell_angle_gamma 90.000000
_cell_volume 915.997647
_symmetry_space_group_name_H-M "P 21/C"
_symmetry_group_IT_number 14
_symmetry_cell_setting 'monoclinic'
loop_
_space_group_symop_operation_xyz
x,y,z
-x,1/2+y,1/2-z
-x,-y,-z
x,1/2-y,1/2+z
loop_
_atom_site_type_symbol
_atom_site_label
_atom_site_fract_x
_atom_site_fract_y
_atom_site_fract_z
Si Si1 0.668641 0.111796 0.446746
Si Si2 0.330088 0.347734 0.404972
Si Si3 0.373227 0.898731 0.131132
Si Si4 0.646955 0.246685 0.108089
Si Si5 0.937972 0.966534 0.410555
O O1 0.752207 0.244472 0.339740
O O2 0.567243 0.223030 0.570178
O O3 0.500000 0.000000 0.500000
O O4 0.855330 0.993975 0.374126
O O5 0.472713 0.321589 0.395544
O O6 0.454119 0.278582 0.267102
O O7 0.266353 0.549917 0.430972
O O8 0.126456 0.226922 0.526454
O O9 0.184967 0.001616 0.275129
O O10 0.500000 0.000000 0.000000
O O11 0.832764 0.384938 0.020647
#
# Coordination Sequence:
#
# PCOD8126628 Si02
#       5
#     4   4   4   4   4
#     4  10  21  41  64  96 130 169 216 274 319 389
#     4  12  22  45  68  96 133 176 216 272 332 385
#     4  12  24  42  69  95 131 175 219 271 327 396
#     4  10  22  43  68  93 137 171 214 275 324 392
#     4  10  25  41  67  98 133 170 221 271 326 389
#
# _framework density 21.834116000000002
#
# number of rings (size 3 to 8) (size 9 to 14) (size 15 to 20)
#    1.200    0.000    6.000    0.000    2.800    0.800 
#    3.600    1.000    0.000    0.000    0.000    0.000 
#    0.000    0.000    0.000    0.000    0.000    0.000 
#
# Total GULP energy -247822.821904 kJ/mol
# GULP energy per Si atom -12391.141095 kJ/mol
# Density = 2.178442 g / cm^3
# Si number density = 21.834116 Si / 1000 Ang^3
#
#
#
# Elastic Constant Matrix: (Units=GPa)
#
#
# Indices 1 2 3 4 5 6 
#
# 1 38.5841 4.8756 19.4263 0.0000 14.1043 0.0000
# 2 4.8756 147.1533 40.8532 0.0000 -0.8729 0.0000
# 3 19.4263 40.8532 131.6948 0.0000 -5.9880 0.0000
# 4 0.0000 0.0000 0.0000 37.3219 0.0000 10.3560
# 5 14.1043 -0.8729 -5.9880 0.0000 30.7441 0.0000
# 6 0.0000 0.0000 0.0000 10.3560 0.0000 30.9371
#
#
#
# Elastic Compliance Matrix: (Units=1/GPa)
#
#
# Indices 1 2 3 4 5 6 
#
# 1 0.035302 0.000429 -0.006131 0.000000 -0.017377 0.000000
# 2 0.000429 0.007443 -0.002393 0.000000 -0.000452 0.000000
# 3 -0.006131 -0.002393 0.009448 0.000000 0.004585 0.000000
# 4 0.000000 0.000000 0.000000 0.029538 0.000000 -0.009888
# 5 -0.017377 -0.000452 0.004585 0.000000 0.041379 0.000000
# 6 0.000000 0.000000 0.000000 -0.009888 0.000000 0.035634
#
#
# Mechanical properties :
#
#
# Convention : Reuss Voigt Hill
#
# Bulk Modulus (GPa) = 27.77384 49.74914 38.76149
# Shear Modulus (GPa) = 26.74752 36.61908 31.68330
#
# Velocity S-wave (km/s) = 3.50384 4.09974 3.81345
# Velocity P-wave (km/s) = 5.39604 6.72644 6.09763
#
# Compressibility (1/GPa) = 0.03600510
#
# Stress axis : x y z
#
# Youngs Moduli (GPa) = 28.32699 134.35408 105.83826
#
# Poissons Ratio (x) = -0.05768 0.64886
# Poissons Ratio (y) = -0.01216 0.25325
# Poissons Ratio (z) = 0.17366 0.32148
#
# Static dielectric constant tensor:
#      x y z
#    x 4.199500 0.000000 0.259300 
#    y 0.000000 4.516410 0.000000 
#    z 0.259300 0.000000 3.771710 
# 
# 
# High freq. dielectric constant tensor:
#      x y z
#    x 1.845420 0.000000 0.021320 
#    y 0.000000 1.869520 0.000000 
#    z 0.021320 0.000000 1.845630 
# 
# From -- ./inp_files/57217.got.cif
#   From: 2010.03.12/outbox.cif.g09.slc.cpg/sg14_29_cif.got.tgz:57217.got - 2010.03.31 13:35:05.
