data_PCOD8126094
_publ_section_title
;
Structure prediction by ZEFSAII (Michael W. Deem and Ramdas Pophale) SiO2 
 PCOD8126094
Probable space group: P 21/C
;
_chemical_formula_sum "Si O2"
_cell_formula_units_Z 32
_cell_length_a 14.285626
_cell_length_b 8.830812
_cell_length_c 23.525986
_cell_angle_alpha 90.000000
_cell_angle_beta 149.629187
_cell_angle_gamma 90.000000
_cell_volume 1500.548168
_symmetry_space_group_name_H-M "P 21/C"
_symmetry_group_IT_number 14
_symmetry_cell_setting 'monoclinic'
loop_
_space_group_symop_operation_xyz
x,y,z
-x,1/2+y,1/2-z
-x,-y,-z
x,1/2-y,1/2+z
loop_
_atom_site_type_symbol
_atom_site_label
_atom_site_fract_x
_atom_site_fract_y
_atom_site_fract_z
Si Si1 0.903134 0.622789 0.174520
Si Si2 0.476394 0.984628 0.873715
Si Si3 0.355916 0.950759 0.544888
Si Si4 0.146065 0.055545 0.878031
Si Si5 0.678787 0.723244 0.167590
Si Si6 0.640699 0.185906 0.744826
Si Si7 0.701675 0.183318 0.903751
Si Si8 0.058006 0.450394 0.621573
O O1 0.956892 0.782431 0.174926
O O2 0.768532 0.665182 0.156603
O O3 0.089122 0.537902 0.291912
O O4 0.810462 0.516908 0.079097
O O5 0.340851 0.094998 0.838559
O O6 0.567808 0.070274 0.868001
O O7 0.357638 0.843216 0.788797
O O8 0.632915 0.926662 0.000161
O O9 0.476522 0.851885 0.564303
O O10 0.272924 0.842380 0.550216
O O11 0.472315 0.085590 0.633774
O O12 0.070895 0.963173 0.891213
O O13 0.787175 0.673502 0.281670
O O14 0.606018 0.216448 0.793193
O O15 0.840655 0.105651 0.842376
O O16 0.906210 0.110803 0.996881
#
# Coordination Sequence:
#
# PCOD8126094 Si02
#       8
#     4   4   4   4   4   4   4   4
#     4  11  22  38  60  86 116 157 195 237 299 356
#     4  10  21  40  58  91 121 151 199 248 291 350
#     4  10  21  38  60  87 119 151 198 245 285 358
#     4  10  23  38  58  86 118 154 195 240 300 352
#     4   9  21  37  59  83 119 157 190 239 299 355
#     4  11  20  39  61  90 116 156 202 246 293 340
#     4  10  21  38  64  83 119 162 196 242 298 346
#     4   9  21  40  57  85 120 157 196 244 294 348
#
# _framework density 21.325541000000001
#
# number of rings (size 3 to 8) (size 9 to 14) (size 15 to 20)
#    0.000    2.000    1.250    1.500    7.000    1.500 
#    0.000    0.625    0.000    0.000    0.000    0.000 
#    0.000    0.000    0.000    0.000    0.000    0.000 
#
# Total GULP energy -396707.654970 kJ/mol
# GULP energy per Si atom -12397.114218 kJ/mol
# Density = 2.127700 g / cm^3
# Si number density = 21.325541 Si / 1000 Ang^3
#
#
#
# Elastic Constant Matrix: (Units=GPa)
#
#
# Indices 1 2 3 4 5 6 
#
# 1 42.7241 16.1622 21.7685 0.0000 -11.0819 0.0000
# 2 16.1622 133.2809 38.0158 0.0000 -10.3071 0.0000
# 3 21.7685 38.0158 88.0973 0.0000 -18.5121 0.0000
# 4 0.0000 0.0000 0.0000 32.1224 0.0000 -2.4712
# 5 -11.0819 -10.3071 -18.5121 0.0000 28.6597 0.0000
# 6 0.0000 0.0000 0.0000 -2.4712 0.0000 24.5388
#
#
#
# Elastic Compliance Matrix: (Units=1/GPa)
#
#
# Indices 1 2 3 4 5 6 
#
# 1 0.028320 -0.001495 -0.004819 0.000000 0.007300 0.000000
# 2 -0.001495 0.008651 -0.003276 0.000000 0.000417 0.000000
# 3 -0.004819 -0.003276 0.015408 0.000000 0.006911 0.000000
# 4 0.000000 0.000000 0.000000 0.031374 0.000000 0.003160
# 5 0.007300 0.000417 0.006911 0.000000 0.042329 0.000000
# 6 0.000000 0.000000 0.000000 0.003160 0.000000 0.041070
#
#
# Mechanical properties :
#
#
# Convention : Reuss Voigt Hill
#
# Bulk Modulus (GPa) = 30.12113 46.22170 38.17141
# Shear Modulus (GPa) = 25.32959 29.60792 27.46875
#
# Velocity S-wave (km/s) = 3.45013 3.73014 3.59286
# Velocity P-wave (km/s) = 5.47962 6.34612 5.92872
#
# Compressibility (1/GPa) = 0.03319929
#
# Stress axis : x y z
#
# Youngs Moduli (GPa) = 35.31028 115.59463 64.90318
#
# Poissons Ratio (x) = 0.17285 0.31274
# Poissons Ratio (y) = 0.05280 0.21262
# Poissons Ratio (z) = 0.17014 0.37868
#
# Static dielectric constant tensor:
#      x y z
#    x 3.538600 0.000000 -0.077200 
#    y 0.000000 3.986150 0.000000 
#    z -0.077200 0.000000 4.059980 
# 
# 
# High freq. dielectric constant tensor:
#      x y z
#    x 1.816030 0.000000 -0.008490 
#    y 0.000000 1.843530 0.000000 
#    z -0.008490 0.000000 1.842180 
# 
# From -- ./inp_files/73880.got.cif
#   From: 2010.03.12/outbox.cif.g09.slc.cpg/sg14_37_cif.got.tgz:73880.got - 2010.03.31 13:35:05.
