data_PCOD8126477
_publ_section_title
;
Structure prediction by ZEFSAII (Michael W. Deem and Ramdas Pophale) SiO2 
 PCOD8126477
Probable space group: P 21/C
;
_chemical_formula_sum "Si O2"
_cell_formula_units_Z 28
_cell_length_a 15.173717
_cell_length_b 16.311118
_cell_length_c 9.119714
_cell_angle_alpha 90.000000
_cell_angle_beta 144.841976
_cell_angle_gamma 90.000000
_cell_volume 1299.732143
_symmetry_space_group_name_H-M "P 21/C"
_symmetry_group_IT_number 14
_symmetry_cell_setting 'monoclinic'
loop_
_space_group_symop_operation_xyz
x,y,z
-x,1/2+y,1/2-z
-x,-y,-z
x,1/2-y,1/2+z
loop_
_atom_site_type_symbol
_atom_site_label
_atom_site_fract_x
_atom_site_fract_y
_atom_site_fract_z
Si Si1 0.586960 0.062269 0.797710
Si Si2 0.748813 0.133723 0.274054
Si Si3 0.982153 0.774984 0.474847
Si Si4 0.215181 0.202684 0.073276
Si Si5 0.186378 0.879663 0.307567
Si Si6 0.570947 0.201958 0.550531
Si Si7 0.735731 0.530541 0.246148
O O1 0.596252 0.151936 0.735290
O O2 0.411255 0.034153 0.561283
O O3 0.685860 0.996424 0.842023
O O4 0.647847 0.067114 0.048362
O O5 0.882868 0.157761 0.340301
O O6 0.815363 0.102244 0.519832
O O7 0.648360 0.211491 0.181599
O O8 0.059183 0.684907 0.581544
O O9 0.860230 0.778957 0.441125
O O10 0.882368 0.799526 0.202812
O O11 0.392056 0.216234 0.275356
O O12 0.187559 0.119476 0.130785
O O13 0.354147 0.847771 0.482963
O O14 0.150027 0.965425 0.174264
#
# Coordination Sequence:
#
# PCOD8126477 Si02
#       7
#     4   4   4   4   4   4   4
#     4   9  19  38  63  90 125 159 210 252 305 359
#     4  11  21  37  64  95 119 165 209 252 302 370
#     4  11  24  41  60  93 126 161 206 257 305 374
#     4  11  24  41  63  91 125 159 210 257 315 352
#     4  10  21  40  65  88 125 164 207 247 313 373
#     4   9  20  36  64  91 120 163 209 262 301 357
#     4   9  21  41  62  88 122 167 199 257 308 367
#
# _framework density 21.542901000000001
#
# number of rings (size 3 to 8) (size 9 to 14) (size 15 to 20)
#    0.000    2.000    1.429    2.571   10.000    1.143 
#    0.000    2.143    0.000    0.000    0.000    0.000 
#    0.000    0.000    0.000    0.000    0.000    0.000 
#
# Total GULP energy -347010.661758 kJ/mol
# GULP energy per Si atom -12393.237920 kJ/mol
# Density = 2.149387 g / cm^3
# Si number density = 21.542901 Si / 1000 Ang^3
#
#
#
# Elastic Constant Matrix: (Units=GPa)
#
#
# Indices 1 2 3 4 5 6 
#
# 1 66.1876 17.3647 19.9581 0.0000 11.3247 0.0000
# 2 17.3647 32.7880 19.5844 0.0000 -7.1974 0.0000
# 3 19.9581 19.5844 98.1095 0.0000 -3.7470 0.0000
# 4 0.0000 0.0000 0.0000 20.0668 0.0000 -0.1056
# 5 11.3247 -7.1974 -3.7470 0.0000 35.0972 0.0000
# 6 0.0000 0.0000 0.0000 -0.1056 0.0000 21.8009
#
#
#
# Elastic Compliance Matrix: (Units=1/GPa)
#
#
# Indices 1 2 3 4 5 6 
#
# 1 0.020347 -0.011472 -0.002199 0.000000 -0.009153 0.000000
# 2 -0.011472 0.042584 -0.005715 0.000000 0.011824 0.000000
# 3 -0.002199 -0.005715 0.011811 0.000000 0.000798 0.000000
# 4 0.000000 0.000000 0.000000 0.049835 0.000000 0.000241
# 5 -0.009153 0.011824 0.000798 0.000000 0.033956 0.000000
# 6 0.000000 0.000000 0.000000 0.000241 0.000000 0.045871
#
#
# Mechanical properties :
#
#
# Convention : Reuss Voigt Hill
#
# Bulk Modulus (GPa) = 27.80035 34.54440 31.17237
# Shear Modulus (GPa) = 19.59513 24.73818 22.16665
#
# Velocity S-wave (km/s) = 3.01921 3.39237 3.21121
# Velocity P-wave (km/s) = 5.00867 5.60483 5.31512
#
# Compressibility (1/GPa) = 0.03597077
#
# Stress axis : x y z
#
# Youngs Moduli (GPa) = 49.14658 23.48315 84.66452
#
# Poissons Ratio (x) = 0.26939 0.18616
# Poissons Ratio (y) = 0.56380 0.48387
# Poissons Ratio (z) = 0.10806 0.13421
#
# Static dielectric constant tensor:
#      x y z
#    x 3.787260 0.000000 0.151670 
#    y 0.000000 3.838420 0.000000 
#    z 0.151670 0.000000 3.796330 
# 
# 
# High freq. dielectric constant tensor:
#      x y z
#    x 1.844390 0.000000 0.011740 
#    y 0.000000 1.825060 0.000000 
#    z 0.011740 0.000000 1.843730 
# 
# From -- ./inp_files/16683.got.cif
#   From: 2010.03.12/outbox.cif.g09.slc.cpg/sg14_9_cif.got.tgz:16683.got - 2010.03.31 13:35:05.
