data_PCOD8126214
_publ_section_title
;
Structure prediction by ZEFSAII (Michael W. Deem and Ramdas Pophale) SiO2 
 PCOD8126214
Probable space group: P 21/C
;
_chemical_formula_sum "Si O2"
_cell_formula_units_Z 32
_cell_length_a 9.368255
_cell_length_b 13.693434
_cell_length_c 21.111541
_cell_angle_alpha 90.000000
_cell_angle_beta 38.493435
_cell_angle_gamma 90.000000
_cell_volume 1685.691170
_symmetry_space_group_name_H-M "P 21/C"
_symmetry_group_IT_number 14
_symmetry_cell_setting 'monoclinic'
loop_
_space_group_symop_operation_xyz
x,y,z
-x,1/2+y,1/2-z
-x,-y,-z
x,1/2-y,1/2+z
loop_
_atom_site_type_symbol
_atom_site_label
_atom_site_fract_x
_atom_site_fract_y
_atom_site_fract_z
Si Si1 0.030719 0.340534 0.754857
Si Si2 0.576231 0.839101 0.240979
Si Si3 0.728817 0.502578 0.101034
Si Si4 0.917787 0.628487 0.727116
Si Si5 0.746811 0.532119 0.570236
Si Si6 0.397272 0.518681 0.103106
Si Si7 0.253891 0.459639 0.574173
Si Si8 0.394740 0.124345 0.236000
O O1 0.982583 0.224570 0.773070
O O2 0.184895 0.365092 0.639569
O O3 0.172161 0.369310 0.768495
O O4 0.785088 0.393060 0.836143
O O5 0.367524 0.896994 0.345848
O O6 0.816263 0.849077 0.193736
O O7 0.635063 0.879397 0.150119
O O8 0.501518 0.726838 0.274995
O O9 0.600364 0.541827 0.082604
O O10 0.676549 0.575433 0.174877
O O11 0.000000 0.500000 0.000000
O O12 0.720603 0.583720 0.839411
O O13 0.108099 0.549144 0.650153
O O14 0.769037 0.569766 0.490883
O O15 0.589093 0.435864 0.631241
O O16 0.000000 0.500000 0.500000
O O17 0.500000 0.500000 0.000000
O O18 0.500000 0.500000 0.500000
#
# Coordination Sequence:
#
# PCOD8126214 Si02
#       8
#     4   4   4   4   4   4   4   4
#     4  10  21  39  61  85 117 154 195 247 287 352
#     4   9  20  39  61  84 112 154 199 237 282 354
#     4  10  21  39  60  84 118 156 192 242 290 349
#     4   9  20  39  61  83 114 156 197 234 290 350
#     4  11  21  38  62  87 120 156 193 244 294 352
#     4  10  21  39  59  84 117 155 195 239 295 348
#     4  11  21  38  59  91 120 150 195 241 299 350
#     4  10  21  39  61  86 114 154 201 239 293 346
#
# _framework density 18.983309999999999
#
# number of rings (size 3 to 8) (size 9 to 14) (size 15 to 20)
#    0.000    2.000    2.500    0.750    1.750    2.000 
#    6.750    0.000    0.000    0.000    0.000    0.000 
#    0.000    0.000    0.000    0.000    0.000    0.000 
#
# Total GULP energy -396614.118527 kJ/mol
# GULP energy per Si atom -12394.191204 kJ/mol
# Density = 1.894010 g / cm^3
# Si number density = 18.983310 Si / 1000 Ang^3
#
#
#
# Elastic Constant Matrix: (Units=GPa)
#
#
# Indices 1 2 3 4 5 6 
#
# 1 120.3212 38.2902 54.3243 0.0000 9.5738 0.0000
# 2 38.2902 112.7347 29.6436 0.0000 9.7044 0.0000
# 3 54.3243 29.6436 107.3053 0.0000 10.7640 0.0000
# 4 0.0000 0.0000 0.0000 14.4379 0.0000 1.4564
# 5 9.5738 9.7044 10.7640 0.0000 45.3352 0.0000
# 6 0.0000 0.0000 0.0000 1.4564 0.0000 27.5394
#
#
#
# Elastic Compliance Matrix: (Units=1/GPa)
#
#
# Indices 1 2 3 4 5 6 
#
# 1 0.011432 -0.002502 -0.005028 0.000000 -0.000685 0.000000
# 2 -0.002502 0.010207 -0.001421 0.000000 -0.001319 0.000000
# 3 -0.005028 -0.001421 0.012416 0.000000 -0.001582 0.000000
# 4 0.000000 0.000000 0.000000 0.069634 0.000000 -0.003682
# 5 -0.000685 -0.001319 -0.001582 0.000000 0.022861 0.000000
# 6 0.000000 0.000000 0.000000 -0.003682 0.000000 0.036506
#
#
# Mechanical properties :
#
#
# Convention : Reuss Voigt Hill
#
# Bulk Modulus (GPa) = 61.90374 64.98638 63.44506
# Shear Modulus (GPa) = 26.83261 32.00271 29.41766
#
# Velocity S-wave (km/s) = 3.76371 4.11035 3.94084
# Velocity P-wave (km/s) = 7.18107 7.53885 7.36213
#
# Compressibility (1/GPa) = 0.01615411
#
# Stress axis : x y z
#
# Youngs Moduli (GPa) = 87.47645 97.96899 80.54331
#
# Poissons Ratio (x) = 0.24510 0.40494
# Poissons Ratio (y) = 0.21885 0.11445
# Poissons Ratio (z) = 0.43979 0.13921
#
# Static dielectric constant tensor:
#      x y z
#    x 3.596690 0.000000 -0.132960 
#    y 0.000000 3.724180 0.000000 
#    z -0.132960 0.000000 4.937830 
# 
# 
# High freq. dielectric constant tensor:
#      x y z
#    x 1.745820 0.000000 0.003420 
#    y 0.000000 1.733630 0.000000 
#    z 0.003420 0.000000 1.746610 
# 
# From -- ./inp_files/65835.got.cif
#   From: 2010.03.12/outbox.cif.g09.slc.cpg/sg14_33_cif.got.tgz:65835.got - 2010.03.31 13:35:05.
