data_PCOD8126709
_publ_section_title
;
Structure prediction by ZEFSAII (Michael W. Deem and Ramdas Pophale) SiO2 
 PCOD8126709
Probable space group: P 21/C
;
_chemical_formula_sum "Si O2"
_cell_formula_units_Z 32
_cell_length_a 17.468373
_cell_length_b 11.470917
_cell_length_c 14.865423
_cell_angle_alpha 90.000000
_cell_angle_beta 31.074994
_cell_angle_gamma 90.000000
_cell_volume 1537.488416
_symmetry_space_group_name_H-M "P 21/C"
_symmetry_group_IT_number 14
_symmetry_cell_setting 'monoclinic'
loop_
_space_group_symop_operation_xyz
x,y,z
-x,1/2+y,1/2-z
-x,-y,-z
x,1/2-y,1/2+z
loop_
_atom_site_type_symbol
_atom_site_label
_atom_site_fract_x
_atom_site_fract_y
_atom_site_fract_z
Si Si1 0.692200 0.771784 0.719914
Si Si2 0.832125 0.004319 0.636038
Si Si3 0.637466 0.360085 0.468598
Si Si4 0.903255 0.223812 0.468979
Si Si5 0.864974 0.336185 0.693601
Si Si6 0.897922 0.848080 0.885423
Si Si7 0.261979 0.570414 0.449017
Si Si8 0.665290 0.972396 0.310002
O O1 0.749668 0.721938 0.565572
O O2 0.699844 0.665417 0.784131
O O3 0.803626 0.873931 0.633407
O O4 0.528580 0.825064 0.887787
O O5 0.707959 0.040468 0.834103
O O6 0.825058 0.097954 0.561677
O O7 0.000000 0.000000 0.500000
O O8 0.738449 0.245857 0.361174
O O9 0.628463 0.411426 0.577933
O O10 0.941259 0.279810 0.528101
O O11 0.789422 0.302622 0.529357
O O12 0.047147 0.213018 0.261003
O O13 0.789280 0.459245 0.742924
O O14 0.988076 0.352133 0.645580
O O15 0.870188 0.983333 0.887545
O O16 0.340585 0.506725 0.288273
O O17 0.500000 0.000000 0.500000
#
# Coordination Sequence:
#
# PCOD8126709 Si02
#       8
#     4   4   4   4   4   4   4   4
#     4  11  24  41  67  98 132 171 223 276 337 409
#     4  11  24  42  69  95 130 176 224 275 339 398
#     4  11  21  44  66  93 136 173 217 278 342 401
#     4  10  22  39  66  94 127 170 219 267 334 392
#     4  10  21  41  74  93 127 180 213 279 342 394
#     4  11  23  41  66  97 133 166 226 281 325 403
#     4  10  23  40  62  93 131 170 217 271 329 397
#     4  10  21  43  67  96 134 169 222 269 335 414
#
# _framework density 20.813165000000001
#
# number of rings (size 3 to 8) (size 9 to 14) (size 15 to 20)
#    0.000    1.500    2.500    2.625    1.750    5.500 
#    6.750    3.750    0.000    0.000    0.000    0.000 
#    0.000    0.000    0.000    0.000    0.000    0.000 
#
# Total GULP energy -396603.608464 kJ/mol
# GULP energy per Si atom -12393.862764 kJ/mol
# Density = 2.076579 g / cm^3
# Si number density = 20.813165 Si / 1000 Ang^3
#
#
#
# Elastic Constant Matrix: (Units=GPa)
#
#
# Indices 1 2 3 4 5 6 
#
# 1 72.1630 37.2290 36.1285 0.0000 1.8698 0.0000
# 2 37.2290 157.3763 38.4672 0.0000 -4.2287 0.0000
# 3 36.1285 38.4672 109.8373 0.0000 -3.2664 0.0000
# 4 0.0000 0.0000 0.0000 32.8047 0.0000 -7.2117
# 5 1.8698 -4.2287 -3.2664 0.0000 25.6974 0.0000
# 6 0.0000 0.0000 0.0000 -7.2117 0.0000 20.2263
#
#
#
# Elastic Compliance Matrix: (Units=1/GPa)
#
#
# Indices 1 2 3 4 5 6 
#
# 1 0.017982 -0.003123 -0.004894 0.000000 -0.002444 0.000000
# 2 -0.003123 0.007510 -0.001565 0.000000 0.001264 0.000000
# 3 -0.004894 -0.001565 0.011308 0.000000 0.001536 0.000000
# 4 0.000000 0.000000 0.000000 0.033076 0.000000 0.011793
# 5 -0.002444 0.001264 0.001536 0.000000 0.039496 0.000000
# 6 0.000000 0.000000 0.000000 0.011793 0.000000 0.053646
#
#
# Mechanical properties :
#
#
# Convention : Reuss Voigt Hill
#
# Bulk Modulus (GPa) = 56.70408 62.55842 59.63125
# Shear Modulus (GPa) = 26.58731 30.91579 28.75155
#
# Velocity S-wave (km/s) = 3.57799 3.85826 3.72077
# Velocity P-wave (km/s) = 6.66129 7.06899 6.86817
#
# Compressibility (1/GPa) = 0.01763541
#
# Stress axis : x y z
#
# Youngs Moduli (GPa) = 55.61039 133.16329 88.43440
#
# Poissons Ratio (x) = 0.41593 0.43277
# Poissons Ratio (y) = 0.17369 0.13840
# Poissons Ratio (z) = 0.27214 0.20840
#
# Static dielectric constant tensor:
#      x y z
#    x 3.542400 0.000000 0.101710 
#    y 0.000000 2.504630 0.000000 
#    z 0.101710 0.000000 3.838770 
# 
# 
# High freq. dielectric constant tensor:
#      x y z
#    x 1.791250 0.000000 0.009680 
#    y 0.000000 1.837080 0.000000 
#    z 0.009680 0.000000 1.821800 
# 
# From -- ./inp_files/48996.got.cif
#   From: 2010.03.12/outbox.cif.g09.slc.cpg/sg14_25_cif.got.tgz:48996.got - 2010.03.31 13:35:05.
