data_PCOD8126018
_publ_section_title
;
Structure prediction by ZEFSAII (Michael W. Deem and Ramdas Pophale) SiO2 
 PCOD8126018
Probable space group: P 21/C
;
_chemical_formula_sum "Si O2"
_cell_formula_units_Z 32
_cell_length_a 28.616160
_cell_length_b 10.756806
_cell_length_c 8.681357
_cell_angle_alpha 90.000000
_cell_angle_beta 146.528823
_cell_angle_gamma 90.000000
_cell_volume 1473.810156
_symmetry_space_group_name_H-M "P 21/C"
_symmetry_group_IT_number 14
_symmetry_cell_setting 'monoclinic'
loop_
_space_group_symop_operation_xyz
x,y,z
-x,1/2+y,1/2-z
-x,-y,-z
x,1/2-y,1/2+z
loop_
_atom_site_type_symbol
_atom_site_label
_atom_site_fract_x
_atom_site_fract_y
_atom_site_fract_z
Si Si1 0.146794 0.423090 0.760878
Si Si2 0.267426 0.515661 0.528638
Si Si3 0.450558 0.658647 0.714231
Si Si4 0.850207 0.821093 0.387441
Si Si5 0.267256 0.887637 0.701108
Si Si6 0.867992 0.187996 0.194451
Si Si7 0.035510 0.624057 0.338812
Si Si8 0.449368 0.913166 0.566181
O O1 0.156130 0.326744 0.647255
O O2 0.059718 0.499805 0.500203
O O3 0.145695 0.354733 0.921745
O O4 0.225211 0.519347 0.961121
O O5 0.232462 0.374315 0.430222
O O6 0.292685 0.538910 0.422431
O O7 0.186652 0.593857 0.356399
O O8 0.354074 0.544644 0.858718
O O9 0.355452 0.665950 0.379061
O O10 0.485828 0.797806 0.770023
O O11 0.496778 0.540096 0.762480
O O12 0.454296 0.639997 0.906951
O O13 0.935019 0.872808 0.538385
O O14 0.199025 0.784351 0.561777
O O15 0.917908 0.118053 0.197296
O O16 0.936819 0.252900 0.492906
#
# Coordination Sequence:
#
# PCOD8126018 Si02
#       8
#     4   4   4   4   4   4   4   4
#     4  10  24  40  58  84 118 162 198 251 306 362
#     4  10  21  37  61  84 120 158 197 248 299 355
#     4  10  21  39  66  93 128 158 201 254 300 375
#     4  11  24  41  57  83 126 157 202 256 306 356
#     4   9  19  40  61  88 116 157 198 247 298 356
#     4  11  20  36  62  88 111 156 204 249 292 353
#     4  11  24  37  62  86 119 155 208 252 303 354
#     4  10  22  40  64  94 125 161 203 248 312 363
#
# _framework density 21.712430999999999
#
# number of rings (size 3 to 8) (size 9 to 14) (size 15 to 20)
#    0.000    1.750    2.500    1.125    3.500    2.000 
#    0.000    0.000    0.000    0.000    0.000    0.000 
#    0.000    0.000    0.000    0.000    0.000    0.000 
#
# Total GULP energy -396573.135388 kJ/mol
# GULP energy per Si atom -12392.910481 kJ/mol
# Density = 2.166301 g / cm^3
# Si number density = 21.712431 Si / 1000 Ang^3
#
#
#
# Elastic Constant Matrix: (Units=GPa)
#
#
# Indices 1 2 3 4 5 6 
#
# 1 66.3177 29.6054 20.8789 0.0000 6.1906 0.0000
# 2 29.6054 86.1443 23.2743 0.0000 -3.0387 0.0000
# 3 20.8789 23.2743 58.8461 0.0000 12.3060 0.0000
# 4 0.0000 0.0000 0.0000 31.1564 0.0000 -7.5014
# 5 6.1906 -3.0387 12.3060 0.0000 23.1778 0.0000
# 6 0.0000 0.0000 0.0000 -7.5014 0.0000 30.0152
#
#
#
# Elastic Compliance Matrix: (Units=1/GPa)
#
#
# Indices 1 2 3 4 5 6 
#
# 1 0.019168 -0.005718 -0.003726 0.000000 -0.003891 0.000000
# 2 -0.005718 0.015237 -0.005326 0.000000 0.006353 0.000000
# 3 -0.003726 -0.005326 0.022903 0.000000 -0.011863 0.000000
# 4 0.000000 0.000000 0.000000 0.034151 0.000000 0.008535
# 5 -0.003891 0.006353 -0.011863 0.000000 0.051316 0.000000
# 6 0.000000 0.000000 0.000000 0.008535 0.000000 0.035450
#
#
# Mechanical properties :
#
#
# Convention : Reuss Voigt Hill
#
# Bulk Modulus (GPa) = 36.01282 39.86949 37.94115
# Shear Modulus (GPa) = 23.03955 26.03983 24.53969
#
# Velocity S-wave (km/s) = 3.26102 3.46686 3.36551
# Velocity P-wave (km/s) = 5.54989 5.86752 5.71092
#
# Compressibility (1/GPa) = 0.02776789
#
# Stress axis : x y z
#
# Youngs Moduli (GPa) = 52.17092 65.63139 43.66321
#
# Poissons Ratio (x) = 0.37529 0.16267
# Poissons Ratio (y) = 0.29832 0.23254
# Poissons Ratio (z) = 0.19436 0.34954
#
# Static dielectric constant tensor:
#      x y z
#    x 3.683420 0.000000 0.201780 
#    y 0.000000 4.111390 0.000000 
#    z 0.201780 0.000000 3.997890 
# 
# 
# High freq. dielectric constant tensor:
#      x y z
#    x 1.834910 0.000000 0.007930 
#    y 0.000000 1.860620 0.000000 
#    z 0.007930 0.000000 1.843300 
# 
# From -- ./inp_files/20005.got.cif
#   From: 2010.03.12/outbox.cif.g09.slc.cpg/sg14_11_cif.got.tgz:20005.got - 2010.03.31 13:35:05.
