data_PCOD8126633
_publ_section_title
;
Structure prediction by ZEFSAII (Michael W. Deem and Ramdas Pophale) SiO2 
 PCOD8126633
Probable space group: P 21/C
;
_chemical_formula_sum "Si O2"
_cell_formula_units_Z 32
_cell_length_a 6.674672
_cell_length_b 16.325802
_cell_length_c 14.371336
_cell_angle_alpha 90.000000
_cell_angle_beta 60.635603
_cell_angle_gamma 90.000000
_cell_volume 1364.829183
_symmetry_space_group_name_H-M "P 21/C"
_symmetry_group_IT_number 14
_symmetry_cell_setting 'monoclinic'
loop_
_space_group_symop_operation_xyz
x,y,z
-x,1/2+y,1/2-z
-x,-y,-z
x,1/2-y,1/2+z
loop_
_atom_site_type_symbol
_atom_site_label
_atom_site_fract_x
_atom_site_fract_y
_atom_site_fract_z
Si Si1 0.260035 0.525436 0.601378
Si Si2 0.696569 0.773505 0.780677
Si Si3 0.862561 0.204049 0.881887
Si Si4 0.977051 0.126203 0.175402
Si Si5 0.691712 0.961465 0.516106
Si Si6 0.466135 0.818465 0.642690
Si Si7 0.800547 0.231087 0.583900
Si Si8 0.818410 0.052653 0.663872
O O1 0.500000 0.500000 0.500000
O O2 0.188501 0.612249 0.572783
O O3 0.274554 0.536995 0.710731
O O4 0.058521 0.461716 0.617162
O O5 0.615247 0.798189 0.697561
O O6 0.468204 0.741792 0.882938
O O7 0.900590 0.705258 0.731486
O O8 0.801558 0.850239 0.812161
O O9 0.643114 0.234918 0.872350
O O10 0.913263 0.267014 0.955916
O O11 0.745622 0.118468 0.289135
O O12 0.920036 0.193925 0.110666
O O13 0.642966 0.863696 0.533134
O O14 0.924738 0.980700 0.408542
O O15 0.500000 0.000000 0.500000
O O16 0.669438 0.001449 0.624101
O O17 0.824398 0.148863 0.637450
#
# Coordination Sequence:
#
# PCOD8126633 Si02
#       8
#     4   4   4   4   4   4   4   4
#     4  12  26  44  66  97 145 189 231 286 345 419
#     4  10  21  41  65  89 124 168 217 275 336 401
#     4  11  25  42  65 100 133 178 234 282 345 424
#     4  10  23  42  63  92 129 176 227 272 337 414
#     4  11  23  40  69 100 130 169 219 288 353 403
#     4  10  21  41  68  95 127 169 220 282 349 407
#     4  11  24  42  67  94 129 176 226 284 344 411
#     4  11  25  44  66 102 136 171 231 291 345 415
#
# _framework density 23.446156999999999
#
# number of rings (size 3 to 8) (size 9 to 14) (size 15 to 20)
#    0.000    1.250    0.000    6.000    0.000   14.500 
#    0.000    2.500    0.000    0.000    0.000    0.000 
#    0.000    0.000    0.000    0.000    0.000    0.000 
#
# Total GULP energy -396586.191405 kJ/mol
# GULP energy per Si atom -12393.318481 kJ/mol
# Density = 2.339279 g / cm^3
# Si number density = 23.446157 Si / 1000 Ang^3
#
#
#
# Elastic Constant Matrix: (Units=GPa)
#
#
# Indices 1 2 3 4 5 6 
#
# 1 124.4126 36.1454 29.3420 0.0000 8.7526 0.0000
# 2 36.1454 125.7831 25.4023 0.0000 -8.3366 0.0000
# 3 29.3420 25.4023 106.2818 0.0000 0.4163 0.0000
# 4 0.0000 0.0000 0.0000 31.7902 0.0000 -7.5316
# 5 8.7526 -8.3366 0.4163 0.0000 28.8827 0.0000
# 6 0.0000 0.0000 0.0000 -7.5316 0.0000 28.7384
#
#
#
# Elastic Compliance Matrix: (Units=1/GPa)
#
#
# Indices 1 2 3 4 5 6 
#
# 1 0.009507 -0.002567 -0.001997 0.000000 -0.003593 0.000000
# 2 -0.002567 0.009222 -0.001509 0.000000 0.003461 0.000000
# 3 -0.001997 -0.001509 0.010321 0.000000 0.000021 0.000000
# 4 0.000000 0.000000 0.000000 0.033539 0.000000 0.008790
# 5 -0.003593 0.003461 0.000021 0.000000 0.036711 0.000000
# 6 0.000000 0.000000 0.000000 0.008790 0.000000 0.037100
#
#
# Mechanical properties :
#
#
# Convention : Reuss Voigt Hill
#
# Bulk Modulus (GPa) = 59.15739 59.80631 59.48185
# Shear Modulus (GPa) = 32.42953 35.58810 34.00881
#
# Velocity S-wave (km/s) = 3.72311 3.90020 3.81268
# Velocity P-wave (km/s) = 6.61574 6.77093 6.69378
#
# Compressibility (1/GPa) = 0.01690406
#
# Stress axis : x y z
#
# Youngs Moduli (GPa) = 105.18202 108.43652 96.89060
#
# Poissons Ratio (x) = 0.27834 0.19351
# Poissons Ratio (y) = 0.26999 0.14621
# Poissons Ratio (z) = 0.21007 0.16364
#
# Static dielectric constant tensor:
#      x y z
#    x 4.361800 0.000000 -0.194140 
#    y 0.000000 4.036550 0.000000 
#    z -0.194140 0.000000 4.347410 
# 
# 
# High freq. dielectric constant tensor:
#      x y z
#    x 1.939610 0.000000 -0.003380 
#    y 0.000000 1.922530 0.000000 
#    z -0.003380 0.000000 1.929970 
# 
# From -- ./inp_files/37852.got.cif
#   From: 2010.03.12/outbox.cif.g09.slc.cpg/sg14_19_cif.got.tgz:37852.got - 2010.03.31 13:35:05.
