data_PCOD8126863
_publ_section_title
;
Structure prediction by ZEFSAII (Michael W. Deem and Ramdas Pophale) SiO2 
 PCOD8126863
Probable space group: P 21/C
;
_chemical_formula_sum "Si O2"
_cell_formula_units_Z 32
_cell_length_a 8.383677
_cell_length_b 12.152725
_cell_length_c 14.340292
_cell_angle_alpha 90.000000
_cell_angle_beta 92.875400
_cell_angle_gamma 90.000000
_cell_volume 1459.214297
_symmetry_space_group_name_H-M "P 21/C"
_symmetry_group_IT_number 14
_symmetry_cell_setting 'monoclinic'
loop_
_space_group_symop_operation_xyz
x,y,z
-x,1/2+y,1/2-z
-x,-y,-z
x,1/2-y,1/2+z
loop_
_atom_site_type_symbol
_atom_site_label
_atom_site_fract_x
_atom_site_fract_y
_atom_site_fract_z
Si Si1 0.440993 0.657986 0.743841
Si Si2 0.653011 0.671863 0.580767
Si Si3 0.805790 0.968917 0.775338
Si Si4 0.992728 0.374924 0.033848
Si Si5 0.156174 0.757901 0.823124
Si Si6 0.299389 0.249087 0.617148
Si Si7 0.914115 0.490785 0.594407
Si Si8 0.065032 0.308908 0.845525
O O1 0.490668 0.665702 0.636552
O O2 0.348866 0.541922 0.750800
O O3 0.323929 0.756324 0.773146
O O4 0.591261 0.668412 0.817315
O O5 0.610365 0.706881 0.473592
O O6 0.750095 0.557743 0.588265
O O7 0.760674 0.760076 0.635230
O O8 0.759933 0.856840 0.829311
O O9 0.893593 0.934806 0.681740
O O10 0.946595 0.035982 0.832660
O O11 0.156047 0.330672 0.083634
O O12 0.855007 0.345883 0.105229
O O13 0.962241 0.305369 0.937594
O O14 0.000000 0.500000 0.000000
O O15 0.136070 0.867613 0.881897
O O16 0.022057 0.745390 0.740229
O O17 0.000000 0.500000 0.500000
#
# Coordination Sequence:
#
# PCOD8126863 Si02
#       8
#     4   4   4   4   4   4   4   4
#     4  12  27  41  67 100 145 188 223 278 373 429
#     4  11  23  40  69  99 134 184 228 283 357 410
#     4  11  22  44  68  96 141 179 235 290 354 419
#     4  11  22  44  73  98 131 185 237 292 350 406
#     4  11  24  43  63 104 141 176 238 292 342 435
#     4  11  24  47  65  99 143 175 227 300 341 424
#     4  11  21  41  74 103 130 181 244 299 347 405
#     4  10  21  43  69  94 136 175 236 291 336 406
#
# _framework density 21.929608000000002
#
# number of rings (size 3 to 8) (size 9 to 14) (size 15 to 20)
#    0.000    1.000    5.000    2.250    1.750    5.500 
#    0.000    5.625    0.000    0.000    0.000    0.000 
#    0.000    0.000    0.000    0.000    0.000    0.000 
#
# Total GULP energy -396487.900322 kJ/mol
# GULP energy per Si atom -12390.246885 kJ/mol
# Density = 2.187970 g / cm^3
# Si number density = 21.929608 Si / 1000 Ang^3
#
#
#
# Elastic Constant Matrix: (Units=GPa)
#
#
# Indices 1 2 3 4 5 6 
#
# 1 74.4499 27.7723 42.1763 0.0000 -27.0485 0.0000
# 2 27.7723 98.9934 32.9526 0.0000 3.3117 0.0000
# 3 42.1763 32.9526 111.5980 0.0000 -17.7510 0.0000
# 4 0.0000 0.0000 0.0000 36.0710 0.0000 1.8117
# 5 -27.0485 3.3117 -17.7510 0.0000 38.4655 0.0000
# 6 0.0000 0.0000 0.0000 1.8117 0.0000 43.1676
#
#
#
# Elastic Compliance Matrix: (Units=1/GPa)
#
#
# Indices 1 2 3 4 5 6 
#
# 1 0.023683 -0.005485 -0.004972 0.000000 0.014832 0.000000
# 2 -0.005485 0.012737 -0.002672 0.000000 -0.006187 0.000000
# 3 -0.004972 -0.002672 0.011989 0.000000 0.002267 0.000000
# 4 0.000000 0.000000 0.000000 0.027782 0.000000 -0.001166
# 5 0.014832 -0.006187 0.002267 0.000000 0.038006 0.000000
# 6 0.000000 0.000000 0.000000 -0.001166 0.000000 0.023214
#
#
# Mechanical properties :
#
#
# Convention : Reuss Voigt Hill
#
# Bulk Modulus (GPa) = 45.14440 54.53822 49.84131
# Shear Modulus (GPa) = 29.23069 35.68348 32.45709
#
# Velocity S-wave (km/s) = 3.65490 4.03821 3.85133
# Velocity P-wave (km/s) = 6.20014 6.83129 6.52335
#
# Compressibility (1/GPa) = 0.02215114
#
# Stress axis : x y z
#
# Youngs Moduli (GPa) = 42.22414 78.51121 83.40824
#
# Poissons Ratio (x) = 0.43067 0.41468
# Poissons Ratio (y) = 0.23162 0.22287
# Poissons Ratio (z) = 0.20993 0.20978
#
# Static dielectric constant tensor:
#      x y z
#    x 4.009410 0.000000 -0.172490 
#    y 0.000000 3.243320 0.000000 
#    z -0.172490 0.000000 4.391150 
# 
# 
# High freq. dielectric constant tensor:
#      x y z
#    x 1.844770 0.000000 -0.013320 
#    y 0.000000 1.860360 0.000000 
#    z -0.013320 0.000000 1.890230 
# 
# From -- ./inp_files/40322.got.cif
#   From: 2010.03.12/outbox.cif.g09.slc.cpg/sg14_21_cif.got.tgz:40322.got - 2010.03.31 13:35:05.
