data_PCOD8126163
_publ_section_title
;
Structure prediction by ZEFSAII (Michael W. Deem and Ramdas Pophale) SiO2 
 PCOD8126163
Probable space group: P 21/C
;
_chemical_formula_sum "Si O2"
_cell_formula_units_Z 32
_cell_length_a 11.663387
_cell_length_b 18.798623
_cell_length_c 13.900410
_cell_angle_alpha 90.000000
_cell_angle_beta 148.043654
_cell_angle_gamma 90.000000
_cell_volume 1613.087983
_symmetry_space_group_name_H-M "P 21/C"
_symmetry_group_IT_number 14
_symmetry_cell_setting 'monoclinic'
loop_
_space_group_symop_operation_xyz
x,y,z
-x,1/2+y,1/2-z
-x,-y,-z
x,1/2-y,1/2+z
loop_
_atom_site_type_symbol
_atom_site_label
_atom_site_fract_x
_atom_site_fract_y
_atom_site_fract_z
Si Si1 0.480693 0.350607 0.914284
Si Si2 0.886694 0.124264 0.837268
Si Si3 0.441567 0.194045 0.843089
Si Si4 0.005364 0.285161 0.925070
Si Si5 0.400423 0.591035 0.694951
Si Si6 0.285999 0.175429 0.465319
Si Si7 0.664558 0.568434 0.371625
Si Si8 0.474546 0.681007 0.381204
O O1 0.530108 0.275054 0.898833
O O2 0.279534 0.338882 0.846228
O O3 0.412894 0.409654 0.790123
O O4 0.692445 0.376366 0.122286
O O5 0.996685 0.200743 0.925084
O O6 0.810502 0.099939 0.888398
O O7 0.074779 0.071526 0.934912
O O8 0.606486 0.144629 0.900595
O O9 0.199299 0.186812 0.629526
O O10 0.432462 0.167927 0.946252
O O11 0.785269 0.321173 0.802968
O O12 0.053182 0.307088 0.847011
O O13 0.412914 0.511292 0.663413
O O14 0.612933 0.606743 0.910338
O O15 0.447729 0.242240 0.602706
O O16 0.554942 0.617844 0.372389
#
# Coordination Sequence:
#
# PCOD8126163 Si02
#       8
#     4   4   4   4   4   4   4   4
#     4  10  21  38  64  90 116 159 201 254 306 349
#     4  11  21  38  63  94 119 149 210 254 298 371
#     4  10  21  40  62  91 115 163 203 255 302 349
#     4  11  19  38  64  91 117 146 202 262 297 351
#     4  10  22  40  61  87 130 161 200 246 308 371
#     4   9  19  38  58  88 118 148 203 255 292 360
#     4  12  24  40  58  89 131 166 193 251 307 360
#     4  11  22  39  60  90 119 155 209 252 294 358
#
# _framework density 19.837727000000001
#
# number of rings (size 3 to 8) (size 9 to 14) (size 15 to 20)
#    0.000    1.500    6.250    1.125    0.000    4.500 
#    0.000    5.000    0.000    0.000    0.000    0.000 
#    0.000    0.000    0.000    0.000    0.000    0.000 
#
# Total GULP energy -396791.121063 kJ/mol
# GULP energy per Si atom -12399.722533 kJ/mol
# Density = 1.979258 g / cm^3
# Si number density = 19.837727 Si / 1000 Ang^3
#
#
#
# Elastic Constant Matrix: (Units=GPa)
#
#
# Indices 1 2 3 4 5 6 
#
# 1 67.4338 9.4422 32.2832 0.0000 8.7475 0.0000
# 2 9.4422 49.7004 15.8447 0.0000 -4.0579 0.0000
# 3 32.2832 15.8447 83.8707 0.0000 -0.0073 0.0000
# 4 0.0000 0.0000 0.0000 17.9468 0.0000 3.0900
# 5 8.7475 -4.0579 -0.0073 0.0000 35.0897 0.0000
# 6 0.0000 0.0000 0.0000 3.0900 0.0000 20.9822
#
#
#
# Elastic Compliance Matrix: (Units=1/GPa)
#
#
# Indices 1 2 3 4 5 6 
#
# 1 0.019078 -0.001797 -0.007005 0.000000 -0.004965 0.000000
# 2 -0.001797 0.021796 -0.003426 0.000000 0.002968 0.000000
# 3 -0.007005 -0.003426 0.015267 0.000000 0.001353 0.000000
# 4 0.000000 0.000000 0.000000 0.057170 0.000000 -0.008419
# 5 -0.004965 0.002968 0.001353 0.000000 0.030080 0.000000
# 6 0.000000 0.000000 0.000000 -0.008419 0.000000 0.048899
#
#
# Mechanical properties :
#
#
# Convention : Reuss Voigt Hill
#
# Bulk Modulus (GPa) = 31.55878 35.12722 33.34300
# Shear Modulus (GPa) = 21.99669 24.36608 23.18138
#
# Velocity S-wave (km/s) = 3.33352 3.50847 3.42212
# Velocity P-wave (km/s) = 5.54613 5.84450 5.69727
#
# Compressibility (1/GPa) = 0.03168690
#
# Stress axis : x y z
#
# Youngs Moduli (GPa) = 52.41531 45.87910 65.50248
#
# Poissons Ratio (x) = 0.08244 0.45882
# Poissons Ratio (y) = 0.09418 0.22440
# Poissons Ratio (z) = 0.36715 0.15717
#
# Static dielectric constant tensor:
#      x y z
#    x 3.870860 0.000000 -0.012610 
#    y 0.000000 3.427210 0.000000 
#    z -0.012610 0.000000 3.499940 
# 
# 
# High freq. dielectric constant tensor:
#      x y z
#    x 1.785140 0.000000 -0.002140 
#    y 0.000000 1.753990 0.000000 
#    z -0.002140 0.000000 1.763260 
# 
# From -- ./inp_files/45455.got.cif
#   From: 2010.03.12/outbox.cif.g09.slc.cpg/sg14_23_cif.got.tgz:45455.got - 2010.03.31 13:35:05.
