data_PCOD8126552
_publ_section_title
;
Structure prediction by ZEFSAII (Michael W. Deem and Ramdas Pophale) SiO2 
 PCOD8126552
Probable space group: P 21/C
;
_chemical_formula_sum "Si O2"
_cell_formula_units_Z 24
_cell_length_a 7.142964
_cell_length_b 9.172747
_cell_length_c 20.450131
_cell_angle_alpha 90.000000
_cell_angle_beta 37.538967
_cell_angle_gamma 90.000000
_cell_volume 816.405186
_symmetry_space_group_name_H-M "P 21/C"
_symmetry_group_IT_number 14
_symmetry_cell_setting 'monoclinic'
loop_
_space_group_symop_operation_xyz
x,y,z
-x,1/2+y,1/2-z
-x,-y,-z
x,1/2-y,1/2+z
loop_
_atom_site_type_symbol
_atom_site_label
_atom_site_fract_x
_atom_site_fract_y
_atom_site_fract_z
Si Si1 0.540310 0.423406 0.902585
Si Si2 0.028047 0.703931 0.673907
Si Si3 0.667607 0.504464 0.314035
Si Si4 0.394839 0.987181 0.758970
Si Si5 0.895750 0.827023 0.980537
Si Si6 0.632387 0.254834 0.043855
O O1 0.897300 0.375287 0.825533
O O2 0.495393 0.406876 0.837012
O O3 0.458367 0.581060 0.952953
O O4 0.324442 0.295647 0.991887
O O5 0.083375 0.597208 0.720338
O O6 0.264834 0.669194 0.549594
O O7 0.693528 0.655127 0.738935
O O8 0.678944 0.505255 0.231249
O O9 0.315743 0.451478 0.427022
O O10 0.667147 0.672996 0.341935
O O11 0.101151 0.899568 0.867371
O O12 0.094801 0.741290 0.979176
#
# Coordination Sequence:
#
# PCOD8126552 Si02
#       6
#     4   4   4   4   4   4
#     4  11  27  40  68 109 136 180 231 286 350 398
#     4  11  23  44  68  97 135 178 227 284 344 412
#     4  10  21  40  75  93 126 193 226 271 345 409
#     4  11  23  47  69  99 140 179 240 276 339 423
#     4  10  21  45  72  96 134 192 226 279 351 401
#     4  11  20  42  67  99 136 176 226 289 340 407
#
# _framework density 29.397169999999999
#
# number of rings (size 3 to 8) (size 9 to 14) (size 15 to 20)
#    0.000    1.333    3.333    2.500    2.333    6.667 
#    6.000    0.000    0.000    0.000    0.000    0.000 
#    0.000    0.000    0.000    0.000    0.000    0.000 
#
# Total GULP energy -297658.513913 kJ/mol
# GULP energy per Si atom -12402.438080 kJ/mol
# Density = 2.933026 g / cm^3
# Si number density = 29.397170 Si / 1000 Ang^3
#
#
#
# Elastic Constant Matrix: (Units=GPa)
#
#
# Indices 1 2 3 4 5 6 
#
# 1 130.0042 45.9861 16.1513 0.0000 9.7348 0.0000
# 2 45.9861 190.6814 13.3470 0.0000 -2.6611 0.0000
# 3 16.1513 13.3470 58.9668 0.0000 2.8544 0.0000
# 4 0.0000 0.0000 0.0000 44.0074 0.0000 3.6981
# 5 9.7348 -2.6611 2.8544 0.0000 39.9792 0.0000
# 6 0.0000 0.0000 0.0000 3.6981 0.0000 40.6133
#
#
#
# Elastic Compliance Matrix: (Units=1/GPa)
#
#
# Indices 1 2 3 4 5 6 
#
# 1 0.008798 -0.002022 -0.001848 0.000000 -0.002145 0.000000
# 2 -0.002022 0.005801 -0.000805 0.000000 0.000936 0.000000
# 3 -0.001848 -0.000805 0.017689 0.000000 -0.000866 0.000000
# 4 0.000000 0.000000 0.000000 0.022899 0.000000 -0.002085
# 5 -0.002145 0.000936 -0.000866 0.000000 0.025659 0.000000
# 6 0.000000 0.000000 0.000000 -0.002085 0.000000 0.024812
#
#
# Mechanical properties :
#
#
# Convention : Reuss Voigt Hill
#
# Bulk Modulus (GPa) = 43.59559 58.95789 51.27674
# Shear Modulus (GPa) = 40.76495 45.19784 42.98139
#
# Velocity S-wave (km/s) = 3.72788 3.92534 3.82788
# Velocity P-wave (km/s) = 5.77854 6.37523 6.08420
#
# Compressibility (1/GPa) = 0.02293810
#
# Stress axis : x y z
#
# Youngs Moduli (GPa) = 113.66732 172.37127 56.53240
#
# Poissons Ratio (x) = 0.34858 0.10448
# Poissons Ratio (y) = 0.22986 0.04548
# Poissons Ratio (z) = 0.21007 0.13868
#
# Static dielectric constant tensor:
#      x y z
#    x 5.492970 0.000000 0.035300 
#    y 0.000000 5.529230 0.000000 
#    z 0.035300 0.000000 5.532610 
# 
# 
# High freq. dielectric constant tensor:
#      x y z
#    x 2.212260 0.000000 -0.003050 
#    y 0.000000 2.210220 0.000000 
#    z -0.003050 0.000000 2.218370 
# 
# From -- ./inp_files/64739.got.cif
#   From: 2010.03.12/outbox.cif.g09.slc.cpg/sg14_33_cif.got.tgz:64739.got - 2010.03.31 13:35:05.
