data_PCOD8126774
_publ_section_title
;
Structure prediction by ZEFSAII (Michael W. Deem and Ramdas Pophale) SiO2 
 PCOD8126774
Probable space group: P 21/C
;
_chemical_formula_sum "Si O2"
_cell_formula_units_Z 28
_cell_length_a 5.441094
_cell_length_b 12.801805
_cell_length_c 16.756520
_cell_angle_alpha 90.000000
_cell_angle_beta 84.369162
_cell_angle_gamma 90.000000
_cell_volume 1161.557216
_symmetry_space_group_name_H-M "P 21/C"
_symmetry_group_IT_number 14
_symmetry_cell_setting 'monoclinic'
loop_
_space_group_symop_operation_xyz
x,y,z
-x,1/2+y,1/2-z
-x,-y,-z
x,1/2-y,1/2+z
loop_
_atom_site_type_symbol
_atom_site_label
_atom_site_fract_x
_atom_site_fract_y
_atom_site_fract_z
Si Si1 0.041812 0.132641 0.407433
Si Si2 0.758557 0.623237 0.862193
Si Si3 0.748341 0.064461 0.557054
Si Si4 0.461008 0.680899 0.357949
Si Si5 0.797804 0.981490 0.902612
Si Si6 0.148621 0.566573 0.247919
Si Si7 0.092782 0.667155 0.503693
O O1 0.816394 0.073226 0.461233
O O2 0.992567 0.133418 0.314941
O O3 0.068594 0.247429 0.443342
O O4 0.276642 0.058248 0.417587
O O5 0.522187 0.611437 0.926949
O O6 0.698230 0.743160 0.834186
O O7 0.728065 0.538179 0.792762
O O8 0.028076 0.617781 0.895468
O O9 0.534491 0.566029 0.387726
O O10 0.333100 0.653899 0.277870
O O11 0.270378 0.723929 0.432580
O O12 0.969510 0.979789 0.820035
O O13 0.898466 0.907873 0.969035
O O14 0.756204 0.099034 0.935815
#
# Coordination Sequence:
#
# PCOD8126774 Si02
#       7
#     4   4   4   4   4   4   4
#     4  10  21  42  66  99 134 177 225 282 338 402
#     4  11  24  45  71 100 138 184 226 285 347 406
#     4  10  23  43  69 101 137 174 232 280 336 413
#     4  11  23  42  70  93 137 184 227 283 345 411
#     4  10  23  43  65  96 137 174 231 282 340 410
#     4  10  26  41  60 103 138 173 220 285 345 411
#     4  10  21  44  68  96 126 180 238 278 335 406
#
# _framework density 24.105568000000002
#
# number of rings (size 3 to 8) (size 9 to 14) (size 15 to 20)
#    0.000    1.714    1.429    1.286    6.000    7.429 
#    5.143    0.000    0.000    0.000    0.000    0.000 
#    0.000    0.000    0.000    0.000    0.000    0.000 
#
# Total GULP energy -346886.628967 kJ/mol
# GULP energy per Si atom -12388.808177 kJ/mol
# Density = 2.405070 g / cm^3
# Si number density = 24.105568 Si / 1000 Ang^3
#
#
#
# Elastic Constant Matrix: (Units=GPa)
#
#
# Indices 1 2 3 4 5 6 
#
# 1 69.0327 12.4679 15.1036 0.0000 3.8752 0.0000
# 2 12.4679 111.5776 41.6853 0.0000 1.5483 0.0000
# 3 15.1036 41.6853 111.5684 0.0000 17.4954 0.0000
# 4 0.0000 0.0000 0.0000 32.4189 0.0000 -0.2247
# 5 3.8752 1.5483 17.4954 0.0000 15.6626 0.0000
# 6 0.0000 0.0000 0.0000 -0.2247 0.0000 33.0703
#
#
#
# Elastic Compliance Matrix: (Units=1/GPa)
#
#
# Indices 1 2 3 4 5 6 
#
# 1 0.015099 -0.001189 -0.001252 0.000000 -0.002220 0.000000
# 2 -0.001189 0.010723 -0.004517 0.000000 0.004279 0.000000
# 3 -0.001252 -0.004517 0.012974 0.000000 -0.013736 0.000000
# 4 0.000000 0.000000 0.000000 0.030848 0.000000 0.000210
# 5 -0.002220 0.004279 -0.013736 0.000000 0.079316 0.000000
# 6 0.000000 0.000000 0.000000 0.000210 0.000000 0.030240
#
#
# Mechanical properties :
#
#
# Convention : Reuss Voigt Hill
#
# Bulk Modulus (GPa) = 40.18948 47.85473 44.02210
# Shear Modulus (GPa) = 24.82513 31.09179 27.95846
#
# Velocity S-wave (km/s) = 3.21261 3.59530 3.40933
# Velocity P-wave (km/s) = 5.51993 6.09345 5.81377
#
# Compressibility (1/GPa) = 0.02488213
#
# Stress axis : x y z
#
# Youngs Moduli (GPa) = 66.22923 93.25539 77.07641
#
# Poissons Ratio (x) = 0.11086 0.09648
# Poissons Ratio (y) = 0.07873 0.34813
# Poissons Ratio (z) = 0.08290 0.42120
#
# Static dielectric constant tensor:
#      x y z
#    x 4.070340 0.000000 0.129820 
#    y 0.000000 4.815220 0.000000 
#    z 0.129820 0.000000 4.382050 
# 
# 
# High freq. dielectric constant tensor:
#      x y z
#    x 1.937350 0.000000 0.006070 
#    y 0.000000 1.974730 0.000000 
#    z 0.006070 0.000000 1.951450 
# 
# From -- ./inp_files/53163.got.cif
#   From: 2010.03.12/outbox.cif.g09.slc.cpg/sg14_27_cif.got.tgz:53163.got - 2010.03.31 13:35:05.
