data_PCOD8126498
_publ_section_title
;
Structure prediction by ZEFSAII (Michael W. Deem and Ramdas Pophale) SiO2 
 PCOD8126498
Probable space group: P 21/C
;
_chemical_formula_sum "Si O2"
_cell_formula_units_Z 32
_cell_length_a 18.260969
_cell_length_b 14.629292
_cell_length_c 11.751583
_cell_angle_alpha 90.000000
_cell_angle_beta 28.193285
_cell_angle_gamma 90.000000
_cell_volume 1483.190828
_symmetry_space_group_name_H-M "P 21/C"
_symmetry_group_IT_number 14
_symmetry_cell_setting 'monoclinic'
loop_
_space_group_symop_operation_xyz
x,y,z
-x,1/2+y,1/2-z
-x,-y,-z
x,1/2-y,1/2+z
loop_
_atom_site_type_symbol
_atom_site_label
_atom_site_fract_x
_atom_site_fract_y
_atom_site_fract_z
Si Si1 0.682281 0.846351 0.652434
Si Si2 0.671726 0.119396 0.899341
Si Si3 0.824861 0.018408 0.343555
Si Si4 0.859254 0.324379 0.951271
Si Si5 0.875796 0.368179 0.329363
Si Si6 0.200941 0.354741 0.544754
Si Si7 0.203038 0.076740 0.289508
Si Si8 0.824049 0.995213 0.098093
O O1 0.729033 0.746042 0.547211
O O2 0.704444 0.850991 0.758255
O O3 0.798266 0.920437 0.438882
O O4 0.511701 0.872451 0.847022
O O5 0.743601 0.196015 0.715731
O O6 0.726914 0.132056 0.952458
O O7 0.732464 0.022842 0.766563
O O8 0.764492 0.104404 0.500123
O O9 0.742890 0.019937 0.330336
O O10 0.008168 0.038728 0.089715
O O11 0.912965 0.235908 0.808240
O O12 0.015884 0.363035 0.792246
O O13 0.832839 0.417437 0.505172
O O14 0.019057 0.415991 0.067794
O O15 0.246509 0.403635 0.599817
O O16 0.264506 0.413516 0.349286
#
# Coordination Sequence:
#
# PCOD8126498 Si02
#       8
#     4   4   4   4   4   4   4   4
#     4  12  26  44  66 104 138 180 222 284 352 399
#     4  12  26  45  68 101 139 176 232 286 339 403
#     4  10  22  39  65  95 137 171 217 278 340 396
#     4  11  23  40  68 100 131 177 227 280 330 398
#     4  12  23  42  70 102 132 179 231 284 330 401
#     4  11  23  41  71  99 129 177 233 275 331 405
#     4  12  22  44  75  94 132 179 236 281 329 406
#     4  10  21  40  65  99 128 171 227 276 328 398
#
# _framework density 21.575106000000002
#
# number of rings (size 3 to 8) (size 9 to 14) (size 15 to 20)
#    0.000    0.750    6.250    1.500    3.500    2.000 
#    0.000    0.625    0.000    0.000    0.000    0.000 
#    0.000    0.000    0.000    0.000    0.000    0.000 
#
# Total GULP energy -396741.465360 kJ/mol
# GULP energy per Si atom -12398.170792 kJ/mol
# Density = 2.152600 g / cm^3
# Si number density = 21.575106 Si / 1000 Ang^3
#
#
#
# Elastic Constant Matrix: (Units=GPa)
#
#
# Indices 1 2 3 4 5 6 
#
# 1 149.6122 34.1003 36.0824 0.0000 17.2620 0.0000
# 2 34.1003 121.0447 27.3930 0.0000 12.2145 0.0000
# 3 36.0824 27.3930 49.2549 0.0000 -1.5786 0.0000
# 4 0.0000 0.0000 0.0000 19.5542 0.0000 4.5231
# 5 17.2620 12.2145 -1.5786 0.0000 38.9148 0.0000
# 6 0.0000 0.0000 0.0000 4.5231 0.0000 29.4679
#
#
#
# Elastic Compliance Matrix: (Units=1/GPa)
#
#
# Indices 1 2 3 4 5 6 
#
# 1 0.008784 -0.000678 -0.006184 0.000000 -0.003934 0.000000
# 2 -0.000678 0.009914 -0.005114 0.000000 -0.003019 0.000000
# 3 -0.006184 -0.005114 0.027852 0.000000 0.005478 0.000000
# 4 0.000000 0.000000 0.000000 0.053023 0.000000 -0.008139
# 5 -0.003934 -0.003019 0.005478 0.000000 0.028612 0.000000
# 6 0.000000 0.000000 0.000000 -0.008139 0.000000 0.035184
#
#
# Mechanical properties :
#
#
# Convention : Reuss Voigt Hill
#
# Bulk Modulus (GPa) = 44.24970 57.22926 50.73948
# Shear Modulus (GPa) = 25.66032 32.40978 29.03505
#
# Velocity S-wave (km/s) = 3.45243 3.88001 3.67245
# Velocity P-wave (km/s) = 6.03710 6.83050 6.44602
#
# Compressibility (1/GPa) = 0.02259902
#
# Stress axis : x y z
#
# Youngs Moduli (GPa) = 113.84628 100.86421 35.90397
#
# Poissons Ratio (x) = 0.06840 0.22202
# Poissons Ratio (y) = 0.07720 0.18361
# Poissons Ratio (z) = 0.70398 0.51580
#
# Static dielectric constant tensor:
#      x y z
#    x 4.196140 0.000000 0.215210 
#    y 0.000000 3.855830 0.000000 
#    z 0.215210 0.000000 3.517360 
# 
# 
# High freq. dielectric constant tensor:
#      x y z
#    x 1.868040 0.000000 0.018400 
#    y 0.000000 1.846310 0.000000 
#    z 0.018400 0.000000 1.807230 
# 
# From -- ./inp_files/34146.got.cif
#   From: 2010.03.12/outbox.cif.g09.slc.cpg/sg14_18_cif.got.tgz:34146.got - 2010.03.31 13:35:05.
