data_PCOD8126929
_publ_section_title
;
Structure prediction by ZEFSAII (Michael W. Deem and Ramdas Pophale) SiO2 
 PCOD8126929
Probable space group: P 21/C
;
_chemical_formula_sum "Si O2"
_cell_formula_units_Z 32
_cell_length_a 11.395606
_cell_length_b 20.334186
_cell_length_c 10.442872
_cell_angle_alpha 90.000000
_cell_angle_beta 142.364819
_cell_angle_gamma 90.000000
_cell_volume 1477.622175
_symmetry_space_group_name_H-M "P 21/C"
_symmetry_group_IT_number 14
_symmetry_cell_setting 'monoclinic'
loop_
_space_group_symop_operation_xyz
x,y,z
-x,1/2+y,1/2-z
-x,-y,-z
x,1/2-y,1/2+z
loop_
_atom_site_type_symbol
_atom_site_label
_atom_site_fract_x
_atom_site_fract_y
_atom_site_fract_z
Si Si1 0.471865 0.997125 0.284312
Si Si2 0.318264 0.173865 0.717527
Si Si3 0.331176 0.094615 0.357798
Si Si4 0.980987 0.660549 0.256908
Si Si5 0.329596 0.914396 0.951006
Si Si6 0.727353 0.397174 0.885496
Si Si7 0.078191 0.308909 0.255192
Si Si8 0.581563 0.689544 0.274683
O O1 0.322617 0.033124 0.251491
O O2 0.655965 0.043653 0.414664
O O3 0.548654 0.929061 0.413384
O O4 0.356510 0.982613 0.052667
O O5 0.458737 0.115500 0.875961
O O6 0.217740 0.201036 0.756564
O O7 0.442377 0.232427 0.760356
O O8 0.155412 0.148039 0.481924
O O9 0.444744 0.154046 0.385752
O O10 0.120064 0.121723 0.212592
O O11 0.188503 0.630723 0.411124
O O12 0.020843 0.737737 0.314745
O O13 0.249772 0.925069 0.738991
O O14 0.575216 0.337081 0.759698
O O15 0.929593 0.368549 0.108539
O O16 0.204430 0.326892 0.488559
#
# Coordination Sequence:
#
# PCOD8126929 Si02
#       8
#     4   4   4   4   4   4   4   4
#     4  10  24  44  65  92 134 173 222 264 319 384
#     4  11  21  40  64  96 134 164 211 270 328 382
#     4  10  21  46  63  91 129 171 215 267 314 381
#     4  11  23  41  67  96 131 164 220 265 327 389
#     4  12  23  41  65  96 126 177 217 265 323 383
#     4  11  23  43  64  96 130 170 220 266 318 390
#     4  11  22  42  65 100 130 164 216 268 329 389
#     4  10  22  41  66  92 130 170 206 267 333 380
#
# _framework density 21.656416
#
# number of rings (size 3 to 8) (size 9 to 14) (size 15 to 20)
#    0.000    1.250    5.000    1.125    0.000    0.500 
#   13.500    1.250    0.000    0.000    0.000    0.000 
#    0.000    0.000    0.000    0.000    0.000    0.000 
#
# Total GULP energy -396768.508207 kJ/mol
# GULP energy per Si atom -12399.015881 kJ/mol
# Density = 2.160712 g / cm^3
# Si number density = 21.656416 Si / 1000 Ang^3
#
#
#
# Elastic Constant Matrix: (Units=GPa)
#
#
# Indices 1 2 3 4 5 6 
#
# 1 84.2211 5.2901 11.9977 0.0000 -7.7341 0.0000
# 2 5.2901 50.9361 24.5764 0.0000 -5.3802 0.0000
# 3 11.9977 24.5764 63.4754 0.0000 -6.2872 0.0000
# 4 0.0000 0.0000 0.0000 33.0199 0.0000 3.7193
# 5 -7.7341 -5.3802 -6.2872 0.0000 29.2052 0.0000
# 6 0.0000 0.0000 0.0000 3.7193 0.0000 41.1574
#
#
#
# Elastic Compliance Matrix: (Units=1/GPa)
#
#
# Indices 1 2 3 4 5 6 
#
# 1 0.012429 0.000009 -0.002071 0.000000 0.002847 0.000000
# 2 0.000009 0.024321 -0.009170 0.000000 0.002509 0.000000
# 3 -0.002071 -0.009170 0.019899 0.000000 0.002046 0.000000
# 4 0.000000 0.000000 0.000000 0.030596 0.000000 -0.002765
# 5 0.002847 0.002509 0.002046 0.000000 0.035897 0.000000
# 6 0.000000 0.000000 0.000000 -0.002765 0.000000 0.024547
#
#
# Mechanical properties :
#
#
# Convention : Reuss Voigt Hill
#
# Bulk Modulus (GPa) = 29.25194 31.37344 30.31269
# Shear Modulus (GPa) = 27.54102 31.12772 29.33437
#
# Velocity S-wave (km/s) = 3.57000 3.79535 3.68439
# Velocity P-wave (km/s) = 5.52537 5.80728 5.66808
#
# Compressibility (1/GPa) = 0.03418577
#
# Stress axis : x y z
#
# Youngs Moduli (GPa) = 80.45434 41.11696 50.25487
#
# Poissons Ratio (x) = -0.00037 0.10407
# Poissons Ratio (y) = -0.00073 0.46083
# Poissons Ratio (z) = 0.16660 0.37703
#
# Static dielectric constant tensor:
#      x y z
#    x 4.019670 0.000000 -0.158520 
#    y 0.000000 3.808840 0.000000 
#    z -0.158520 0.000000 3.665760 
# 
# 
# High freq. dielectric constant tensor:
#      x y z
#    x 1.862060 0.000000 -0.011930 
#    y 0.000000 1.848980 0.000000 
#    z -0.011930 0.000000 1.829090 
# 
# From -- ./inp_files/30466.got.cif
#   From: 2010.03.12/outbox.cif.g09.slc.cpg/sg14_16_cif.got.tgz:30466.got - 2010.03.31 13:35:05.
