data_PCOD8126679
_publ_section_title
;
Structure prediction by ZEFSAII (Michael W. Deem and Ramdas Pophale) SiO2 
 PCOD8126679
Probable space group: P 21/C
;
_chemical_formula_sum "Si O2"
_cell_formula_units_Z 20
_cell_length_a 22.468051
_cell_length_b 4.882446
_cell_length_c 12.023829
_cell_angle_alpha 90.000000
_cell_angle_beta 138.605619
_cell_angle_gamma 90.000000
_cell_volume 872.175014
_symmetry_space_group_name_H-M "P 21/C"
_symmetry_group_IT_number 14
_symmetry_cell_setting 'monoclinic'
loop_
_space_group_symop_operation_xyz
x,y,z
-x,1/2+y,1/2-z
-x,-y,-z
x,1/2-y,1/2+z
loop_
_atom_site_type_symbol
_atom_site_label
_atom_site_fract_x
_atom_site_fract_y
_atom_site_fract_z
Si Si1 0.426660 0.449383 0.992425
Si Si2 0.885733 0.844371 0.641281
Si Si3 0.021373 0.853837 0.643067
Si Si4 0.593783 0.200201 0.840873
Si Si5 0.676785 0.693413 0.838871
O O1 0.386469 0.714691 0.002188
O O2 0.484044 0.297935 0.170432
O O3 0.500000 0.500000 0.000000
O O4 0.345840 0.285263 0.820176
O O5 0.899209 0.528098 0.689674
O O6 0.780216 0.891443 0.491751
O O7 0.928638 0.890208 0.580500
O O8 0.938111 0.044946 0.803354
O O9 0.000000 0.000000 0.500000
O O10 0.626182 0.414198 0.793650
O O11 0.646711 0.918661 0.888451
#
# Coordination Sequence:
#
# PCOD8126679 Si02
#       5
#     4   4   4   4   4
#     4  10  22  41  63  87 124 170 214 265 322 379
#     4  10  22  41  64  96 129 162 214 260 311 390
#     4  10  21  41  68  93 127 171 206 254 321 385
#     4  11  23  40  63  92 126 171 219 261 322 391
#     4  11  24  41  63  94 129 164 212 274 322 375
#
# _framework density 22.931177999999999
#
# number of rings (size 3 to 8) (size 9 to 14) (size 15 to 20)
#    0.000    1.600    0.000    4.800    0.000    6.400 
#    0.000   12.000    0.000    0.000    0.000    0.000 
#    0.000    0.000    0.000    0.000    0.000    0.000 
#
# Total GULP energy -247825.037253 kJ/mol
# GULP energy per Si atom -12391.251863 kJ/mol
# Density = 2.287899 g / cm^3
# Si number density = 22.931178 Si / 1000 Ang^3
#
#
#
# Elastic Constant Matrix: (Units=GPa)
#
#
# Indices 1 2 3 4 5 6 
#
# 1 83.6653 24.2195 52.2142 0.0000 11.2485 0.0000
# 2 24.2195 80.8225 7.9877 0.0000 20.1600 0.0000
# 3 52.2142 7.9877 87.3288 0.0000 12.8738 0.0000
# 4 0.0000 0.0000 0.0000 24.6892 0.0000 -4.4438
# 5 11.2485 20.1600 12.8738 0.0000 38.0313 0.0000
# 6 0.0000 0.0000 0.0000 -4.4438 0.0000 36.3748
#
#
#
# Elastic Compliance Matrix: (Units=1/GPa)
#
#
# Indices 1 2 3 4 5 6 
#
# 1 0.020968 -0.005256 -0.012160 0.000000 0.000701 0.000000
# 2 -0.005256 0.015579 0.002848 0.000000 -0.007668 0.000000
# 3 -0.012160 0.002848 0.019107 0.000000 -0.004381 0.000000
# 4 0.000000 0.000000 0.000000 0.041414 0.000000 0.005059
# 5 0.000701 -0.007668 -0.004381 0.000000 0.031635 0.000000
# 6 0.000000 0.000000 0.000000 0.005059 0.000000 0.028110
#
#
# Mechanical properties :
#
#
# Convention : Reuss Voigt Hill
#
# Bulk Modulus (GPa) = 37.70960 46.73991 42.22476
# Shear Modulus (GPa) = 25.66900 30.97875 28.32387
#
# Velocity S-wave (km/s) = 3.34936 3.67951 3.51831
# Velocity P-wave (km/s) = 5.60696 6.20312 5.91256
#
# Compressibility (1/GPa) = 0.02651844
#
# Stress axis : x y z
#
# Youngs Moduli (GPa) = 47.69075 64.18863 52.33805
#
# Poissons Ratio (x) = 0.33741 0.63641
# Poissons Ratio (y) = 0.25069 -0.14907
# Poissons Ratio (z) = 0.57990 -0.18283
#
# Static dielectric constant tensor:
#      x y z
#    x 3.814340 0.000000 -0.064780 
#    y 0.000000 4.426930 0.000000 
#    z -0.064780 0.000000 4.079630 
# 
# 
# High freq. dielectric constant tensor:
#      x y z
#    x 1.906980 0.000000 -0.011330 
#    y 0.000000 1.921800 0.000000 
#    z -0.011330 0.000000 1.887550 
# 
# From -- ./inp_files/35445.got.cif
#   From: 2010.03.12/outbox.cif.g09.slc.cpg/sg14_18_cif.got.tgz:35445.got - 2010.03.31 13:35:05.
