data_PCOD8126116
_publ_section_title
;
Structure prediction by ZEFSAII (Michael W. Deem and Ramdas Pophale) SiO2 
 PCOD8126116
Probable space group: P 21/C
;
_chemical_formula_sum "Si O2"
_cell_formula_units_Z 32
_cell_length_a 19.107736
_cell_length_b 11.081362
_cell_length_c 16.160372
_cell_angle_alpha 90.000000
_cell_angle_beta 153.570238
_cell_angle_gamma 90.000000
_cell_volume 1523.041388
_symmetry_space_group_name_H-M "P 21/C"
_symmetry_group_IT_number 14
_symmetry_cell_setting 'monoclinic'
loop_
_space_group_symop_operation_xyz
x,y,z
-x,1/2+y,1/2-z
-x,-y,-z
x,1/2-y,1/2+z
loop_
_atom_site_type_symbol
_atom_site_label
_atom_site_fract_x
_atom_site_fract_y
_atom_site_fract_z
Si Si1 0.637659 0.681327 0.776954
Si Si2 0.398427 0.922230 0.154160
Si Si3 0.205262 0.532871 0.145579
Si Si4 0.127106 0.938501 0.745638
Si Si5 0.027003 0.286784 0.340102
Si Si6 0.807875 0.241755 0.965474
Si Si7 0.423753 0.427484 0.843938
Si Si8 0.912502 0.000151 0.992967
O O1 0.543634 0.612379 0.749621
O O2 0.688577 0.582358 0.763514
O O3 0.529356 0.785427 0.617895
O O4 0.791235 0.746642 0.977545
O O5 0.334955 0.799851 0.127946
O O6 0.454195 0.010447 0.286841
O O7 0.250430 0.981519 0.947224
O O8 0.220975 0.555012 0.259430
O O9 0.269994 0.652967 0.170875
O O10 0.025323 0.523157 0.922929
O O11 0.067863 0.802975 0.699820
O O12 0.994690 0.422882 0.339498
O O13 0.956117 0.288129 0.173961
O O14 0.874902 0.135322 0.979410
O O15 0.244563 0.422931 0.683006
O O16 0.500000 0.500000 0.000000
O O17 0.000000 0.000000 0.000000
#
# Coordination Sequence:
#
# PCOD8126116 Si02
#       8
#     4   4   4   4   4   4   4   4
#     4  10  23  39  61  91 122 166 212 253 313 374
#     4  10  23  41  60  86 123 167 202 257 312 372
#     4  10  21  38  63  93 121 159 203 258 312 376
#     4   9  20  40  60  88 123 155 201 257 313 369
#     4   9  20  37  60  87 125 154 207 256 306 375
#     4  10  22  35  61  91 121 161 201 254 320 367
#     4  10  24  44  60  87 128 162 210 259 307 372
#     4  10  21  38  61  89 117 159 204 256 314 367
#
# _framework density 21.010590000000001
#
# number of rings (size 3 to 8) (size 9 to 14) (size 15 to 20)
#    0.000    2.250    0.000    0.750   10.500    6.500 
#    2.250    0.000    0.000    0.000    0.000    0.000 
#    0.000    0.000    0.000    0.000    0.000    0.000 
#
# Total GULP energy -396596.920692 kJ/mol
# GULP energy per Si atom -12393.653772 kJ/mol
# Density = 2.096277 g / cm^3
# Si number density = 21.010590 Si / 1000 Ang^3
#
#
#
# Elastic Constant Matrix: (Units=GPa)
#
#
# Indices 1 2 3 4 5 6 
#
# 1 132.8584 32.7142 34.9306 0.0000 -0.7964 0.0000
# 2 32.7142 102.8118 27.3994 0.0000 -12.1913 0.0000
# 3 34.9306 27.3994 59.0482 0.0000 -14.1184 0.0000
# 4 0.0000 0.0000 0.0000 25.4891 0.0000 -6.2295
# 5 -0.7964 -12.1913 -14.1184 0.0000 29.2186 0.0000
# 6 0.0000 0.0000 0.0000 -6.2295 0.0000 24.2010
#
#
#
# Elastic Compliance Matrix: (Units=1/GPa)
#
#
# Indices 1 2 3 4 5 6 
#
# 1 0.009409 -0.001922 -0.005432 0.000000 -0.003170 0.000000
# 2 -0.001922 0.011645 -0.003525 0.000000 0.003104 0.000000
# 3 -0.005432 -0.003525 0.024192 0.000000 0.010071 0.000000
# 4 0.000000 0.000000 0.000000 0.041866 0.000000 0.010777
# 5 -0.003170 0.003104 0.010071 0.000000 0.040300 0.000000
# 6 0.000000 0.000000 0.000000 0.010777 0.000000 0.044095
#
#
# Mechanical properties :
#
#
# Convention : Reuss Voigt Hill
#
# Bulk Modulus (GPa) = 42.57319 53.86742 48.22030
# Shear Modulus (GPa) = 24.86384 29.09335 26.97859
#
# Velocity S-wave (km/s) = 3.44378 3.72519 3.58725
# Velocity P-wave (km/s) = 6.00996 6.64805 6.33704
#
# Compressibility (1/GPa) = 0.02348896
#
# Stress axis : x y z
#
# Youngs Moduli (GPa) = 106.27705 85.87032 41.33555
#
# Poissons Ratio (x) = 0.16506 0.22455
# Poissons Ratio (y) = 0.20429 0.14569
# Poissons Ratio (z) = 0.57733 0.30265
#
# Static dielectric constant tensor:
#      x y z
#    x 3.846230 0.000000 -0.076310 
#    y 0.000000 4.072530 0.000000 
#    z -0.076310 0.000000 3.753980 
# 
# 
# High freq. dielectric constant tensor:
#      x y z
#    x 1.827800 0.000000 -0.005470 
#    y 0.000000 1.829390 0.000000 
#    z -0.005470 0.000000 1.807010 
# 
# From -- ./inp_files/49051.got.cif
#   From: 2010.03.12/outbox.cif.g09.slc.cpg/sg14_25_cif.got.tgz:49051.got - 2010.03.31 13:35:05.
