data_PCOD8126804
_publ_section_title
;
Structure prediction by ZEFSAII (Michael W. Deem and Ramdas Pophale) SiO2 
 PCOD8126804
Probable space group: P 21/C
;
_chemical_formula_sum "Si O2"
_cell_formula_units_Z 32
_cell_length_a 15.694320
_cell_length_b 9.136701
_cell_length_c 18.068186
_cell_angle_alpha 90.000000
_cell_angle_beta 36.073809
_cell_angle_gamma 90.000000
_cell_volume 1525.577049
_symmetry_space_group_name_H-M "P 21/C"
_symmetry_group_IT_number 14
_symmetry_cell_setting 'monoclinic'
loop_
_space_group_symop_operation_xyz
x,y,z
-x,1/2+y,1/2-z
-x,-y,-z
x,1/2-y,1/2+z
loop_
_atom_site_type_symbol
_atom_site_label
_atom_site_fract_x
_atom_site_fract_y
_atom_site_fract_z
Si Si1 0.135411 0.354310 0.699294
Si Si2 0.880907 0.344326 0.372722
Si Si3 0.124559 0.567945 0.462020
Si Si4 0.376752 0.187154 0.451597
Si Si5 0.679301 0.177791 0.715135
Si Si6 0.693513 0.706359 0.659717
Si Si7 0.618899 0.359289 0.089370
Si Si8 0.138567 0.071762 0.364660
O O1 0.142253 0.516212 0.662061
O O2 0.282683 0.264086 0.581734
O O3 0.101950 0.371010 0.809277
O O4 0.004444 0.263022 0.753670
O O5 0.936075 0.394579 0.414530
O O6 0.730482 0.257242 0.478773
O O7 0.184865 0.712888 0.380827
O O8 0.261571 0.462457 0.377307
O O9 0.000000 0.500000 0.500000
O O10 0.539948 0.243875 0.347538
O O11 0.311379 0.229239 0.418704
O O12 0.370640 0.011172 0.463185
O O13 0.646517 0.112372 0.656916
O O14 0.727608 0.042311 0.732281
O O15 0.538814 0.713634 0.809192
O O16 0.816233 0.788296 0.619477
O O17 0.000000 0.000000 0.500000
#
# Coordination Sequence:
#
# PCOD8126804 Si02
#       8
#     4   4   4   4   4   4   4   4
#     4  12  27  43  68  96 136 176 218 274 339 392
#     4  11  25  43  64  99 130 172 224 271 328 397
#     4  11  21  40  66  98 131 170 223 271 321 395
#     4  11  22  42  68  97 132 175 215 279 325 388
#     4  10  22  38  66  98 130 171 223 267 329 388
#     4  11  22  40  71  98 128 172 224 266 331 390
#     4  10  21  42  70  96 130 171 222 271 320 398
#     4  12  26  44  66  98 133 177 221 277 330 399
#
# _framework density 20.975670000000001
#
# number of rings (size 3 to 8) (size 9 to 14) (size 15 to 20)
#    0.000    1.000    3.750    3.750    3.500    1.500 
#    0.000    1.875    0.000    0.000    0.000    0.000 
#    0.000    0.000    0.000    0.000    0.000    0.000 
#
# Total GULP energy -396948.115193 kJ/mol
# GULP energy per Si atom -12404.628600 kJ/mol
# Density = 2.092793 g / cm^3
# Si number density = 20.975670 Si / 1000 Ang^3
#
#
#
# Elastic Constant Matrix: (Units=GPa)
#
#
# Indices 1 2 3 4 5 6 
#
# 1 57.9393 29.6926 32.8918 0.0000 -4.3919 0.0000
# 2 29.6926 107.7198 30.5710 0.0000 -1.9172 0.0000
# 3 32.8918 30.5710 106.0633 0.0000 -2.9855 0.0000
# 4 0.0000 0.0000 0.0000 38.9956 0.0000 -7.5413
# 5 -4.3919 -1.9172 -2.9855 0.0000 28.4260 0.0000
# 6 0.0000 0.0000 0.0000 -7.5413 0.0000 40.1132
#
#
#
# Elastic Compliance Matrix: (Units=1/GPa)
#
#
# Indices 1 2 3 4 5 6 
#
# 1 0.023129 -0.004698 -0.005744 0.000000 0.002653 0.000000
# 2 -0.004698 0.011069 -0.001738 0.000000 -0.000162 0.000000
# 3 -0.005744 -0.001738 0.011717 0.000000 0.000226 0.000000
# 4 0.000000 0.000000 0.000000 0.026611 0.000000 0.005003
# 5 0.002653 -0.000162 0.000226 0.000000 0.035602 0.000000
# 6 0.000000 0.000000 0.000000 0.005003 0.000000 0.025870
#
#
# Mechanical properties :
#
#
# Convention : Reuss Voigt Hill
#
# Bulk Modulus (GPa) = 46.39338 50.89258 48.64298
# Shear Modulus (GPa) = 30.20372 33.41143 31.80757
#
# Velocity S-wave (km/s) = 3.79877 3.99540 3.89833
# Velocity P-wave (km/s) = 6.43480 6.75275 6.59569
#
# Compressibility (1/GPa) = 0.02155480
#
# Stress axis : x y z
#
# Youngs Moduli (GPa) = 43.23584 90.34461 85.34705
#
# Poissons Ratio (x) = 0.42445 0.49022
# Poissons Ratio (y) = 0.20313 0.14833
# Poissons Ratio (z) = 0.24834 0.15702
#
# Static dielectric constant tensor:
#      x y z
#    x 3.544800 0.000000 -0.132970 
#    y 0.000000 4.103490 0.000000 
#    z -0.132970 0.000000 3.800020 
# 
# 
# High freq. dielectric constant tensor:
#      x y z
#    x 1.800260 0.000000 -0.021170 
#    y 0.000000 1.846580 0.000000 
#    z -0.021170 0.000000 1.822810 
# 
# From -- ./inp_files/69143.got.cif
#   From: 2010.03.12/outbox.cif.g09.slc.cpg/sg14_35_cif.got.tgz:69143.got - 2010.03.31 13:35:05.
