data_PCOD8126027
_publ_section_title
;
Structure prediction by ZEFSAII (Michael W. Deem and Ramdas Pophale) SiO2 
 PCOD8126027
Probable space group: P 21/C
;
_chemical_formula_sum "Si O2"
_cell_formula_units_Z 24
_cell_length_a 14.236189
_cell_length_b 11.956416
_cell_length_c 13.194937
_cell_angle_alpha 90.000000
_cell_angle_beta 154.278677
_cell_angle_gamma 90.000000
_cell_volume 974.734202
_symmetry_space_group_name_H-M "P 21/C"
_symmetry_group_IT_number 14
_symmetry_cell_setting 'monoclinic'
loop_
_space_group_symop_operation_xyz
x,y,z
-x,1/2+y,1/2-z
-x,-y,-z
x,1/2-y,1/2+z
loop_
_atom_site_type_symbol
_atom_site_label
_atom_site_fract_x
_atom_site_fract_y
_atom_site_fract_z
Si Si1 0.202472 0.624137 0.967528
Si Si2 0.217734 0.653586 0.570410
Si Si3 0.150902 0.264086 0.645203
Si Si4 0.446113 0.433866 0.811731
Si Si5 0.889340 0.885744 0.579880
Si Si6 0.720169 0.802695 0.023298
O O1 0.187326 0.511882 0.020069
O O2 0.971003 0.680691 0.727902
O O3 0.337387 0.726551 0.158617
O O4 0.295237 0.592587 0.943312
O O5 0.391351 0.562965 0.781655
O O6 0.047433 0.672596 0.494981
O O7 0.101600 0.602753 0.358050
O O8 0.314074 0.354338 0.756528
O O9 0.058602 0.175418 0.475443
O O10 0.289554 0.196150 0.864564
O O11 0.408246 0.404154 0.654167
O O12 0.689814 0.821750 0.444122
#
# Coordination Sequence:
#
# PCOD8126027 Si02
#       6
#     4   4   4   4   4   4
#     4  10  21  37  62  88 116 159 196 236 303 347
#     4  10  22  39  61  90 118 157 202 239 298 354
#     4   9  20  38  64  85 117 160 200 241 299 347
#     4  11  21  39  64  83 124 155 196 250 293 349
#     4   9  18  38  64  78 123 155 193 242 294 344
#     4   9  21  40  58  86 116 158 197 240 299 347
#
# _framework density 24.622098000000001
#
# number of rings (size 3 to 8) (size 9 to 14) (size 15 to 20)
#    0.000    2.667    1.667    0.500    4.667    2.667 
#    0.000   14.167    0.000    0.000    0.000    0.000 
#    0.000    0.000    0.000    0.000    0.000    0.000 
#
# Total GULP energy -297340.053518 kJ/mol
# GULP energy per Si atom -12389.168897 kJ/mol
# Density = 2.456606 g / cm^3
# Si number density = 24.622098 Si / 1000 Ang^3
#
#
#
# Elastic Constant Matrix: (Units=GPa)
#
#
# Indices 1 2 3 4 5 6 
#
# 1 161.2405 57.4585 26.4334 0.0000 7.7420 0.0000
# 2 57.4585 160.4804 19.1927 0.0000 21.9447 0.0000
# 3 26.4334 19.1927 13.6842 0.0000 -2.7906 0.0000
# 4 0.0000 0.0000 0.0000 30.6767 0.0000 7.1804
# 5 7.7420 21.9447 -2.7906 0.0000 26.7163 0.0000
# 6 0.0000 0.0000 0.0000 7.1804 0.0000 40.3998
#
#
#
# Elastic Compliance Matrix: (Units=1/GPa)
#
#
# Indices 1 2 3 4 5 6 
#
# 1 0.009701 -0.000665 -0.018668 0.000000 -0.004215 0.000000
# 2 -0.000665 0.009306 -0.013577 0.000000 -0.008869 0.000000
# 3 -0.018668 -0.013577 0.134420 0.000000 0.030603 0.000000
# 4 0.000000 0.000000 0.000000 0.034013 0.000000 -0.006045
# 5 -0.004215 -0.008869 0.030603 0.000000 0.049134 0.000000
# 6 0.000000 0.000000 0.000000 -0.006045 0.000000 0.025827
#
#
# Mechanical properties :
#
#
# Convention : Reuss Voigt Hill
#
# Bulk Modulus (GPa) = 11.41434 60.17493 35.79463
# Shear Modulus (GPa) = 13.98903 35.04659 24.51781
#
# Velocity S-wave (km/s) = 2.38617 3.77686 3.15900
# Velocity P-wave (km/s) = 3.49823 6.59637 5.27966
#
# Compressibility (1/GPa) = 0.08760912
#
# Stress axis : x y z
#
# Youngs Moduli (GPa) = 103.07711 107.46014 7.43935
#
# Poissons Ratio (x) = 0.07141 0.13888
# Poissons Ratio (y) = 0.06849 0.10100
# Poissons Ratio (z) = 1.92422 1.45898
#
# Static dielectric constant tensor:
#      x y z
#    x 4.488120 0.000000 0.258380 
#    y 0.000000 4.709500 0.000000 
#    z 0.258380 0.000000 4.874940 
# 
# 
# High freq. dielectric constant tensor:
#      x y z
#    x 1.976700 0.000000 0.025260 
#    y 0.000000 1.994230 0.000000 
#    z 0.025260 0.000000 1.969280 
# 
# From -- ./inp_files/39267.got.cif
#   From: 2010.03.12/outbox.cif.g09.slc.cpg/sg14_20_cif.got.tgz:39267.got - 2010.03.31 13:35:05.
