data_PCOD8126409
_publ_section_title
;
Structure prediction by ZEFSAII (Michael W. Deem and Ramdas Pophale) SiO2 
 PCOD8126409
Probable space group: P 21/C
;
_chemical_formula_sum "Si O2"
_cell_formula_units_Z 28
_cell_length_a 9.075136
_cell_length_b 14.188778
_cell_length_c 19.815212
_cell_angle_alpha 90.000000
_cell_angle_beta 29.518614
_cell_angle_gamma 90.000000
_cell_volume 1257.143826
_symmetry_space_group_name_H-M "P 21/C"
_symmetry_group_IT_number 14
_symmetry_cell_setting 'monoclinic'
loop_
_space_group_symop_operation_xyz
x,y,z
-x,1/2+y,1/2-z
-x,-y,-z
x,1/2-y,1/2+z
loop_
_atom_site_type_symbol
_atom_site_label
_atom_site_fract_x
_atom_site_fract_y
_atom_site_fract_z
Si Si1 0.439882 0.864099 0.179541
Si Si2 0.602642 0.293862 0.907378
Si Si3 0.722796 0.737816 0.331991
Si Si4 0.839300 0.568571 0.966634
Si Si5 0.109164 0.110889 0.399959
Si Si6 0.398566 0.928016 0.893197
Si Si7 0.824753 0.682731 0.650332
O O1 0.534418 0.785455 0.087771
O O2 0.542509 0.831511 0.213619
O O3 0.081893 0.877639 0.323392
O O4 0.591068 0.961268 0.094467
O O5 0.955973 0.285385 0.764948
O O6 0.488604 0.283069 0.028333
O O7 0.488784 0.396140 0.925145
O O8 0.593784 0.635257 0.365806
O O9 0.726772 0.813609 0.268146
O O10 0.885905 0.455314 0.943863
O O11 0.918331 0.592701 0.011206
O O12 0.455229 0.090984 0.239161
O O13 0.008658 0.217663 0.427253
O O14 0.052900 0.899633 0.038660
#
# Coordination Sequence:
#
# PCOD8126409 Si02
#       7
#     4   4   4   4   4   4   4
#     4  11  24  40  71  98 133 180 238 284 334 409
#     4  12  23  44  70 100 137 188 223 278 348 417
#     4  11  25  43  67 100 142 181 223 279 356 404
#     4  10  21  40  62 100 136 166 232 283 338 398
#     4   9  21  37  65  95 129 171 219 295 327 388
#     4  10  23  43  64  98 137 177 232 283 338 409
#     4  11  22  41  67  94 131 181 227 281 344 402
#
# _framework density 22.272711000000001
#
# number of rings (size 3 to 8) (size 9 to 14) (size 15 to 20)
#    0.000    1.429    4.286    0.429    4.000    1.714 
#    0.000    9.286    0.000    0.000    0.000    0.000 
#    0.000    0.000    0.000    0.000    0.000    0.000 
#
# Total GULP energy -347097.829873 kJ/mol
# GULP energy per Si atom -12396.351067 kJ/mol
# Density = 2.222202 g / cm^3
# Si number density = 22.272711 Si / 1000 Ang^3
#
#
#
# Elastic Constant Matrix: (Units=GPa)
#
#
# Indices 1 2 3 4 5 6 
#
# 1 71.2441 19.6921 5.2869 0.0000 3.8201 0.0000
# 2 19.6921 76.4844 -0.4235 0.0000 2.7598 0.0000
# 3 5.2869 -0.4235 48.2513 0.0000 7.7004 0.0000
# 4 0.0000 0.0000 0.0000 31.4267 0.0000 -4.5021
# 5 3.8201 2.7598 7.7004 0.0000 35.7694 0.0000
# 6 0.0000 0.0000 0.0000 -4.5021 0.0000 32.3114
#
#
#
# Elastic Compliance Matrix: (Units=1/GPa)
#
#
# Indices 1 2 3 4 5 6 
#
# 1 0.015285 -0.003908 -0.001550 0.000000 -0.000997 0.000000
# 2 -0.003908 0.014114 0.000683 0.000000 -0.000819 0.000000
# 3 -0.001550 0.000683 0.021626 0.000000 -0.004543 0.000000
# 4 0.000000 0.000000 0.000000 0.032468 0.000000 0.004524
# 5 -0.000997 -0.000819 -0.004543 0.000000 0.029104 0.000000
# 6 0.000000 0.000000 0.000000 0.004524 0.000000 0.031579
#
#
# Mechanical properties :
#
#
# Convention : Reuss Voigt Hill
#
# Bulk Modulus (GPa) = 24.11135 27.23230 25.67182
# Shear Modulus (GPa) = 29.84157 31.32977 30.58567
#
# Velocity S-wave (km/s) = 3.66434 3.75459 3.70974
# Velocity P-wave (km/s) = 5.36210 5.57219 5.46815
#
# Compressibility (1/GPa) = 0.04147425
#
# Stress axis : x y z
#
# Youngs Moduli (GPa) = 65.42399 70.85139 46.24150
#
# Poissons Ratio (x) = 0.27688 0.07167
# Poissons Ratio (y) = 0.25567 -0.03157
# Poissons Ratio (z) = 0.10140 -0.04837
#
# Static dielectric constant tensor:
#      x y z
#    x 3.952380 0.000000 0.136270 
#    y 0.000000 4.249130 0.000000 
#    z 0.136270 0.000000 3.955540 
# 
# 
# High freq. dielectric constant tensor:
#      x y z
#    x 1.865320 0.000000 0.006910 
#    y 0.000000 1.879230 0.000000 
#    z 0.006910 0.000000 1.877990 
# 
# From -- ./inp_files/65892.got.cif
#   From: 2010.03.12/outbox.cif.g09.slc.cpg/sg14_33_cif.got.tgz:65892.got - 2010.03.31 13:35:05.
