data_PCOD8126792
_publ_section_title
;
Structure prediction by ZEFSAII (Michael W. Deem and Ramdas Pophale) SiO2 
 PCOD8126792
Probable space group: P 21/C
;
_chemical_formula_sum "Si O2"
_cell_formula_units_Z 28
_cell_length_a 9.659600
_cell_length_b 19.098912
_cell_length_c 9.346740
_cell_angle_alpha 90.000000
_cell_angle_beta 136.226799
_cell_angle_gamma 90.000000
_cell_volume 1192.921727
_symmetry_space_group_name_H-M "P 21/C"
_symmetry_group_IT_number 14
_symmetry_cell_setting 'monoclinic'
loop_
_space_group_symop_operation_xyz
x,y,z
-x,1/2+y,1/2-z
-x,-y,-z
x,1/2-y,1/2+z
loop_
_atom_site_type_symbol
_atom_site_label
_atom_site_fract_x
_atom_site_fract_y
_atom_site_fract_z
Si Si1 0.495215 0.070967 0.815967
Si Si2 0.237437 0.053038 0.887294
Si Si3 0.704350 0.813169 0.885176
Si Si4 0.615917 0.918807 0.597881
Si Si5 0.868511 0.300379 0.347665
Si Si6 0.181849 0.949721 0.296822
Si Si7 0.355314 0.779241 0.052863
O O1 0.302849 0.050437 0.769917
O O2 0.424723 0.085642 0.601989
O O3 0.591148 0.141899 0.951730
O O4 0.661208 0.010077 0.948734
O O5 0.994501 0.047333 0.716064
O O6 0.313916 0.126407 0.009969
O O7 0.692410 0.845732 0.716027
O O8 0.537056 0.754635 0.778747
O O9 0.918222 0.774077 0.051254
O O10 0.409401 0.939507 0.530227
O O11 0.793926 0.975340 0.765774
O O12 0.858228 0.385192 0.339316
O O13 0.836599 0.277012 0.486337
O O14 0.693866 0.267647 0.120664
#
# Coordination Sequence:
#
# PCOD8126792 Si02
#       7
#     4   4   4   4   4   4   4
#     4  11  24  42  66 104 138 185 222 288 341 400
#     4  10  24  42  67 100 145 176 228 282 349 395
#     4  11  25  45  71  98 134 183 228 288 333 409
#     4  11  22  40  73  98 131 174 236 284 333 393
#     4  11  26  43  71  98 133 184 226 275 352 400
#     4  10  21  42  68 102 129 176 228 284 331 402
#     4  12  24  46  65 100 140 178 229 279 339 415
#
# _framework density 23.471784
#
# number of rings (size 3 to 8) (size 9 to 14) (size 15 to 20)
#    0.000    1.143    2.857    2.571    2.000    6.857 
#    0.000    0.000    0.000    0.000    0.000    0.000 
#    0.000    0.000    0.000    0.000    0.000    0.000 
#
# Total GULP energy -347052.206482 kJ/mol
# GULP energy per Si atom -12394.721660 kJ/mol
# Density = 2.341836 g / cm^3
# Si number density = 23.471784 Si / 1000 Ang^3
#
#
#
# Elastic Constant Matrix: (Units=GPa)
#
#
# Indices 1 2 3 4 5 6 
#
# 1 144.7294 23.4562 40.3920 0.0000 14.2267 0.0000
# 2 23.4562 60.9917 2.3250 0.0000 8.3164 0.0000
# 3 40.3920 2.3250 61.5441 0.0000 -0.0082 0.0000
# 4 0.0000 0.0000 0.0000 23.5366 0.0000 10.7687
# 5 14.2267 8.3164 -0.0082 0.0000 33.0964 0.0000
# 6 0.0000 0.0000 0.0000 10.7687 0.0000 30.1418
#
#
#
# Elastic Compliance Matrix: (Units=1/GPa)
#
#
# Indices 1 2 3 4 5 6 
#
# 1 0.009401 -0.002934 -0.006060 0.000000 -0.003305 0.000000
# 2 -0.002934 0.017918 0.001248 0.000000 -0.003241 0.000000
# 3 -0.006060 0.001248 0.020179 0.000000 0.002296 0.000000
# 4 0.000000 0.000000 0.000000 0.050789 0.000000 -0.018145
# 5 -0.003305 -0.003241 0.002296 0.000000 0.032451 0.000000
# 6 0.000000 0.000000 0.000000 -0.018145 0.000000 0.039659
#
#
# Mechanical properties :
#
#
# Convention : Reuss Voigt Hill
#
# Bulk Modulus (GPa) = 31.24271 44.40130 37.82200
# Shear Modulus (GPa) = 25.43798 30.76109 28.09954
#
# Velocity S-wave (km/s) = 3.29564 3.62409 3.46376
# Velocity P-wave (km/s) = 5.27459 6.03904 5.66971
#
# Compressibility (1/GPa) = 0.03200747
#
# Stress axis : x y z
#
# Youngs Moduli (GPa) = 106.37196 55.80885 49.55743
#
# Poissons Ratio (x) = 0.16373 0.30030
# Poissons Ratio (y) = 0.31207 -0.06185
# Poissons Ratio (z) = 0.64457 -0.06966
#
# Static dielectric constant tensor:
#      x y z
#    x 4.373660 0.000000 0.332330 
#    y 0.000000 4.359350 0.000000 
#    z 0.332330 0.000000 3.941440 
# 
# 
# High freq. dielectric constant tensor:
#      x y z
#    x 1.936930 0.000000 0.014000 
#    y 0.000000 1.935720 0.000000 
#    z 0.014000 0.000000 1.905540 
# 
# From -- ./inp_files/10417.got.cif
#   From: 2010.03.12/outbox.cif.g09.slc.cpg/sg14_6_cif.got.tgz:10417.got - 2010.03.31 13:35:05.
