data_PCOD8126961
_publ_section_title
;
Structure prediction by ZEFSAII (Michael W. Deem and Ramdas Pophale) SiO2 
 PCOD8126961
Probable space group: P 21/C
;
_chemical_formula_sum "Si O2"
_cell_formula_units_Z 24
_cell_length_a 21.402161
_cell_length_b 5.041276
_cell_length_c 20.815724
_cell_angle_alpha 90.000000
_cell_angle_beta 150.359428
_cell_angle_gamma 90.000000
_cell_volume 1110.724539
_symmetry_space_group_name_H-M "P 21/C"
_symmetry_group_IT_number 14
_symmetry_cell_setting 'monoclinic'
loop_
_space_group_symop_operation_xyz
x,y,z
-x,1/2+y,1/2-z
-x,-y,-z
x,1/2-y,1/2+z
loop_
_atom_site_type_symbol
_atom_site_label
_atom_site_fract_x
_atom_site_fract_y
_atom_site_fract_z
Si Si1 0.970500 0.901224 0.370530
Si Si2 0.825080 0.845938 0.367396
Si Si3 0.059290 0.598237 0.334284
Si Si4 0.334522 0.871319 0.293380
Si Si5 0.387094 0.490773 0.985832
Si Si6 0.743717 0.482673 0.582037
O O1 0.865926 0.065659 0.237232
O O2 0.086125 0.092968 0.492810
O O3 0.910152 0.782280 0.381141
O O4 0.033342 0.663324 0.385529
O O5 0.754182 0.576891 0.323627
O O6 0.722900 0.077268 0.260915
O O7 0.207268 0.542801 0.448033
O O8 0.977139 0.346771 0.242510
O O9 0.470926 0.882064 0.381798
O O10 0.344689 0.979096 0.374738
O O11 0.368099 0.774595 0.003432
O O12 0.300287 0.281241 0.944881
#
# Coordination Sequence:
#
# PCOD8126961 Si02
#       6
#     4   4   4   4   4   4
#     4  10  22  38  57  91 120 156 186 238 299 359
#     4  11  23  36  60  85 129 154 188 233 301 367
#     4  10  22  36  59  85 118 154 196 241 289 345
#     4  11  22  38  55  88 116 162 189 241 288 347
#     4  11  21  36  60  82 121 146 201 242 285 335
#     4  11  20  37  59  88 113 150 195 248 285 341
#
# _framework density 21.607517999999999
#
# number of rings (size 3 to 8) (size 9 to 14) (size 15 to 20)
#    0.000    1.333    3.333    3.000    0.000    9.333 
#    0.000    0.000    0.000    4.000    0.000    0.000 
#    0.000    0.000    0.000    0.000    0.000    0.000 
#
# Total GULP energy -297552.675933 kJ/mol
# GULP energy per Si atom -12398.028164 kJ/mol
# Density = 2.155834 g / cm^3
# Si number density = 21.607518 Si / 1000 Ang^3
#
#
#
# Elastic Constant Matrix: (Units=GPa)
#
#
# Indices 1 2 3 4 5 6 
#
# 1 89.3225 29.9481 20.1473 0.0000 21.3953 0.0000
# 2 29.9481 88.5226 -3.0045 0.0000 2.2867 0.0000
# 3 20.1473 -3.0045 56.1583 0.0000 8.9118 0.0000
# 4 0.0000 0.0000 0.0000 21.5428 0.0000 8.7703
# 5 21.3953 2.2867 8.9118 0.0000 26.7942 0.0000
# 6 0.0000 0.0000 0.0000 8.7703 0.0000 39.2564
#
#
#
# Elastic Compliance Matrix: (Units=1/GPa)
#
#
# Indices 1 2 3 4 5 6 
#
# 1 0.016816 -0.005546 -0.004512 0.000000 -0.011454 0.000000
# 2 -0.005546 0.013185 0.002292 0.000000 0.002541 0.000000
# 3 -0.004512 0.002292 0.020067 0.000000 -0.003267 0.000000
# 4 0.000000 0.000000 0.000000 0.051064 0.000000 -0.011408
# 5 -0.011454 0.002541 -0.003267 0.000000 0.047337 0.000000
# 6 0.000000 0.000000 0.000000 -0.011408 0.000000 0.028022
#
#
# Mechanical properties :
#
#
# Convention : Reuss Voigt Hill
#
# Bulk Modulus (GPa) = 28.95625 36.46503 32.71064
# Shear Modulus (GPa) = 24.56576 29.97951 27.27263
#
# Velocity S-wave (km/s) = 3.37546 3.72890 3.55658
# Velocity P-wave (km/s) = 5.34993 5.95418 5.66013
#
# Compressibility (1/GPa) = 0.03453486
#
# Stress axis : x y z
#
# Youngs Moduli (GPa) = 59.46645 75.84330 49.83403
#
# Poissons Ratio (x) = 0.42065 0.22486
# Poissons Ratio (y) = 0.32982 -0.11422
# Poissons Ratio (z) = 0.26832 -0.17383
#
# Static dielectric constant tensor:
#      x y z
#    x 4.090930 0.000000 0.260100 
#    y 0.000000 3.767210 0.000000 
#    z 0.260100 0.000000 3.794610 
# 
# 
# High freq. dielectric constant tensor:
#      x y z
#    x 1.849310 0.000000 0.026640 
#    y 0.000000 1.858480 0.000000 
#    z 0.026640 0.000000 1.817950 
# 
# From -- ./inp_files/69618.got.cif
#   From: 2010.03.12/outbox.cif.g09.slc.cpg/sg14_35_cif.got.tgz:69618.got - 2010.03.31 13:35:05.
