data_PCOD8126565
_publ_section_title
;
Structure prediction by ZEFSAII (Michael W. Deem and Ramdas Pophale) SiO2 
 PCOD8126565
Probable space group: P 21/C
;
_chemical_formula_sum "Si O2"
_cell_formula_units_Z 24
_cell_length_a 9.425401
_cell_length_b 11.894691
_cell_length_c 11.444239
_cell_angle_alpha 90.000000
_cell_angle_beta 78.991755
_cell_angle_gamma 90.000000
_cell_volume 1259.430897
_symmetry_space_group_name_H-M "P 21/C"
_symmetry_group_IT_number 14
_symmetry_cell_setting 'monoclinic'
loop_
_space_group_symop_operation_xyz
x,y,z
-x,1/2+y,1/2-z
-x,-y,-z
x,1/2-y,1/2+z
loop_
_atom_site_type_symbol
_atom_site_label
_atom_site_fract_x
_atom_site_fract_y
_atom_site_fract_z
Si Si1 0.600950 0.839650 0.539530
Si Si2 0.921759 0.585361 0.428821
Si Si3 0.596938 0.586096 0.554942
Si Si4 0.387770 0.492110 0.182699
Si Si5 0.066788 0.166229 0.510297
Si Si6 0.068923 0.536678 0.171334
O O1 0.538349 0.713146 0.548212
O O2 0.589269 0.889665 0.410980
O O3 0.766588 0.839937 0.558128
O O4 0.509861 0.913786 0.644765
O O5 0.752587 0.577322 0.472897
O O6 0.980467 0.709423 0.447035
O O7 0.000000 0.500000 0.500000
O O8 0.954439 0.554652 0.291027
O O9 0.500000 0.500000 0.500000
O O10 0.599629 0.557332 0.690707
O O11 0.232564 0.551088 0.190001
O O12 0.960320 0.128346 0.424018
O O13 0.043254 0.088461 0.626942
#
# Coordination Sequence:
#
# PCOD8126565 Si02
#       6
#     4   4   4   4   4   4
#     4   9  22  41  64  84 119 164 195 245 297 359
#     4  11  23  39  60  88 124 155 199 250 297 350
#     4  11  25  39  61  91 121 161 204 242 300 352
#     4  10  21  42  61  88 123 154 200 247 297 352
#     4   9  22  39  65  86 114 166 196 237 309 356
#     4  10  21  41  61  90 121 150 202 247 298 357
#
# _framework density 19.056225999999999
#
# number of rings (size 3 to 8) (size 9 to 14) (size 15 to 20)
#    0.000    2.000    1.667    0.000    7.000    4.000 
#    0.000    0.000    0.000    0.000    0.000    0.000 
#    0.000    0.000    0.000    0.000    0.000    0.000 
#
# Total GULP energy -297689.472258 kJ/mol
# GULP energy per Si atom -12403.728011 kJ/mol
# Density = 1.901285 g / cm^3
# Si number density = 19.056226 Si / 1000 Ang^3
#
#
#
# Elastic Constant Matrix: (Units=GPa)
#
#
# Indices 1 2 3 4 5 6 
#
# 1 74.0767 62.8122 45.3761 0.0000 6.9694 0.0000
# 2 62.8122 168.3957 65.3433 0.0000 -0.2998 0.0000
# 3 45.3761 65.3433 127.6771 0.0000 -10.4461 0.0000
# 4 0.0000 0.0000 0.0000 22.2278 0.0000 -4.9980
# 5 6.9694 -0.2998 -10.4461 0.0000 28.9358 0.0000
# 6 0.0000 0.0000 0.0000 -4.9980 0.0000 31.3617
#
#
#
# Elastic Compliance Matrix: (Units=1/GPa)
#
#
# Indices 1 2 3 4 5 6 
#
# 1 0.023094 -0.006490 -0.005510 0.000000 -0.007619 0.000000
# 2 -0.006490 0.009284 -0.002379 0.000000 0.000800 0.000000
# 3 -0.005510 -0.002379 0.011453 0.000000 0.005437 0.000000
# 4 0.000000 0.000000 0.000000 0.046661 0.000000 0.007436
# 5 -0.007619 0.000800 0.005437 0.000000 0.038365 0.000000
# 6 0.000000 0.000000 0.000000 0.007436 0.000000 0.033071
#
#
# Mechanical properties :
#
#
# Convention : Reuss Voigt Hill
#
# Bulk Modulus (GPa) = 66.34212 79.69031 73.01622
# Shear Modulus (GPa) = 25.54798 29.61292 27.58045
#
# Velocity S-wave (km/s) = 3.66548 3.94633 3.80849
# Velocity P-wave (km/s) = 7.26662 7.91669 7.59861
#
# Compressibility (1/GPa) = 0.01507338
#
# Stress axis : x y z
#
# Youngs Moduli (GPa) = 43.30085 107.71384 87.31425
#
# Poissons Ratio (x) = 0.69905 0.48106
# Poissons Ratio (y) = 0.28102 0.20775
# Poissons Ratio (z) = 0.23857 0.25629
#
# Static dielectric constant tensor:
#      x y z
#    x 3.475590 0.000000 0.009650 
#    y 0.000000 3.734610 0.000000 
#    z 0.009650 0.000000 3.441520 
# 
# 
# High freq. dielectric constant tensor:
#      x y z
#    x 1.738130 0.000000 -0.001600 
#    y 0.000000 1.751160 0.000000 
#    z -0.001600 0.000000 1.748250 
# 
# From -- ./inp_files/24103.got.cif
#   From: 2010.03.12/outbox.cif.g09.slc.cpg/sg14_13_cif.got.tgz:24103.got - 2010.03.31 13:35:05.
