data_PCOD8126891
_publ_section_title
;
Structure prediction by ZEFSAII (Michael W. Deem and Ramdas Pophale) SiO2 
 PCOD8126891
Probable space group: P 21/C
;
_chemical_formula_sum "Si O2"
_cell_formula_units_Z 28
_cell_length_a 11.177361
_cell_length_b 9.405517
_cell_length_c 18.966861
_cell_angle_alpha 90.000000
_cell_angle_beta 137.641661
_cell_angle_gamma 90.000000
_cell_volume 1343.463984
_symmetry_space_group_name_H-M "P 21/C"
_symmetry_group_IT_number 14
_symmetry_cell_setting 'monoclinic'
loop_
_space_group_symop_operation_xyz
x,y,z
-x,1/2+y,1/2-z
-x,-y,-z
x,1/2-y,1/2+z
loop_
_atom_site_type_symbol
_atom_site_label
_atom_site_fract_x
_atom_site_fract_y
_atom_site_fract_z
Si Si1 0.858905 0.794537 0.860703
Si Si2 0.626806 0.409809 0.104725
Si Si3 0.080418 0.792280 0.095387
Si Si4 0.735972 0.008423 0.294603
Si Si5 0.995299 0.490690 0.314326
Si Si6 0.346343 0.581782 0.394093
Si Si7 0.587008 0.474981 0.243797
O O1 0.849619 0.632888 0.831304
O O2 0.987438 0.872730 0.861656
O O3 0.662325 0.864222 0.772909
O O4 0.935768 0.813378 0.972250
O O5 0.822095 0.480686 0.189107
O O6 0.641052 0.248517 0.082824
O O7 0.546183 0.413413 0.148395
O O8 0.500000 0.500000 0.000000
O O9 0.124356 0.626493 0.120288
O O10 0.998981 0.848967 0.134073
O O11 0.260261 0.877672 0.154013
O O12 0.632754 0.058797 0.180183
O O13 0.594136 0.972714 0.292920
O O14 0.163732 0.508364 0.338317
O O15 0.500000 0.500000 0.500000
#
# Coordination Sequence:
#
# PCOD8126891 Si02
#       7
#     4   4   4   4   4   4   4
#     4  10  23  38  70  95 123 177 217 267 343 391
#     4  10  24  49  69 100 133 183 220 275 345 388
#     4  10  21  44  66  94 131 175 217 275 340 382
#     4  12  24  41  63 103 133 164 228 272 330 401
#     4  10  24  47  66  93 141 174 221 281 326 408
#     4  12  29  42  68 100 133 181 226 277 338 395
#     4  10  22  43  67  92 135 170 218 280 322 404
#
# _framework density 20.841646999999998
#
# number of rings (size 3 to 8) (size 9 to 14) (size 15 to 20)
#    0.000    1.714    2.857    3.000   10.000    1.143 
#    2.571    0.000    0.000    0.000    0.000    0.000 
#    0.000    0.000    0.000    0.000    0.000    0.000 
#
# Total GULP energy -347264.908807 kJ/mol
# GULP energy per Si atom -12402.318172 kJ/mol
# Density = 2.079421 g / cm^3
# Si number density = 20.841647 Si / 1000 Ang^3
#
#
#
# Elastic Constant Matrix: (Units=GPa)
#
#
# Indices 1 2 3 4 5 6 
#
# 1 99.0722 20.1417 27.0541 0.0000 9.9912 0.0000
# 2 20.1417 143.1149 34.3605 0.0000 3.6607 0.0000
# 3 27.0541 34.3605 124.5653 0.0000 -5.3966 0.0000
# 4 0.0000 0.0000 0.0000 38.7820 0.0000 -6.2887
# 5 9.9912 3.6607 -5.3966 0.0000 17.7042 0.0000
# 6 0.0000 0.0000 0.0000 -6.2887 0.0000 14.5920
#
#
#
# Elastic Compliance Matrix: (Units=1/GPa)
#
#
# Indices 1 2 3 4 5 6 
#
# 1 0.011710 -0.000832 -0.002627 0.000000 -0.007237 0.000000
# 2 -0.000832 0.007628 -0.001998 0.000000 -0.001717 0.000000
# 3 -0.002627 -0.001998 0.009355 0.000000 0.004747 0.000000
# 4 0.000000 0.000000 0.000000 0.027723 0.000000 0.011948
# 5 -0.007237 -0.001717 0.004747 0.000000 0.062370 0.000000
# 6 0.000000 0.000000 0.000000 0.011948 0.000000 0.073680
#
#
# Mechanical properties :
#
#
# Convention : Reuss Voigt Hill
#
# Bulk Modulus (GPa) = 56.24606 58.87387 57.55997
# Shear Modulus (GPa) = 23.88837 33.22872 28.55854
#
# Velocity S-wave (km/s) = 3.38921 3.99725 3.70572
# Velocity P-wave (km/s) = 6.50858 7.04369 6.78141
#
# Compressibility (1/GPa) = 0.01777902
#
# Stress axis : x y z
#
# Youngs Moduli (GPa) = 85.39597 131.09487 106.89143
#
# Poissons Ratio (x) = 0.10909 0.28084
# Poissons Ratio (y) = 0.07106 0.21355
# Poissons Ratio (z) = 0.22436 0.26190
#
# Static dielectric constant tensor:
#      x y z
#    x 3.698530 0.000000 -0.075070 
#    y 0.000000 3.945790 0.000000 
#    z -0.075070 0.000000 3.712650 
# 
# 
# High freq. dielectric constant tensor:
#      x y z
#    x 1.801920 0.000000 -0.006560 
#    y 0.000000 1.832080 0.000000 
#    z -0.006560 0.000000 1.817020 
# 
# From -- ./inp_files/67098.got.cif
#   From: 2010.03.12/outbox.cif.g09.slc.cpg/sg14_34_cif.got.tgz:67098.got - 2010.03.31 13:35:05.
