data_PCOD8126335
_publ_section_title
;
Structure prediction by ZEFSAII (Michael W. Deem and Ramdas Pophale) SiO2 
 PCOD8126335
Probable space group: P 21/C
;
_chemical_formula_sum "Si O2"
_cell_formula_units_Z 32
_cell_length_a 15.076338
_cell_length_b 10.667941
_cell_length_c 13.581833
_cell_angle_alpha 90.000000
_cell_angle_beta 46.531868
_cell_angle_gamma 90.000000
_cell_volume 1585.353674
_symmetry_space_group_name_H-M "P 21/C"
_symmetry_group_IT_number 14
_symmetry_cell_setting 'monoclinic'
loop_
_space_group_symop_operation_xyz
x,y,z
-x,1/2+y,1/2-z
-x,-y,-z
x,1/2-y,1/2+z
loop_
_atom_site_type_symbol
_atom_site_label
_atom_site_fract_x
_atom_site_fract_y
_atom_site_fract_z
Si Si1 0.643611 0.331667 0.069000
Si Si2 0.064323 0.075767 0.231551
Si Si3 0.820430 0.170617 0.802239
Si Si4 0.180317 0.040361 0.589220
Si Si5 0.385648 0.903573 0.188461
Si Si6 0.076786 0.255605 0.549738
Si Si7 0.822258 0.725123 0.730252
Si Si8 0.557402 0.815422 0.891560
O O1 0.631459 0.326938 0.196763
O O2 0.516249 0.283892 0.120297
O O3 0.746765 0.244797 0.941704
O O4 0.684709 0.476445 0.014591
O O5 0.123154 0.147890 0.095577
O O6 0.109464 0.145774 0.294923
O O7 0.114560 0.936701 0.185278
O O8 0.917079 0.073635 0.340505
O O9 0.737043 0.110362 0.781240
O O10 0.929345 0.246237 0.666023
O O11 0.151893 0.126323 0.514552
O O12 0.157909 0.116828 0.705719
O O13 0.419447 0.050561 0.180391
O O14 0.493688 0.837967 0.045222
O O15 0.114694 0.317245 0.418480
O O16 0.680287 0.745153 0.823082
#
# Coordination Sequence:
#
# PCOD8126335 Si02
#       8
#     4   4   4   4   4   4   4   4
#     4  11  23  42  65  93 126 162 216 266 314 367
#     4  10  21  40  60  93 133 159 212 258 302 389
#     4  10  21  39  65  97 125 165 214 256 308 387
#     4  10  23  38  60  97 127 161 211 263 305 378
#     4  10  22  41  69  85 124 168 215 262 309 376
#     4  10  22  38  66  95 129 172 198 257 327 370
#     4  11  23  41  64  90 134 167 206 260 316 378
#     4  10  23  44  61  94 120 169 220 255 306 382
#
# _framework density 20.18477
#
# number of rings (size 3 to 8) (size 9 to 14) (size 15 to 20)
#    0.000    1.750    2.500    0.750    1.750    5.000 
#    4.500    0.000    0.000    0.000    0.000    0.000 
#    0.000    0.000    0.000    0.000    0.000    0.000 
#
# Total GULP energy -396610.998218 kJ/mol
# GULP energy per Si atom -12394.093694 kJ/mol
# Density = 2.013883 g / cm^3
# Si number density = 20.184770 Si / 1000 Ang^3
#
#
#
# Elastic Constant Matrix: (Units=GPa)
#
#
# Indices 1 2 3 4 5 6 
#
# 1 116.3645 36.4130 57.1746 0.0000 -11.0433 0.0000
# 2 36.4130 47.9645 25.2697 0.0000 0.0885 0.0000
# 3 57.1746 25.2697 70.0133 0.0000 19.4023 0.0000
# 4 0.0000 0.0000 0.0000 19.8873 0.0000 -4.0179
# 5 -11.0433 0.0885 19.4023 0.0000 32.1097 0.0000
# 6 0.0000 0.0000 0.0000 -4.0179 0.0000 28.3987
#
#
#
# Elastic Compliance Matrix: (Units=1/GPa)
#
#
# Indices 1 2 3 4 5 6 
#
# 1 0.024673 -0.005875 -0.024484 0.000000 0.023297 0.000000
# 2 -0.005875 0.028385 -0.005845 0.000000 0.001433 0.000000
# 3 -0.024484 -0.005845 0.046503 0.000000 -0.036504 0.000000
# 4 0.000000 0.000000 0.000000 0.051763 0.000000 0.007324
# 5 0.023297 0.001433 -0.036504 0.000000 0.061209 0.000000
# 6 0.000000 0.000000 0.000000 0.007324 0.000000 0.036249
#
#
# Mechanical properties :
#
#
# Convention : Reuss Voigt Hill
#
# Bulk Modulus (GPa) = 36.82690 52.45078 44.63884
# Shear Modulus (GPa) = 15.14042 23.77813 19.45927
#
# Velocity S-wave (km/s) = 2.74175 3.43596 3.10830
# Velocity P-wave (km/s) = 5.32047 6.46396 5.91989
#
# Compressibility (1/GPa) = 0.02715406
#
# Stress axis : x y z
#
# Youngs Moduli (GPa) = 40.53006 35.22966 21.50380
#
# Poissons Ratio (x) = 0.20696 0.52651
# Poissons Ratio (y) = 0.23810 0.12569
# Poissons Ratio (z) = 0.99235 0.20591
#
# Static dielectric constant tensor:
#      x y z
#    x 3.800570 0.000000 -0.126900 
#    y 0.000000 3.642070 0.000000 
#    z -0.126900 0.000000 3.628690 
# 
# 
# High freq. dielectric constant tensor:
#      x y z
#    x 1.790480 0.000000 -0.005780 
#    y 0.000000 1.783800 0.000000 
#    z -0.005780 0.000000 1.789510 
# 
# From -- ./inp_files/32379.got.cif
#   From: 2010.03.12/outbox.cif.g09.slc.cpg/sg14_17_cif.got.tgz:32379.got - 2010.03.31 13:35:05.
