data_PCOD8126467
_publ_section_title
;
Structure prediction by ZEFSAII (Michael W. Deem and Ramdas Pophale) SiO2 
 PCOD8126467
Probable space group: P 21/C
;
_chemical_formula_sum "Si O2"
_cell_formula_units_Z 20
_cell_length_a 9.018150
_cell_length_b 8.867685
_cell_length_c 12.971099
_cell_angle_alpha 90.000000
_cell_angle_beta 102.576746
_cell_angle_gamma 90.000000
_cell_volume 1012.410464
_symmetry_space_group_name_H-M "P 21/C"
_symmetry_group_IT_number 14
_symmetry_cell_setting 'monoclinic'
loop_
_space_group_symop_operation_xyz
x,y,z
-x,1/2+y,1/2-z
-x,-y,-z
x,1/2-y,1/2+z
loop_
_atom_site_type_symbol
_atom_site_label
_atom_site_fract_x
_atom_site_fract_y
_atom_site_fract_z
Si Si1 0.554831 0.787123 0.980207
Si Si2 0.283989 0.827475 0.306336
Si Si3 0.115724 0.686440 0.107044
Si Si4 0.339072 0.572674 0.601482
Si Si5 0.803750 0.946609 0.537997
O O1 0.414832 0.764915 0.882252
O O2 0.673646 0.905467 0.947650
O O3 0.489654 0.847995 0.078134
O O4 0.639851 0.631185 0.014441
O O5 0.171199 0.705418 0.234313
O O6 0.358545 0.933413 0.228510
O O7 0.187684 0.930787 0.369517
O O8 0.186898 0.827773 0.052338
O O9 0.933051 0.680734 0.074376
O O10 0.176740 0.529137 0.068939
#
# Coordination Sequence:
#
# PCOD8126467 Si02
#       5
#     4   4   4   4   4
#     4  11  22  39  66  91 125 161 204 264 309 368
#     4  10  21  40  64  93 121 163 211 253 299 388
#     4   9  23  42  60  89 127 161 206 257 305 369
#     4   9  23  40  58  95 122 159 202 257 315 357
#     4  11  22  43  64  90 123 171 202 256 314 361
#
# _framework density 19.754835
#
# number of rings (size 3 to 8) (size 9 to 14) (size 15 to 20)
#    1.200    0.800    2.000    0.600    5.600    0.800 
#   14.400    0.000    0.000    0.000    0.000    0.000 
#    0.000    0.000    0.000    0.000    0.000    0.000 
#
# Total GULP energy -247859.967617 kJ/mol
# GULP energy per Si atom -12392.998381 kJ/mol
# Density = 1.970987 g / cm^3
# Si number density = 19.754835 Si / 1000 Ang^3
#
#
#
# Elastic Constant Matrix: (Units=GPa)
#
#
# Indices 1 2 3 4 5 6 
#
# 1 82.6812 44.9961 33.1891 0.0000 6.9197 0.0000
# 2 44.9961 81.9288 34.2904 0.0000 8.9704 0.0000
# 3 33.1891 34.2904 80.9402 0.0000 2.3301 0.0000
# 4 0.0000 0.0000 0.0000 31.6542 0.0000 -0.2330
# 5 6.9197 8.9704 2.3301 0.0000 29.7709 0.0000
# 6 0.0000 0.0000 0.0000 -0.2330 0.0000 50.0598
#
#
#
# Elastic Compliance Matrix: (Units=1/GPa)
#
#
# Indices 1 2 3 4 5 6 
#
# 1 0.018285 -0.008219 -0.003974 0.000000 -0.001462 0.000000
# 2 -0.008219 0.019019 -0.004587 0.000000 -0.003461 0.000000
# 3 -0.003974 -0.004587 0.015897 0.000000 0.001062 0.000000
# 4 0.000000 0.000000 0.000000 0.031592 0.000000 0.000147
# 5 -0.001462 -0.003461 0.001062 0.000000 0.034890 0.000000
# 6 0.000000 0.000000 0.000000 0.000147 0.000000 0.019977
#
#
# Mechanical properties :
#
#
# Convention : Reuss Voigt Hill
#
# Bulk Modulus (GPa) = 50.91500 52.27793 51.59647
# Shear Modulus (GPa) = 27.81383 31.16862 29.49122
#
# Velocity S-wave (km/s) = 3.75634 3.97643 3.86795
# Velocity P-wave (km/s) = 6.68153 6.89952 6.79140
#
# Compressibility (1/GPa) = 0.01964058
#
# Stress axis : x y z
#
# Youngs Moduli (GPa) = 54.68963 52.57971 62.90476
#
# Poissons Ratio (x) = 0.43216 0.24995
# Poissons Ratio (y) = 0.44950 0.28857
# Poissons Ratio (z) = 0.21731 0.24121
#
# Static dielectric constant tensor:
#      x y z
#    x 3.448490 0.000000 -0.199830 
#    y 0.000000 3.459580 0.000000 
#    z -0.199830 0.000000 3.483780 
# 
# 
# High freq. dielectric constant tensor:
#      x y z
#    x 1.763300 0.000000 -0.016320 
#    y 0.000000 1.763290 0.000000 
#    z -0.016320 0.000000 1.761320 
# 
# From -- ./inp_files/38851.got.cif
#   From: 2010.03.12/outbox.cif.g09.slc.cpg/sg14_20_cif.got.tgz:38851.got - 2010.03.31 13:35:05.
