data_PCOD8126553
_publ_section_title
;
Structure prediction by ZEFSAII (Michael W. Deem and Ramdas Pophale) SiO2 
 PCOD8126553
Probable space group: P 21/C
;
_chemical_formula_sum "Si O2"
_cell_formula_units_Z 32
_cell_length_a 29.468734
_cell_length_b 5.377955
_cell_length_c 18.419437
_cell_angle_alpha 90.000000
_cell_angle_beta 148.466502
_cell_angle_gamma 90.000000
_cell_volume 1526.701627
_symmetry_space_group_name_H-M "P 21/C"
_symmetry_group_IT_number 14
_symmetry_cell_setting 'monoclinic'
loop_
_space_group_symop_operation_xyz
x,y,z
-x,1/2+y,1/2-z
-x,-y,-z
x,1/2-y,1/2+z
loop_
_atom_site_type_symbol
_atom_site_label
_atom_site_fract_x
_atom_site_fract_y
_atom_site_fract_z
Si Si1 0.034237 0.962357 0.658598
Si Si2 0.173349 0.466213 0.464192
Si Si3 0.393930 0.996954 0.069493
Si Si4 0.275394 0.552721 0.117892
Si Si5 0.741363 0.473105 0.741882
Si Si6 0.403736 0.001546 0.669000
Si Si7 0.908929 0.227210 0.898757
Si Si8 0.877408 0.655858 0.458990
O O1 0.097769 0.081240 0.803431
O O2 0.091042 0.766068 0.687589
O O3 0.950536 0.849679 0.585369
O O4 0.997430 0.165625 0.553395
O O5 0.220746 0.200452 0.534549
O O6 0.132198 0.535978 0.487078
O O7 0.230071 0.705682 0.519025
O O8 0.493526 0.999904 0.181505
O O9 0.371673 0.244543 0.085746
O O10 0.372164 0.743142 0.082536
O O11 0.339200 0.998470 0.921385
O O12 0.292862 0.624071 0.226213
O O13 0.364856 0.508590 0.196938
O O14 0.818558 0.313293 0.812061
O O15 0.781734 0.741772 0.812610
O O16 0.913377 0.941864 0.930389
#
# Coordination Sequence:
#
# PCOD8126553 Si02
#       8
#     4   4   4   4   4   4   4   4
#     4  10  24  36  60  86 117 166 210 261 312 363
#     4  11  25  40  63  93 122 171 210 257 317 369
#     4  10  23  42  68  98 125 168 203 252 319 368
#     4  11  24  42  62  96 129 162 213 258 309 379
#     4  10  23  39  62  90 126 166 203 255 316 371
#     4  10  23  43  66  97 132 157 209 259 302 384
#     4  10  21  41  55  87 122 155 214 260 305 372
#     4  10  22  39  60  84 128 161 210 264 305 375
#
# _framework density 20.960218999999999
#
# number of rings (size 3 to 8) (size 9 to 14) (size 15 to 20)
#    0.000    1.750    1.250    1.125    8.750    0.500 
#    0.000    0.000    0.000    6.750    0.000    0.000 
#    0.000    0.000    0.000    0.000    0.000    0.000 
#
# Total GULP energy -396473.530618 kJ/mol
# GULP energy per Si atom -12389.797832 kJ/mol
# Density = 2.091251 g / cm^3
# Si number density = 20.960219 Si / 1000 Ang^3
#
#
#
# Elastic Constant Matrix: (Units=GPa)
#
#
# Indices 1 2 3 4 5 6 
#
# 1 107.4318 21.8977 50.9344 0.0000 -4.8151 0.0000
# 2 21.8977 104.7571 33.0167 0.0000 -2.4487 0.0000
# 3 50.9344 33.0167 126.2388 0.0000 -17.0786 0.0000
# 4 0.0000 0.0000 0.0000 17.8623 0.0000 -1.4132
# 5 -4.8151 -2.4487 -17.0786 0.0000 20.3163 0.0000
# 6 0.0000 0.0000 0.0000 -1.4132 0.0000 25.8148
#
#
#
# Elastic Compliance Matrix: (Units=1/GPa)
#
#
# Indices 1 2 3 4 5 6 
#
# 1 0.011639 -0.001013 -0.004597 0.000000 -0.001228 0.000000
# 2 -0.001013 0.010516 -0.002485 0.000000 -0.001062 0.000000
# 3 -0.004597 -0.002485 0.011552 0.000000 0.008322 0.000000
# 4 0.000000 0.000000 0.000000 0.056227 0.000000 0.003078
# 5 -0.001228 -0.001062 0.008322 0.000000 0.055798 0.000000
# 6 0.000000 0.000000 0.000000 0.003078 0.000000 0.038906
#
#
# Mechanical properties :
#
#
# Convention : Reuss Voigt Hill
#
# Bulk Modulus (GPa) = 57.08896 61.12505 59.10700
# Shear Modulus (GPa) = 24.19321 28.30395 26.24858
#
# Velocity S-wave (km/s) = 3.40110 3.67872 3.54263
# Velocity P-wave (km/s) = 6.53600 6.87529 6.70779
#
# Compressibility (1/GPa) = 0.01751652
#
# Stress axis : x y z
#
# Youngs Moduli (GPa) = 85.91574 95.09215 86.56199
#
# Poissons Ratio (x) = 0.09630 0.39797
# Poissons Ratio (y) = 0.08701 0.21515
# Poissons Ratio (z) = 0.39500 0.23635
#
# Static dielectric constant tensor:
#      x y z
#    x 4.074030 0.000000 -0.058780 
#    y 0.000000 3.920840 0.000000 
#    z -0.058780 0.000000 3.524320 
# 
# 
# High freq. dielectric constant tensor:
#      x y z
#    x 1.834910 0.000000 -0.000710 
#    y 0.000000 1.826140 0.000000 
#    z -0.000710 0.000000 1.801990 
# 
# From -- ./inp_files/62505.got.cif
#   From: 2010.03.12/outbox.cif.g09.slc.cpg/sg14_32_cif.got.tgz:62505.got - 2010.03.31 13:35:05.
