data_PCOD8126588
_publ_section_title
;
Structure prediction by ZEFSAII (Michael W. Deem and Ramdas Pophale) SiO2 
 PCOD8126588
Probable space group: P 21/C
;
_chemical_formula_sum "Si O2"
_cell_formula_units_Z 32
_cell_length_a 22.523173
_cell_length_b 13.994815
_cell_length_c 16.577419
_cell_angle_alpha 90.000000
_cell_angle_beta 17.417198
_cell_angle_gamma 90.000000
_cell_volume 1564.083159
_symmetry_space_group_name_H-M "P 21/C"
_symmetry_group_IT_number 14
_symmetry_cell_setting 'monoclinic'
loop_
_space_group_symop_operation_xyz
x,y,z
-x,1/2+y,1/2-z
-x,-y,-z
x,1/2-y,1/2+z
loop_
_atom_site_type_symbol
_atom_site_label
_atom_site_fract_x
_atom_site_fract_y
_atom_site_fract_z
Si Si1 0.734156 0.390823 0.200190
Si Si2 0.811110 0.562775 0.772669
Si Si3 0.099320 0.149244 0.127700
Si Si4 0.673499 0.248964 0.409120
Si Si5 0.707854 0.602517 0.248641
Si Si6 0.732656 0.659982 0.036965
Si Si7 0.056713 0.225155 0.004917
Si Si8 0.505440 0.552628 0.906687
O O1 0.794859 0.313546 0.188466
O O2 0.729180 0.493897 0.250313
O O3 0.518562 0.363285 0.443544
O O4 0.891900 0.394414 0.923931
O O5 0.816775 0.665364 0.723016
O O6 0.000000 0.500000 0.500000
O O7 0.808281 0.584708 0.871833
O O8 0.607523 0.510787 0.012968
O O9 0.087549 0.176472 0.050223
O O10 0.141048 0.242399 0.128156
O O11 0.269031 0.067880 0.915910
O O12 0.496437 0.309801 0.678626
O O13 0.596453 0.157135 0.458757
O O14 0.824002 0.221645 0.285327
O O15 0.760253 0.607165 0.086108
O O16 0.855977 0.667779 0.108671
O O17 0.500000 0.500000 0.000000
#
# Coordination Sequence:
#
# PCOD8126588 Si02
#       8
#     4   4   4   4   4   4   4   4
#     4  10  21  41  63  87 118 172 209 259 316 377
#     4  12  24  39  67  95 129 170 210 269 324 379
#     4  10  22  40  64  91 126 164 211 257 315 386
#     4  10  22  42  63  90 132 164 215 270 315 382
#     4   9  22  41  64  86 126 163 211 260 317 386
#     4   9  22  42  59  91 129 163 205 264 316 376
#     4  11  22  40  61  98 124 165 212 263 323 381
#     4  11  23  41  64  93 130 167 213 267 319 384
#
# _framework density 20.459268999999999
#
# number of rings (size 3 to 8) (size 9 to 14) (size 15 to 20)
#    0.000    1.750    2.500    1.500    1.750    2.500 
#    2.250    8.750    0.000    0.000    0.000    0.000 
#    0.000    0.000    0.000    0.000    0.000    0.000 
#
# Total GULP energy -396813.716415 kJ/mol
# GULP energy per Si atom -12400.428638 kJ/mol
# Density = 2.041270 g / cm^3
# Si number density = 20.459269 Si / 1000 Ang^3
#
#
#
# Elastic Constant Matrix: (Units=GPa)
#
#
# Indices 1 2 3 4 5 6 
#
# 1 78.9475 39.5567 37.4127 0.0000 -4.4659 0.0000
# 2 39.5567 94.5280 33.3750 0.0000 3.4857 0.0000
# 3 37.4127 33.3750 107.8431 0.0000 2.5445 0.0000
# 4 0.0000 0.0000 0.0000 32.7708 0.0000 1.4052
# 5 -4.4659 3.4857 2.5445 0.0000 27.2315 0.0000
# 6 0.0000 0.0000 0.0000 1.4052 0.0000 37.8282
#
#
#
# Elastic Compliance Matrix: (Units=1/GPa)
#
#
# Indices 1 2 3 4 5 6 
#
# 1 0.018106 -0.006150 -0.004476 0.000000 0.004175 0.000000
# 2 -0.006150 0.014004 -0.002139 0.000000 -0.002601 0.000000
# 3 -0.004476 -0.002139 0.011524 0.000000 -0.001537 0.000000
# 4 0.000000 0.000000 0.000000 0.030564 0.000000 -0.001135
# 5 0.004175 -0.002601 -0.001537 0.000000 0.037883 0.000000
# 6 0.000000 0.000000 0.000000 -0.001135 0.000000 0.026477
#
#
# Mechanical properties :
#
#
# Convention : Reuss Voigt Hill
#
# Bulk Modulus (GPa) = 55.24099 55.77860 55.50979
# Shear Modulus (GPa) = 29.39065 30.96440 30.17752
#
# Velocity S-wave (km/s) = 3.79429 3.89455 3.84475
# Velocity P-wave (km/s) = 6.80107 6.89534 6.84837
#
# Compressibility (1/GPa) = 0.01810250
#
# Stress axis : x y z
#
# Youngs Moduli (GPa) = 55.23154 71.41051 86.77662
#
# Poissons Ratio (x) = 0.43918 0.38844
# Poissons Ratio (y) = 0.33968 0.18560
# Poissons Ratio (z) = 0.24724 0.15274
#
# Static dielectric constant tensor:
#      x y z
#    x 3.560490 0.000000 -0.198250 
#    y 0.000000 3.917660 0.000000 
#    z -0.198250 0.000000 3.689880 
# 
# 
# High freq. dielectric constant tensor:
#      x y z
#    x 1.784490 0.000000 -0.011110 
#    y 0.000000 1.812290 0.000000 
#    z -0.011110 0.000000 1.798980 
# 
# From -- ./inp_files/50689.got.cif
#   From: 2010.03.12/outbox.cif.g09.slc.cpg/sg14_26_cif.got.tgz:50689.got - 2010.03.31 13:35:05.
