data_PCOD8126925
_publ_section_title
;
Structure prediction by ZEFSAII (Michael W. Deem and Ramdas Pophale) SiO2 
 PCOD8126925
Probable space group: P 21/C
;
_chemical_formula_sum "Si O2"
_cell_formula_units_Z 28
_cell_length_a 17.051336
_cell_length_b 9.569691
_cell_length_c 10.709664
_cell_angle_alpha 90.000000
_cell_angle_beta 134.202994
_cell_angle_gamma 90.000000
_cell_volume 1252.780858
_symmetry_space_group_name_H-M "P 21/C"
_symmetry_group_IT_number 14
_symmetry_cell_setting 'monoclinic'
loop_
_space_group_symop_operation_xyz
x,y,z
-x,1/2+y,1/2-z
-x,-y,-z
x,1/2-y,1/2+z
loop_
_atom_site_type_symbol
_atom_site_label
_atom_site_fract_x
_atom_site_fract_y
_atom_site_fract_z
Si Si1 0.167282 0.978391 0.682610
Si Si2 0.738685 0.449160 0.037436
Si Si3 0.400243 0.590543 0.342650
Si Si4 0.093462 0.741483 0.920932
Si Si5 0.791710 0.505316 0.489698
Si Si6 0.393166 0.909774 0.362170
Si Si7 0.860878 0.803473 0.550802
O O1 0.294724 0.951028 0.804288
O O2 0.094146 0.850762 0.548064
O O3 0.125657 0.116589 0.565083
O O4 0.153470 0.997743 0.813094
O O5 0.821436 0.325670 0.085799
O O6 0.700564 0.435065 0.137171
O O7 0.797812 0.598703 0.080922
O O8 0.626849 0.439326 0.832294
O O9 0.500000 0.500000 0.500000
O O10 0.431516 0.750877 0.399720
O O11 0.974592 0.748887 0.730788
O O12 0.132810 0.896620 0.004060
O O13 0.665831 0.454003 0.333690
O O14 0.793064 0.664003 0.443638
O O15 0.500000 0.000000 0.500000
#
# Coordination Sequence:
#
# PCOD8126925 Si02
#       7
#     4   4   4   4   4   4   4
#     4  10  24  45  65 100 142 177 231 292 354 421
#     4  10  24  47  66 101 148 177 232 299 352 429
#     4  10  23  43  71  94 133 185 231 295 363 410
#     4  10  21  45  72  98 134 182 234 284 367 416
#     4  12  24  43  67  98 143 178 236 295 343 434
#     4  12  28  43  68 105 136 187 241 287 363 418
#     4  10  24  42  70 104 132 184 234 285 357 422
#
# _framework density 22.350277999999999
#
# number of rings (size 3 to 8) (size 9 to 14) (size 15 to 20)
#    0.000    1.714    2.857    2.571    8.000    2.286 
#    0.000    1.429    0.000    0.000    0.000    0.000 
#    0.000    0.000    0.000    0.000    0.000    0.000 
#
# Total GULP energy -347108.680831 kJ/mol
# GULP energy per Si atom -12396.738601 kJ/mol
# Density = 2.229941 g / cm^3
# Si number density = 22.350278 Si / 1000 Ang^3
#
#
#
# Elastic Constant Matrix: (Units=GPa)
#
#
# Indices 1 2 3 4 5 6 
#
# 1 49.0310 32.2419 40.4763 0.0000 -0.6963 0.0000
# 2 32.2419 190.9174 69.4036 0.0000 9.0623 0.0000
# 3 40.4763 69.4036 169.9505 0.0000 15.3942 0.0000
# 4 0.0000 0.0000 0.0000 48.1266 0.0000 15.3278
# 5 -0.6963 9.0623 15.3942 0.0000 43.1487 0.0000
# 6 0.0000 0.0000 0.0000 15.3278 0.0000 15.1563
#
#
#
# Elastic Compliance Matrix: (Units=1/GPa)
#
#
# Indices 1 2 3 4 5 6 
#
# 1 0.026768 -0.002638 -0.005567 0.000000 0.002972 0.000000
# 2 -0.002638 0.006418 -0.001929 0.000000 -0.000702 0.000000
# 3 -0.005567 -0.001929 0.008235 0.000000 -0.002623 0.000000
# 4 0.000000 0.000000 0.000000 0.030651 0.000000 -0.030998
# 5 0.002972 -0.000702 -0.002623 0.000000 0.024307 0.000000
# 6 0.000000 0.000000 0.000000 -0.030998 0.000000 0.097328
#
#
# Mechanical properties :
#
#
# Convention : Reuss Voigt Hill
#
# Bulk Modulus (GPa) = 47.27456 77.12694 62.20075
# Shear Modulus (GPa) = 22.62177 39.13812 30.87994
#
# Velocity S-wave (km/s) = 3.18488 4.18918 3.72107
# Velocity P-wave (km/s) = 5.89255 7.61460 6.80824
#
# Compressibility (1/GPa) = 0.02115303
#
# Stress axis : x y z
#
# Youngs Moduli (GPa) = 37.35821 155.81311 121.42782
#
# Poissons Ratio (x) = 0.41100 0.67601
# Poissons Ratio (y) = 0.09854 0.23425
# Poissons Ratio (z) = 0.20798 0.30058
#
# Static dielectric constant tensor:
#      x y z
#    x 3.704930 0.000000 -0.046310 
#    y 0.000000 8.304440 0.000000 
#    z -0.046310 0.000000 4.263170 
# 
# 
# High freq. dielectric constant tensor:
#      x y z
#    x 1.847480 0.000000 0.005690 
#    y 0.000000 1.898640 0.000000 
#    z 0.005690 0.000000 1.900010 
# 
# From -- ./inp_files/34994.got.cif
#   From: 2010.03.12/outbox.cif.g09.slc.cpg/sg14_18_cif.got.tgz:34994.got - 2010.03.31 13:35:05.
