data_PCOD8126205
_publ_section_title
;
Structure prediction by ZEFSAII (Michael W. Deem and Ramdas Pophale) SiO2 
 PCOD8126205
Probable space group: P 21/C
;
_chemical_formula_sum "Si O2"
_cell_formula_units_Z 16
_cell_length_a 7.755689
_cell_length_b 17.382566
_cell_length_c 7.517058
_cell_angle_alpha 90.000000
_cell_angle_beta 61.719974
_cell_angle_gamma 90.000000
_cell_volume 892.445801
_symmetry_space_group_name_H-M "P 21/C"
_symmetry_group_IT_number 14
_symmetry_cell_setting 'monoclinic'
loop_
_space_group_symop_operation_xyz
x,y,z
-x,1/2+y,1/2-z
-x,-y,-z
x,1/2-y,1/2+z
loop_
_atom_site_type_symbol
_atom_site_label
_atom_site_fract_x
_atom_site_fract_y
_atom_site_fract_z
Si Si1 0.284208 0.592201 0.608309
Si Si2 0.731097 0.914294 0.915531
Si Si3 0.044141 0.653580 0.040866
Si Si4 0.951466 0.176135 0.074828
O O1 0.260557 0.505161 0.554935
O O2 0.509870 0.615652 0.518432
O O3 0.180818 0.602451 0.848851
O O4 0.192441 0.647952 0.507135
O O5 0.838651 0.891293 0.677015
O O6 0.844748 0.872668 0.024220
O O7 0.995022 0.734833 0.975016
O O8 0.150873 0.665857 0.180694
#
# Coordination Sequence:
#
# PCOD8126205 Si02
#       4
#     4   4   4   4
#     4  11  19  42  57  81 119 139 190 231 272 334
#     4   9  23  36  59  87 107 151 184 227 280 330
#     4  10  21  39  56  84 112 148 185 228 279 325
#     4  10  21  39  56  84 112 148 185 228 279 325
#
# _framework density 17.928259000000001
#
# number of rings (size 3 to 8) (size 9 to 14) (size 15 to 20)
#    1.500    0.500    2.500    1.500    0.000    2.000 
#    4.500    2.500    0.000    0.000    0.000    0.000 
#    0.000    0.000    0.000    0.000    0.000    0.000 
#
# Total GULP energy -198286.733285 kJ/mol
# GULP energy per Si atom -12392.920830 kJ/mol
# Density = 1.788745 g / cm^3
# Si number density = 17.928259 Si / 1000 Ang^3
#
#
#
# Elastic Constant Matrix: (Units=GPa)
#
#
# Indices 1 2 3 4 5 6 
#
# 1 79.3084 20.4353 29.5742 0.0000 -15.4393 0.0000
# 2 20.4353 60.6268 -0.7266 0.0000 -14.8302 0.0000
# 3 29.5742 -0.7266 98.7204 0.0000 -11.9218 0.0000
# 4 0.0000 0.0000 0.0000 22.6456 0.0000 1.9478
# 5 -15.4393 -14.8302 -11.9218 0.0000 35.3487 0.0000
# 6 0.0000 0.0000 0.0000 1.9478 0.0000 11.7145
#
#
#
# Elastic Compliance Matrix: (Units=1/GPa)
#
#
# Indices 1 2 3 4 5 6 
#
# 1 0.016158 -0.004612 -0.004437 0.000000 0.003626 0.000000
# 2 -0.004612 0.019815 0.002385 0.000000 0.007103 0.000000
# 3 -0.004437 0.002385 0.011846 0.000000 0.003058 0.000000
# 4 0.000000 0.000000 0.000000 0.044799 0.000000 -0.007449
# 5 0.003626 0.007103 0.003058 0.000000 0.033885 0.000000
# 6 0.000000 0.000000 0.000000 -0.007449 0.000000 0.086603
#
#
# Mechanical properties :
#
#
# Convention : Reuss Voigt Hill
#
# Bulk Modulus (GPa) = 28.99283 37.46907 33.23095
# Shear Modulus (GPa) = 21.01464 26.56661 23.79062
#
# Velocity S-wave (km/s) = 3.42738 3.85363 3.64674
# Velocity P-wave (km/s) = 5.64529 6.38321 6.02556
#
# Compressibility (1/GPa) = 0.03449129
#
# Stress axis : x y z
#
# Youngs Moduli (GPa) = 61.88984 50.46631 84.41980
#
# Poissons Ratio (x) = 0.23278 0.37453
# Poissons Ratio (y) = 0.28547 -0.20138
# Poissons Ratio (z) = 0.27458 -0.12038
#
# Static dielectric constant tensor:
#      x y z
#    x 3.088180 0.000000 0.001360 
#    y 0.000000 3.358550 0.000000 
#    z 0.001360 0.000000 3.295050 
# 
# 
# High freq. dielectric constant tensor:
#      x y z
#    x 1.676820 0.000000 0.004480 
#    y 0.000000 1.708520 0.000000 
#    z 0.004480 0.000000 1.686530 
# 
# From -- ./inp_files/1108.got.cif
#   From: 2010.03.12/outbox.cif.g09.slc.cpg/sg14_1_cif.got.tgz:1108.got - 2010.03.31 13:35:05.
