data_PCOD8126261
_publ_section_title
;
Structure prediction by ZEFSAII (Michael W. Deem and Ramdas Pophale) SiO2 
 PCOD8126261
Probable space group: P 21/C
;
_chemical_formula_sum "Si O2"
_cell_formula_units_Z 24
_cell_length_a 7.469285
_cell_length_b 9.060536
_cell_length_c 17.267168
_cell_angle_alpha 90.000000
_cell_angle_beta 88.988301
_cell_angle_gamma 90.000000
_cell_volume 1168.385957
_symmetry_space_group_name_H-M "P 21/C"
_symmetry_group_IT_number 14
_symmetry_cell_setting 'monoclinic'
loop_
_space_group_symop_operation_xyz
x,y,z
-x,1/2+y,1/2-z
-x,-y,-z
x,1/2-y,1/2+z
loop_
_atom_site_type_symbol
_atom_site_label
_atom_site_fract_x
_atom_site_fract_y
_atom_site_fract_z
Si Si1 0.860570 0.263197 0.584626
Si Si2 0.506064 0.742250 0.832361
Si Si3 0.182308 0.732362 0.591451
Si Si4 0.486974 0.916818 0.174840
Si Si5 0.152121 0.443655 0.144081
Si Si6 0.889377 0.947551 0.175260
O O1 0.653664 0.229513 0.604763
O O2 0.876947 0.305241 0.494804
O O3 0.937745 0.398541 0.634073
O O4 0.979829 0.120640 0.601932
O O5 0.438032 0.665542 0.754538
O O6 0.680821 0.666221 0.866390
O O7 0.554777 0.910939 0.813087
O O8 0.368734 0.649720 0.606848
O O9 0.031030 0.676643 0.651739
O O10 0.208381 0.906028 0.601991
O O11 0.693749 0.891733 0.150459
O O12 0.105149 0.474454 0.233371
#
# Coordination Sequence:
#
# PCOD8126261 Si02
#       6
#     4   4   4   4   4   4
#     4  11  24  40  60  90 124 157 197 249 306 357
#     4  10  22  40  64  88 117 157 205 249 292 355
#     4  12  24  38  61  91 125 157 194 251 310 356
#     4  10  21  39  62  88 115 156 204 248 296 352
#     4  11  23  40  61  88 119 161 206 245 293 357
#     4  10  22  40  63  85 115 161 209 246 287 356
#
# _framework density 20.541156999999998
#
# number of rings (size 3 to 8) (size 9 to 14) (size 15 to 20)
#    0.000    1.333    0.000    7.000    0.000   10.000 
#    0.000    0.000    0.000    0.000    0.000    0.000 
#    0.000    0.000    0.000    0.000    0.000    0.000 
#
# Total GULP energy -297790.753678 kJ/mol
# GULP energy per Si atom -12407.948070 kJ/mol
# Density = 2.049440 g / cm^3
# Si number density = 20.541157 Si / 1000 Ang^3
#
#
#
# Elastic Constant Matrix: (Units=GPa)
#
#
# Indices 1 2 3 4 5 6 
#
# 1 85.9255 40.1819 25.3033 0.0000 7.6329 0.0000
# 2 40.1819 122.4294 18.7601 0.0000 4.5089 0.0000
# 3 25.3033 18.7601 72.8239 0.0000 9.7632 0.0000
# 4 0.0000 0.0000 0.0000 29.4861 0.0000 4.7689
# 5 7.6329 4.5089 9.7632 0.0000 23.4699 0.0000
# 6 0.0000 0.0000 0.0000 4.7689 0.0000 35.7898
#
#
#
# Elastic Compliance Matrix: (Units=1/GPa)
#
#
# Indices 1 2 3 4 5 6 
#
# 1 0.014950 -0.004238 -0.003771 0.000000 -0.002480 0.000000
# 2 -0.004238 0.009718 -0.001022 0.000000 -0.000063 0.000000
# 3 -0.003771 -0.001022 0.016007 0.000000 -0.005236 0.000000
# 4 0.000000 0.000000 0.000000 0.034661 0.000000 -0.004618
# 5 -0.002480 -0.000063 -0.005236 0.000000 0.045604 0.000000
# 6 0.000000 0.000000 0.000000 -0.004618 0.000000 0.028556
#
#
# Mechanical properties :
#
#
# Convention : Reuss Voigt Hill
#
# Bulk Modulus (GPa) = 44.22042 49.96326 47.09184
# Shear Modulus (GPa) = 28.55565 30.87806 29.71686
#
# Velocity S-wave (km/s) = 3.73254 3.88136 3.80768
# Velocity P-wave (km/s) = 6.33642 6.66805 6.50435
#
# Compressibility (1/GPa) = 0.02261398
#
# Stress axis : x y z
#
# Youngs Moduli (GPa) = 66.88834 102.90388 62.47175
#
# Poissons Ratio (x) = 0.43607 0.23555
# Poissons Ratio (y) = 0.28345 0.06388
# Poissons Ratio (z) = 0.25220 0.10522
#
# Static dielectric constant tensor:
#      x y z
#    x 3.762160 0.000000 0.050490 
#    y 0.000000 3.772860 0.000000 
#    z 0.050490 0.000000 3.589640 
# 
# 
# High freq. dielectric constant tensor:
#      x y z
#    x 1.813090 0.000000 0.005300 
#    y 0.000000 1.813460 0.000000 
#    z 0.005300 0.000000 1.796700 
# 
# From -- ./inp_files/38823.got.cif
#   From: 2010.03.12/outbox.cif.g09.slc.cpg/sg14_20_cif.got.tgz:38823.got - 2010.03.31 13:35:05.
