data_PCOD8126699
_publ_section_title
;
Structure prediction by ZEFSAII (Michael W. Deem and Ramdas Pophale) SiO2 
 PCOD8126699
Probable space group: P 21/C
;
_chemical_formula_sum "Si O2"
_cell_formula_units_Z 32
_cell_length_a 19.948341
_cell_length_b 13.076967
_cell_length_c 14.044861
_cell_angle_alpha 90.000000
_cell_angle_beta 158.092645
_cell_angle_gamma 90.000000
_cell_volume 1366.987426
_symmetry_space_group_name_H-M "P 21/C"
_symmetry_group_IT_number 14
_symmetry_cell_setting 'monoclinic'
loop_
_space_group_symop_operation_xyz
x,y,z
-x,1/2+y,1/2-z
-x,-y,-z
x,1/2-y,1/2+z
loop_
_atom_site_type_symbol
_atom_site_label
_atom_site_fract_x
_atom_site_fract_y
_atom_site_fract_z
Si Si1 0.535179 0.485378 0.935771
Si Si2 0.844599 0.933396 0.749371
Si Si3 0.347366 0.275819 0.235667
Si Si4 0.836092 0.583917 0.586846
Si Si5 0.342485 0.800634 0.716399
Si Si6 0.807094 0.988461 0.497734
Si Si7 0.051497 0.767373 0.478107
Si Si8 0.358140 0.725399 0.010953
O O1 0.342871 0.482959 0.626981
O O2 0.500000 0.500000 0.000000
O O3 0.668032 0.578175 0.083577
O O4 0.641643 0.382528 0.045828
O O5 0.912154 0.823393 0.807548
O O6 0.766543 0.992093 0.555644
O O7 0.000000 0.000000 0.000000
O O8 0.476583 0.259148 0.496806
O O9 0.236549 0.379486 0.107289
O O10 0.465134 0.286100 0.292990
O O11 0.216410 0.177618 0.054373
O O12 0.926256 0.631771 0.800778
O O13 0.979995 0.509177 0.729335
O O14 0.316462 0.921094 0.707922
O O15 0.169818 0.746219 0.538038
O O16 0.351600 0.779277 0.616063
O O17 0.177633 0.782658 0.736782
#
# Coordination Sequence:
#
# PCOD8126699 Si02
#       8
#     4   4   4   4   4   4   4   4
#     4  11  23  40  64 102 151 183 240 307 362 430
#     4  12  21  39  69 102 140 182 240 298 366 430
#     4  10  22  42  67 100 147 189 239 301 371 435
#     4  10  23  41  67 102 146 188 237 303 362 440
#     4  10  21  42  72 103 145 190 240 303 370 442
#     4  11  21  41  68  98 139 189 242 292 357 444
#     4  10  21  41  70 104 144 181 233 304 365 437
#     4  10  21  43  66 106 141 184 246 301 367 443
#
# _framework density 23.409139
#
# number of rings (size 3 to 8) (size 9 to 14) (size 15 to 20)
#    0.000    1.500    3.750    1.125    0.000    1.000 
#    9.000    3.750    2.750    3.000    0.000    0.000 
#    0.000    0.000    0.000    0.000    0.000    0.000 
#
# Total GULP energy -396593.789699 kJ/mol
# GULP energy per Si atom -12393.555928 kJ/mol
# Density = 2.335586 g / cm^3
# Si number density = 23.409139 Si / 1000 Ang^3
#
#
#
# Elastic Constant Matrix: (Units=GPa)
#
#
# Indices 1 2 3 4 5 6 
#
# 1 147.6228 43.1436 61.6965 0.0000 5.6922 0.0000
# 2 43.1436 82.5264 46.0504 0.0000 19.3320 0.0000
# 3 61.6965 46.0504 151.4397 0.0000 11.9571 0.0000
# 4 0.0000 0.0000 0.0000 45.9902 0.0000 11.2328
# 5 5.6922 19.3320 11.9571 0.0000 38.0864 0.0000
# 6 0.0000 0.0000 0.0000 11.2328 0.0000 28.2380
#
#
#
# Elastic Compliance Matrix: (Units=1/GPa)
#
#
# Indices 1 2 3 4 5 6 
#
# 1 0.008839 -0.003433 -0.002656 0.000000 0.001255 0.000000
# 2 -0.003433 0.017491 -0.003343 0.000000 -0.007316 0.000000
# 3 -0.002656 -0.003343 0.008754 0.000000 -0.000655 0.000000
# 4 0.000000 0.000000 0.000000 0.024084 0.000000 -0.009580
# 5 0.001255 -0.007316 -0.000655 0.000000 0.029987 0.000000
# 6 0.000000 0.000000 0.000000 -0.009580 0.000000 0.039224
#
#
# Mechanical properties :
#
#
# Convention : Reuss Voigt Hill
#
# Bulk Modulus (GPa) = 61.65151 75.93000 68.79076
# Shear Modulus (GPa) = 32.75499 37.84279 35.29889
#
# Velocity S-wave (km/s) = 3.74470 4.02504 3.88740
# Velocity P-wave (km/s) = 6.71496 7.35579 7.04267
#
# Compressibility (1/GPa) = 0.01622020
#
# Stress axis : x y z
#
# Youngs Moduli (GPa) = 113.13495 57.17290 114.23921
#
# Poissons Ratio (x) = 0.19626 0.30345
# Poissons Ratio (y) = 0.38836 0.38185
# Poissons Ratio (z) = 0.30052 0.19110
#
# Static dielectric constant tensor:
#      x y z
#    x 4.395340 0.000000 0.170650 
#    y 0.000000 4.283190 0.000000 
#    z 0.170650 0.000000 4.538950 
# 
# 
# High freq. dielectric constant tensor:
#      x y z
#    x 1.907160 0.000000 0.006820 
#    y 0.000000 1.914540 0.000000 
#    z 0.006820 0.000000 1.944880 
# 
# From -- ./inp_files/50719.got.cif
#   From: 2010.03.12/outbox.cif.g09.slc.cpg/sg14_26_cif.got.tgz:50719.got - 2010.03.31 13:35:05.
