data_PCOD8126517
_publ_section_title
;
Structure prediction by ZEFSAII (Michael W. Deem and Ramdas Pophale) SiO2 
 PCOD8126517
Probable space group: P 21/C
;
_chemical_formula_sum "Si O2"
_cell_formula_units_Z 20
_cell_length_a 8.302855
_cell_length_b 12.980848
_cell_length_c 10.526577
_cell_angle_alpha 90.000000
_cell_angle_beta 122.293646
_cell_angle_gamma 90.000000
_cell_volume 959.045899
_symmetry_space_group_name_H-M "P 21/C"
_symmetry_group_IT_number 14
_symmetry_cell_setting 'monoclinic'
loop_
_space_group_symop_operation_xyz
x,y,z
-x,1/2+y,1/2-z
-x,-y,-z
x,1/2-y,1/2+z
loop_
_atom_site_type_symbol
_atom_site_label
_atom_site_fract_x
_atom_site_fract_y
_atom_site_fract_z
Si Si1 0.078635 0.191027 0.847484
Si Si2 0.174775 0.185312 0.613997
Si Si3 0.688771 0.381346 0.143993
Si Si4 0.373293 0.515636 0.142143
Si Si5 0.467327 0.185559 0.120129
O O1 0.062239 0.222032 0.691948
O O2 0.898717 0.116471 0.797294
O O3 0.056218 0.287658 0.935092
O O4 0.291162 0.142640 0.957785
O O5 0.372859 0.250052 0.696569
O O6 0.215411 0.063593 0.627289
O O7 0.562701 0.458149 0.174257
O O8 0.603850 0.265050 0.102213
O O9 0.712593 0.419256 0.009699
O O10 0.416954 0.589081 0.279104
#
# Coordination Sequence:
#
# PCOD8126517 Si02
#       5
#     4   4   4   4   4
#     4  10  22  41  61  92 131 166 214 264 317 364
#     4   9  22  41  62  93 130 167 214 261 312 382
#     4  10  22  39  64  94 125 175 203 267 322 376
#     4  10  21  40  67  89 130 170 213 255 330 376
#     4   9  21  39  63  92 128 164 213 263 305 385
#
# _framework density 20.85406
#
# number of rings (size 3 to 8) (size 9 to 14) (size 15 to 20)
#    1.200    1.200    0.000    1.200    5.600    2.400 
#    0.000    0.000    0.000    0.000    0.000    0.000 
#    0.000    0.000    0.000    0.000    0.000    0.000 
#
# Total GULP energy -247762.853933 kJ/mol
# GULP energy per Si atom -12388.142697 kJ/mol
# Density = 2.080660 g / cm^3
# Si number density = 20.854060 Si / 1000 Ang^3
#
#
#
# Elastic Constant Matrix: (Units=GPa)
#
#
# Indices 1 2 3 4 5 6 
#
# 1 29.2988 31.3245 44.8167 0.0000 -10.6693 0.0000
# 2 31.3245 106.4172 76.4092 0.0000 6.8114 0.0000
# 3 44.8167 76.4092 115.0983 0.0000 -2.7383 0.0000
# 4 0.0000 0.0000 0.0000 43.2047 0.0000 0.7995
# 5 -10.6693 6.8114 -2.7383 0.0000 35.7519 0.0000
# 6 0.0000 0.0000 0.0000 0.7995 0.0000 17.1121
#
#
#
# Elastic Compliance Matrix: (Units=1/GPa)
#
#
# Indices 1 2 3 4 5 6 
#
# 1 0.111344 -0.008089 -0.037225 0.000000 0.031918 0.000000
# 2 -0.008089 0.019243 -0.009787 0.000000 -0.006830 0.000000
# 3 -0.037225 -0.009787 0.029514 0.000000 -0.006984 0.000000
# 4 0.000000 0.000000 0.000000 0.023166 0.000000 -0.001082
# 5 0.031918 -0.006830 -0.006984 0.000000 0.038262 0.000000
# 6 0.000000 0.000000 0.000000 -0.001082 0.000000 0.058489
#
#
# Mechanical properties :
#
#
# Convention : Reuss Voigt Hill
#
# Bulk Modulus (GPa) = 20.04121 61.76834 40.90477
# Shear Modulus (GPa) = 12.28946 25.76466 19.02706
#
# Velocity S-wave (km/s) = 2.43020 3.51875 3.02386
# Velocity P-wave (km/s) = 4.18397 6.79650 5.64349
#
# Compressibility (1/GPa) = 0.04989720
#
# Stress axis : x y z
#
# Youngs Moduli (GPa) = 8.98117 51.96828 33.88229
#
# Poissons Ratio (x) = 0.42039 1.26128
# Poissons Ratio (y) = 0.07265 0.33161
# Poissons Ratio (z) = 0.33433 0.50861
#
# Static dielectric constant tensor:
#      x y z
#    x 3.598790 0.000000 0.062940 
#    y 0.000000 3.554000 0.000000 
#    z 0.062940 0.000000 3.609810 
# 
# 
# High freq. dielectric constant tensor:
#      x y z
#    x 1.815440 0.000000 0.002590 
#    y 0.000000 1.792870 0.000000 
#    z 0.002590 0.000000 1.807750 
# 
# From -- ./inp_files/23955.got.cif
#   From: 2010.03.12/outbox.cif.g09.slc.cpg/sg14_12_cif.got.tgz:23955.got - 2010.03.31 13:35:05.
