data_PCOD8126917
_publ_section_title
;
Structure prediction by ZEFSAII (Michael W. Deem and Ramdas Pophale) SiO2 
 PCOD8126917
Probable space group: P 21/C
;
_chemical_formula_sum "Si O2"
_cell_formula_units_Z 20
_cell_length_a 9.041716
_cell_length_b 9.263975
_cell_length_c 16.725774
_cell_angle_alpha 90.000000
_cell_angle_beta 149.653262
_cell_angle_gamma 90.000000
_cell_volume 707.823700
_symmetry_space_group_name_H-M "P 21/C"
_symmetry_group_IT_number 14
_symmetry_cell_setting 'monoclinic'
loop_
_space_group_symop_operation_xyz
x,y,z
-x,1/2+y,1/2-z
-x,-y,-z
x,1/2-y,1/2+z
loop_
_atom_site_type_symbol
_atom_site_label
_atom_site_fract_x
_atom_site_fract_y
_atom_site_fract_z
Si Si1 0.713535 0.278616 0.937354
Si Si2 0.248048 0.174784 0.095410
Si Si3 0.225539 0.263214 0.325524
Si Si4 0.973255 0.502603 0.645771
Si Si5 0.638585 0.928972 0.464245
O O1 0.560742 0.335456 0.784322
O O2 0.467549 0.189879 0.873546
O O3 0.817317 0.420139 0.037139
O O4 0.990059 0.178663 0.041482
O O5 0.211637 0.317112 0.025244
O O6 0.219053 0.038317 0.022333
O O7 0.351711 0.133538 0.441293
O O8 0.135806 0.406662 0.329188
O O9 0.949812 0.172458 0.156281
O O10 0.306960 0.542071 0.781100
#
# Coordination Sequence:
#
# PCOD8126917 Si02
#       5
#     4   4   4   4   4
#     4  11  23  40  67  96 128 177 218 275 328 399
#     4  11  23  42  65  97 135 169 224 277 334 389
#     4  10  24  40  72  93 139 172 228 268 337 392
#     4  10  21  45  64  99 129 182 216 276 325 398
#     4  10  22  44  66  92 135 181 217 272 339 390
#
# _framework density 28.255623
#
# number of rings (size 3 to 8) (size 9 to 14) (size 15 to 20)
#    0.000    1.600    2.000    3.000    5.600    3.200 
#    0.000    4.000    0.000    0.000    0.000    0.000 
#    0.000    0.000    0.000    0.000    0.000    0.000 
#
# Total GULP energy -248059.196561 kJ/mol
# GULP energy per Si atom -12402.959828 kJ/mol
# Density = 2.819131 g / cm^3
# Si number density = 28.255623 Si / 1000 Ang^3
#
#
#
# Elastic Constant Matrix: (Units=GPa)
#
#
# Indices 1 2 3 4 5 6 
#
# 1 111.5225 36.8749 16.8957 0.0000 -18.5514 0.0000
# 2 36.8749 138.0679 5.5826 0.0000 2.1098 0.0000
# 3 16.8957 5.5826 97.9396 0.0000 -12.6370 0.0000
# 4 0.0000 0.0000 0.0000 39.2767 0.0000 -1.1142
# 5 -18.5514 2.1098 -12.6370 0.0000 45.3461 0.0000
# 6 0.0000 0.0000 0.0000 -1.1142 0.0000 33.8813
#
#
#
# Elastic Compliance Matrix: (Units=1/GPa)
#
#
# Indices 1 2 3 4 5 6 
#
# 1 0.010806 -0.002904 -0.001152 0.000000 0.004235 0.000000
# 2 -0.002904 0.008050 -0.000165 0.000000 -0.001609 0.000000
# 3 -0.001152 -0.000165 0.010745 0.000000 0.002531 0.000000
# 4 0.000000 0.000000 0.000000 0.025484 0.000000 0.000838
# 5 0.004235 -0.001609 0.002531 0.000000 0.024565 0.000000
# 6 0.000000 0.000000 0.000000 0.000838 0.000000 0.029542
#
#
# Mechanical properties :
#
#
# Convention : Reuss Voigt Hill
#
# Bulk Modulus (GPa) = 47.26501 51.80404 49.53452
# Shear Modulus (GPa) = 40.09988 42.91263 41.50625
#
# Velocity S-wave (km/s) = 3.77129 3.90131 3.83685
# Velocity P-wave (km/s) = 5.97725 6.21832 6.09898
#
# Compressibility (1/GPa) = 0.02115730
#
# Stress axis : x y z
#
# Youngs Moduli (GPa) = 92.54046 124.22785 93.06560
#
# Poissons Ratio (x) = 0.36078 0.10723
# Poissons Ratio (y) = 0.26875 0.01539
# Poissons Ratio (z) = 0.10663 0.02055
#
# Static dielectric constant tensor:
#      x y z
#    x 5.292810 0.000000 -0.586770 
#    y 0.000000 5.376850 0.000000 
#    z -0.586770 0.000000 5.464230 
# 
# 
# High freq. dielectric constant tensor:
#      x y z
#    x 2.166040 0.000000 -0.034630 
#    y 0.000000 2.161980 0.000000 
#    z -0.034630 0.000000 2.151620 
# 
# From -- ./inp_files/23814.got.cif
#   From: 2010.03.12/outbox.cif.g09.slc.cpg/sg14_12_cif.got.tgz:23814.got - 2010.03.31 13:35:05.
