data_PCOD8126114
_publ_section_title
;
Structure prediction by ZEFSAII (Michael W. Deem and Ramdas Pophale) SiO2 
 PCOD8126114
Probable space group: P 21/C
;
_chemical_formula_sum "Si O2"
_cell_formula_units_Z 32
_cell_length_a 11.182932
_cell_length_b 13.275752
_cell_length_c 16.085909
_cell_angle_alpha 90.000000
_cell_angle_beta 141.858217
_cell_angle_gamma 90.000000
_cell_volume 1474.940325
_symmetry_space_group_name_H-M "P 21/C"
_symmetry_group_IT_number 14
_symmetry_cell_setting 'monoclinic'
loop_
_space_group_symop_operation_xyz
x,y,z
-x,1/2+y,1/2-z
-x,-y,-z
x,1/2-y,1/2+z
loop_
_atom_site_type_symbol
_atom_site_label
_atom_site_fract_x
_atom_site_fract_y
_atom_site_fract_z
Si Si1 0.356199 0.135463 0.598239
Si Si2 0.757480 0.358704 0.118909
Si Si3 0.013383 0.859995 0.950872
Si Si4 0.766701 0.669181 0.795739
Si Si5 0.751786 0.456046 0.285282
Si Si6 0.921171 0.357104 0.687654
Si Si7 0.652733 0.710252 0.081770
Si Si8 0.010167 0.997121 0.367703
O O1 0.378708 0.179692 0.704326
O O2 0.520758 0.052147 0.671059
O O3 0.371012 0.222584 0.532938
O O4 0.145808 0.081845 0.482752
O O5 0.815209 0.430402 0.226615
O O6 0.834398 0.245685 0.177090
O O7 0.857809 0.405967 0.093913
O O8 0.525348 0.356012 0.981103
O O9 0.939532 0.746606 0.906168
O O10 0.151649 0.881121 0.945627
O O11 0.828048 0.934895 0.854443
O O12 0.147668 0.870159 0.103991
O O13 0.665949 0.690736 0.649393
O O14 0.856747 0.556147 0.845191
O O15 0.154158 0.353900 0.801171
O O16 0.876150 0.448654 0.724777
#
# Coordination Sequence:
#
# PCOD8126114 Si02
#       8
#     4   4   4   4   4   4   4   4
#     4  10  24  40  62  93 127 161 213 257 306 376
#     4  11  21  39  67  88 122 165 209 262 306 373
#     4  10  21  38  61  88 122 163 211 246 318 364
#     4  11  23  41  63  92 130 161 201 265 312 377
#     4  10  23  40  61  92 120 166 207 264 300 374
#     4  10  21  39  62  92 121 163 205 258 312 374
#     4   9  22  39  64  92 118 164 210 248 314 366
#     4  11  22  38  66  88 124 164 207 251 322 365
#
# _framework density 21.695792999999998
#
# number of rings (size 3 to 8) (size 9 to 14) (size 15 to 20)
#    0.000    1.750    3.750    0.375    8.750    1.500 
#    0.000    1.875    0.000    0.000    0.000    0.000 
#    0.000    0.000    0.000    0.000    0.000    0.000 
#
# Total GULP energy -396498.961917 kJ/mol
# GULP energy per Si atom -12390.592560 kJ/mol
# Density = 2.164641 g / cm^3
# Si number density = 21.695793 Si / 1000 Ang^3
#
#
#
# Elastic Constant Matrix: (Units=GPa)
#
#
# Indices 1 2 3 4 5 6 
#
# 1 90.4931 13.8792 20.2571 0.0000 -28.4063 0.0000
# 2 13.8792 67.0581 4.3650 0.0000 -7.0848 0.0000
# 3 20.2571 4.3650 53.0402 0.0000 -9.5141 0.0000
# 4 0.0000 0.0000 0.0000 21.1805 0.0000 -8.1596
# 5 -28.4063 -7.0848 -9.5141 0.0000 27.0722 0.0000
# 6 0.0000 0.0000 0.0000 -8.1596 0.0000 27.6106
#
#
#
# Elastic Compliance Matrix: (Units=1/GPa)
#
#
# Indices 1 2 3 4 5 6 
#
# 1 0.017242 -0.001604 -0.003504 0.000000 0.016440 0.000000
# 2 -0.001604 0.015502 -0.000253 0.000000 0.002285 0.000000
# 3 -0.003504 -0.000253 0.020856 0.000000 0.003587 0.000000
# 4 0.000000 0.000000 0.000000 0.053279 0.000000 0.015745
# 5 0.016440 0.002285 0.003587 0.000000 0.056047 0.000000
# 6 0.000000 0.000000 0.000000 0.015745 0.000000 0.040871
#
#
# Mechanical properties :
#
#
# Convention : Reuss Voigt Hill
#
# Bulk Modulus (GPa) = 23.32195 31.95489 27.63842
# Shear Modulus (GPa) = 21.85206 26.64534 24.24870
#
# Velocity S-wave (km/s) = 3.17709 3.50828 3.34678
# Velocity P-wave (km/s) = 4.92254 5.58312 5.26320
#
# Compressibility (1/GPa) = 0.04287807
#
# Stress axis : x y z
#
# Youngs Moduli (GPa) = 57.99949 64.50663 47.94773
#
# Poissons Ratio (x) = 0.10344 0.16801
# Poissons Ratio (y) = 0.09300 0.01215
# Poissons Ratio (z) = 0.20323 0.01635
#
# Static dielectric constant tensor:
#      x y z
#    x 4.013120 0.000000 -0.367680 
#    y 0.000000 3.611950 0.000000 
#    z -0.367680 0.000000 4.166800 
# 
# 
# High freq. dielectric constant tensor:
#      x y z
#    x 1.850330 0.000000 -0.018660 
#    y 0.000000 1.829270 0.000000 
#    z -0.018660 0.000000 1.847190 
# 
# From -- ./inp_files/45106.got.cif
#   From: 2010.03.12/outbox.cif.g09.slc.cpg/sg14_23_cif.got.tgz:45106.got - 2010.03.31 13:35:05.
