data_PCOD8126505
_publ_section_title
;
Structure prediction by ZEFSAII (Michael W. Deem and Ramdas Pophale) SiO2 
 PCOD8126505
Probable space group: P 21/C
;
_chemical_formula_sum "Si O2"
_cell_formula_units_Z 24
_cell_length_a 26.378518
_cell_length_b 10.625570
_cell_length_c 12.589570
_cell_angle_alpha 90.000000
_cell_angle_beta 19.118809
_cell_angle_gamma 90.000000
_cell_volume 1155.745141
_symmetry_space_group_name_H-M "P 21/C"
_symmetry_group_IT_number 14
_symmetry_cell_setting 'monoclinic'
loop_
_space_group_symop_operation_xyz
x,y,z
-x,1/2+y,1/2-z
-x,-y,-z
x,1/2-y,1/2+z
loop_
_atom_site_type_symbol
_atom_site_label
_atom_site_fract_x
_atom_site_fract_y
_atom_site_fract_z
Si Si1 0.122251 0.160186 0.608622
Si Si2 0.100062 0.671941 0.838749
Si Si3 0.540648 0.370864 0.858863
Si Si4 0.692606 0.886767 0.357066
Si Si5 0.946458 0.045659 0.773493
Si Si6 0.611241 0.882849 0.761601
O O1 0.197351 0.274525 0.396826
O O2 0.244697 0.096287 0.444804
O O3 0.070667 0.062058 0.620977
O O4 0.968462 0.197734 0.980424
O O5 0.278338 0.651419 0.513747
O O6 0.073627 0.667755 0.763208
O O7 0.998803 0.565901 0.094571
O O8 0.500000 0.500000 0.000000
O O9 0.472168 0.379990 0.875819
O O10 0.468724 0.251904 0.062231
O O11 0.670705 0.882035 0.524947
O O12 0.777829 0.016515 0.156596
O O13 0.500000 0.000000 0.000000
#
# Coordination Sequence:
#
# PCOD8126505 Si02
#       6
#     4   4   4   4   4   4
#     4  10  23  42  65  93 133 176 217 278 329 394
#     4  10  22  40  67  98 122 174 229 265 322 404
#     4  11  24  43  70  95 127 176 224 267 322 404
#     4  10  23  42  63  94 131 172 217 273 330 388
#     4  10  21  40  66  89 129 168 223 266 326 390
#     4  11  27  44  62  98 139 171 213 279 344 388
#
# _framework density 20.765823000000001
#
# number of rings (size 3 to 8) (size 9 to 14) (size 15 to 20)
#    0.000    1.667    1.667    1.000    9.333    3.333 
#    3.000    0.000    0.000    0.000    0.000    0.000 
#    0.000    0.000    0.000    0.000    0.000    0.000 
#
# Total GULP energy -297565.076918 kJ/mol
# GULP energy per Si atom -12398.544872 kJ/mol
# Density = 2.071856 g / cm^3
# Si number density = 20.765823 Si / 1000 Ang^3
#
#
#
# Elastic Constant Matrix: (Units=GPa)
#
#
# Indices 1 2 3 4 5 6 
#
# 1 171.1076 40.8315 60.3443 0.0000 1.3669 0.0000
# 2 40.8315 81.2353 26.9376 0.0000 0.6079 0.0000
# 3 60.3443 26.9376 120.5458 0.0000 -12.4122 0.0000
# 4 0.0000 0.0000 0.0000 22.2074 0.0000 -10.0618
# 5 1.3669 0.6079 -12.4122 0.0000 37.5243 0.0000
# 6 0.0000 0.0000 0.0000 -10.0618 0.0000 25.4054
#
#
#
# Elastic Compliance Matrix: (Units=1/GPa)
#
#
# Indices 1 2 3 4 5 6 
#
# 1 0.007702 -0.002739 -0.003383 0.000000 -0.001355 0.000000
# 2 -0.002739 0.014325 -0.001909 0.000000 -0.000764 0.000000
# 3 -0.003383 -0.001909 0.010799 0.000000 0.003726 0.000000
# 4 0.000000 0.000000 0.000000 0.054877 0.000000 0.021734
# 5 -0.001355 -0.000764 0.003726 0.000000 0.027944 0.000000
# 6 0.000000 0.000000 0.000000 0.021734 0.000000 0.047969
#
#
# Mechanical properties :
#
#
# Convention : Reuss Voigt Hill
#
# Bulk Modulus (GPa) = 59.64820 69.90172 64.77496
# Shear Modulus (GPa) = 26.98813 33.34578 30.16695
#
# Velocity S-wave (km/s) = 3.60897 4.01159 3.81559
# Velocity P-wave (km/s) = 6.79358 7.42914 7.11846
#
# Compressibility (1/GPa) = 0.01676497
#
# Stress axis : x y z
#
# Youngs Moduli (GPa) = 129.83958 69.80629 92.59927
#
# Poissons Ratio (x) = 0.19122 0.31325
# Poissons Ratio (y) = 0.35567 0.17673
# Poissons Ratio (z) = 0.43923 0.13323
#
# Static dielectric constant tensor:
#      x y z
#    x 7.728180 0.000000 2.367060 
#    y 0.000000 3.688030 0.000000 
#    z 2.367060 0.000000 5.393360 
# 
# 
# High freq. dielectric constant tensor:
#      x y z
#    x 1.829860 0.000000 -0.002690 
#    y 0.000000 1.798260 0.000000 
#    z -0.002690 0.000000 1.821700 
# 
# From -- ./inp_files/35895.got.cif
#   From: 2010.03.12/outbox.cif.g09.slc.cpg/sg14_18_cif.got.tgz:35895.got - 2010.03.31 13:35:05.
