data_PCOD8126086
_publ_section_title
;
Structure prediction by ZEFSAII (Michael W. Deem and Ramdas Pophale) SiO2 
 PCOD8126086
Probable space group: P 21/C
;
_chemical_formula_sum "Si O2"
_cell_formula_units_Z 32
_cell_length_a 8.771854
_cell_length_b 23.855678
_cell_length_c 14.534629
_cell_angle_alpha 90.000000
_cell_angle_beta 148.326891
_cell_angle_gamma 90.000000
_cell_volume 1597.004713
_symmetry_space_group_name_H-M "P 21/C"
_symmetry_group_IT_number 14
_symmetry_cell_setting 'monoclinic'
loop_
_space_group_symop_operation_xyz
x,y,z
-x,1/2+y,1/2-z
-x,-y,-z
x,1/2-y,1/2+z
loop_
_atom_site_type_symbol
_atom_site_label
_atom_site_fract_x
_atom_site_fract_y
_atom_site_fract_z
Si Si1 0.716658 0.000450 0.198696
Si Si2 0.852295 0.616837 0.842757
Si Si3 0.866176 0.899104 0.561483
Si Si4 0.173457 0.689787 0.866047
Si Si5 0.186434 0.624141 0.510808
Si Si6 0.197017 0.600008 0.726104
Si Si7 0.855350 0.498315 0.522767
Si Si8 0.147385 0.195678 0.298481
O O1 0.946384 0.049475 0.304538
O O2 0.882736 0.942428 0.305133
O O3 0.489481 0.011791 0.165871
O O4 0.500000 0.000000 0.000000
O O5 0.523354 0.639664 0.669087
O O6 0.066320 0.661451 0.905528
O O7 0.950484 0.612070 0.999103
O O8 0.532746 0.916743 0.401325
O O9 0.926232 0.843887 0.652642
O O10 0.107660 0.649262 0.747508
O O11 0.992593 0.745002 0.750969
O O12 0.512920 0.703384 0.046139
O O13 0.108087 0.619584 0.578226
O O14 0.113824 0.565031 0.422246
O O15 0.991350 0.672069 0.366347
O O16 0.017188 0.544919 0.667994
O O17 0.000000 0.500000 0.500000
#
# Coordination Sequence:
#
# PCOD8126086 Si02
#       8
#     4   4   4   4   4   4   4   4
#     4  11  21  35  59  89 121 157 190 231 286 343
#     4  10  21  38  59  87 120 152 191 236 286 345
#     4  10  22  39  59  86 119 155 191 235 288 343
#     4  11  24  40  58  82 110 149 194 241 287 338
#     4   9  19  38  60  84 116 149 185 234 286 343
#     4   9  20  38  60  85 116 149 188 235 286 342
#     4   9  18  33  56  86 115 145 180 224 279 336
#     4  11  24  41  59  81 112 150 196 242 289 342
#
# _framework density 20.037510999999999
#
# number of rings (size 3 to 8) (size 9 to 14) (size 15 to 20)
#    0.000    2.000    0.000    4.125    0.000    5.000 
#    0.000    5.625    0.000    0.000    0.000    0.000 
#    0.000    0.000    0.000    0.000    0.000    0.000 
#
# Total GULP energy -396721.290058 kJ/mol
# GULP energy per Si atom -12397.540314 kJ/mol
# Density = 1.999191 g / cm^3
# Si number density = 20.037511 Si / 1000 Ang^3
#
#
#
# Elastic Constant Matrix: (Units=GPa)
#
#
# Indices 1 2 3 4 5 6 
#
# 1 56.5980 23.9978 23.1121 0.0000 -0.0872 0.0000
# 2 23.9978 108.2816 52.9408 0.0000 11.2834 0.0000
# 3 23.1121 52.9408 92.4024 0.0000 -3.5792 0.0000
# 4 0.0000 0.0000 0.0000 36.3180 0.0000 8.6697
# 5 -0.0872 11.2834 -3.5792 0.0000 32.1078 0.0000
# 6 0.0000 0.0000 0.0000 8.6697 0.0000 31.2905
#
#
#
# Elastic Compliance Matrix: (Units=1/GPa)
#
#
# Indices 1 2 3 4 5 6 
#
# 1 0.020285 -0.002920 -0.003374 0.000000 0.000705 0.000000
# 2 -0.002920 0.014235 -0.007652 0.000000 -0.005863 0.000000
# 3 -0.003374 -0.007652 0.016224 0.000000 0.004489 0.000000
# 4 0.000000 0.000000 0.000000 0.029485 0.000000 -0.008169
# 5 0.000705 -0.005863 0.004489 0.000000 0.033708 0.000000
# 6 0.000000 0.000000 0.000000 -0.008169 0.000000 0.034222
#
#
# Mechanical properties :
#
#
# Convention : Reuss Voigt Hill
#
# Bulk Modulus (GPa) = 43.75881 50.82036 47.28959
# Shear Modulus (GPa) = 27.22306 30.42535 28.82420
#
# Velocity S-wave (km/s) = 3.68992 3.90092 3.79689
# Velocity P-wave (km/s) = 6.32771 6.76071 6.54779
#
# Compressibility (1/GPa) = 0.02285254
#
# Stress axis : x y z
#
# Youngs Moduli (GPa) = 49.29706 70.25122 61.63602
#
# Poissons Ratio (x) = 0.20511 0.20794
# Poissons Ratio (y) = 0.14393 0.47166
# Poissons Ratio (z) = 0.16631 0.53759
#
# Static dielectric constant tensor:
#      x y z
#    x 4.879550 0.000000 1.586170 
#    y 0.000000 3.932710 0.000000 
#    z 1.586170 0.000000 5.882540 
# 
# 
# High freq. dielectric constant tensor:
#      x y z
#    x 1.797880 0.000000 0.005360 
#    y 0.000000 1.778620 0.000000 
#    z 0.005360 0.000000 1.775600 
# 
# From -- ./inp_files/42258.got.cif
#   From: 2010.03.12/outbox.cif.g09.slc.cpg/sg14_22_cif.got.tgz:42258.got - 2010.03.31 13:35:05.
