data_PCOD8126843
_publ_section_title
;
Structure prediction by ZEFSAII (Michael W. Deem and Ramdas Pophale) SiO2 
 PCOD8126843
Probable space group: P 21/C
;
_chemical_formula_sum "Si O2"
_cell_formula_units_Z 28
_cell_length_a 13.090872
_cell_length_b 10.182770
_cell_length_c 9.959446
_cell_angle_alpha 90.000000
_cell_angle_beta 72.020062
_cell_angle_gamma 90.000000
_cell_volume 1262.773321
_symmetry_space_group_name_H-M "P 21/C"
_symmetry_group_IT_number 14
_symmetry_cell_setting 'monoclinic'
loop_
_space_group_symop_operation_xyz
x,y,z
-x,1/2+y,1/2-z
-x,-y,-z
x,1/2-y,1/2+z
loop_
_atom_site_type_symbol
_atom_site_label
_atom_site_fract_x
_atom_site_fract_y
_atom_site_fract_z
Si Si1 0.399787 0.665187 0.294077
Si Si2 0.813065 0.245239 0.996946
Si Si3 0.929071 0.146649 0.693367
Si Si4 0.205888 0.407375 0.776110
Si Si5 0.309883 0.529812 0.071094
Si Si6 0.421398 0.535540 0.764320
Si Si7 0.823368 0.701268 0.926920
O O1 0.303514 0.676761 0.439772
O O2 0.351475 0.603619 0.181654
O O3 0.486137 0.564563 0.323808
O O4 0.448890 0.809051 0.234762
O O5 0.883121 0.169121 0.860563
O O6 0.787971 0.393438 0.961848
O O7 0.878372 0.248001 0.110257
O O8 0.055432 0.159140 0.647519
O O9 0.898662 0.998863 0.662684
O O10 0.311431 0.499456 0.732182
O O11 0.197475 0.341998 0.632461
O O12 0.205853 0.304202 0.901708
O O13 0.257162 0.390398 0.126493
O O14 0.408904 0.510496 0.928548
#
# Coordination Sequence:
#
# PCOD8126843 Si02
#       7
#     4   4   4   4   4   4   4
#     4  11  22  43  70 100 129 180 223 279 341 404
#     4  11  22  42  70  95 135 172 225 277 335 404
#     4  12  23  44  67  98 134 178 225 277 339 403
#     4  11  24  47  62 102 140 170 228 283 334 405
#     4  10  21  43  66  93 133 177 220 271 341 404
#     4  10  23  43  69  97 136 174 222 284 340 399
#     4  11  25  40  72  94 135 183 222 278 336 399
#
# _framework density 22.173417000000001
#
# number of rings (size 3 to 8) (size 9 to 14) (size 15 to 20)
#    0.000    1.143    5.714    1.714    4.000    1.143 
#    5.143    5.714    0.000    0.000    0.000    0.000 
#    0.000    0.000    0.000    0.000    0.000    0.000 
#
# Total GULP energy -347138.371057 kJ/mol
# GULP energy per Si atom -12397.798966 kJ/mol
# Density = 2.212295 g / cm^3
# Si number density = 22.173417 Si / 1000 Ang^3
#
#
#
# Elastic Constant Matrix: (Units=GPa)
#
#
# Indices 1 2 3 4 5 6 
#
# 1 57.4133 23.1458 0.8128 0.0000 10.5945 0.0000
# 2 23.1458 65.5020 2.4208 0.0000 13.4558 0.0000
# 3 0.8128 2.4208 57.8491 0.0000 14.6732 0.0000
# 4 0.0000 0.0000 0.0000 35.4366 0.0000 4.1027
# 5 10.5945 13.4558 14.6732 0.0000 26.3461 0.0000
# 6 0.0000 0.0000 0.0000 4.1027 0.0000 35.7568
#
#
#
# Elastic Compliance Matrix: (Units=1/GPa)
#
#
# Indices 1 2 3 4 5 6 
#
# 1 0.021038 -0.006233 0.001518 0.000000 -0.006123 0.000000
# 2 -0.006233 0.019055 0.001308 0.000000 -0.007954 0.000000
# 3 0.001518 0.001308 0.020419 0.000000 -0.012651 0.000000
# 4 0.000000 0.000000 0.000000 0.028599 0.000000 -0.003282
# 5 -0.006123 -0.007954 -0.012651 0.000000 0.051526 0.000000
# 6 0.000000 0.000000 0.000000 -0.003282 0.000000 0.028343
#
#
# Mechanical properties :
#
#
# Convention : Reuss Voigt Hill
#
# Bulk Modulus (GPa) = 18.62239 25.94702 22.28471
# Shear Modulus (GPa) = 25.81390 29.80021 27.80706
#
# Velocity S-wave (km/s) = 3.41571 3.66998 3.54513
# Velocity P-wave (km/s) = 4.89621 5.44845 5.17970
#
# Compressibility (1/GPa) = 0.05369879
#
# Stress axis : x y z
#
# Youngs Moduli (GPa) = 47.53197 52.48075 48.97375
#
# Poissons Ratio (x) = 0.32709 -0.07435
# Poissons Ratio (y) = 0.29624 -0.06404
# Poissons Ratio (z) = -0.07216 -0.06863
#
# Static dielectric constant tensor:
#      x y z
#    x 4.034470 0.000000 0.018900 
#    y 0.000000 4.029120 0.000000 
#    z 0.018900 0.000000 4.125120 
# 
# 
# High freq. dielectric constant tensor:
#      x y z
#    x 1.874810 0.000000 0.002010 
#    y 0.000000 1.866650 0.000000 
#    z 0.002010 0.000000 1.867420 
# 
# From -- ./inp_files/31513.got.cif
#   From: 2010.03.12/outbox.cif.g09.slc.cpg/sg14_16_cif.got.tgz:31513.got - 2010.03.31 13:35:05.
