data_PCOD8126049
_publ_section_title
;
Structure prediction by ZEFSAII (Michael W. Deem and Ramdas Pophale) SiO2 
 PCOD8126049
Probable space group: P 21/C
;
_chemical_formula_sum "Si O2"
_cell_formula_units_Z 32
_cell_length_a 8.898077
_cell_length_b 8.200346
_cell_length_c 29.248544
_cell_angle_alpha 90.000000
_cell_angle_beta 131.428049
_cell_angle_gamma 90.000000
_cell_volume 1600.186608
_symmetry_space_group_name_H-M "P 21/C"
_symmetry_group_IT_number 14
_symmetry_cell_setting 'monoclinic'
loop_
_space_group_symop_operation_xyz
x,y,z
-x,1/2+y,1/2-z
-x,-y,-z
x,1/2-y,1/2+z
loop_
_atom_site_type_symbol
_atom_site_label
_atom_site_fract_x
_atom_site_fract_y
_atom_site_fract_z
Si Si1 0.653369 0.527208 0.448024
Si Si2 0.325624 0.803767 0.492437
Si Si3 0.284313 0.475502 0.644876
Si Si4 0.729242 0.661925 0.020554
Si Si5 0.193224 0.988007 0.841715
Si Si6 0.255307 0.975171 0.748944
Si Si7 0.034482 0.261121 0.146998
Si Si8 0.965523 0.266961 0.350897
O O1 0.709688 0.351927 0.481769
O O2 0.735161 0.518628 0.413371
O O3 0.759797 0.683841 0.492726
O O4 0.416339 0.561721 0.401846
O O5 0.543836 0.790737 0.515145
O O6 0.166740 0.801560 0.420064
O O7 0.302764 0.985603 0.511426
O O8 0.509711 0.509755 0.706660
O O9 0.207455 0.301835 0.647557
O O10 0.136928 0.606089 0.636228
O O11 0.923950 0.641329 0.092479
O O12 0.174951 0.996445 0.783721
O O13 0.024360 0.863788 0.824818
O O14 0.141110 0.160165 0.854215
O O15 0.205167 0.798836 0.717788
O O16 0.127050 0.085809 0.690052
#
# Coordination Sequence:
#
# PCOD8126049 Si02
#       8
#     4   4   4   4   4   4   4   4
#     4  11  21  42  63  92 127 164 195 259 307 355
#     4  11  22  38  65  97 126 154 204 258 307 369
#     4  10  25  40  62  85 125 165 205 242 309 369
#     4  11  22  38  65  97 126 154 204 258 307 369
#     4  10  21  37  65  90 118 158 207 251 309 360
#     4  11  22  40  61  90 123 156 209 256 297 366
#     4  11  21  40  61  90 120 165 199 251 310 361
#     4  11  21  40  61  90 120 165 199 251 310 361
#
# _framework density 19.997668000000001
#
# number of rings (size 3 to 8) (size 9 to 14) (size 15 to 20)
#    0.000    1.250    3.750    3.375    0.000    2.000 
#    2.250    1.250    5.500    0.000    0.000    0.000 
#    0.000    0.000    0.000    0.000    0.000    0.000 
#
# Total GULP energy -396637.047085 kJ/mol
# GULP energy per Si atom -12394.907721 kJ/mol
# Density = 1.995215 g / cm^3
# Si number density = 19.997668 Si / 1000 Ang^3
#
#
#
# Elastic Constant Matrix: (Units=GPa)
#
#
# Indices 1 2 3 4 5 6 
#
# 1 75.5085 25.8045 41.9385 0.0000 -6.9311 0.0000
# 2 25.8045 95.1403 35.4980 0.0000 -18.2697 0.0000
# 3 41.9385 35.4980 120.1972 0.0000 -4.2101 0.0000
# 4 0.0000 0.0000 0.0000 1062.2575 0.0000 1023.0129
# 5 -6.9311 -18.2697 -4.2101 0.0000 22.2460 0.0000
# 6 0.0000 0.0000 0.0000 1023.0129 0.0000 1017.9780
#
#
#
# Elastic Compliance Matrix: (Units=1/GPa)
#
#
# Indices 1 2 3 4 5 6 
#
# 1 0.017141 -0.002207 -0.005240 0.000000 0.002536 0.000000
# 2 -0.002207 0.014263 -0.003076 0.000000 0.010444 0.000000
# 3 -0.005240 -0.003076 0.010984 0.000000 -0.002081 0.000000
# 4 0.000000 0.000000 0.000000 0.029253 0.000000 -0.029397
# 5 0.002536 0.010444 -0.002081 0.000000 0.053925 0.000000
# 6 0.000000 0.000000 0.000000 -0.029397 0.000000 0.030525
#
#
# Mechanical properties :
#
#
# Convention : Reuss Voigt Hill
#
# Bulk Modulus (GPa) = 46.85910 55.25865 51.05888
# Shear Modulus (GPa) = 27.13694 433.00333 230.07013
#
# Velocity S-wave (km/s) = 3.68775 14.73082 10.73770
# Velocity P-wave (km/s) = 6.45103 17.80511 13.39100
#
# Compressibility (1/GPa) = 0.02134057
#
# Stress axis : x y z
#
# Youngs Moduli (GPa) = 58.33968 70.11323 91.04395
#
# Poissons Ratio (x) = 0.15473 0.47708
# Poissons Ratio (y) = 0.12875 0.28009
# Poissons Ratio (z) = 0.30571 0.21570
#
# Static dielectric constant tensor:
#      x y z
#    x 3.656150 0.000000 0.048120 
#    y 0.000000 3.778040 0.000000 
#    z 0.048120 0.000000 3.662670 
# 
# 
# High freq. dielectric constant tensor:
#      x y z
#    x 1.777210 0.000000 0.008930 
#    y 0.000000 1.783850 0.000000 
#    z 0.008930 0.000000 1.787310 
# 
# From -- ./inp_files/76383.got.cif
#   From: 2010.03.12/outbox.cif.g09.slc.cpg/sg14_39_cif.got.tgz:76383.got - 2010.03.31 13:35:05.
