data_PCOD8126554
_publ_section_title
;
Structure prediction by ZEFSAII (Michael W. Deem and Ramdas Pophale) SiO2 
 PCOD8126554
Probable space group: P 21/C
;
_chemical_formula_sum "Si O2"
_cell_formula_units_Z 20
_cell_length_a 5.266730
_cell_length_b 9.884404
_cell_length_c 19.300157
_cell_angle_alpha 90.000000
_cell_angle_beta 84.081605
_cell_angle_gamma 90.000000
_cell_volume 999.381489
_symmetry_space_group_name_H-M "P 21/C"
_symmetry_group_IT_number 14
_symmetry_cell_setting 'monoclinic'
loop_
_space_group_symop_operation_xyz
x,y,z
-x,1/2+y,1/2-z
-x,-y,-z
x,1/2-y,1/2+z
loop_
_atom_site_type_symbol
_atom_site_label
_atom_site_fract_x
_atom_site_fract_y
_atom_site_fract_z
Si Si1 0.352818 0.303927 0.772913
Si Si2 0.639386 0.504217 0.682516
Si Si3 0.770316 0.872888 0.436383
Si Si4 0.287746 0.467184 0.910379
Si Si5 0.161974 0.103574 0.141983
O O1 0.607790 0.382286 0.739635
O O2 0.270104 0.359846 0.849471
O O3 0.138269 0.329439 0.719690
O O4 0.394836 0.144465 0.776560
O O5 0.411580 0.493620 0.632039
O O6 0.910503 0.487288 0.636411
O O7 0.703986 0.882027 0.519154
O O8 0.803571 0.715881 0.417777
O O9 0.539247 0.938244 0.398380
O O10 0.036424 0.943013 0.411440
#
# Coordination Sequence:
#
# PCOD8126554 Si02
#       5
#     4   4   4   4   4
#     4  10  24  37  60  87 118 152 199 243 285 355
#     4  10  24  35  58  86 116 156 193 238 299 336
#     4  10  21  41  58  92 113 162 188 252 283 350
#     4  10  22  36  66  84 121 150 209 230 295 347
#     4  10  23  35  60  80 123 148 193 239 295 336
#
# _framework density 20.012377999999998
#
# number of rings (size 3 to 8) (size 9 to 14) (size 15 to 20)
#    1.200    0.800    0.000    2.400   11.200    0.000 
#    0.000    2.000    0.000    0.000    0.000    0.000 
#    0.000    0.000    0.000    0.000    0.000    0.000 
#
# Total GULP energy -247871.549114 kJ/mol
# GULP energy per Si atom -12393.577456 kJ/mol
# Density = 1.996683 g / cm^3
# Si number density = 20.012378 Si / 1000 Ang^3
#
#
#
# Elastic Constant Matrix: (Units=GPa)
#
#
# Indices 1 2 3 4 5 6 
#
# 1 131.8589 12.2616 5.3315 0.0000 -6.9487 0.0000
# 2 12.2616 53.0822 -10.2518 0.0000 -3.3586 0.0000
# 3 5.3315 -10.2518 38.4827 0.0000 3.0314 0.0000
# 4 0.0000 0.0000 0.0000 33.4589 0.0000 -1.4945
# 5 -6.9487 -3.3586 3.0314 0.0000 10.8955 0.0000
# 6 0.0000 0.0000 0.0000 -1.4945 0.0000 16.2518
#
#
#
# Elastic Compliance Matrix: (Units=1/GPa)
#
#
# Indices 1 2 3 4 5 6 
#
# 1 0.008119 -0.001945 -0.002049 0.000000 0.005148 0.000000
# 2 -0.001945 0.020570 0.005468 0.000000 0.003579 0.000000
# 3 -0.002049 0.005468 0.028317 0.000000 -0.007500 0.000000
# 4 0.000000 0.000000 0.000000 0.030011 0.000000 0.002760
# 5 0.005148 0.003579 -0.007500 0.000000 0.098255 0.000000
# 6 0.000000 0.000000 0.000000 0.002760 0.000000 0.061785
#
#
# Mechanical properties :
#
#
# Convention : Reuss Voigt Hill
#
# Bulk Modulus (GPa) = 16.67957 26.45625 21.56791
# Shear Modulus (GPa) = 18.93265 26.52674 22.72969
#
# Velocity S-wave (km/s) = 3.07912 3.64471 3.37379
# Velocity P-wave (km/s) = 4.58193 5.56422 5.09679
#
# Compressibility (1/GPa) = 0.05995358
#
# Stress axis : x y z
#
# Youngs Moduli (GPa) = 123.16952 48.61336 35.31465
#
# Poissons Ratio (x) = 0.09457 0.07235
# Poissons Ratio (y) = 0.23960 -0.19309
# Poissons Ratio (z) = 0.25232 -0.26580
#
# Static dielectric constant tensor:
#      x y z
#    x 3.730690 0.000000 0.064680 
#    y 0.000000 3.373660 0.000000 
#    z 0.064680 0.000000 3.393840 
# 
# 
# High freq. dielectric constant tensor:
#      x y z
#    x 1.789190 0.000000 0.001350 
#    y 0.000000 1.770330 0.000000 
#    z 0.001350 0.000000 1.761740 
# 
# From -- ./inp_files/63047.got.cif
#   From: 2010.03.12/outbox.cif.g09.slc.cpg/sg14_32_cif.got.tgz:63047.got - 2010.03.31 13:35:05.
