data_PCOD8126999
_publ_section_title
;
Structure prediction by ZEFSAII (Michael W. Deem and Ramdas Pophale) SiO2 
 PCOD8126999
Probable space group: P 21/C
;
_chemical_formula_sum "Si O2"
_cell_formula_units_Z 32
_cell_length_a 11.443670
_cell_length_b 17.282621
_cell_length_c 9.722201
_cell_angle_alpha 90.000000
_cell_angle_beta 125.600365
_cell_angle_gamma 90.000000
_cell_volume 1563.442503
_symmetry_space_group_name_H-M "P 21/C"
_symmetry_group_IT_number 14
_symmetry_cell_setting 'monoclinic'
loop_
_space_group_symop_operation_xyz
x,y,z
-x,1/2+y,1/2-z
-x,-y,-z
x,1/2-y,1/2+z
loop_
_atom_site_type_symbol
_atom_site_label
_atom_site_fract_x
_atom_site_fract_y
_atom_site_fract_z
Si Si1 0.256414 0.825656 0.321447
Si Si2 0.238593 0.853080 0.769182
Si Si3 0.859861 0.086980 0.019287
Si Si4 0.538168 0.656718 0.398596
Si Si5 0.560290 0.706948 0.113994
Si Si6 0.171753 0.084985 0.931696
Si Si7 0.122460 0.319533 0.652921
Si Si8 0.028137 0.656008 0.903426
O O1 0.244406 0.739327 0.256307
O O2 0.424815 0.844397 0.468870
O O3 0.161109 0.830171 0.392417
O O4 0.201248 0.884474 0.168083
O O5 0.239918 0.883270 0.925619
O O6 0.383662 0.885804 0.797178
O O7 0.096229 0.879667 0.589351
O O8 0.019072 0.119974 0.159442
O O9 0.864695 0.994482 0.016773
O O10 0.552445 0.707219 0.547030
O O11 0.658401 0.589852 0.481119
O O12 0.553230 0.711965 0.275035
O O13 0.715472 0.671270 0.176302
O O14 0.121835 0.157809 0.990798
O O15 0.082209 0.091996 0.729438
O O16 0.061153 0.233678 0.626991
#
# Coordination Sequence:
#
# PCOD8126999 Si02
#       8
#     4   4   4   4   4   4   4   4
#     4  11  21  39  63  98 121 168 218 256 313 381
#     4  11  22  38  65  93 126 166 220 258 314 379
#     4  12  25  41  67  94 132 173 206 264 328 381
#     4  10  22  40  62  94 128 164 210 268 313 376
#     4  10  22  37  64  94 124 159 218 270 305 366
#     4  11  25  43  64  95 135 168 208 263 331 377
#     4  11  22  40  64  97 121 168 212 265 310 379
#     4  12  20  40  67  94 126 163 217 266 308 377
#
# _framework density 20.467655000000001
#
# number of rings (size 3 to 8) (size 9 to 14) (size 15 to 20)
#    0.000    1.000    6.250    0.375    5.250    1.000 
#    0.000    3.750    0.000    0.000    0.000    0.000 
#    0.000    0.000    0.000    0.000    0.000    0.000 
#
# Total GULP energy -396718.628909 kJ/mol
# GULP energy per Si atom -12397.457153 kJ/mol
# Density = 2.042107 g / cm^3
# Si number density = 20.467655 Si / 1000 Ang^3
#
#
#
# Elastic Constant Matrix: (Units=GPa)
#
#
# Indices 1 2 3 4 5 6 
#
# 1 119.1835 20.0434 39.6814 0.0000 15.7320 0.0000
# 2 20.0434 46.6184 13.9337 0.0000 6.2235 0.0000
# 3 39.6814 13.9337 93.5271 0.0000 16.2720 0.0000
# 4 0.0000 0.0000 0.0000 25.3542 0.0000 -3.4813
# 5 15.7320 6.2235 16.2720 0.0000 39.1041 0.0000
# 6 0.0000 0.0000 0.0000 -3.4813 0.0000 15.6576
#
#
#
# Elastic Compliance Matrix: (Units=1/GPa)
#
#
# Indices 1 2 3 4 5 6 
#
# 1 0.010390 -0.003108 -0.003562 0.000000 -0.002203 0.000000
# 2 -0.003108 0.023583 -0.001896 0.000000 -0.001714 0.000000
# 3 -0.003562 -0.001896 0.013135 0.000000 -0.003731 0.000000
# 4 0.000000 0.000000 0.000000 0.040683 0.000000 0.009045
# 5 -0.002203 -0.001714 -0.003731 0.000000 0.028284 0.000000
# 6 0.000000 0.000000 0.000000 0.009045 0.000000 0.065878
#
#
# Mechanical properties :
#
#
# Convention : Reuss Voigt Hill
#
# Bulk Modulus (GPa) = 33.36185 45.18289 39.27237
# Shear Modulus (GPa) = 23.91456 28.40120 26.15788
#
# Velocity S-wave (km/s) = 3.42191 3.72911 3.57881
# Velocity P-wave (km/s) = 5.65224 6.37690 6.02547
#
# Compressibility (1/GPa) = 0.02997436
#
# Stress axis : x y z
#
# Youngs Moduli (GPa) = 96.24771 42.40378 76.13287
#
# Poissons Ratio (x) = 0.13181 0.27117
# Poissons Ratio (y) = 0.29918 0.14438
# Poissons Ratio (z) = 0.34281 0.08042
#
# Static dielectric constant tensor:
#      x y z
#    x 4.186220 0.000000 0.289030 
#    y 0.000000 3.243300 0.000000 
#    z 0.289030 0.000000 3.889320 
# 
# 
# High freq. dielectric constant tensor:
#      x y z
#    x 1.824890 0.000000 0.010360 
#    y 0.000000 1.751680 0.000000 
#    z 0.010360 0.000000 1.806180 
# 
# From -- ./inp_files/13895.got.cif
#   From: 2010.03.12/outbox.cif.g09.slc.cpg/sg14_7_cif.got.tgz:13895.got - 2010.03.31 13:35:05.
