data_PCOD8126080
_publ_section_title
;
Structure prediction by ZEFSAII (Michael W. Deem and Ramdas Pophale) SiO2 
 PCOD8126080
Probable space group: P 21/C
;
_chemical_formula_sum "Si O2"
_cell_formula_units_Z 24
_cell_length_a 13.372229
_cell_length_b 9.169774
_cell_length_c 9.879144
_cell_angle_alpha 90.000000
_cell_angle_beta 78.380659
_cell_angle_gamma 90.000000
_cell_volume 1186.559273
_symmetry_space_group_name_H-M "P 21/C"
_symmetry_group_IT_number 14
_symmetry_cell_setting 'monoclinic'
loop_
_space_group_symop_operation_xyz
x,y,z
-x,1/2+y,1/2-z
-x,-y,-z
x,1/2-y,1/2+z
loop_
_atom_site_type_symbol
_atom_site_label
_atom_site_fract_x
_atom_site_fract_y
_atom_site_fract_z
Si Si1 0.273087 0.657422 0.076358
Si Si2 0.614443 0.328355 0.227408
Si Si3 0.703836 0.825967 0.433201
Si Si4 0.590295 0.663467 0.237099
Si Si5 0.063797 0.195080 0.582100
Si Si6 0.039312 0.866191 0.662654
O O1 0.339087 0.766755 0.147588
O O2 0.298728 0.493203 0.115623
O O3 0.154344 0.693075 0.125489
O O4 0.299650 0.678459 0.911623
O O5 0.578601 0.492136 0.265056
O O6 0.517922 0.236499 0.203600
O O7 0.675043 0.724633 0.315819
O O8 0.623434 0.801175 0.575259
O O9 0.815228 0.781332 0.455119
O O10 0.011165 0.322368 0.682136
O O11 0.024618 0.207953 0.439949
O O12 0.033950 0.040300 0.654932
#
# Coordination Sequence:
#
# PCOD8126080 Si02
#       6
#     4   4   4   4   4   4
#     4  10  22  39  58  83 116 151 188 232 281 334
#     4  11  23  39  60  85 114 149 189 233 282 336
#     4  10  22  39  58  83 116 151 188 232 281 334
#     4  11  23  39  60  85 114 149 189 233 282 336
#     4  10  21  38  59  84 115 150 189 233 280 332
#     4  10  21  38  59  84 115 150 189 233 280 332
#
# _framework density 20.226548000000001
#
# number of rings (size 3 to 8) (size 9 to 14) (size 15 to 20)
#    0.000    1.667    0.000    4.000    0.000   11.333 
#    0.000    0.000    0.000    0.000    0.000    0.000 
#    0.000    0.000    0.000    0.000    0.000    0.000 
#
# Total GULP energy -297791.029438 kJ/mol
# GULP energy per Si atom -12407.959560 kJ/mol
# Density = 2.018051 g / cm^3
# Si number density = 20.226548 Si / 1000 Ang^3
#
#
#
# Elastic Constant Matrix: (Units=GPa)
#
#
# Indices 1 2 3 4 5 6 
#
# 1 93.6446 35.7650 7.7921 0.0000 4.8739 0.0000
# 2 35.7650 81.4012 29.3926 0.0000 5.1718 0.0000
# 3 7.7921 29.3926 45.4964 0.0000 6.7287 0.0000
# 4 0.0000 0.0000 0.0000 35.3284 0.0000 2.7577
# 5 4.8739 5.1718 6.7287 0.0000 40.1034 0.0000
# 6 0.0000 0.0000 0.0000 2.7577 0.0000 30.2592
#
#
#
# Elastic Compliance Matrix: (Units=1/GPa)
#
#
# Indices 1 2 3 4 5 6 
#
# 1 0.013004 -0.006389 0.002063 0.000000 -0.001103 0.000000
# 2 -0.006389 0.019165 -0.011318 0.000000 0.000204 0.000000
# 3 0.002063 -0.011318 0.029491 0.000000 -0.003739 0.000000
# 4 0.000000 0.000000 0.000000 0.028509 0.000000 -0.002598
# 5 -0.001103 0.000204 -0.003739 0.000000 0.025671 0.000000
# 6 0.000000 0.000000 0.000000 -0.002598 0.000000 0.033285
#
#
# Mechanical properties :
#
#
# Convention : Reuss Voigt Hill
#
# Bulk Modulus (GPa) = 32.92210 40.71572 36.81891
# Shear Modulus (GPa) = 26.24177 30.97768 28.60973
#
# Velocity S-wave (km/s) = 3.60584 3.91773 3.76502
# Velocity P-wave (km/s) = 5.80070 6.37482 6.09453
#
# Compressibility (1/GPa) = 0.03037473
#
# Stress axis : x y z
#
# Youngs Moduli (GPa) = 76.89740 52.17732 33.90852
#
# Poissons Ratio (x) = 0.33334 -0.06996
# Poissons Ratio (y) = 0.49126 0.38376
# Poissons Ratio (z) = -0.15865 0.59052
#
# Static dielectric constant tensor:
#      x y z
#    x 3.742900 0.000000 -0.008650 
#    y 0.000000 3.631590 0.000000 
#    z -0.008650 0.000000 3.531090 
# 
# 
# High freq. dielectric constant tensor:
#      x y z
#    x 1.804890 0.000000 -0.000050 
#    y 0.000000 1.788090 0.000000 
#    z -0.000050 0.000000 1.793040 
# 
# From -- ./inp_files/15003.got.cif
#   From: 2010.03.12/outbox.cif.g09.slc.cpg/sg14_8_cif.got.tgz:15003.got - 2010.03.31 13:35:05.
