data_PCOD8126328
_publ_section_title
;
Structure prediction by ZEFSAII (Michael W. Deem and Ramdas Pophale) SiO2 
 PCOD8126328
Probable space group: P 21/C
;
_chemical_formula_sum "Si O2"
_cell_formula_units_Z 24
_cell_length_a 17.300577
_cell_length_b 11.237020
_cell_length_c 11.474793
_cell_angle_alpha 90.000000
_cell_angle_beta 31.134534
_cell_angle_gamma 90.000000
_cell_volume 1153.422941
_symmetry_space_group_name_H-M "P 21/C"
_symmetry_group_IT_number 14
_symmetry_cell_setting 'monoclinic'
loop_
_space_group_symop_operation_xyz
x,y,z
-x,1/2+y,1/2-z
-x,-y,-z
x,1/2-y,1/2+z
loop_
_atom_site_type_symbol
_atom_site_label
_atom_site_fract_x
_atom_site_fract_y
_atom_site_fract_z
Si Si1 0.848940 0.101939 0.255820
Si Si2 0.149300 0.077378 0.182652
Si Si3 0.192736 0.398684 0.354370
Si Si4 0.373997 0.340829 0.580536
Si Si5 0.865211 0.147845 0.663258
Si Si6 0.317878 0.552907 0.804422
O O1 0.790922 0.234845 0.312761
O O2 0.810602 0.051798 0.432604
O O3 0.764438 0.020846 0.267678
O O4 0.027656 0.121306 0.014138
O O5 0.294367 0.105970 0.070428
O O6 0.015838 0.167469 0.391669
O O7 0.095902 0.942672 0.281280
O O8 0.188387 0.084463 0.997507
O O9 0.313255 0.294272 0.173528
O O10 0.354955 0.414359 0.727200
O O11 0.549047 0.359555 0.324318
O O12 0.736486 0.099858 0.748043
#
# Coordination Sequence:
#
# PCOD8126328 Si02
#       6
#     4   4   4   4   4   4
#     4  11  24  39  65 101 127 165 217 273 323 377
#     4  10  21  39  65  93 125 171 214 264 321 382
#     4  11  24  38  67  99 128 163 219 273 319 380
#     4  10  23  44  65  93 129 173 211 263 331 389
#     4  10  21  40  64  92 126 170 214 261 323 386
#     4  10  23  44  66  91 132 172 212 264 328 388
#
# _framework density 20.807634
#
# number of rings (size 3 to 8) (size 9 to 14) (size 15 to 20)
#    0.000    1.667    3.333    0.000    4.667    1.333 
#    6.000    1.667    0.000    0.000    0.000    0.000 
#    0.000    0.000    0.000    0.000    0.000    0.000 
#
# Total GULP energy -297348.342950 kJ/mol
# GULP energy per Si atom -12389.514290 kJ/mol
# Density = 2.076027 g / cm^3
# Si number density = 20.807634 Si / 1000 Ang^3
#
#
#
# Elastic Constant Matrix: (Units=GPa)
#
#
# Indices 1 2 3 4 5 6 
#
# 1 95.6442 37.9101 18.5156 0.0000 7.3655 0.0000
# 2 37.9101 122.4384 27.6634 0.0000 12.4300 0.0000
# 3 18.5156 27.6634 46.6274 0.0000 -3.3167 0.0000
# 4 0.0000 0.0000 0.0000 29.3628 0.0000 -4.4418
# 5 7.3655 12.4300 -3.3167 0.0000 45.2384 0.0000
# 6 0.0000 0.0000 0.0000 -4.4418 0.0000 27.9526
#
#
#
# Elastic Compliance Matrix: (Units=1/GPa)
#
#
# Indices 1 2 3 4 5 6 
#
# 1 0.012366 -0.002944 -0.003266 0.000000 -0.001444 0.000000
# 2 -0.002944 0.010561 -0.005296 0.000000 -0.002811 0.000000
# 3 -0.003266 -0.005296 0.026164 0.000000 0.003905 0.000000
# 4 0.000000 0.000000 0.000000 0.034896 0.000000 0.005545
# 5 -0.001444 -0.002811 0.003905 0.000000 0.023399 0.000000
# 6 0.000000 0.000000 0.000000 0.005545 0.000000 0.036656
#
#
# Mechanical properties :
#
#
# Convention : Reuss Voigt Hill
#
# Bulk Modulus (GPa) = 38.34868 48.09868 43.22368
# Shear Modulus (GPa) = 28.44990 32.55215 30.50103
#
# Velocity S-wave (km/s) = 3.70169 3.95958 3.83281
# Velocity P-wave (km/s) = 6.06136 6.63856 6.35652
#
# Compressibility (1/GPa) = 0.02607652
#
# Stress axis : x y z
#
# Youngs Moduli (GPa) = 80.86727 94.68790 38.22069
#
# Poissons Ratio (x) = 0.27878 0.12484
# Poissons Ratio (y) = 0.23809 0.20244
# Poissons Ratio (z) = 0.26415 0.50151
#
# Static dielectric constant tensor:
#      x y z
#    x 3.679560 0.000000 -0.072250 
#    y 0.000000 4.012880 0.000000 
#    z -0.072250 0.000000 3.572230 
# 
# 
# High freq. dielectric constant tensor:
#      x y z
#    x 1.817600 0.000000 -0.000250 
#    y 0.000000 1.810910 0.000000 
#    z -0.000250 0.000000 1.798130 
# 
# From -- ./inp_files/24254.got.cif
#   From: 2010.03.12/outbox.cif.g09.slc.cpg/sg14_13_cif.got.tgz:24254.got - 2010.03.31 13:35:05.
