data_PCOD8126489
_publ_section_title
;
Structure prediction by ZEFSAII (Michael W. Deem and Ramdas Pophale) SiO2 
 PCOD8126489
Probable space group: P 21/C
;
_chemical_formula_sum "Si O2"
_cell_formula_units_Z 24
_cell_length_a 20.819193
_cell_length_b 10.742862
_cell_length_c 20.481650
_cell_angle_alpha 90.000000
_cell_angle_beta 166.327822
_cell_angle_gamma 90.000000
_cell_volume 1082.765660
_symmetry_space_group_name_H-M "P 21/C"
_symmetry_group_IT_number 14
_symmetry_cell_setting 'monoclinic'
loop_
_space_group_symop_operation_xyz
x,y,z
-x,1/2+y,1/2-z
-x,-y,-z
x,1/2-y,1/2+z
loop_
_atom_site_type_symbol
_atom_site_label
_atom_site_fract_x
_atom_site_fract_y
_atom_site_fract_z
Si Si1 0.652038 0.486278 0.716984
Si Si2 0.022908 0.365704 0.384426
Si Si3 0.501150 0.509938 0.079451
Si Si4 0.579610 0.251994 0.723786
Si Si5 0.129853 0.584691 0.254101
Si Si6 0.045684 0.360430 0.257461
O O1 0.500000 0.500000 0.500000
O O2 0.672142 0.341573 0.755891
O O3 0.450838 0.558134 0.568426
O O4 0.951937 0.549412 0.013306
O O5 0.289700 0.381418 0.692806
O O6 0.101487 0.392670 0.387501
O O7 0.907501 0.227997 0.269755
O O8 0.798017 0.458965 0.190532
O O9 0.597454 0.384931 0.211026
O O10 0.500000 0.500000 0.000000
O O11 0.282981 0.284172 0.456704
O O12 0.781894 0.273306 0.984986
O O13 0.997565 0.497048 0.178937
#
# Coordination Sequence:
#
# PCOD8126489 Si02
#       6
#     4   4   4   4   4   4
#     4  10  21  40  65  93 123 167 212 272 323 378
#     4  12  26  44  71  96 136 175 219 282 330 405
#     4  12  28  46  66 102 137 187 221 263 343 407
#     4  10  23  42  69  93 135 166 218 273 324 401
#     4  10  23  39  65  96 126 160 224 266 327 391
#     4  10  23  45  67 102 121 173 217 279 339 376
#
# _framework density 22.165461000000001
#
# number of rings (size 3 to 8) (size 9 to 14) (size 15 to 20)
#    0.000    1.333    0.000    4.000    9.333    0.000 
#    0.000    0.000    0.000    0.000    0.000    0.000 
#    0.000    0.000    0.000    0.000    0.000    0.000 
#
# Total GULP energy -297570.099884 kJ/mol
# GULP energy per Si atom -12398.754162 kJ/mol
# Density = 2.211501 g / cm^3
# Si number density = 22.165461 Si / 1000 Ang^3
#
#
#
# Elastic Constant Matrix: (Units=GPa)
#
#
# Indices 1 2 3 4 5 6 
#
# 1 89.1024 20.2940 -6.7058 0.0000 -24.4567 0.0000
# 2 20.2940 99.4810 6.3868 0.0000 -0.7063 0.0000
# 3 -6.7058 6.3868 87.7098 0.0000 -13.6061 0.0000
# 4 0.0000 0.0000 0.0000 33.8652 0.0000 -1.0870
# 5 -24.4567 -0.7063 -13.6061 0.0000 33.9202 0.0000
# 6 0.0000 0.0000 0.0000 -1.0870 0.0000 20.3566
#
#
#
# Elastic Compliance Matrix: (Units=1/GPa)
#
#
# Indices 1 2 3 4 5 6 
#
# 1 0.015700 -0.003331 0.003400 0.000000 0.012614 0.000000
# 2 -0.003331 0.010807 -0.001471 0.000000 -0.002767 0.000000
# 3 0.003400 -0.001471 0.012950 0.000000 0.007615 0.000000
# 4 0.000000 0.000000 0.000000 0.029580 0.000000 0.001579
# 5 0.012614 -0.002767 0.007615 0.000000 0.041573 0.000000
# 6 0.000000 0.000000 0.000000 0.001579 0.000000 0.049209
#
#
# Mechanical properties :
#
#
# Convention : Reuss Voigt Hill
#
# Bulk Modulus (GPa) = 27.28449 35.13812 31.21130
# Shear Modulus (GPa) = 28.59774 34.71627 31.65700
#
# Velocity S-wave (km/s) = 3.59582 3.96186 3.78327
# Velocity P-wave (km/s) = 5.43839 6.06758 5.76158
#
# Compressibility (1/GPa) = 0.03665086
#
# Stress axis : x y z
#
# Youngs Moduli (GPa) = 63.69440 92.53627 77.22278
#
# Poissons Ratio (x) = 0.30828 -0.26254
# Poissons Ratio (y) = 0.21220 0.11358
# Poissons Ratio (z) = -0.21654 0.13611
#
# Static dielectric constant tensor:
#      x y z
#    x 3.863860 0.000000 -0.110280 
#    y 0.000000 3.932950 0.000000 
#    z -0.110280 0.000000 4.341180 
# 
# 
# High freq. dielectric constant tensor:
#      x y z
#    x 1.865810 0.000000 -0.004830 
#    y 0.000000 1.873170 0.000000 
#    z -0.004830 0.000000 1.893520 
# 
# From -- ./inp_files/74964.got.cif
#   From: 2010.03.12/outbox.cif.g09.slc.cpg/sg14_38_cif.got.tgz:74964.got - 2010.03.31 13:35:05.
