data_PCOD8126819
_publ_section_title
;
Structure prediction by ZEFSAII (Michael W. Deem and Ramdas Pophale) SiO2 
 PCOD8126819
Probable space group: P 21/C
;
_chemical_formula_sum "Si O2"
_cell_formula_units_Z 32
_cell_length_a 9.359351
_cell_length_b 13.022967
_cell_length_c 26.883802
_cell_angle_alpha 90.000000
_cell_angle_beta 151.319024
_cell_angle_gamma 90.000000
_cell_volume 1572.628999
_symmetry_space_group_name_H-M "P 21/C"
_symmetry_group_IT_number 14
_symmetry_cell_setting 'monoclinic'
loop_
_space_group_symop_operation_xyz
x,y,z
-x,1/2+y,1/2-z
-x,-y,-z
x,1/2-y,1/2+z
loop_
_atom_site_type_symbol
_atom_site_label
_atom_site_fract_x
_atom_site_fract_y
_atom_site_fract_z
Si Si1 0.614509 0.514661 0.839654
Si Si2 0.168420 0.566262 0.782721
Si Si3 0.305078 0.289439 0.401426
Si Si4 0.001766 0.170214 0.487827
Si Si5 0.774095 0.362576 0.465921
Si Si6 0.603370 0.969117 0.833175
Si Si7 0.115811 0.613247 0.249772
Si Si8 0.512753 0.755859 0.433053
O O1 0.375656 0.496811 0.810687
O O2 0.462343 0.524106 0.739378
O O3 0.833320 0.417815 0.905984
O O4 0.790156 0.620027 0.905715
O O5 0.356654 0.633720 0.879461
O O6 0.985531 0.638737 0.689159
O O7 0.960580 0.498971 0.753867
O O8 0.555352 0.346529 0.445428
O O9 0.436276 0.277390 0.495583
O O10 0.191933 0.175527 0.351877
O O11 0.181044 0.240114 0.503644
O O12 0.774601 0.248791 0.443194
O O13 0.644353 0.444093 0.387446
O O14 0.103266 0.398461 0.583579
O O15 0.319242 0.898948 0.762209
O O16 0.310168 0.665525 0.351172
#
# Coordination Sequence:
#
# PCOD8126819 Si02
#       8
#     4   4   4   4   4   4   4   4
#     4  10  23  39  66  92 121 167 204 254 315 366
#     4  10  23  41  61  93 125 155 211 252 301 377
#     4  11  24  40  66  90 122 168 206 250 315 364
#     4  10  21  43  62  92 128 156 210 258 305 376
#     4  11  24  41  60  95 128 160 211 257 304 375
#     4  11  24  41  62  94 128 165 204 259 312 362
#     4  11  22  43  63  89 128 160 204 262 299 370
#     4  10  23  40  64  92 122 163 201 257 311 362
#
# _framework density 20.348092999999999
#
# number of rings (size 3 to 8) (size 9 to 14) (size 15 to 20)
#    0.000    1.500    2.500    1.500    3.500    3.000 
#    0.000    0.000    0.000    0.000    0.000    0.000 
#    0.000    0.000    0.000    0.000    0.000    0.000 
#
# Total GULP energy -396788.752039 kJ/mol
# GULP energy per Si atom -12399.648501 kJ/mol
# Density = 2.030178 g / cm^3
# Si number density = 20.348093 Si / 1000 Ang^3
#
#
#
# Elastic Constant Matrix: (Units=GPa)
#
#
# Indices 1 2 3 4 5 6 
#
# 1 -223.4780 -186.5004 -72.9069 0.0000 6.0553 0.0000
# 2 -186.5004 -77.9149 -68.3683 0.0000 5.7778 0.0000
# 3 -72.9069 -68.3683 20.3815 0.0000 3.0982 0.0000
# 4 0.0000 0.0000 0.0000 12.6069 0.0000 7.3875
# 5 6.0553 5.7778 3.0982 0.0000 26.1004 0.0000
# 6 0.0000 0.0000 0.0000 7.3875 0.0000 40.3917
#
#
#
# Elastic Compliance Matrix: (Units=1/GPa)
#
#
# Indices 1 2 3 4 5 6 
#
# 1 0.008380 -0.011665 -0.009419 0.000000 0.001756 0.000000
# 2 -0.011665 0.013087 0.002241 0.000000 -0.000457 0.000000
# 3 -0.009419 0.002241 0.023050 0.000000 -0.001047 0.000000
# 4 0.000000 0.000000 0.000000 0.088843 0.000000 -0.016249
# 5 0.001756 -0.000457 -0.001047 0.000000 0.038132 0.000000
# 6 0.000000 0.000000 0.000000 -0.016249 0.000000 0.027730
#
#
# Mechanical properties :
#
#
# Convention : Reuss Voigt Hill
#
# Bulk Modulus (GPa) = 146.35453 -104.06251 21.14601
# Shear Modulus (GPa) = 20.90440 18.93742 19.92091
#
# Velocity S-wave (km/s) = 3.20869 3.05400 3.13230
# Velocity P-wave (km/s) = 9.26332 6.23027 4.84731
#
# Compressibility (1/GPa) = 0.00683272
#
# Stress axis : x y z
#
# Youngs Moduli (GPa) = 119.32504 76.41242 43.38373
#
# Poissons Ratio (x) = 0.89135 0.40862
# Poissons Ratio (y) = 1.39193 -0.09724
# Poissons Ratio (z) = 1.12388 -0.17126
#
# Static dielectric constant tensor:
#      x y z
#    x 12.418830 0.000000 -1.466350 
#    y 0.000000 3.732250 0.000000 
#    z -1.466350 0.000000 4.044590 
# 
# 
# High freq. dielectric constant tensor:
#      x y z
#    x 1.794540 0.000000 0.012400 
#    y 0.000000 1.802580 0.000000 
#    z 0.012400 0.000000 1.797140 
# 
# From -- ./inp_files/72452.got.cif
#   From: 2010.03.12/outbox.cif.g09.slc.cpg/sg14_37_cif.got.tgz:72452.got - 2010.03.31 13:35:05.
