data_PCOD8126800
_publ_section_title
;
Structure prediction by ZEFSAII (Michael W. Deem and Ramdas Pophale) SiO2 
 PCOD8126800
Probable space group: P 21/C
;
_chemical_formula_sum "Si O2"
_cell_formula_units_Z 28
_cell_length_a 11.381306
_cell_length_b 5.275853
_cell_length_c 21.542445
_cell_angle_alpha 90.000000
_cell_angle_beta 120.262202
_cell_angle_gamma 90.000000
_cell_volume 1117.266760
_symmetry_space_group_name_H-M "P 21/C"
_symmetry_group_IT_number 14
_symmetry_cell_setting 'monoclinic'
loop_
_space_group_symop_operation_xyz
x,y,z
-x,1/2+y,1/2-z
-x,-y,-z
x,1/2-y,1/2+z
loop_
_atom_site_type_symbol
_atom_site_label
_atom_site_fract_x
_atom_site_fract_y
_atom_site_fract_z
Si Si1 0.685596 0.383771 0.601668
Si Si2 0.113816 0.588878 0.129593
Si Si3 0.425824 0.878369 0.320375
Si Si4 0.957223 0.433045 0.606331
Si Si5 0.792174 0.423241 0.444355
Si Si6 0.331489 0.264248 0.695190
Si Si7 0.455721 0.772965 0.550772
O O1 0.681043 0.298020 0.672150
O O2 0.842108 0.434278 0.628273
O O3 0.598503 0.640248 0.572943
O O4 0.622187 0.174151 0.535643
O O5 0.143562 0.659842 0.064915
O O6 0.267089 0.511747 0.194473
O O7 0.014848 0.351561 0.115959
O O8 0.062171 0.841164 0.152219
O O9 0.519167 0.733746 0.295243
O O10 0.340860 0.094064 0.263072
O O11 0.523543 0.980263 0.401633
O O12 0.895807 0.525579 0.523821
O O13 0.779759 0.610261 0.381535
O O14 0.642835 0.405559 0.434490
#
# Coordination Sequence:
#
# PCOD8126800 Si02
#       7
#     4   4   4   4   4   4   4
#     4  10  24  43  72 105 140 187 241 303 369 440
#     4  12  25  46  69 109 147 193 243 299 357 439
#     4  12  25  44  71 106 146 186 239 307 371 433
#     4  11  27  42  76 106 148 194 242 299 368 430
#     4  11  22  43  70 111 144 187 247 308 367 423
#     4  12  27  41  74 108 146 193 241 304 369 436
#     4  10  21  42  70 107 141 182 240 308 376 424
#
# _framework density 25.061157999999999
#
# number of rings (size 3 to 8) (size 9 to 14) (size 15 to 20)
#    0.000    0.857    4.286    2.143    4.000    0.000 
#    0.000    0.000    6.286    0.000    0.000    0.000 
#    0.000    0.000    0.000    0.000    0.000    0.000 
#
# Total GULP energy -347016.598494 kJ/mol
# GULP energy per Si atom -12393.449946 kJ/mol
# Density = 2.500412 g / cm^3
# Si number density = 25.061158 Si / 1000 Ang^3
#
#
#
# Elastic Constant Matrix: (Units=GPa)
#
#
# Indices 1 2 3 4 5 6 
#
# 1 188.5452 58.3709 35.0328 0.0000 -16.0787 0.0000
# 2 58.3709 102.9919 29.9316 0.0000 -5.9369 0.0000
# 3 35.0328 29.9316 67.7808 0.0000 -15.9375 0.0000
# 4 0.0000 0.0000 0.0000 38.6280 0.0000 1.5468
# 5 -16.0787 -5.9369 -15.9375 0.0000 28.5476 0.0000
# 6 0.0000 0.0000 0.0000 1.5468 0.0000 32.2490
#
#
#
# Elastic Compliance Matrix: (Units=1/GPa)
#
#
# Indices 1 2 3 4 5 6 
#
# 1 0.006798 -0.003276 -0.001527 0.000000 0.002295 0.000000
# 2 -0.003276 0.012724 -0.004302 0.000000 -0.001601 0.000000
# 3 -0.001527 -0.004302 0.019603 0.000000 0.009189 0.000000
# 4 0.000000 0.000000 0.000000 0.025938 0.000000 -0.001244
# 5 0.002295 -0.001601 0.009189 0.000000 0.041119 0.000000
# 6 0.000000 0.000000 0.000000 -0.001244 0.000000 0.031068
#
#
# Mechanical properties :
#
#
# Convention : Reuss Voigt Hill
#
# Bulk Modulus (GPa) = 47.81423 67.33209 57.57316
# Shear Modulus (GPa) = 30.78209 35.61709 33.19959
#
# Velocity S-wave (km/s) = 3.50848 3.77398 3.64365
# Velocity P-wave (km/s) = 5.96096 6.77613 6.38158
#
# Compressibility (1/GPa) = 0.02091428
#
# Stress axis : x y z
#
# Youngs Moduli (GPa) = 147.11268 78.58903 51.01248
#
# Poissons Ratio (x) = 0.25750 0.07789
# Poissons Ratio (y) = 0.48201 0.21945
# Poissons Ratio (z) = 0.22463 0.33809
#
# Static dielectric constant tensor:
#      x y z
#    x 4.793150 0.000000 -0.125330 
#    y 0.000000 4.272840 0.000000 
#    z -0.125330 0.000000 4.393360 
# 
# 
# High freq. dielectric constant tensor:
#      x y z
#    x 2.021140 0.000000 -0.004550 
#    y 0.000000 1.987300 0.000000 
#    z -0.004550 0.000000 1.978970 
# 
# From -- ./inp_files/66567.got.cif
#   From: 2010.03.12/outbox.cif.g09.slc.cpg/sg14_34_cif.got.tgz:66567.got - 2010.03.31 13:35:05.
