data_PCOD8126732
_publ_section_title
;
Structure prediction by ZEFSAII (Michael W. Deem and Ramdas Pophale) SiO2 
 PCOD8126732
Probable space group: P 21/C
;
_chemical_formula_sum "Si O2"
_cell_formula_units_Z 16
_cell_length_a 5.203225
_cell_length_b 13.511499
_cell_length_c 11.079247
_cell_angle_alpha 90.000000
_cell_angle_beta 105.948694
_cell_angle_gamma 90.000000
_cell_volume 748.926756
_symmetry_space_group_name_H-M "P 21/C"
_symmetry_group_IT_number 14
_symmetry_cell_setting 'monoclinic'
loop_
_space_group_symop_operation_xyz
x,y,z
-x,1/2+y,1/2-z
-x,-y,-z
x,1/2-y,1/2+z
loop_
_atom_site_type_symbol
_atom_site_label
_atom_site_fract_x
_atom_site_fract_y
_atom_site_fract_z
Si Si1 0.245187 0.880241 0.941008
Si Si2 0.659294 0.931611 0.176470
Si Si3 0.270790 0.059927 0.537523
Si Si4 0.769640 0.719265 0.505670
O O1 0.360747 0.933866 0.078060
O O2 0.472820 0.806629 0.917304
O O3 0.982748 0.816486 0.933768
O O4 0.185444 0.966106 0.835442
O O5 0.633839 0.917708 0.314919
O O6 0.820190 0.838435 0.139064
O O7 0.212489 0.164329 0.465374
O O8 0.500000 0.000000 0.500000
O O9 0.000000 0.000000 0.500000
#
# Coordination Sequence:
#
# PCOD8126732 Si02
#       4
#     4   4   4   4
#     4   9  20  40  70  94 115 169 214 257 306 374
#     4   9  23  40  70  91 132 156 217 259 314 379
#     4  12  28  42  60  98 133 167 207 263 323 370
#     4  10  21  42  62  95 121 169 214 244 319 373
#
# _framework density 21.363904000000002
#
# number of rings (size 3 to 8) (size 9 to 14) (size 15 to 20)
#    1.500    0.500    0.000    2.250    3.500    4.000 
#    0.000    0.000    0.000    0.000    0.000    0.000 
#    0.000    0.000    0.000    0.000    0.000    0.000 
#
# Total GULP energy -198308.374970 kJ/mol
# GULP energy per Si atom -12394.273436 kJ/mol
# Density = 2.131528 g / cm^3
# Si number density = 21.363904 Si / 1000 Ang^3
#
#
#
# Elastic Constant Matrix: (Units=GPa)
#
#
# Indices 1 2 3 4 5 6 
#
# 1 154.5753 72.1622 27.8930 0.0000 -37.3036 0.0000
# 2 72.1622 196.2256 34.3219 0.0000 -28.1600 0.0000
# 3 27.8930 34.3219 73.1489 0.0000 -12.7771 0.0000
# 4 0.0000 0.0000 0.0000 18.2082 0.0000 -10.2920
# 5 -37.3036 -28.1600 -12.7771 0.0000 22.4955 0.0000
# 6 0.0000 0.0000 0.0000 -10.2920 0.0000 37.8470
#
#
#
# Elastic Compliance Matrix: (Units=1/GPa)
#
#
# Indices 1 2 3 4 5 6 
#
# 1 0.011304 -0.001712 -0.000674 0.000000 0.016220 0.000000
# 2 -0.001712 0.006674 -0.001682 0.000000 0.004561 0.000000
# 3 -0.000674 -0.001682 0.015713 0.000000 0.005701 0.000000
# 4 0.000000 0.000000 0.000000 0.064895 0.000000 0.017647
# 5 0.016220 0.004561 0.005701 0.000000 0.080299 0.000000
# 6 0.000000 0.000000 0.000000 0.017647 0.000000 0.031221
#
#
# Mechanical properties :
#
#
# Convention : Reuss Voigt Hill
#
# Bulk Modulus (GPa) = 39.13027 76.96713 58.04870
# Shear Modulus (GPa) = 22.04955 35.01500 28.53227
#
# Velocity S-wave (km/s) = 3.21611 4.05282 3.65846
# Velocity P-wave (km/s) = 5.66983 7.61613 6.71388
#
# Compressibility (1/GPa) = 0.02555566
#
# Stress axis : x y z
#
# Youngs Moduli (GPa) = 88.46035 149.82519 63.64173
#
# Poissons Ratio (x) = 0.25643 0.04291
# Poissons Ratio (y) = 0.15140 0.10706
# Poissons Ratio (z) = 0.05965 0.25205
#
# Static dielectric constant tensor:
#      x y z
#    x 3.635480 0.000000 -0.103940 
#    y 0.000000 3.854380 0.000000 
#    z -0.103940 0.000000 3.458960 
# 
# 
# High freq. dielectric constant tensor:
#      x y z
#    x 1.833660 0.000000 -0.015550 
#    y 0.000000 1.849460 0.000000 
#    z -0.015550 0.000000 1.803300 
# 
# From -- ./inp_files/20430.got.cif
#   From: 2010.03.12/outbox.cif.g09.slc.cpg/sg14_11_cif.got.tgz:20430.got - 2010.03.31 13:35:05.
