data_PCOD8126640
_publ_section_title
;
Structure prediction by ZEFSAII (Michael W. Deem and Ramdas Pophale) SiO2 
 PCOD8126640
Probable space group: P 21/C
;
_chemical_formula_sum "Si O2"
_cell_formula_units_Z 28
_cell_length_a 21.916520
_cell_length_b 13.928784
_cell_length_c 9.562261
_cell_angle_alpha 90.000000
_cell_angle_beta 152.831584
_cell_angle_gamma 90.000000
_cell_volume 1332.872176
_symmetry_space_group_name_H-M "P 21/C"
_symmetry_group_IT_number 14
_symmetry_cell_setting 'monoclinic'
loop_
_space_group_symop_operation_xyz
x,y,z
-x,1/2+y,1/2-z
-x,-y,-z
x,1/2-y,1/2+z
loop_
_atom_site_type_symbol
_atom_site_label
_atom_site_fract_x
_atom_site_fract_y
_atom_site_fract_z
Si Si1 0.512787 0.478277 0.302265
Si Si2 0.325994 0.856024 0.332126
Si Si3 0.075273 0.303752 0.679000
Si Si4 0.976838 0.151192 0.682747
Si Si5 0.306575 0.068311 0.608004
Si Si6 0.674390 0.320585 0.484318
Si Si7 0.097231 0.545596 0.510043
O O1 0.634444 0.532617 0.625529
O O2 0.424011 0.419983 0.233836
O O3 0.570197 0.403374 0.309029
O O4 0.425479 0.554116 0.038100
O O5 0.372133 0.779457 0.542618
O O6 0.175063 0.890664 0.055002
O O7 0.326820 0.805150 0.183941
O O8 0.059148 0.204125 0.727610
O O9 0.003075 0.294700 0.382397
O O10 0.013708 0.390991 0.641679
O O11 0.232302 0.329242 0.977633
O O12 0.820357 0.151658 0.335649
O O13 0.028206 0.042443 0.789738
O O14 0.200051 0.989660 0.338188
#
# Coordination Sequence:
#
# PCOD8126640 Si02
#       7
#     4   4   4   4   4   4   4
#     4  10  22  43  65  91 128 171 218 255 317 372
#     4  11  26  42  65  96 129 165 220 266 309 386
#     4  11  21  41  62  99 125 163 215 258 324 380
#     4  11  23  39  68  93 129 170 206 268 322 383
#     4   9  20  39  67  91 125 167 206 264 313 379
#     4  12  24  43  67  93 126 175 214 261 325 376
#     4  10  21  41  65  93 131 164 213 263 318 381
#
# _framework density 21.007266000000001
#
# number of rings (size 3 to 8) (size 9 to 14) (size 15 to 20)
#    0.000    1.429    1.429    4.714    6.000    0.571 
#   10.286    0.000    0.000    0.000    0.000    0.000 
#    0.000    0.000    0.000    0.000    0.000    0.000 
#
# Total GULP energy -347342.465177 kJ/mol
# GULP energy per Si atom -12405.088042 kJ/mol
# Density = 2.095945 g / cm^3
# Si number density = 21.007266 Si / 1000 Ang^3
#
#
#
# Elastic Constant Matrix: (Units=GPa)
#
#
# Indices 1 2 3 4 5 6 
#
# 1 115.1428 50.9790 33.9401 0.0000 -11.9372 0.0000
# 2 50.9790 82.1843 31.6167 0.0000 -7.2609 0.0000
# 3 33.9401 31.6167 66.7595 0.0000 9.7744 0.0000
# 4 0.0000 0.0000 0.0000 19.8394 0.0000 2.1018
# 5 -11.9372 -7.2609 9.7744 0.0000 30.5943 0.0000
# 6 0.0000 0.0000 0.0000 2.1018 0.0000 35.7219
#
#
#
# Elastic Compliance Matrix: (Units=1/GPa)
#
#
# Indices 1 2 3 4 5 6 
#
# 1 0.013244 -0.005949 -0.004685 0.000000 0.005253 0.000000
# 2 -0.005949 0.018707 -0.006447 0.000000 0.004178 0.000000
# 3 -0.004685 -0.006447 0.021932 0.000000 -0.010365 0.000000
# 4 0.000000 0.000000 0.000000 0.050721 0.000000 -0.002984
# 5 0.005253 0.004178 -0.010365 0.000000 0.039038 0.000000
# 6 0.000000 0.000000 0.000000 -0.002984 0.000000 0.028170
#
#
# Mechanical properties :
#
#
# Convention : Reuss Voigt Hill
#
# Bulk Modulus (GPa) = 50.70617 55.23982 52.97300
# Shear Modulus (GPa) = 23.52415 27.06783 25.29599
#
# Velocity S-wave (km/s) = 3.34999 3.59346 3.47386
# Velocity P-wave (km/s) = 6.25724 6.60075 6.43129
#
# Compressibility (1/GPa) = 0.01972146
#
# Stress axis : x y z
#
# Youngs Moduli (GPa) = 75.50419 53.45510 45.59627
#
# Poissons Ratio (x) = 0.31801 0.21361
# Poissons Ratio (y) = 0.44918 0.29395
# Poissons Ratio (z) = 0.35373 0.34462
#
# Static dielectric constant tensor:
#      x y z
#    x 3.991660 0.000000 0.148620 
#    y 0.000000 3.741240 0.000000 
#    z 0.148620 0.000000 3.790960 
# 
# 
# High freq. dielectric constant tensor:
#      x y z
#    x 1.829720 0.000000 0.004950 
#    y 0.000000 1.817670 0.000000 
#    z 0.004950 0.000000 1.822150 
# 
# From -- ./inp_files/19091.got.cif
#   From: 2010.03.12/outbox.cif.g09.slc.cpg/sg14_10_cif.got.tgz:19091.got - 2010.03.31 13:35:05.
