data_PCOD8126720
_publ_section_title
;
Structure prediction by ZEFSAII (Michael W. Deem and Ramdas Pophale) SiO2 
 PCOD8126720
Probable space group: P 21/C
;
_chemical_formula_sum "Si O2"
_cell_formula_units_Z 32
_cell_length_a 33.443080
_cell_length_b 7.495000
_cell_length_c 13.836426
_cell_angle_alpha 90.000000
_cell_angle_beta 153.072816
_cell_angle_gamma 90.000000
_cell_volume 1570.592992
_symmetry_space_group_name_H-M "P 21/C"
_symmetry_group_IT_number 14
_symmetry_cell_setting 'monoclinic'
loop_
_space_group_symop_operation_xyz
x,y,z
-x,1/2+y,1/2-z
-x,-y,-z
x,1/2-y,1/2+z
loop_
_atom_site_type_symbol
_atom_site_label
_atom_site_fract_x
_atom_site_fract_y
_atom_site_fract_z
Si Si1 0.027410 0.772520 0.508175
Si Si2 0.417307 0.999296 0.984997
Si Si3 0.903748 0.606237 0.388772
Si Si4 0.123216 0.146190 0.946450
Si Si5 0.195546 0.648580 0.476429
Si Si6 0.610405 0.140660 0.677909
Si Si7 0.781643 0.949172 0.456320
Si Si8 0.481111 0.857574 0.322309
O O1 0.048459 0.583384 0.506253
O O2 0.968650 0.749393 0.478683
O O3 0.973206 0.881675 0.310190
O O4 0.115595 0.879990 0.727706
O O5 0.321639 0.091303 0.774529
O O6 0.424165 0.838317 0.923391
O O7 0.488691 0.151407 0.116206
O O8 0.430385 0.909853 0.116705
O O9 0.881712 0.659018 0.449768
O O10 0.812307 0.596183 0.131625
O O11 0.163922 0.333793 0.002137
O O12 0.186690 0.986020 0.047496
O O13 0.285645 0.615287 0.612900
O O14 0.194736 0.846856 0.518439
O O15 0.589381 0.113164 0.744800
O O16 0.563627 0.989366 0.513221
#
# Coordination Sequence:
#
# PCOD8126720 Si02
#       8
#     4   4   4   4   4   4   4   4
#     4   9  20  40  58  88 130 154 205 265 297 362
#     4  11  21  43  66  92 130 164 206 255 321 377
#     4   9  20  40  62  88 127 163 203 255 308 364
#     4  11  21  39  67  92 117 173 209 245 319 371
#     4  10  21  42  61  88 128 161 206 263 304 370
#     4  10  23  43  62  94 128 163 212 261 313 379
#     4   9  22  44  57  91 134 155 203 268 301 365
#     4  11  22  41  68  93 125 167 206 260 319 382
#
# _framework density 20.374469999999999
#
# number of rings (size 3 to 8) (size 9 to 14) (size 15 to 20)
#    0.000    2.000    1.250    2.250    1.750    0.000 
#   22.500    0.000    0.000    0.000    0.000    0.000 
#    0.000    0.000    0.000    0.000    0.000    0.000 
#
# Total GULP energy -396854.963707 kJ/mol
# GULP energy per Si atom -12401.717616 kJ/mol
# Density = 2.032810 g / cm^3
# Si number density = 20.374470 Si / 1000 Ang^3
#
#
#
# Elastic Constant Matrix: (Units=GPa)
#
#
# Indices 1 2 3 4 5 6 
#
# 1 111.4843 34.6441 66.8136 0.0000 -1.9594 0.0000
# 2 34.6441 74.0194 39.0531 0.0000 6.7818 0.0000
# 3 66.8136 39.0531 119.4842 0.0000 5.6205 0.0000
# 4 0.0000 0.0000 0.0000 28.2485 0.0000 2.4680
# 5 -1.9594 6.7818 5.6205 0.0000 22.0685 0.0000
# 6 0.0000 0.0000 0.0000 2.4680 0.0000 25.1108
#
#
#
# Elastic Compliance Matrix: (Units=1/GPa)
#
#
# Indices 1 2 3 4 5 6 
#
# 1 0.014350 -0.003332 -0.007129 0.000000 0.004114 0.000000
# 2 -0.003332 0.017403 -0.003603 0.000000 -0.004727 0.000000
# 3 -0.007129 -0.003603 0.013675 0.000000 -0.003009 0.000000
# 4 0.000000 0.000000 0.000000 0.035707 0.000000 -0.003509
# 5 0.004114 -0.004727 -0.003009 0.000000 0.047898 0.000000
# 6 0.000000 0.000000 0.000000 -0.003509 0.000000 0.040168
#
#
# Mechanical properties :
#
#
# Convention : Reuss Voigt Hill
#
# Bulk Modulus (GPa) = 57.80007 65.11217 61.45612
# Shear Modulus (GPa) = 24.61909 26.05068 25.33488
#
# Velocity S-wave (km/s) = 3.47988 3.57962 3.53010
# Velocity P-wave (km/s) = 6.67656 7.00800 6.84429
#
# Compressibility (1/GPa) = 0.01730102
#
# Stress axis : x y z
#
# Youngs Moduli (GPa) = 69.68691 57.46015 73.12847
#
# Poissons Ratio (x) = 0.19146 0.52131
# Poissons Ratio (y) = 0.23220 0.26346
# Poissons Ratio (z) = 0.49677 0.20701
#
# Static dielectric constant tensor:
#      x y z
#    x 3.415170 0.000000 0.062370 
#    y 0.000000 3.815160 0.000000 
#    z 0.062370 0.000000 3.811430 
# 
# 
# High freq. dielectric constant tensor:
#      x y z
#    x 1.779950 0.000000 0.003700 
#    y 0.000000 1.809040 0.000000 
#    z 0.003700 0.000000 1.800520 
# 
# From -- ./inp_files/36491.got.cif
#   From: 2010.03.12/outbox.cif.g09.slc.cpg/sg14_19_cif.got.tgz:36491.got - 2010.03.31 13:35:05.
