data_PCOD8126754
_publ_section_title
;
Structure prediction by ZEFSAII (Michael W. Deem and Ramdas Pophale) SiO2 
 PCOD8126754
Probable space group: P 21/C
;
_chemical_formula_sum "Si O2"
_cell_formula_units_Z 28
_cell_length_a 12.174246
_cell_length_b 6.930355
_cell_length_c 17.054598
_cell_angle_alpha 90.000000
_cell_angle_beta 111.957521
_cell_angle_gamma 90.000000
_cell_volume 1334.550012
_symmetry_space_group_name_H-M "P 21/C"
_symmetry_group_IT_number 14
_symmetry_cell_setting 'monoclinic'
loop_
_space_group_symop_operation_xyz
x,y,z
-x,1/2+y,1/2-z
-x,-y,-z
x,1/2-y,1/2+z
loop_
_atom_site_type_symbol
_atom_site_label
_atom_site_fract_x
_atom_site_fract_y
_atom_site_fract_z
Si Si1 0.840260 0.264021 0.673276
Si Si2 0.868236 0.025937 0.937680
Si Si3 0.513257 0.480247 0.411338
Si Si4 0.315120 0.201747 0.592979
Si Si5 0.901188 0.906419 0.777071
Si Si6 0.283608 0.698015 0.017258
Si Si7 0.274850 0.433583 0.257495
O O1 0.742866 0.266422 0.578459
O O2 0.782697 0.359542 0.735901
O O3 0.959236 0.370543 0.677314
O O4 0.875777 0.043821 0.697260
O O5 0.790701 0.850710 0.952587
O O6 0.856879 0.019526 0.841593
O O7 0.825187 0.234788 0.956459
O O8 0.000000 0.000000 0.000000
O O9 0.500000 0.500000 0.500000
O O10 0.561620 0.681093 0.385781
O O11 0.601769 0.304697 0.418273
O O12 0.392859 0.410911 0.339540
O O13 0.307356 0.096487 0.675323
O O14 0.303289 0.031705 0.525939
O O15 0.824535 0.716829 0.741523
#
# Coordination Sequence:
#
# PCOD8126754 Si02
#       7
#     4   4   4   4   4   4   4
#     4  12  23  39  68  98 132 172 213 273 332 392
#     4  10  21  42  64  93 134 172 213 271 326 387
#     4  11  25  45  68  96 134 173 223 283 324 381
#     4  10  26  43  67  97 127 179 224 263 338 394
#     4  11  24  40  65  97 131 174 217 266 334 399
#     4  11  24  42  66  97 132 173 222 273 326 397
#     4  11  25  47  64  96 136 174 218 275 334 397
#
# _framework density 20.980855999999999
#
# number of rings (size 3 to 8) (size 9 to 14) (size 15 to 20)
#    0.000    1.143    4.286    0.857    4.000    3.429 
#    0.000    0.000    0.000    0.000    0.000    0.000 
#    0.000    0.000    0.000    0.000    0.000    0.000 
#
# Total GULP energy -347204.388767 kJ/mol
# GULP energy per Si atom -12400.156742 kJ/mol
# Density = 2.093310 g / cm^3
# Si number density = 20.980856 Si / 1000 Ang^3
#
#
#
# Elastic Constant Matrix: (Units=GPa)
#
#
# Indices 1 2 3 4 5 6 
#
# 1 72.1198 17.4283 24.9044 0.0000 -0.6068 0.0000
# 2 17.4283 91.2669 34.7950 0.0000 -2.4239 0.0000
# 3 24.9044 34.7950 88.6475 0.0000 10.1303 0.0000
# 4 0.0000 0.0000 0.0000 28.4560 0.0000 -4.8125
# 5 -0.6068 -2.4239 10.1303 0.0000 39.3753 0.0000
# 6 0.0000 0.0000 0.0000 -4.8125 0.0000 34.6493
#
#
#
# Elastic Compliance Matrix: (Units=1/GPa)
#
#
# Indices 1 2 3 4 5 6 
#
# 1 0.015587 -0.001441 -0.003947 0.000000 0.001167 0.000000
# 2 -0.001441 0.013199 -0.005014 0.000000 0.002080 0.000000
# 3 -0.003947 -0.005014 0.014836 0.000000 -0.004186 0.000000
# 4 0.000000 0.000000 0.000000 0.035987 0.000000 0.004998
# 5 0.001167 0.002080 -0.004186 0.000000 0.026620 0.000000
# 6 0.000000 0.000000 0.000000 0.004998 0.000000 0.029555
#
#
# Mechanical properties :
#
#
# Convention : Reuss Voigt Hill
#
# Bulk Modulus (GPa) = 43.82322 45.14327 44.48325
# Shear Modulus (GPa) = 30.45229 32.15655 31.30442
#
# Velocity S-wave (km/s) = 3.81390 3.91917 3.86689
# Velocity P-wave (km/s) = 6.35036 6.48405 6.41755
#
# Compressibility (1/GPa) = 0.02281895
#
# Stress axis : x y z
#
# Youngs Moduli (GPa) = 64.15726 75.76541 67.40508
#
# Poissons Ratio (x) = 0.10916 0.26603
# Poissons Ratio (y) = 0.09244 0.33794
# Poissons Ratio (z) = 0.25321 0.37985
#
# Static dielectric constant tensor:
#      x y z
#    x 4.020700 0.000000 -0.015350 
#    y 0.000000 4.201130 0.000000 
#    z -0.015350 0.000000 3.698090 
# 
# 
# High freq. dielectric constant tensor:
#      x y z
#    x 1.832300 0.000000 0.002940 
#    y 0.000000 1.823290 0.000000 
#    z 0.002940 0.000000 1.819780 
# 
# From -- ./inp_files/66547.got.cif
#   From: 2010.03.12/outbox.cif.g09.slc.cpg/sg14_34_cif.got.tgz:66547.got - 2010.03.31 13:35:05.
