data_PCOD8126218
_publ_section_title
;
Structure prediction by ZEFSAII (Michael W. Deem and Ramdas Pophale) SiO2 
 PCOD8126218
Probable space group: P 21/C
;
_chemical_formula_sum "Si O2"
_cell_formula_units_Z 20
_cell_length_a 5.035697
_cell_length_b 10.679094
_cell_length_c 18.193061
_cell_angle_alpha 90.000000
_cell_angle_beta 110.351840
_cell_angle_gamma 90.000000
_cell_volume 917.287832
_symmetry_space_group_name_H-M "P 21/C"
_symmetry_group_IT_number 14
_symmetry_cell_setting 'monoclinic'
loop_
_space_group_symop_operation_xyz
x,y,z
-x,1/2+y,1/2-z
-x,-y,-z
x,1/2-y,1/2+z
loop_
_atom_site_type_symbol
_atom_site_label
_atom_site_fract_x
_atom_site_fract_y
_atom_site_fract_z
Si Si1 0.162503 0.957939 0.161813
Si Si2 0.380913 0.892193 0.876923
Si Si3 0.637688 0.123157 0.664763
Si Si4 0.013521 0.102470 0.564459
Si Si5 0.913422 0.643339 0.509352
O O1 0.459975 0.001694 0.155602
O O2 0.929048 0.066680 0.127405
O O3 0.196419 0.934459 0.250741
O O4 0.031617 0.837632 0.104402
O O5 0.336853 0.771615 0.821968
O O6 0.570392 0.854470 0.967272
O O7 0.310924 0.084887 0.634355
O O8 0.773030 0.075531 0.601505
O O9 0.964910 0.243568 0.528803
O O10 0.000000 0.000000 0.500000
O O11 0.000000 0.500000 0.500000
#
# Coordination Sequence:
#
# PCOD8126218 Si02
#       5
#     4   4   4   4   4
#     4  11  22  36  62  91 117 155 207 254 301 358
#     4  10  21  39  59  88 123 158 200 255 306 356
#     4  11  23  41  61  89 125 160 198 257 308 351
#     4  11  24  43  63  88 126 167 201 243 304 370
#     4   9  20  39  63  88 118 160 206 247 297 361
#
# _framework density 21.803407
#
# number of rings (size 3 to 8) (size 9 to 14) (size 15 to 20)
#    0.000    1.600    0.000    6.000    0.000    8.000 
#    0.000    2.000    0.000    0.000    0.000    0.000 
#    0.000    0.000    0.000    0.000    0.000    0.000 
#
# Total GULP energy -247822.305767 kJ/mol
# GULP energy per Si atom -12391.115288 kJ/mol
# Density = 2.175378 g / cm^3
# Si number density = 21.803407 Si / 1000 Ang^3
#
#
#
# Elastic Constant Matrix: (Units=GPa)
#
#
# Indices 1 2 3 4 5 6 
#
# 1 69.0311 9.6560 9.4747 0.0000 1.1517 0.0000
# 2 9.6560 76.3137 42.1622 0.0000 -1.2407 0.0000
# 3 9.4747 42.1622 127.5113 0.0000 -11.1561 0.0000
# 4 0.0000 0.0000 0.0000 21.5094 0.0000 -3.4400
# 5 1.1517 -1.2407 -11.1561 0.0000 28.5359 0.0000
# 6 0.0000 0.0000 0.0000 -3.4400 0.0000 25.2395
#
#
#
# Elastic Compliance Matrix: (Units=1/GPa)
#
#
# Indices 1 2 3 4 5 6 
#
# 1 0.014807 -0.001512 -0.000682 0.000000 -0.000930 0.000000
# 2 -0.001512 0.016243 -0.005375 0.000000 -0.001334 0.000000
# 3 -0.000682 -0.005375 0.009994 0.000000 0.003701 0.000000
# 4 0.000000 0.000000 0.000000 0.047527 0.000000 0.006478
# 5 -0.000930 -0.001334 0.003701 0.000000 0.036470 0.000000
# 6 0.000000 0.000000 0.000000 0.006478 0.000000 0.040503
#
#
# Mechanical properties :
#
#
# Convention : Reuss Voigt Hill
#
# Bulk Modulus (GPa) = 38.60048 43.93798 41.26923
# Shear Modulus (GPa) = 26.41055 29.16116 27.78586
#
# Velocity S-wave (km/s) = 3.48415 3.66110 3.57372
# Velocity P-wave (km/s) = 5.82478 6.16986 5.99980
#
# Compressibility (1/GPa) = 0.02590641
#
# Stress axis : x y z
#
# Youngs Moduli (GPa) = 67.53658 61.56430 100.05749
#
# Poissons Ratio (x) = 0.09309 0.06820
# Poissons Ratio (y) = 0.10212 0.53783
# Poissons Ratio (z) = 0.04603 0.33092
#
# Static dielectric constant tensor:
#      x y z
#    x 3.925930 0.000000 0.150130 
#    y 0.000000 3.863320 0.000000 
#    z 0.150130 0.000000 4.400210 
# 
# 
# High freq. dielectric constant tensor:
#      x y z
#    x 1.863750 0.000000 0.008560 
#    y 0.000000 1.839290 0.000000 
#    z 0.008560 0.000000 1.861250 
# 
# From -- ./inp_files/37028.got.cif
#   From: 2010.03.12/outbox.cif.g09.slc.cpg/sg14_19_cif.got.tgz:37028.got - 2010.03.31 13:35:05.
