data_PCOD8126563
_publ_section_title
;
Structure prediction by ZEFSAII (Michael W. Deem and Ramdas Pophale) SiO2 
 PCOD8126563
Probable space group: P 21/C
;
_chemical_formula_sum "Si O2"
_cell_formula_units_Z 32
_cell_length_a 12.578844
_cell_length_b 9.595159
_cell_length_c 13.885784
_cell_angle_alpha 90.000000
_cell_angle_beta 103.921534
_cell_angle_gamma 90.000000
_cell_volume 1626.729300
_symmetry_space_group_name_H-M "P 21/C"
_symmetry_group_IT_number 14
_symmetry_cell_setting 'monoclinic'
loop_
_space_group_symop_operation_xyz
x,y,z
-x,1/2+y,1/2-z
-x,-y,-z
x,1/2-y,1/2+z
loop_
_atom_site_type_symbol
_atom_site_label
_atom_site_fract_x
_atom_site_fract_y
_atom_site_fract_z
Si Si1 0.402662 0.566842 0.122136
Si Si2 0.355600 0.435843 0.790351
Si Si3 0.288910 0.363716 0.237077
Si Si4 0.867509 0.784151 0.463111
Si Si5 0.316436 0.863012 0.106074
Si Si6 0.782614 0.483683 0.067247
Si Si7 0.111426 0.790443 0.966729
Si Si8 0.772471 0.960887 0.064616
O O1 0.529402 0.526611 0.133206
O O2 0.360031 0.489554 0.209048
O O3 0.398840 0.734029 0.132011
O O4 0.330525 0.517206 0.017029
O O5 0.360826 0.276022 0.757374
O O6 0.339000 0.534884 0.697152
O O7 0.251010 0.460461 0.835744
O O8 0.181678 0.331650 0.149908
O O9 0.254617 0.407176 0.336380
O O10 0.794725 0.665239 0.496266
O O11 0.989052 0.730090 0.474046
O O12 0.870280 0.914452 0.536394
O O13 0.190647 0.802762 0.078823
O O14 0.327321 0.949337 0.006558
O O15 0.842278 0.335322 0.089085
O O16 0.121934 0.934425 0.907425
#
# Coordination Sequence:
#
# PCOD8126563 Si02
#       8
#     4   4   4   4   4   4   4   4
#     4  10  23  40  62  86 122 165 204 258 310 361
#     4  12  21  40  62  91 119 165 203 255 313 364
#     4  11  23  40  61  94 122 156 211 257 302 375
#     4  11  20  42  63  89 124 163 201 254 310 364
#     4   9  22  40  62  88 124 159 205 258 303 368
#     4  10  22  39  60  89 123 156 210 256 299 368
#     4   9  21  41  63  85 124 162 197 250 312 358
#     4  10  21  41  61  88 128 159 202 257 308 361
#
# _framework density 19.671374
#
# number of rings (size 3 to 8) (size 9 to 14) (size 15 to 20)
#    0.750    1.000    2.500    1.875    1.750    0.000 
#    4.500    3.750    0.000    0.000    0.000    0.000 
#    0.000    0.000    0.000    0.000    0.000    0.000 
#
# Total GULP energy -396579.933483 kJ/mol
# GULP energy per Si atom -12393.122921 kJ/mol
# Density = 1.962660 g / cm^3
# Si number density = 19.671374 Si / 1000 Ang^3
#
#
#
# Elastic Constant Matrix: (Units=GPa)
#
#
# Indices 1 2 3 4 5 6 
#
# 1 56.3865 9.5601 12.1461 0.0000 -4.6985 0.0000
# 2 9.5601 116.5458 35.1356 0.0000 -6.5281 0.0000
# 3 12.1461 35.1356 73.8831 0.0000 -11.2425 0.0000
# 4 0.0000 0.0000 0.0000 26.3925 0.0000 -2.8499
# 5 -4.6985 -6.5281 -11.2425 0.0000 16.6071 0.0000
# 6 0.0000 0.0000 0.0000 -2.8499 0.0000 18.1665
#
#
#
# Elastic Compliance Matrix: (Units=1/GPa)
#
#
# Indices 1 2 3 4 5 6 
#
# 1 0.018616 -0.000664 -0.002211 0.000000 0.003509 0.000000
# 2 -0.000664 0.010049 -0.004568 0.000000 0.000670 0.000000
# 3 -0.002211 -0.004568 0.017506 0.000000 0.009430 0.000000
# 4 0.000000 0.000000 0.000000 0.038542 0.000000 0.006046
# 5 0.003509 0.000670 0.009430 0.000000 0.067855 0.000000
# 6 0.000000 0.000000 0.000000 0.006046 0.000000 0.055995
#
#
# Mechanical properties :
#
#
# Convention : Reuss Voigt Hill
#
# Bulk Modulus (GPa) = 31.96348 40.05546 36.00947
# Shear Modulus (GPa) = 21.37874 24.89812 23.13843
#
# Velocity S-wave (km/s) = 3.30023 3.56153 3.43337
# Velocity P-wave (km/s) = 5.55032 6.10894 5.83632
#
# Compressibility (1/GPa) = 0.03128571
#
# Stress axis : x y z
#
# Youngs Moduli (GPa) = 53.71748 99.50803 57.12487
#
# Poissons Ratio (x) = 0.06608 0.12628
# Poissons Ratio (y) = 0.03567 0.26094
# Poissons Ratio (z) = 0.11875 0.45455
#
# Static dielectric constant tensor:
#      x y z
#    x 3.338640 0.000000 0.073820 
#    y 0.000000 3.916450 0.000000 
#    z 0.073820 0.000000 3.391540 
# 
# 
# High freq. dielectric constant tensor:
#      x y z
#    x 1.746680 0.000000 0.005010 
#    y 0.000000 1.791230 0.000000 
#    z 0.005010 0.000000 1.752860 
# 
# From -- ./inp_files/43760.got.cif
#   From: 2010.03.12/outbox.cif.g09.slc.cpg/sg14_22_cif.got.tgz:43760.got - 2010.03.31 13:35:05.
