data_PCOD8126623
_publ_section_title
;
Structure prediction by ZEFSAII (Michael W. Deem and Ramdas Pophale) SiO2 
 PCOD8126623
Probable space group: P 21/C
;
_chemical_formula_sum "Si O2"
_cell_formula_units_Z 24
_cell_length_a 7.747324
_cell_length_b 19.220037
_cell_length_c 9.787586
_cell_angle_alpha 90.000000
_cell_angle_beta 53.921656
_cell_angle_gamma 90.000000
_cell_volume 1177.896429
_symmetry_space_group_name_H-M "P 21/C"
_symmetry_group_IT_number 14
_symmetry_cell_setting 'monoclinic'
loop_
_space_group_symop_operation_xyz
x,y,z
-x,1/2+y,1/2-z
-x,-y,-z
x,1/2-y,1/2+z
loop_
_atom_site_type_symbol
_atom_site_label
_atom_site_fract_x
_atom_site_fract_y
_atom_site_fract_z
Si Si1 0.983819 0.897387 0.667587
Si Si2 0.870615 0.335396 0.162408
Si Si3 0.687960 0.476417 0.313464
Si Si4 0.564972 0.056218 0.577077
Si Si5 0.204959 0.269812 0.596129
Si Si6 0.444417 0.302477 0.214709
O O1 0.872570 0.844972 0.822214
O O2 0.961509 0.871431 0.520763
O O3 0.234253 0.903473 0.581986
O O4 0.887449 0.973162 0.739444
O O5 0.758845 0.395930 0.306812
O O6 0.686317 0.295342 0.160610
O O7 0.003229 0.283151 0.196483
O O8 0.500000 0.500000 0.500000
O O9 0.614735 0.485262 0.191813
O O10 0.395167 0.117388 0.691953
O O11 0.500000 0.000000 0.500000
O O12 0.280531 0.277329 0.406069
O O13 0.399842 0.245312 0.602750
#
# Coordination Sequence:
#
# PCOD8126623 Si02
#       6
#     4   4   4   4   4   4
#     4  10  21  41  64  93 124 166 212 263 326 383
#     4  10  23  42  63  96 128 169 216 264 322 389
#     4  10  21  43  65  90 125 167 214 266 322 379
#     4  10  23  42  64  95 124 165 218 264 323 383
#     4  12  23  43  64  96 131 170 213 268 328 389
#     4  10  25  39  66  92 130 167 215 260 325 387
#
# _framework density 20.375305999999998
#
# number of rings (size 3 to 8) (size 9 to 14) (size 15 to 20)
#    0.000    2.000    1.667    4.000    9.333    0.000 
#    3.000    1.667    0.000    0.000    0.000    0.000 
#    0.000    0.000    0.000    0.000    0.000    0.000 
#
# Total GULP energy -297474.223382 kJ/mol
# GULP energy per Si atom -12394.759308 kJ/mol
# Density = 2.032893 g / cm^3
# Si number density = 20.375306 Si / 1000 Ang^3
#
#
#
# Elastic Constant Matrix: (Units=GPa)
#
#
# Indices 1 2 3 4 5 6 
#
# 1 88.3097 59.8864 22.8882 0.0000 -0.1516 0.0000
# 2 59.8864 115.2431 34.3113 0.0000 2.7329 0.0000
# 3 22.8882 34.3113 83.7788 0.0000 -0.8692 0.0000
# 4 0.0000 0.0000 0.0000 44.2283 0.0000 -0.4769
# 5 -0.1516 2.7329 -0.8692 0.0000 22.0158 0.0000
# 6 0.0000 0.0000 0.0000 -0.4769 0.0000 40.6414
#
#
#
# Elastic Compliance Matrix: (Units=1/GPa)
#
#
# Indices 1 2 3 4 5 6 
#
# 1 0.017623 -0.008833 -0.001185 0.000000 0.001171 0.000000
# 2 -0.008833 0.014352 -0.003485 0.000000 -0.001980 0.000000
# 3 -0.001185 -0.003485 0.013697 0.000000 0.000965 0.000000
# 4 0.000000 0.000000 0.000000 0.022613 0.000000 0.000265
# 5 0.001171 -0.001980 0.000965 0.000000 0.045714 0.000000
# 6 0.000000 0.000000 0.000000 0.000265 0.000000 0.024609
#
#
# Mechanical properties :
#
#
# Convention : Reuss Voigt Hill
#
# Bulk Modulus (GPa) = 53.57287 57.94482 55.75885
# Shear Modulus (GPa) = 29.09771 32.72682 30.91227
#
# Velocity S-wave (km/s) = 3.78310 4.01209 3.89928
# Velocity P-wave (km/s) = 6.74037 7.06845 6.90636
#
# Compressibility (1/GPa) = 0.01866617
#
# Stress axis : x y z
#
# Youngs Moduli (GPa) = 56.74501 69.67750 73.00711
#
# Poissons Ratio (x) = 0.61544 0.08651
# Poissons Ratio (y) = 0.50121 0.25445
# Poissons Ratio (z) = 0.06724 0.24284
#
# Static dielectric constant tensor:
#      x y z
#    x 3.683420 0.000000 0.011260 
#    y 0.000000 4.059880 0.000000 
#    z 0.011260 0.000000 3.706220 
# 
# 
# High freq. dielectric constant tensor:
#      x y z
#    x 1.776270 0.000000 -0.003360 
#    y 0.000000 1.806220 0.000000 
#    z -0.003360 0.000000 1.796180 
# 
# From -- ./inp_files/25977.got.cif
#   From: 2010.03.12/outbox.cif.g09.slc.cpg/sg14_13_cif.got.tgz:25977.got - 2010.03.31 13:35:05.
