data_PCOD8126518
_publ_section_title
;
Structure prediction by ZEFSAII (Michael W. Deem and Ramdas Pophale) SiO2 
 PCOD8126518
Probable space group: P 21/C
;
_chemical_formula_sum "Si O2"
_cell_formula_units_Z 32
_cell_length_a 6.700725
_cell_length_b 8.803017
_cell_length_c 26.255738
_cell_angle_alpha 90.000000
_cell_angle_beta 73.412501
_cell_angle_gamma 90.000000
_cell_volume 1484.285759
_symmetry_space_group_name_H-M "P 21/C"
_symmetry_group_IT_number 14
_symmetry_cell_setting 'monoclinic'
loop_
_space_group_symop_operation_xyz
x,y,z
-x,1/2+y,1/2-z
-x,-y,-z
x,1/2-y,1/2+z
loop_
_atom_site_type_symbol
_atom_site_label
_atom_site_fract_x
_atom_site_fract_y
_atom_site_fract_z
Si Si1 0.834005 0.098291 0.446982
Si Si2 0.129572 0.842723 0.138669
Si Si3 0.333862 0.990451 0.211321
Si Si4 0.999322 0.661196 0.377161
Si Si5 0.099450 0.921622 0.712068
Si Si6 0.804488 0.374589 0.065779
Si Si7 0.659738 0.877311 0.384462
Si Si8 0.648299 0.224110 0.221873
O O1 0.807363 0.253365 0.416902
O O2 0.763496 0.136971 0.508904
O O3 0.679028 0.972644 0.435377
O O4 0.069561 0.028649 0.428936
O O5 0.017570 0.723469 0.185025
O O6 0.329378 0.912710 0.155235
O O7 0.977418 0.979743 0.131451
O O8 0.464383 0.146475 0.202017
O O9 0.091404 0.017696 0.241051
O O10 0.430867 0.882582 0.248210
O O11 0.758703 0.709014 0.384197
O O12 0.066578 0.722996 0.427895
O O13 0.150838 0.751764 0.327792
O O14 0.286626 0.880161 0.735713
O O15 0.197609 0.046635 0.668578
O O16 0.583725 0.372415 0.111955
#
# Coordination Sequence:
#
# PCOD8126518 Si02
#       8
#     4   4   4   4   4   4   4   4
#     4   9  21  45  65  97 122 156 215 259 315 375
#     4  10  23  42  60  86 133 163 199 263 314 365
#     4  11  24  41  61  90 123 172 211 255 308 370
#     4  11  23  38  58  94 128 160 203 260 308 375
#     4  10  22  41  61  85 124 167 210 258 304 367
#     4  10  22  40  72  93 120 162 208 264 313 379
#     4  10  21  40  67  90 122 164 208 258 316 370
#     4  11  25  37  61  89 124 167 213 253 309 370
#
# _framework density 21.559190999999998
#
# number of rings (size 3 to 8) (size 9 to 14) (size 15 to 20)
#    0.000    1.750    2.500    0.375    5.250    0.500 
#    4.500    0.625    0.000    0.000    0.000    0.000 
#    0.000    0.000    0.000    0.000    0.000    0.000 
#
# Total GULP energy -396636.589768 kJ/mol
# GULP energy per Si atom -12394.893430 kJ/mol
# Density = 2.151012 g / cm^3
# Si number density = 21.559191 Si / 1000 Ang^3
#
#
#
# Elastic Constant Matrix: (Units=GPa)
#
#
# Indices 1 2 3 4 5 6 
#
# 1 83.0361 17.5133 8.8818 0.0000 -14.3236 0.0000
# 2 17.5133 80.2606 15.3232 0.0000 -6.2975 0.0000
# 3 8.8818 15.3232 50.9639 0.0000 2.0808 0.0000
# 4 0.0000 0.0000 0.0000 23.7446 0.0000 7.4126
# 5 -14.3236 -6.2975 2.0808 0.0000 32.4375 0.0000
# 6 0.0000 0.0000 0.0000 7.4126 0.0000 36.6371
#
#
#
# Elastic Compliance Matrix: (Units=1/GPa)
#
#
# Indices 1 2 3 4 5 6 
#
# 1 0.013703 -0.002162 -0.001973 0.000000 0.005758 0.000000
# 2 -0.002162 0.013823 -0.003860 0.000000 0.001977 0.000000
# 3 -0.001973 -0.003860 0.021248 0.000000 -0.002984 0.000000
# 4 0.000000 0.000000 0.000000 0.044954 0.000000 -0.009095
# 5 0.005758 0.001977 -0.002984 0.000000 0.033946 0.000000
# 6 0.000000 0.000000 0.000000 -0.009095 0.000000 0.029135
#
#
# Mechanical properties :
#
#
# Convention : Reuss Voigt Hill
#
# Bulk Modulus (GPa) = 30.50245 33.07748 31.78996
# Shear Modulus (GPa) = 27.21415 30.06668 28.64041
#
# Velocity S-wave (km/s) = 3.55674 3.73850 3.64875
# Velocity P-wave (km/s) = 5.57191 5.83191 5.70339
#
# Compressibility (1/GPa) = 0.03278426
#
# Stress axis : x y z
#
# Youngs Moduli (GPa) = 72.97589 72.34233 47.06309
#
# Poissons Ratio (x) = 0.15637 0.09287
# Poissons Ratio (y) = 0.15774 0.18167
# Poissons Ratio (z) = 0.14400 0.27925
#
# Static dielectric constant tensor:
#      x y z
#    x 3.820170 0.000000 0.363390 
#    y 0.000000 3.904180 0.000000 
#    z 0.363390 0.000000 3.768840 
# 
# 
# High freq. dielectric constant tensor:
#      x y z
#    x 1.838050 0.000000 0.026100 
#    y 0.000000 1.847090 0.000000 
#    z 0.026100 0.000000 1.834480 
# 
# From -- ./inp_files/78791.got.cif
#   From: 2010.03.12/outbox.cif.g09.slc.cpg/sg14_40_cif.got.tgz:78791.got - 2010.03.31 13:35:05.
