data_PCOD8126190
_publ_section_title
;
Structure prediction by ZEFSAII (Michael W. Deem and Ramdas Pophale) SiO2 
 PCOD8126190
Probable space group: P 21/C
;
_chemical_formula_sum "Si O2"
_cell_formula_units_Z 32
_cell_length_a 10.296534
_cell_length_b 21.109645
_cell_length_c 8.036704
_cell_angle_alpha 90.000000
_cell_angle_beta 59.619962
_cell_angle_gamma 90.000000
_cell_volume 1506.970271
_symmetry_space_group_name_H-M "P 21/C"
_symmetry_group_IT_number 14
_symmetry_cell_setting 'monoclinic'
loop_
_space_group_symop_operation_xyz
x,y,z
-x,1/2+y,1/2-z
-x,-y,-z
x,1/2-y,1/2+z
loop_
_atom_site_type_symbol
_atom_site_label
_atom_site_fract_x
_atom_site_fract_y
_atom_site_fract_z
Si Si1 0.307928 0.980753 0.954933
Si Si2 0.353490 0.991043 0.293943
Si Si3 0.894582 0.678413 0.619571
Si Si4 0.767598 0.351196 0.634626
Si Si5 0.276238 0.435606 0.162126
Si Si6 0.573070 0.129430 0.569444
Si Si7 0.721737 0.725350 0.434467
Si Si8 0.494461 0.226443 0.191431
O O1 0.226366 0.914191 0.978042
O O2 0.487077 0.972933 0.818364
O O3 0.244155 0.027976 0.856402
O O4 0.269495 0.001622 0.170656
O O5 0.376840 0.915372 0.308889
O O6 0.258266 0.020455 0.509785
O O7 0.851044 0.618606 0.761749
O O8 0.796551 0.675384 0.512210
O O9 0.853772 0.743631 0.739165
O O10 0.069856 0.680990 0.465536
O O11 0.715954 0.363543 0.856020
O O12 0.655939 0.302372 0.617469
O O13 0.443986 0.407434 0.051453
O O14 0.512350 0.197280 0.666179
O O15 0.590290 0.692542 0.408508
O O16 0.626791 0.782687 0.582467
#
# Coordination Sequence:
#
# PCOD8126190 Si02
#       8
#     4   4   4   4   4   4   4   4
#     4  10  22  37  65 102 128 170 229 278 328 393
#     4  10  21  38  66  98 132 165 228 283 323 386
#     4  11  26  42  64  93 139 176 212 272 350 392
#     4  12  24  40  64  99 136 170 216 284 339 391
#     4  11  19  44  67  90 131 183 219 271 326 402
#     4  11  20  40  63  95 127 177 217 278 331 388
#     4  10  22  44  60  90 123 175 221 261 318 412
#     4  11  22  38  67  92 123 170 231 266 319 399
#
# _framework density 21.234658
#
# number of rings (size 3 to 8) (size 9 to 14) (size 15 to 20)
#    0.000    1.250    6.250    0.750    3.500    1.500 
#    2.250    0.625    0.000    0.000    0.000    0.000 
#    0.000    0.000    0.000    0.000    0.000    0.000 
#
# Total GULP energy -396628.876850 kJ/mol
# GULP energy per Si atom -12394.652402 kJ/mol
# Density = 2.118633 g / cm^3
# Si number density = 21.234658 Si / 1000 Ang^3
#
#
#
# Elastic Constant Matrix: (Units=GPa)
#
#
# Indices 1 2 3 4 5 6 
#
# 1 97.7048 23.3494 55.6907 0.0000 -5.3937 0.0000
# 2 23.3494 74.3558 23.9756 0.0000 1.0657 0.0000
# 3 55.6907 23.9756 113.5844 0.0000 7.4148 0.0000
# 4 0.0000 0.0000 0.0000 25.4489 0.0000 -1.5087
# 5 -5.3937 1.0657 7.4148 0.0000 42.5572 0.0000
# 6 0.0000 0.0000 0.0000 -1.5087 0.0000 21.2542
#
#
#
# Elastic Compliance Matrix: (Units=1/GPa)
#
#
# Indices 1 2 3 4 5 6 
#
# 1 0.015025 -0.002491 -0.007049 0.000000 0.003195 0.000000
# 2 -0.002491 0.014845 -0.001889 0.000000 -0.000358 0.000000
# 3 -0.007049 -0.001889 0.012861 0.000000 -0.003087 0.000000
# 4 0.000000 0.000000 0.000000 0.039460 0.000000 0.002801
# 5 0.003195 -0.000358 -0.003087 0.000000 0.024449 0.000000
# 6 0.000000 0.000000 0.000000 0.002801 0.000000 0.047248
#
#
# Mechanical properties :
#
#
# Convention : Reuss Voigt Hill
#
# Bulk Modulus (GPa) = 50.32161 54.63070 52.47615
# Shear Modulus (GPa) = 27.26713 30.02736 28.64725
#
# Velocity S-wave (km/s) = 3.58730 3.76450 3.67697
# Velocity P-wave (km/s) = 6.39591 6.68418 6.54163
#
# Compressibility (1/GPa) = 0.01987218
#
# Stress axis : x y z
#
# Youngs Moduli (GPa) = 66.55743 67.36172 77.75700
#
# Poissons Ratio (x) = 0.16779 0.54814
# Poissons Ratio (y) = 0.16578 0.14688
# Poissons Ratio (z) = 0.46919 0.12724
#
# Static dielectric constant tensor:
#      x y z
#    x 3.646300 0.000000 0.296020 
#    y 0.000000 3.754210 0.000000 
#    z 0.296020 0.000000 3.991570 
# 
# 
# High freq. dielectric constant tensor:
#      x y z
#    x 1.805880 0.000000 0.017980 
#    y 0.000000 1.823340 0.000000 
#    z 0.017980 0.000000 1.838270 
# 
# From -- ./inp_files/14315.got.cif
#   From: 2010.03.12/outbox.cif.g09.slc.cpg/sg14_8_cif.got.tgz:14315.got - 2010.03.31 13:35:05.
