data_PCOD8126392
_publ_section_title
;
Structure prediction by ZEFSAII (Michael W. Deem and Ramdas Pophale) SiO2 
 PCOD8126392
Probable space group: P 21/C
;
_chemical_formula_sum "Si O2"
_cell_formula_units_Z 32
_cell_length_a 9.825548
_cell_length_b 27.702035
_cell_length_c 5.256092
_cell_angle_alpha 90.000000
_cell_angle_beta 102.708215
_cell_angle_gamma 90.000000
_cell_volume 1395.597004
_symmetry_space_group_name_H-M "P 21/C"
_symmetry_group_IT_number 14
_symmetry_cell_setting 'monoclinic'
loop_
_space_group_symop_operation_xyz
x,y,z
-x,1/2+y,1/2-z
-x,-y,-z
x,1/2-y,1/2+z
loop_
_atom_site_type_symbol
_atom_site_label
_atom_site_fract_x
_atom_site_fract_y
_atom_site_fract_z
Si Si1 0.682727 0.038185 0.831019
Si Si2 0.396414 0.426985 0.131434
Si Si3 0.154151 0.476336 0.261249
Si Si4 0.226721 0.219991 0.148820
Si Si5 0.257204 0.864766 0.843660
Si Si6 0.906590 0.219278 0.998744
Si Si7 0.105135 0.931575 0.471035
Si Si8 0.562745 0.866065 0.851938
O O1 0.517289 0.033031 0.724715
O O2 0.752166 0.051106 0.594759
O O3 0.710704 0.083181 0.027118
O O4 0.743685 0.987036 0.958169
O O5 0.249655 0.455220 0.072391
O O6 0.398927 0.387354 0.356660
O O7 0.419000 0.404081 0.865811
O O8 0.032962 0.435762 0.266871
O O9 0.077431 0.527737 0.176907
O O10 0.255914 0.241837 0.438123
O O11 0.331058 0.176458 0.157849
O O12 0.066669 0.201857 0.069719
O O13 0.194799 0.827009 0.019647
O O14 0.134039 0.877035 0.585316
O O15 0.402921 0.845630 0.785092
O O16 0.871966 0.255097 0.218196
#
# Coordination Sequence:
#
# PCOD8126392 Si02
#       8
#     4   4   4   4   4   4   4   4
#     4  10  21  40  60  87 126 165 208 264 305 364
#     4  11  24  40  61  94 124 166 211 258 306 369
#     4  10  23  37  60  90 120 170 216 254 315 363
#     4  10  22  43  65  92 125 159 200 257 308 372
#     4  10  23  40  61  92 125 163 203 259 310 366
#     4  10  24  41  65  95 125 159 204 249 310 379
#     4  10  21  40  60  87 127 161 214 261 309 365
#     4  11  24  41  63  94 125 161 211 251 313 374
#
# _framework density 22.929257
#
# number of rings (size 3 to 8) (size 9 to 14) (size 15 to 20)
#    0.000    1.750    1.250    1.500    5.250    2.500 
#    0.000    0.000    0.000    0.000    0.000    0.000 
#    0.000    0.000    0.000    0.000    0.000    0.000 
#
# Total GULP energy -396573.600734 kJ/mol
# GULP energy per Si atom -12392.925023 kJ/mol
# Density = 2.287707 g / cm^3
# Si number density = 22.929257 Si / 1000 Ang^3
#
#
#
# Elastic Constant Matrix: (Units=GPa)
#
#
# Indices 1 2 3 4 5 6 
#
# 1 121.9026 44.9822 8.7765 0.0000 -7.3928 0.0000
# 2 44.9822 44.6579 13.1641 0.0000 1.3237 0.0000
# 3 8.7765 13.1641 63.1293 0.0000 -18.9437 0.0000
# 4 0.0000 0.0000 0.0000 19.7588 0.0000 -9.7550
# 5 -7.3928 1.3237 -18.9437 0.0000 24.2355 0.0000
# 6 0.0000 0.0000 0.0000 -9.7550 0.0000 44.3280
#
#
#
# Elastic Compliance Matrix: (Units=1/GPa)
#
#
# Indices 1 2 3 4 5 6 
#
# 1 0.014194 -0.015631 0.003712 0.000000 0.008085 0.000000
# 2 -0.015631 0.041958 -0.011359 0.000000 -0.015939 0.000000
# 3 0.003712 -0.011359 0.023802 0.000000 0.020358 0.000000
# 4 0.000000 0.000000 0.000000 0.056779 0.000000 0.012495
# 5 0.008085 -0.015939 0.020358 0.000000 0.060511 0.000000
# 6 0.000000 0.000000 0.000000 0.012495 0.000000 0.025309
#
#
# Mechanical properties :
#
#
# Convention : Reuss Voigt Hill
#
# Bulk Modulus (GPa) = 29.94155 40.39281 35.16718
# Shear Modulus (GPa) = 17.84169 28.51561 23.17865
#
# Velocity S-wave (km/s) = 2.79250 3.53035 3.18288
# Velocity P-wave (km/s) = 4.84603 5.85426 5.37384
#
# Compressibility (1/GPa) = 0.03339840
#
# Stress axis : x y z
#
# Youngs Moduli (GPa) = 70.45063 23.83323 42.01345
#
# Poissons Ratio (x) = 0.37255 -0.15597
# Poissons Ratio (y) = 1.10124 0.47723
# Poissons Ratio (z) = -0.26155 0.27072
#
# Static dielectric constant tensor:
#      x y z
#    x 4.547900 0.000000 0.129960 
#    y 0.000000 3.893270 0.000000 
#    z 0.129960 0.000000 4.323080 
# 
# 
# High freq. dielectric constant tensor:
#      x y z
#    x 1.921760 0.000000 -0.004500 
#    y 0.000000 1.882010 0.000000 
#    z -0.004500 0.000000 1.906870 
# 
# From -- ./inp_files/2244.got.cif
#   From: 2010.03.12/outbox.cif.g09.slc.cpg/sg14_2_cif.got.tgz:2244.got - 2010.03.31 13:35:05.
