data_PCOD8126317
_publ_section_title
;
Structure prediction by ZEFSAII (Michael W. Deem and Ramdas Pophale) SiO2 
 PCOD8126317
Probable space group: P 21/C
;
_chemical_formula_sum "Si O2"
_cell_formula_units_Z 24
_cell_length_a 12.036041
_cell_length_b 23.365084
_cell_length_c 5.081752
_cell_angle_alpha 90.000000
_cell_angle_beta 52.799658
_cell_angle_gamma 90.000000
_cell_volume 1138.320604
_symmetry_space_group_name_H-M "P 21/C"
_symmetry_group_IT_number 14
_symmetry_cell_setting 'monoclinic'
loop_
_space_group_symop_operation_xyz
x,y,z
-x,1/2+y,1/2-z
-x,-y,-z
x,1/2-y,1/2+z
loop_
_atom_site_type_symbol
_atom_site_label
_atom_site_fract_x
_atom_site_fract_y
_atom_site_fract_z
Si Si1 0.899412 0.450598 0.551750
Si Si2 0.852033 0.710415 0.314915
Si Si3 0.409374 0.618095 0.452030
Si Si4 0.404558 0.375089 0.334057
Si Si5 0.102954 0.874981 0.433153
Si Si6 0.358734 0.500619 0.352252
O O1 0.952712 0.419408 0.208790
O O2 0.755226 0.482189 0.699931
O O3 0.000000 0.500000 0.500000
O O4 0.885783 0.403969 0.798486
O O5 0.841958 0.748812 0.583533
O O6 0.722572 0.667727 0.506886
O O7 0.998427 0.677717 0.099631
O O8 0.493622 0.643614 0.575933
O O9 0.258354 0.648870 0.635698
O O10 0.370225 0.550430 0.557694
O O11 0.503469 0.626134 0.060172
O O12 0.334686 0.437033 0.501798
O O13 0.500000 0.500000 0.000000
#
# Coordination Sequence:
#
# PCOD8126317 Si02
#       6
#     4   4   4   4   4   4
#     4  11  22  36  59  95 130 165 204 248 307 383
#     4  12  27  47  66  89 120 166 222 273 317 362
#     4  10  21  39  64  96 128 159 198 246 312 391
#     4  11  22  40  64  92 129 165 202 254 310 371
#     4  11  23  42  63  89 126 165 209 263 312 368
#     4   9  19  34  59  93 129 162 192 234 306 385
#
# _framework density 21.083693
#
# number of rings (size 3 to 8) (size 9 to 14) (size 15 to 20)
#    0.000    1.333    0.000    7.000    0.000    8.000 
#    0.000    5.000    0.000    0.000    0.000    0.000 
#    0.000    0.000    0.000    0.000    0.000    0.000 
#
# Total GULP energy -297532.830850 kJ/mol
# GULP energy per Si atom -12397.201285 kJ/mol
# Density = 2.103571 g / cm^3
# Si number density = 21.083693 Si / 1000 Ang^3
#
#
#
# Elastic Constant Matrix: (Units=GPa)
#
#
# Indices 1 2 3 4 5 6 
#
# 1 129.6504 56.3753 62.0517 0.0000 -7.4851 0.0000
# 2 56.3753 92.5892 59.6039 0.0000 -24.4360 0.0000
# 3 62.0517 59.6039 113.1869 0.0000 -5.9860 0.0000
# 4 0.0000 0.0000 0.0000 23.2234 0.0000 -1.6369
# 5 -7.4851 -24.4360 -5.9860 0.0000 46.5241 0.0000
# 6 0.0000 0.0000 0.0000 -1.6369 0.0000 38.5757
#
#
#
# Elastic Compliance Matrix: (Units=1/GPa)
#
#
# Indices 1 2 3 4 5 6 
#
# 1 0.011623 -0.004921 -0.003844 0.000000 -0.001210 0.000000
# 2 -0.004921 0.021540 -0.008144 0.000000 0.009474 0.000000
# 3 -0.003844 -0.008144 0.015075 0.000000 -0.002956 0.000000
# 4 0.000000 0.000000 0.000000 0.043189 0.000000 0.001833
# 5 -0.001210 0.009474 -0.002956 0.000000 0.025895 0.000000
# 6 0.000000 0.000000 0.000000 0.001833 0.000000 0.026001
#
#
# Mechanical properties :
#
#
# Convention : Reuss Voigt Hill
#
# Bulk Modulus (GPa) = 69.35579 76.83205 73.09392
# Shear Modulus (GPa) = 27.48041 32.15769 29.81905
#
# Velocity S-wave (km/s) = 3.61417 3.90967 3.76482
# Velocity P-wave (km/s) = 7.09811 7.54329 7.32409
#
# Compressibility (1/GPa) = 0.01441841
#
# Stress axis : x y z
#
# Youngs Moduli (GPa) = 86.03513 46.42598 66.33655
#
# Poissons Ratio (x) = 0.22848 0.25503
# Poissons Ratio (y) = 0.42341 0.54022
# Poissons Ratio (z) = 0.33076 0.37808
#
# Static dielectric constant tensor:
#      x y z
#    x 4.024790 0.000000 -0.190900 
#    y 0.000000 4.950960 0.000000 
#    z -0.190900 0.000000 4.107730 
# 
# 
# High freq. dielectric constant tensor:
#      x y z
#    x 1.848990 0.000000 -0.004510 
#    y 0.000000 1.805630 0.000000 
#    z -0.004510 0.000000 1.834710 
# 
# From -- ./inp_files/3124.got.cif
#   From: 2010.03.12/outbox.cif.g09.slc.cpg/sg14_2_cif.got.tgz:3124.got - 2010.03.31 13:35:05.
