data_PCOD8126219
_publ_section_title
;
Structure prediction by ZEFSAII (Michael W. Deem and Ramdas Pophale) SiO2 
 PCOD8126219
Probable space group: P 21/C
;
_chemical_formula_sum "Si O2"
_cell_formula_units_Z 24
_cell_length_a 9.357399
_cell_length_b 18.036216
_cell_length_c 8.539406
_cell_angle_alpha 90.000000
_cell_angle_beta 115.327736
_cell_angle_gamma 90.000000
_cell_volume 1302.677419
_symmetry_space_group_name_H-M "P 21/C"
_symmetry_group_IT_number 14
_symmetry_cell_setting 'monoclinic'
loop_
_space_group_symop_operation_xyz
x,y,z
-x,1/2+y,1/2-z
-x,-y,-z
x,1/2-y,1/2+z
loop_
_atom_site_type_symbol
_atom_site_label
_atom_site_fract_x
_atom_site_fract_y
_atom_site_fract_z
Si Si1 0.957835 0.320746 0.697621
Si Si2 0.137044 0.530665 0.679803
Si Si3 0.674567 0.422524 0.504284
Si Si4 0.950936 0.833131 0.113478
Si Si5 0.112886 0.057670 0.464804
Si Si6 0.309863 0.079660 0.844610
O O1 0.777168 0.348889 0.589767
O O2 0.050546 0.327826 0.576177
O O3 0.977357 0.237825 0.766920
O O4 0.021614 0.369535 0.869347
O O5 0.295418 0.551385 0.659946
O O6 0.186507 0.475550 0.840252
O O7 0.000000 0.500000 0.500000
O O8 0.068541 0.603591 0.730126
O O9 0.727177 0.493979 0.630318
O O10 0.493829 0.401257 0.446351
O O11 0.776176 0.858816 0.086863
O O12 0.254207 0.086923 0.639761
O O13 0.000000 0.000000 0.500000
#
# Coordination Sequence:
#
# PCOD8126219 Si02
#       6
#     4   4   4   4   4   4
#     4  11  22  38  61  85 117 162 207 245 304 364
#     4  11  18  38  60  85 122 158 202 246 294 362
#     4  10  21  39  59  89 124 157 191 256 304 349
#     4  11  21  37  58  88 116 161 201 249 298 365
#     4  12  19  34  63  91 117 157 210 244 288 376
#     4  11  21  36  62  91 123 152 198 252 306 351
#
# _framework density 18.423594999999999
#
# number of rings (size 3 to 8) (size 9 to 14) (size 15 to 20)
#    0.000    1.000    8.333    1.000    0.000    0.667 
#    0.000    6.667    0.000    0.000    0.000    0.000 
#    0.000    0.000    0.000    0.000    0.000    0.000 
#
# Total GULP energy -297433.618012 kJ/mol
# GULP energy per Si atom -12393.067417 kJ/mol
# Density = 1.838166 g / cm^3
# Si number density = 18.423595 Si / 1000 Ang^3
#
#
#
# Elastic Constant Matrix: (Units=GPa)
#
#
# Indices 1 2 3 4 5 6 
#
# 1 116.3750 54.4590 43.4091 0.0000 -3.1407 0.0000
# 2 54.4590 114.7986 46.1936 0.0000 3.4141 0.0000
# 3 43.4091 46.1936 109.9316 0.0000 -2.4057 0.0000
# 4 0.0000 0.0000 0.0000 40.9387 0.0000 -2.6004
# 5 -3.1407 3.4141 -2.4057 0.0000 17.9240 0.0000
# 6 0.0000 0.0000 0.0000 -2.6004 0.0000 25.4854
#
#
#
# Elastic Compliance Matrix: (Units=1/GPa)
#
#
# Indices 1 2 3 4 5 6 
#
# 1 0.011816 -0.004606 -0.002673 0.000000 0.002589 0.000000
# 2 -0.004606 0.012401 -0.003472 0.000000 -0.003635 0.000000
# 3 -0.002673 -0.003472 0.011649 0.000000 0.001756 0.000000
# 4 0.000000 0.000000 0.000000 0.024586 0.000000 0.002509
# 5 0.002589 -0.003635 0.001756 0.000000 0.057173 0.000000
# 6 0.000000 0.000000 0.000000 0.002509 0.000000 0.039494
#
#
# Mechanical properties :
#
#
# Convention : Reuss Voigt Hill
#
# Bulk Modulus (GPa) = 69.62150 69.91430 69.76790
# Shear Modulus (GPa) = 27.26132 30.00585 28.63358
#
# Velocity S-wave (km/s) = 3.85085 4.04005 3.94659
# Velocity P-wave (km/s) = 7.59233 7.73261 7.66279
#
# Compressibility (1/GPa) = 0.01436338
#
# Stress axis : x y z
#
# Youngs Moduli (GPa) = 84.63369 80.63739 85.84106
#
# Poissons Ratio (x) = 0.37145 0.22949
# Poissons Ratio (y) = 0.38986 0.29801
# Poissons Ratio (z) = 0.22626 0.27994
#
# Static dielectric constant tensor:
#      x y z
#    x 3.340730 0.000000 -0.269940 
#    y 0.000000 3.931160 0.000000 
#    z -0.269940 0.000000 3.482820 
# 
# 
# High freq. dielectric constant tensor:
#      x y z
#    x 1.701200 0.000000 -0.022360 
#    y 0.000000 1.716000 0.000000 
#    z -0.022360 0.000000 1.714430 
# 
# From -- ./inp_files/9077.got.cif
#   From: 2010.03.12/outbox.cif.g09.slc.cpg/sg14_5_cif.got.tgz:9077.got - 2010.03.31 13:35:05.
