data_PCOD8126622
_publ_section_title
;
Structure prediction by ZEFSAII (Michael W. Deem and Ramdas Pophale) SiO2 
 PCOD8126622
Probable space group: P 21/C
;
_chemical_formula_sum "Si O2"
_cell_formula_units_Z 28
_cell_length_a 14.843838
_cell_length_b 7.984520
_cell_length_c 12.637124
_cell_angle_alpha 90.000000
_cell_angle_beta 121.825338
_cell_angle_gamma 90.000000
_cell_volume 1272.589165
_symmetry_space_group_name_H-M "P 21/C"
_symmetry_group_IT_number 14
_symmetry_cell_setting 'monoclinic'
loop_
_space_group_symop_operation_xyz
x,y,z
-x,1/2+y,1/2-z
-x,-y,-z
x,1/2-y,1/2+z
loop_
_atom_site_type_symbol
_atom_site_label
_atom_site_fract_x
_atom_site_fract_y
_atom_site_fract_z
Si Si1 0.390756 0.665468 0.103052
Si Si2 0.870241 0.037856 0.239697
Si Si3 0.206658 0.731868 0.637213
Si Si4 0.754719 0.504067 0.146814
Si Si5 0.928692 0.171943 0.633401
Si Si6 0.518130 0.981399 0.159207
Si Si7 0.666137 0.624165 0.575257
O O1 0.315467 0.757769 0.140464
O O2 0.478279 0.794022 0.119780
O O3 0.446928 0.512083 0.198533
O O4 0.337028 0.608910 0.961270
O O5 0.816153 0.096251 0.314813
O O6 0.932934 0.192911 0.229313
O O7 0.773330 0.973339 0.105150
O O8 0.952674 0.889824 0.315581
O O9 0.212773 0.569258 0.717878
O O10 0.110687 0.725167 0.493514
O O11 0.853549 0.483693 0.125454
O O12 0.707370 0.689638 0.129214
O O13 0.619667 0.983034 0.145132
O O14 0.425207 0.116592 0.071317
#
# Coordination Sequence:
#
# PCOD8126622 Si02
#       7
#     4   4   4   4   4   4   4
#     4  11  23  41  62  93 126 171 216 266 323 375
#     4  11  21  43  64  92 129 166 213 269 325 387
#     4  10  21  41  64  92 127 164 210 269 321 383
#     4  10  23  41  64  94 129 169 213 272 322 392
#     4  10  22  40  69  96 127 171 209 267 328 392
#     4  11  24  39  63  92 127 174 222 265 321 384
#     4  11  23  41  62  91 130 171 218 269 321 382
#
# _framework density 22.002388
#
# number of rings (size 3 to 8) (size 9 to 14) (size 15 to 20)
#    0.000    1.429    1.429    4.714    4.000    0.571 
#    2.571    7.857    0.000    0.000    0.000    0.000 
#    0.000    0.000    0.000    0.000    0.000    0.000 
#
# Total GULP energy -347006.784045 kJ/mol
# GULP energy per Si atom -12393.099430 kJ/mol
# Density = 2.195231 g / cm^3
# Si number density = 22.002388 Si / 1000 Ang^3
#
#
#
# Elastic Constant Matrix: (Units=GPa)
#
#
# Indices 1 2 3 4 5 6 
#
# 1 64.8042 31.6058 25.2849 0.0000 20.1073 0.0000
# 2 31.6058 90.1881 17.5899 0.0000 10.4086 0.0000
# 3 25.2849 17.5899 91.6415 0.0000 5.4650 0.0000
# 4 0.0000 0.0000 0.0000 34.3682 0.0000 8.8891
# 5 20.1073 10.4086 5.4650 0.0000 27.3829 0.0000
# 6 0.0000 0.0000 0.0000 8.8891 0.0000 39.2572
#
#
#
# Elastic Compliance Matrix: (Units=1/GPa)
#
#
# Indices 1 2 3 4 5 6 
#
# 1 0.024936 -0.006062 -0.004819 0.000000 -0.015044 0.000000
# 2 -0.006062 0.013439 -0.000878 0.000000 -0.000481 0.000000
# 3 -0.004819 -0.000878 0.012326 0.000000 0.001413 0.000000
# 4 0.000000 0.000000 0.000000 0.030907 0.000000 -0.006998
# 5 -0.015044 -0.000481 0.001413 0.000000 0.047467 0.000000
# 6 0.000000 0.000000 0.000000 -0.006998 0.000000 0.027058
#
#
# Mechanical properties :
#
#
# Convention : Reuss Voigt Hill
#
# Bulk Modulus (GPa) = 36.78954 43.95499 40.37226
# Shear Modulus (GPa) = 26.49514 31.67856 29.08685
#
# Velocity S-wave (km/s) = 3.47391 3.79856 3.63986
# Velocity P-wave (km/s) = 5.73130 6.26574 6.00447
#
# Compressibility (1/GPa) = 0.02718164
#
# Stress axis : x y z
#
# Youngs Moduli (GPa) = 40.10234 74.40846 81.12860
#
# Poissons Ratio (x) = 0.45110 0.39099
# Poissons Ratio (y) = 0.24312 0.07124
# Poissons Ratio (z) = 0.19327 0.06534
#
# Static dielectric constant tensor:
#      x y z
#    x 3.985670 0.000000 0.146840 
#    y 0.000000 3.719630 0.000000 
#    z 0.146840 0.000000 4.023950 
# 
# 
# High freq. dielectric constant tensor:
#      x y z
#    x 1.868350 0.000000 0.012410 
#    y 0.000000 1.852030 0.000000 
#    z 0.012410 0.000000 1.865920 
# 
# From -- ./inp_files/31674.got.cif
#   From: 2010.03.12/outbox.cif.g09.slc.cpg/sg14_16_cif.got.tgz:31674.got - 2010.03.31 13:35:05.
