data_PCOD8126254
_publ_section_title
;
Structure prediction by ZEFSAII (Michael W. Deem and Ramdas Pophale) SiO2 
 PCOD8126254
Probable space group: P 21/C
;
_chemical_formula_sum "Si O2"
_cell_formula_units_Z 28
_cell_length_a 11.214152
_cell_length_b 13.513103
_cell_length_c 9.148954
_cell_angle_alpha 90.000000
_cell_angle_beta 117.064064
_cell_angle_gamma 90.000000
_cell_volume 1234.599474
_symmetry_space_group_name_H-M "P 21/C"
_symmetry_group_IT_number 14
_symmetry_cell_setting 'monoclinic'
loop_
_space_group_symop_operation_xyz
x,y,z
-x,1/2+y,1/2-z
-x,-y,-z
x,1/2-y,1/2+z
loop_
_atom_site_type_symbol
_atom_site_label
_atom_site_fract_x
_atom_site_fract_y
_atom_site_fract_z
Si Si1 0.108913 0.619479 0.279308
Si Si2 0.771299 0.473687 0.385703
Si Si3 0.743627 0.454822 0.892678
Si Si4 0.811495 0.884146 0.647423
Si Si5 0.285043 0.685900 0.868458
Si Si6 0.541717 0.887396 0.870018
Si Si7 0.571603 0.759894 0.615870
O O1 0.122409 0.551147 0.429884
O O2 0.136655 0.547935 0.157595
O O3 0.217429 0.706948 0.328969
O O4 0.956967 0.659976 0.186566
O O5 0.833911 0.542898 0.296707
O O6 0.733901 0.367472 0.296988
O O7 0.643039 0.526297 0.384865
O O8 0.603978 0.433129 0.734549
O O9 0.743810 0.561273 0.971163
O O10 0.779755 0.373206 0.034204
O O11 0.713667 0.795900 0.633827
O O12 0.444903 0.685595 0.974048
O O13 0.564641 0.786459 0.784915
O O14 0.560670 0.854542 0.052074
#
# Coordination Sequence:
#
# PCOD8126254 Si02
#       7
#     4   4   4   4   4   4   4
#     4  12  22  38  63  92 124 165 213 255 312 381
#     4  10  23  41  65  90 127 166 211 257 314 380
#     4  10  21  39  61  91 123 163 212 256 317 372
#     4  10  23  43  58  91 128 170 199 260 328 373
#     4  10  21  41  65  88 125 168 207 265 313 371
#     4  10  21  40  65  95 123 168 211 266 312 360
#     4  10  21  40  63  89 126 158 218 258 311 368
#
# _framework density 22.67942
#
# number of rings (size 3 to 8) (size 9 to 14) (size 15 to 20)
#    0.000    1.714    1.429    2.571    2.000    5.143 
#   15.429    0.000    0.000    0.000    0.000    0.000 
#    0.000    0.000    0.000    0.000    0.000    0.000 
#
# Total GULP energy -347045.230681 kJ/mol
# GULP energy per Si atom -12394.472524 kJ/mol
# Density = 2.262780 g / cm^3
# Si number density = 22.679420 Si / 1000 Ang^3
#
#
#
# Elastic Constant Matrix: (Units=GPa)
#
#
# Indices 1 2 3 4 5 6 
#
# 1 105.3901 0.8295 29.2228 0.0000 20.3097 0.0000
# 2 0.8295 48.8955 21.9925 0.0000 3.9685 0.0000
# 3 29.2228 21.9925 64.0024 0.0000 5.3057 0.0000
# 4 0.0000 0.0000 0.0000 12.0179 0.0000 -3.4439
# 5 20.3097 3.9685 5.3057 0.0000 26.5045 0.0000
# 6 0.0000 0.0000 0.0000 -3.4439 0.0000 28.7143
#
#
#
# Elastic Compliance Matrix: (Units=1/GPa)
#
#
# Indices 1 2 3 4 5 6 
#
# 1 0.012987 0.003371 -0.006326 0.000000 -0.009190 0.000000
# 2 0.003371 0.025169 -0.009824 0.000000 -0.004385 0.000000
# 3 -0.006326 -0.009824 0.021725 0.000000 0.001970 0.000000
# 4 0.000000 0.000000 0.000000 0.086171 0.000000 0.010335
# 5 -0.009190 -0.004385 0.001970 0.000000 0.045034 0.000000
# 6 0.000000 0.000000 0.000000 0.010335 0.000000 0.036065
#
#
# Mechanical properties :
#
#
# Convention : Reuss Voigt Hill
#
# Bulk Modulus (GPa) = 29.13514 35.81974 32.47744
# Shear Modulus (GPa) = 18.92847 24.53022 21.72935
#
# Velocity S-wave (km/s) = 2.89210 3.29235 3.09869
# Velocity P-wave (km/s) = 4.90170 5.50281 5.21093
#
# Compressibility (1/GPa) = 0.03432282
#
# Stress axis : x y z
#
# Youngs Moduli (GPa) = 76.99878 39.73087 46.02888
#
# Poissons Ratio (x) = -0.13394 0.29119
# Poissons Ratio (y) = -0.25957 0.45220
# Poissons Ratio (z) = 0.48712 0.39033
#
# Static dielectric constant tensor:
#      x y z
#    x 4.059480 0.000000 -0.278050 
#    y 0.000000 3.859060 0.000000 
#    z -0.278050 0.000000 4.219180 
# 
# 
# High freq. dielectric constant tensor:
#      x y z
#    x 1.901700 0.000000 -0.011140 
#    y 0.000000 1.875110 0.000000 
#    z -0.011140 0.000000 1.898140 
# 
# From -- ./inp_files/13144.got.cif
#   From: 2010.03.12/outbox.cif.g09.slc.cpg/sg14_7_cif.got.tgz:13144.got - 2010.03.31 13:35:05.
