data_PCOD8126885
_publ_section_title
;
Structure prediction by ZEFSAII (Michael W. Deem and Ramdas Pophale) SiO2 
 PCOD8126885
Probable space group: P 21/C
;
_chemical_formula_sum "Si O2"
_cell_formula_units_Z 28
_cell_length_a 12.395609
_cell_length_b 8.627409
_cell_length_c 21.390684
_cell_angle_alpha 90.000000
_cell_angle_beta 145.368026
_cell_angle_gamma 90.000000
_cell_volume 1300.028530
_symmetry_space_group_name_H-M "P 21/C"
_symmetry_group_IT_number 14
_symmetry_cell_setting 'monoclinic'
loop_
_space_group_symop_operation_xyz
x,y,z
-x,1/2+y,1/2-z
-x,-y,-z
x,1/2-y,1/2+z
loop_
_atom_site_type_symbol
_atom_site_label
_atom_site_fract_x
_atom_site_fract_y
_atom_site_fract_z
Si Si1 0.626780 0.258528 0.620550
Si Si2 0.649239 0.749971 0.796905
Si Si3 0.085946 0.568612 0.815171
Si Si4 0.024402 0.248972 0.451332
Si Si5 0.829510 0.517106 0.797628
Si Si6 0.645758 0.409549 0.255216
Si Si7 0.797381 0.770628 0.096224
O O1 0.738635 0.403523 0.702494
O O2 0.604167 0.126940 0.663037
O O3 0.422676 0.311490 0.498013
O O4 0.740714 0.184921 0.616643
O O5 0.670849 0.631237 0.749430
O O6 0.482134 0.700968 0.763007
O O7 0.589216 0.914088 0.740218
O O8 0.852597 0.758819 0.927694
O O9 0.154588 0.390990 0.846519
O O10 0.996713 0.609559 0.840868
O O11 0.923213 0.592110 0.685232
O O12 0.916866 0.083597 0.395885
O O13 0.866583 0.383936 0.377389
O O14 0.163180 0.265462 0.458559
#
# Coordination Sequence:
#
# PCOD8126885 Si02
#       7
#     4   4   4   4   4   4   4
#     4  11  22  45  66  92 135 171 212 267 331 375
#     4  12  24  41  67  96 132 166 222 257 322 386
#     4  11  22  44  64  94 130 165 217 266 323 388
#     4  10  21  44  65  91 132 173 209 266 324 368
#     4  10  24  41  65  96 129 173 211 270 316 386
#     4  11  23  40  66  96 127 173 211 268 311 386
#     4  11  23  41  70  90 129 171 213 272 327 380
#
# _framework density 21.537989
#
# number of rings (size 3 to 8) (size 9 to 14) (size 15 to 20)
#    0.000    1.143    5.714    3.000    2.000    0.571 
#    0.000    0.000    0.000    0.000    0.000    0.000 
#    0.000    0.000    0.000    0.000    0.000    0.000 
#
# Total GULP energy -347273.691919 kJ/mol
# GULP energy per Si atom -12402.631854 kJ/mol
# Density = 2.148897 g / cm^3
# Si number density = 21.537989 Si / 1000 Ang^3
#
#
#
# Elastic Constant Matrix: (Units=GPa)
#
#
# Indices 1 2 3 4 5 6 
#
# 1 94.0589 31.7996 13.5082 0.0000 17.2984 0.0000
# 2 31.7996 82.6706 7.7326 0.0000 -1.6723 0.0000
# 3 13.5082 7.7326 65.1094 0.0000 20.5078 0.0000
# 4 0.0000 0.0000 0.0000 11.9160 0.0000 1.9675
# 5 17.2984 -1.6723 20.5078 0.0000 34.1179 0.0000
# 6 0.0000 0.0000 0.0000 1.9675 0.0000 37.8148
#
#
#
# Elastic Compliance Matrix: (Units=1/GPa)
#
#
# Indices 1 2 3 4 5 6 
#
# 1 0.013816 -0.005471 0.000092 0.000000 -0.007328 0.000000
# 2 -0.005471 0.014491 -0.002076 0.000000 0.004732 0.000000
# 3 0.000092 -0.002076 0.019284 0.000000 -0.011740 0.000000
# 4 0.000000 0.000000 0.000000 0.084648 0.000000 -0.004404
# 5 -0.007328 0.004732 -0.011740 0.000000 0.040314 0.000000
# 6 0.000000 0.000000 0.000000 -0.004404 0.000000 0.026674
#
#
# Mechanical properties :
#
#
# Convention : Reuss Voigt Hill
#
# Bulk Modulus (GPa) = 30.60108 38.65775 34.62942
# Shear Modulus (GPa) = 22.21913 29.35632 25.78773
#
# Velocity S-wave (km/s) = 3.21538 3.69589 3.46398
# Velocity P-wave (km/s) = 5.29374 6.01668 5.66675
#
# Compressibility (1/GPa) = 0.03267859
#
# Stress axis : x y z
#
# Youngs Moduli (GPa) = 72.38034 69.01006 51.85632
#
# Poissons Ratio (x) = 0.37756 -0.00475
# Poissons Ratio (y) = 0.39600 0.10768
# Poissons Ratio (z) = -0.00663 0.14329
#
# Static dielectric constant tensor:
#      x y z
#    x 4.014290 0.000000 0.159510 
#    y 0.000000 3.792520 0.000000 
#    z 0.159510 0.000000 3.745390 
# 
# 
# High freq. dielectric constant tensor:
#      x y z
#    x 1.859280 0.000000 0.014330 
#    y 0.000000 1.836400 0.000000 
#    z 0.014330 0.000000 1.832950 
# 
# From -- ./inp_files/67089.got.cif
#   From: 2010.03.12/outbox.cif.g09.slc.cpg/sg14_34_cif.got.tgz:67089.got - 2010.03.31 13:35:05.
