data_PCOD8126788
_publ_section_title
;
Structure prediction by ZEFSAII (Michael W. Deem and Ramdas Pophale) SiO2 
 PCOD8126788
Probable space group: P 21/C
;
_chemical_formula_sum "Si O2"
_cell_formula_units_Z 20
_cell_length_a 13.668809
_cell_length_b 6.529631
_cell_length_c 13.137612
_cell_angle_alpha 90.000000
_cell_angle_beta 45.069300
_cell_angle_gamma 90.000000
_cell_volume 830.128641
_symmetry_space_group_name_H-M "P 21/C"
_symmetry_group_IT_number 14
_symmetry_cell_setting 'monoclinic'
loop_
_space_group_symop_operation_xyz
x,y,z
-x,1/2+y,1/2-z
-x,-y,-z
x,1/2-y,1/2+z
loop_
_atom_site_type_symbol
_atom_site_label
_atom_site_fract_x
_atom_site_fract_y
_atom_site_fract_z
Si Si1 0.398814 0.426577 0.455550
Si Si2 0.640550 0.247538 0.668757
Si Si3 0.847914 0.878666 0.318514
Si Si4 0.610077 0.138635 0.474732
Si Si5 0.062174 0.891533 0.551000
O O1 0.366827 0.519582 0.366908
O O2 0.538186 0.288982 0.340123
O O3 0.268823 0.295124 0.584198
O O4 0.579367 0.382106 0.480824
O O5 0.603904 0.093492 0.601588
O O6 0.794530 0.203107 0.592822
O O7 0.965545 0.796065 0.157708
O O8 0.766950 0.073207 0.326972
O O9 0.919445 0.943478 0.371798
O O10 0.500000 0.000000 0.500000
O O11 0.000000 0.000000 0.500000
#
# Coordination Sequence:
#
# PCOD8126788 Si02
#       5
#     4   4   4   4   4
#     4  10  21  42  67  96 137 179 222 302 347 412
#     4   9  20  40  62  96 136 168 233 282 343 420
#     4  11  24  46  68 100 146 180 240 299 347 438
#     4   9  22  39  66  99 133 178 227 285 362 410
#     4  11  25  45  70 101 139 193 232 291 364 427
#
# _framework density 24.092652999999999
#
# number of rings (size 3 to 8) (size 9 to 14) (size 15 to 20)
#    1.200    0.800    0.000    3.600    2.800    0.800 
#    3.600    4.000    0.000    0.000    0.000    0.000 
#    0.000    0.000    0.000    0.000    0.000    0.000 
#
# Total GULP energy -247826.831988 kJ/mol
# GULP energy per Si atom -12391.341599 kJ/mol
# Density = 2.403782 g / cm^3
# Si number density = 24.092653 Si / 1000 Ang^3
#
#
#
# Elastic Constant Matrix: (Units=GPa)
#
#
# Indices 1 2 3 4 5 6 
#
# 1 99.1505 25.3353 53.1822 0.0000 -25.3176 0.0000
# 2 25.3353 112.9348 39.0000 0.0000 -19.7455 0.0000
# 3 53.1822 39.0000 92.4475 0.0000 -21.1169 0.0000
# 4 0.0000 0.0000 0.0000 46.6309 0.0000 -12.8874
# 5 -25.3176 -19.7455 -21.1169 0.0000 37.3432 0.0000
# 6 0.0000 0.0000 0.0000 -12.8874 0.0000 48.2533
#
#
#
# Elastic Compliance Matrix: (Units=1/GPa)
#
#
# Indices 1 2 3 4 5 6 
#
# 1 0.015823 0.000254 -0.007727 0.000000 0.006493 0.000000
# 2 0.000254 0.010772 -0.003847 0.000000 0.003692 0.000000
# 3 -0.007727 -0.003847 0.017481 0.000000 0.002613 0.000000
# 4 0.000000 0.000000 0.000000 0.023154 0.000000 0.006184
# 5 0.006493 0.003692 0.002613 0.000000 0.034610 0.000000
# 6 0.000000 0.000000 0.000000 0.006184 0.000000 0.022376
#
#
# Mechanical properties :
#
#
# Convention : Reuss Voigt Hill
#
# Bulk Modulus (GPa) = 46.64797 59.95200 53.29998
# Shear Modulus (GPa) = 32.46733 38.91317 35.69025
#
# Velocity S-wave (km/s) = 3.67495 4.02325 3.85304
# Velocity P-wave (km/s) = 6.11645 6.82056 6.47808
#
# Compressibility (1/GPa) = 0.02143716
#
# Stress axis : x y z
#
# Youngs Moduli (GPa) = 63.19904 92.83572 57.20353
#
# Poissons Ratio (x) = -0.02355 0.44198
# Poissons Ratio (y) = -0.01603 0.22004
# Poissons Ratio (z) = 0.48831 0.35711
#
# Static dielectric constant tensor:
#      x y z
#    x 3.975450 0.000000 -0.694020 
#    y 0.000000 5.435050 0.000000 
#    z -0.694020 0.000000 3.471980 
# 
# 
# High freq. dielectric constant tensor:
#      x y z
#    x 1.968970 0.000000 -0.003280 
#    y 0.000000 1.960930 0.000000 
#    z -0.003280 0.000000 1.949000 
# 
# From -- ./inp_files/27710.got.cif
#   From: 2010.03.12/outbox.cif.g09.slc.cpg/sg14_14_cif.got.tgz:27710.got - 2010.03.31 13:35:05.
