data_PCOD8126327
_publ_section_title
;
Structure prediction by ZEFSAII (Michael W. Deem and Ramdas Pophale) SiO2 
 PCOD8126327
Probable space group: P 21/C
;
_chemical_formula_sum "Si O2"
_cell_formula_units_Z 28
_cell_length_a 11.194254
_cell_length_b 10.361879
_cell_length_c 19.084151
_cell_angle_alpha 90.000000
_cell_angle_beta 145.171276
_cell_angle_gamma 90.000000
_cell_volume 1264.264116
_symmetry_space_group_name_H-M "P 21/C"
_symmetry_group_IT_number 14
_symmetry_cell_setting 'monoclinic'
loop_
_space_group_symop_operation_xyz
x,y,z
-x,1/2+y,1/2-z
-x,-y,-z
x,1/2-y,1/2+z
loop_
_atom_site_type_symbol
_atom_site_label
_atom_site_fract_x
_atom_site_fract_y
_atom_site_fract_z
Si Si1 0.447803 0.799163 0.089228
Si Si2 0.004027 0.574333 0.195117
Si Si3 0.830853 0.578978 0.847116
Si Si4 0.780370 0.329680 0.898287
Si Si5 0.210205 0.677110 0.732809
Si Si6 0.417525 0.204703 0.494497
Si Si7 0.815296 0.960843 0.080825
O O1 0.674277 0.834189 0.227851
O O2 0.348420 0.695765 0.093652
O O3 0.469293 0.733218 0.024266
O O4 0.301918 0.925207 0.016127
O O5 0.769030 0.602725 0.107714
O O6 0.001858 0.487868 0.124513
O O7 0.120267 0.707218 0.236109
O O8 0.138280 0.499281 0.317237
O O9 0.709223 0.468396 0.832552
O O10 0.969742 0.667249 0.965679
O O11 0.737613 0.216953 0.821555
O O12 0.035526 0.564658 0.647400
O O13 0.422249 0.635511 0.874583
O O14 0.334852 0.336341 0.490561
#
# Coordination Sequence:
#
# PCOD8126327 Si02
#       7
#     4   4   4   4   4   4   4
#     4  12  24  40  71  96 125 172 223 266 324 396
#     4  10  21  39  65  92 126 167 217 268 328 385
#     4  10  23  46  65  89 133 175 212 268 330 388
#     4  10  25  43  64  93 131 175 214 263 331 393
#     4  10  23  42  62  95 134 168 215 271 324 392
#     4  11  23  40  67  98 128 167 219 273 329 387
#     4  11  22  39  67  97 127 170 217 273 329 376
#
# _framework density 22.147272999999998
#
# number of rings (size 3 to 8) (size 9 to 14) (size 15 to 20)
#    0.000    1.429    2.857    2.143    4.000    6.857 
#    2.571    0.000    0.000    0.000    0.000    0.000 
#    0.000    0.000    0.000    0.000    0.000    0.000 
#
# Total GULP energy -347305.170930 kJ/mol
# GULP energy per Si atom -12403.756105 kJ/mol
# Density = 2.209686 g / cm^3
# Si number density = 22.147273 Si / 1000 Ang^3
#
#
#
# Elastic Constant Matrix: (Units=GPa)
#
#
# Indices 1 2 3 4 5 6 
#
# 1 92.3374 26.3842 23.9054 0.0000 0.1764 0.0000
# 2 26.3842 43.0370 14.2789 0.0000 2.2808 0.0000
# 3 23.9054 14.2789 111.1043 0.0000 -5.8238 0.0000
# 4 0.0000 0.0000 0.0000 31.8814 0.0000 1.8303
# 5 0.1764 2.2808 -5.8238 0.0000 33.1145 0.0000
# 6 0.0000 0.0000 0.0000 1.8303 0.0000 19.4951
#
#
#
# Elastic Compliance Matrix: (Units=1/GPa)
#
#
# Indices 1 2 3 4 5 6 
#
# 1 0.013513 -0.007654 -0.001918 0.000000 0.000118 0.000000
# 2 -0.007654 0.028772 -0.002173 0.000000 -0.002323 0.000000
# 3 -0.001918 -0.002173 0.009791 0.000000 0.001882 0.000000
# 4 0.000000 0.000000 0.000000 0.031536 0.000000 -0.002961
# 5 0.000118 -0.002323 0.001882 0.000000 0.030689 0.000000
# 6 0.000000 0.000000 0.000000 -0.002961 0.000000 0.051573
#
#
# Mechanical properties :
#
#
# Convention : Reuss Voigt Hill
#
# Bulk Modulus (GPa) = 34.98054 41.73509 38.35782
# Shear Modulus (GPa) = 25.13919 29.02556 27.08237
#
# Velocity S-wave (km/s) = 3.37277 3.62411 3.50069
# Velocity P-wave (km/s) = 5.56742 6.03303 5.80490
#
# Compressibility (1/GPa) = 0.02858732
#
# Stress axis : x y z
#
# Youngs Moduli (GPa) = 74.00160 34.75561 102.13457
#
# Poissons Ratio (x) = 0.26603 0.19585
# Poissons Ratio (y) = 0.56644 0.22190
# Poissons Ratio (z) = 0.14191 0.07551
#
# Static dielectric constant tensor:
#      x y z
#    x 3.892660 0.000000 0.001730 
#    y 0.000000 3.890230 0.000000 
#    z 0.001730 0.000000 4.042420 
# 
# 
# High freq. dielectric constant tensor:
#      x y z
#    x 1.865600 0.000000 -0.006250 
#    y 0.000000 1.855250 0.000000 
#    z -0.006250 0.000000 1.883530 
# 
# From -- ./inp_files/67369.got.cif
#   From: 2010.03.12/outbox.cif.g09.slc.cpg/sg14_34_cif.got.tgz:67369.got - 2010.03.31 13:35:05.
