data_PCOD8126853
_publ_section_title
;
Structure prediction by ZEFSAII (Michael W. Deem and Ramdas Pophale) SiO2 
 PCOD8126853
Probable space group: P 21/C
;
_chemical_formula_sum "Si O2"
_cell_formula_units_Z 28
_cell_length_a 13.087138
_cell_length_b 9.232117
_cell_length_c 19.043260
_cell_angle_alpha 90.000000
_cell_angle_beta 146.344336
_cell_angle_gamma 90.000000
_cell_volume 1275.129174
_symmetry_space_group_name_H-M "P 21/C"
_symmetry_group_IT_number 14
_symmetry_cell_setting 'monoclinic'
loop_
_space_group_symop_operation_xyz
x,y,z
-x,1/2+y,1/2-z
-x,-y,-z
x,1/2-y,1/2+z
loop_
_atom_site_type_symbol
_atom_site_label
_atom_site_fract_x
_atom_site_fract_y
_atom_site_fract_z
Si Si1 0.593296 0.845570 0.250468
Si Si2 0.087813 0.349384 0.332196
Si Si3 0.763265 0.329414 0.257038
Si Si4 0.517597 0.465736 0.844482
Si Si5 0.494956 0.434152 0.574251
Si Si6 0.028937 0.152483 0.481567
Si Si7 0.120094 0.452630 0.881344
O O1 0.472679 0.702205 0.171570
O O2 0.797872 0.779124 0.379034
O O3 0.542410 0.933961 0.290857
O O4 0.583190 0.950519 0.178041
O O5 0.281866 0.407351 0.474950
O O6 0.120624 0.182571 0.327381
O O7 0.916963 0.372512 0.287750
O O8 0.033106 0.432001 0.229541
O O9 0.666723 0.480848 0.222063
O O10 0.611594 0.214756 0.141838
O O11 0.856005 0.262889 0.381929
O O12 0.680884 0.477247 0.994791
O O13 0.500000 0.500000 0.500000
O O14 0.058177 0.126197 0.416398
O O15 0.000000 0.000000 0.500000
#
# Coordination Sequence:
#
# PCOD8126853 Si02
#       7
#     4   4   4   4   4   4   4
#     4  11  26  43  70  99 137 186 238 288 352 419
#     4  11  25  45  68 103 142 179 237 284 350 421
#     4  11  24  45  69  99 144 181 228 299 348 411
#     4  11  25  46  69 101 140 183 239 294 353 413
#     4  12  25  46  72 101 142 190 231 287 357 420
#     4  10  21  43  67  97 133 177 235 284 345 415
#     4  10  24  43  68  97 140 181 228 291 345 413
#
# _framework density 21.958561
#
# number of rings (size 3 to 8) (size 9 to 14) (size 15 to 20)
#    0.000    1.143    2.857    2.571   10.000    2.286 
#    0.000    0.000    0.000    0.000    0.000    0.000 
#    0.000    0.000    0.000    0.000    0.000    0.000 
#
# Total GULP energy -347042.262875 kJ/mol
# GULP energy per Si atom -12394.366531 kJ/mol
# Density = 2.190858 g / cm^3
# Si number density = 21.958561 Si / 1000 Ang^3
#
#
#
# Elastic Constant Matrix: (Units=GPa)
#
#
# Indices 1 2 3 4 5 6 
#
# 1 58.2867 15.0318 35.1824 0.0000 11.3958 0.0000
# 2 15.0318 106.7413 37.8074 0.0000 -8.3653 0.0000
# 3 35.1824 37.8074 144.9242 0.0000 1.3782 0.0000
# 4 0.0000 0.0000 0.0000 36.7961 0.0000 6.6751
# 5 11.3958 -8.3653 1.3782 0.0000 30.1889 0.0000
# 6 0.0000 0.0000 0.0000 6.6751 0.0000 26.3745
#
#
#
# Elastic Compliance Matrix: (Units=1/GPa)
#
#
# Indices 1 2 3 4 5 6 
#
# 1 0.022310 -0.002140 -0.004774 0.000000 -0.008797 0.000000
# 2 -0.002140 0.010804 -0.002336 0.000000 0.003908 0.000000
# 3 -0.004774 -0.002336 0.008661 0.000000 0.000759 0.000000
# 4 0.000000 0.000000 0.000000 0.028485 0.000000 -0.007209
# 5 -0.008797 0.003908 0.000759 0.000000 0.037494 0.000000
# 6 0.000000 0.000000 0.000000 -0.007209 0.000000 0.039740
#
#
# Mechanical properties :
#
#
# Convention : Reuss Voigt Hill
#
# Bulk Modulus (GPa) = 42.96582 53.99947 48.48265
# Shear Modulus (GPa) = 28.77666 33.46727 31.12196
#
# Velocity S-wave (km/s) = 3.62401 3.90822 3.76879
# Velocity P-wave (km/s) = 6.09266 6.70899 6.40824
#
# Compressibility (1/GPa) = 0.02327431
#
# Stress axis : x y z
#
# Youngs Moduli (GPa) = 44.82268 92.56239 115.45576
#
# Poissons Ratio (x) = 0.19811 0.55120
# Poissons Ratio (y) = 0.09593 0.26970
# Poissons Ratio (z) = 0.21399 0.21622
#
# Static dielectric constant tensor:
#      x y z
#    x 3.682760 0.000000 0.264440 
#    y 0.000000 4.399000 0.000000 
#    z 0.264440 0.000000 4.619080 
# 
# 
# High freq. dielectric constant tensor:
#      x y z
#    x 1.844580 0.000000 0.009200 
#    y 0.000000 1.867330 0.000000 
#    z 0.009200 0.000000 1.886740 
# 
# From -- ./inp_files/68311.got.cif
#   From: 2010.03.12/outbox.cif.g09.slc.cpg/sg14_35_cif.got.tgz:68311.got - 2010.03.31 13:35:05.
