data_PCOD8126478
_publ_section_title
;
Structure prediction by ZEFSAII (Michael W. Deem and Ramdas Pophale) SiO2 
 PCOD8126478
Probable space group: P 21/C
;
_chemical_formula_sum "Si O2"
_cell_formula_units_Z 32
_cell_length_a 27.705781
_cell_length_b 12.325075
_cell_length_c 15.828705
_cell_angle_alpha 90.000000
_cell_angle_beta 162.609023
_cell_angle_gamma 90.000000
_cell_volume 1615.539141
_symmetry_space_group_name_H-M "P 21/C"
_symmetry_group_IT_number 14
_symmetry_cell_setting 'monoclinic'
loop_
_space_group_symop_operation_xyz
x,y,z
-x,1/2+y,1/2-z
-x,-y,-z
x,1/2-y,1/2+z
loop_
_atom_site_type_symbol
_atom_site_label
_atom_site_fract_x
_atom_site_fract_y
_atom_site_fract_z
Si Si1 0.734855 0.172717 0.239697
Si Si2 0.114290 0.107425 0.022800
Si Si3 0.859890 0.216957 0.116580
Si Si4 0.660170 0.223676 0.437976
Si Si5 0.670240 0.719523 0.689052
Si Si6 0.808738 0.509403 0.186008
Si Si7 0.072527 0.034447 0.411151
Si Si8 0.563242 0.898937 0.159655
O O1 0.790076 0.253806 0.406935
O O2 0.862246 0.075456 0.436686
O O3 0.725961 0.233577 0.136396
O O4 0.561694 0.123990 0.974157
O O5 0.986989 0.189357 0.853593
O O6 0.219715 0.172631 0.129221
O O7 0.022263 0.003807 0.830904
O O8 0.233367 0.064104 0.294459
O O9 0.946820 0.099601 0.259920
O O10 0.728037 0.209053 0.970739
O O11 0.715528 0.101697 0.520869
O O12 0.465069 0.226944 0.110276
O O13 0.579471 0.707478 0.627323
O O14 0.777740 0.611493 0.860537
O O15 0.000000 0.500000 0.500000
O O16 0.739477 0.581948 0.994241
O O17 0.500000 0.000000 0.000000
#
# Coordination Sequence:
#
# PCOD8126478 Si02
#       8
#     4   4   4   4   4   4   4   4
#     4  11  22  38  64  93 121 173 214 256 322 383
#     4  10  22  40  60  96 126 163 217 264 317 380
#     4  10  21  41  61  91 132 163 211 274 317 375
#     4  12  23  39  64  95 129 165 217 263 315 383
#     4  11  22  39  66  90 127 166 208 268 320 375
#     4  12  22  36  64  95 123 161 213 267 309 375
#     4  10  21  40  65  88 127 172 207 264 330 380
#     4  12  21  40  66  91 125 168 213 262 324 372
#
# _framework density 19.807628999999999
#
# number of rings (size 3 to 8) (size 9 to 14) (size 15 to 20)
#    0.000    1.000    5.000    2.250    0.000    2.500 
#    0.000    0.625    5.500    0.000    0.000    0.000 
#    0.000    0.000    0.000    0.000    0.000    0.000 
#
# Total GULP energy -396745.142736 kJ/mol
# GULP energy per Si atom -12398.285711 kJ/mol
# Density = 1.976255 g / cm^3
# Si number density = 19.807629 Si / 1000 Ang^3
#
#
#
# Elastic Constant Matrix: (Units=GPa)
#
#
# Indices 1 2 3 4 5 6 
#
# 1 99.5873 32.7227 34.4039 0.0000 -8.6107 0.0000
# 2 32.7227 50.1402 21.7287 0.0000 1.8472 0.0000
# 3 34.4039 21.7287 117.2753 0.0000 -8.0416 0.0000
# 4 0.0000 0.0000 0.0000 35.5043 0.0000 0.8438
# 5 -8.6107 1.8472 -8.0416 0.0000 34.8994 0.0000
# 6 0.0000 0.0000 0.0000 0.8438 0.0000 29.7602
#
#
#
# Elastic Compliance Matrix: (Units=1/GPa)
#
#
# Indices 1 2 3 4 5 6 
#
# 1 0.013795 -0.008121 -0.002316 0.000000 0.003300 0.000000
# 2 -0.008121 0.026620 -0.002828 0.000000 -0.004064 0.000000
# 3 -0.002316 -0.002828 0.009857 0.000000 0.001850 0.000000
# 4 0.000000 0.000000 0.000000 0.028185 0.000000 -0.000799
# 5 0.003300 -0.004064 0.001850 0.000000 0.030109 0.000000
# 6 0.000000 0.000000 0.000000 -0.000799 0.000000 0.033625
#
#
# Mechanical properties :
#
#
# Convention : Reuss Voigt Hill
#
# Bulk Modulus (GPa) = 42.12095 49.41260 45.76678
# Shear Modulus (GPa) = 28.30692 31.90926 30.10809
#
# Velocity S-wave (km/s) = 3.78443 4.01803 3.90298
# Velocity P-wave (km/s) = 6.35666 6.82103 6.59293
#
# Compressibility (1/GPa) = 0.02374115
#
# Stress axis : x y z
#
# Youngs Moduli (GPa) = 72.48837 37.56642 101.44811
#
# Poissons Ratio (x) = 0.30508 0.23496
# Poissons Ratio (y) = 0.58868 0.28693
# Poissons Ratio (z) = 0.16789 0.10625
#
# Static dielectric constant tensor:
#      x y z
#    x 3.594220 0.000000 0.026460 
#    y 0.000000 3.599060 0.000000 
#    z 0.026460 0.000000 3.931840 
# 
# 
# High freq. dielectric constant tensor:
#      x y z
#    x 1.757370 0.000000 -0.000380 
#    y 0.000000 1.762390 0.000000 
#    z -0.000380 0.000000 1.790380 
# 
# From -- ./inp_files/52027.got.cif
#   From: 2010.03.12/outbox.cif.g09.slc.cpg/sg14_27_cif.got.tgz:52027.got - 2010.03.31 13:35:05.
