data_PCOD8126581
_publ_section_title
;
Structure prediction by ZEFSAII (Michael W. Deem and Ramdas Pophale) SiO2 
 PCOD8126581
Probable space group: P 21/C
;
_chemical_formula_sum "Si O2"
_cell_formula_units_Z 24
_cell_length_a 10.480051
_cell_length_b 11.726572
_cell_length_c 13.666342
_cell_angle_alpha 90.000000
_cell_angle_beta 135.913523
_cell_angle_gamma 90.000000
_cell_volume 1168.519000
_symmetry_space_group_name_H-M "P 21/C"
_symmetry_group_IT_number 14
_symmetry_cell_setting 'monoclinic'
loop_
_space_group_symop_operation_xyz
x,y,z
-x,1/2+y,1/2-z
-x,-y,-z
x,1/2-y,1/2+z
loop_
_atom_site_type_symbol
_atom_site_label
_atom_site_fract_x
_atom_site_fract_y
_atom_site_fract_z
Si Si1 0.226836 0.755867 0.016571
Si Si2 0.046349 0.093880 0.893268
Si Si3 0.266429 0.738948 0.264237
Si Si4 0.482170 0.628159 0.027538
Si Si5 0.303792 0.544374 0.417201
Si Si6 0.854453 0.638024 0.340938
O O1 0.295077 0.750122 0.165294
O O2 0.306126 0.644958 0.003483
O O3 0.311863 0.869652 0.014404
O O4 0.005141 0.766027 0.893342
O O5 0.910714 0.195659 0.790569
O O6 0.177317 0.063969 0.874243
O O7 0.168030 0.132218 0.053905
O O8 0.917261 0.986442 0.843068
O O9 0.450161 0.790067 0.416264
O O10 0.231441 0.609342 0.280212
O O11 0.663496 0.669410 0.184496
O O12 0.500000 0.500000 0.000000
O O13 0.500000 0.500000 0.500000
#
# Coordination Sequence:
#
# PCOD8126581 Si02
#       6
#     4   4   4   4   4   4
#     4   9  22  41  58  92 131 159 211 257 305 386
#     4   9  18  38  63  86 121 167 205 252 317 376
#     4  10  21  41  62  91 124 161 213 258 307 369
#     4  11  21  36  63 100 118 163 214 258 308 371
#     4  10  22  38  60  96 124 164 206 255 313 376
#     4   9  18  37  64  86 123 166 204 254 319 362
#
# _framework density 20.538819
#
# number of rings (size 3 to 8) (size 9 to 14) (size 15 to 20)
#    0.000    2.333    1.667    1.000    2.333    0.000 
#   18.000    0.000    0.000    4.000    0.000    0.000 
#    0.000    0.000    0.000    0.000    0.000    0.000 
#
# Total GULP energy -297450.883695 kJ/mol
# GULP energy per Si atom -12393.786821 kJ/mol
# Density = 2.049207 g / cm^3
# Si number density = 20.538819 Si / 1000 Ang^3
#
#
#
# Elastic Constant Matrix: (Units=GPa)
#
#
# Indices 1 2 3 4 5 6 
#
# 1 107.3829 47.3711 36.1058 0.0000 -1.3006 0.0000
# 2 47.3711 72.6293 25.1491 0.0000 9.0000 0.0000
# 3 36.1058 25.1491 127.3132 0.0000 2.6047 0.0000
# 4 0.0000 0.0000 0.0000 26.1753 0.0000 4.8607
# 5 -1.3006 9.0000 2.6047 0.0000 33.5258 0.0000
# 6 0.0000 0.0000 0.0000 4.8607 0.0000 44.0141
#
#
#
# Elastic Compliance Matrix: (Units=1/GPa)
#
#
# Indices 1 2 3 4 5 6 
#
# 1 0.013954 -0.008681 -0.002305 0.000000 0.003051 0.000000
# 2 -0.008681 0.020666 -0.001502 0.000000 -0.005768 0.000000
# 3 -0.002305 -0.001502 0.008813 0.000000 -0.000371 0.000000
# 4 0.000000 0.000000 0.000000 0.039004 0.000000 -0.004307
# 5 0.003051 -0.005768 -0.000371 0.000000 0.031523 0.000000
# 6 0.000000 0.000000 0.000000 -0.004307 0.000000 0.023196
#
#
# Mechanical properties :
#
#
# Convention : Reuss Voigt Hill
#
# Bulk Modulus (GPa) = 54.18415 58.28637 56.23526
# Shear Modulus (GPa) = 29.71173 33.98966 31.85069
#
# Velocity S-wave (km/s) = 3.80756 4.07246 3.94224
# Velocity P-wave (km/s) = 6.76525 7.11010 6.93982
#
# Compressibility (1/GPa) = 0.01845558
#
# Stress axis : x y z
#
# Youngs Moduli (GPa) = 71.66375 48.38961 113.47328
#
# Poissons Ratio (x) = 0.42008 0.26154
# Poissons Ratio (y) = 0.62213 0.17047
# Poissons Ratio (z) = 0.16518 0.07269
#
# Static dielectric constant tensor:
#      x y z
#    x 3.845870 0.000000 -0.068390 
#    y 0.000000 3.260480 0.000000 
#    z -0.068390 0.000000 3.962620 
# 
# 
# High freq. dielectric constant tensor:
#      x y z
#    x 1.800940 0.000000 -0.007260 
#    y 0.000000 1.785090 0.000000 
#    z -0.007260 0.000000 1.803760 
# 
# From -- ./inp_files/44487.got.cif
#   From: 2010.03.12/outbox.cif.g09.slc.cpg/sg14_23_cif.got.tgz:44487.got - 2010.03.31 13:35:05.
