data_PCOD8126379
_publ_section_title
;
Structure prediction by ZEFSAII (Michael W. Deem and Ramdas Pophale) SiO2 
 PCOD8126379
Probable space group: P 21/C
;
_chemical_formula_sum "Si O2"
_cell_formula_units_Z 16
_cell_length_a 13.305385
_cell_length_b 7.506815
_cell_length_c 13.049993
_cell_angle_alpha 90.000000
_cell_angle_beta 139.503006
_cell_angle_gamma 90.000000
_cell_volume 846.469227
_symmetry_space_group_name_H-M "P 21/C"
_symmetry_group_IT_number 14
_symmetry_cell_setting 'monoclinic'
loop_
_space_group_symop_operation_xyz
x,y,z
-x,1/2+y,1/2-z
-x,-y,-z
x,1/2-y,1/2+z
loop_
_atom_site_type_symbol
_atom_site_label
_atom_site_fract_x
_atom_site_fract_y
_atom_site_fract_z
Si Si1 0.127810 0.330973 0.004471
Si Si2 0.687680 0.523423 0.442326
Si Si3 0.803569 0.028632 0.251238
Si Si4 0.656671 0.138762 0.332184
O O1 0.181526 0.134453 0.015616
O O2 0.136529 0.358059 0.135339
O O3 0.239851 0.479432 0.038350
O O4 0.951780 0.356202 0.830083
O O5 0.709363 0.540452 0.580943
O O6 0.706473 0.320164 0.424300
O O7 0.521844 0.600884 0.282856
O O8 0.690270 0.148037 0.235517
#
# Coordination Sequence:
#
# PCOD8126379 Si02
#       4
#     4   4   4   4
#     4   9  22  41  55  89 120 149 204 237 281 363
#     4  12  21  39  66  81 123 160 186 246 298 333
#     4   9  22  41  58  87 123 148 198 247 281 352
#     4  10  21  40  56  90 117 152 202 236 281 358
#
# _framework density 18.902045999999999
#
# number of rings (size 3 to 8) (size 9 to 14) (size 15 to 20)
#    1.500    0.500    2.500    0.750    3.500    1.000 
#    4.500    2.500    0.000    0.000    0.000    0.000 
#    0.000    0.000    0.000    0.000    0.000    0.000 
#
# Total GULP energy -198324.798525 kJ/mol
# GULP energy per Si atom -12395.299908 kJ/mol
# Density = 1.885902 g / cm^3
# Si number density = 18.902046 Si / 1000 Ang^3
#
#
#
# Elastic Constant Matrix: (Units=GPa)
#
#
# Indices 1 2 3 4 5 6 
#
# 1 52.5621 0.0757 12.5200 0.0000 4.9284 0.0000
# 2 0.0757 72.5475 15.9689 0.0000 -6.4872 0.0000
# 3 12.5200 15.9689 41.1940 0.0000 -5.9849 0.0000
# 4 0.0000 0.0000 0.0000 20.4521 0.0000 6.4419
# 5 4.9284 -6.4872 -5.9849 0.0000 36.5123 0.0000
# 6 0.0000 0.0000 0.0000 6.4419 0.0000 35.1893
#
#
#
# Elastic Compliance Matrix: (Units=1/GPa)
#
#
# Indices 1 2 3 4 5 6 
#
# 1 0.021169 0.001282 -0.007491 0.000000 -0.003858 0.000000
# 2 0.001282 0.015259 -0.006081 0.000000 0.001541 0.000000
# 3 -0.007491 -0.006081 0.029604 0.000000 0.004783 0.000000
# 4 0.000000 0.000000 0.000000 0.051886 0.000000 -0.009499
# 5 -0.003858 0.001541 0.004783 0.000000 0.028967 0.000000
# 6 0.000000 0.000000 0.000000 -0.009499 0.000000 0.030157
#
#
# Mechanical properties :
#
#
# Convention : Reuss Voigt Hill
#
# Bulk Modulus (GPa) = 24.12412 24.82585 24.47499
# Shear Modulus (GPa) = 23.20826 27.61336 25.41081
#
# Velocity S-wave (km/s) = 3.50782 3.82627 3.67050
# Velocity P-wave (km/s) = 5.40341 5.71690 5.56237
#
# Compressibility (1/GPa) = 0.04145229
#
# Stress axis : x y z
#
# Youngs Moduli (GPa) = 47.23803 65.53484 33.77874
#
# Poissons Ratio (x) = -0.08401 0.25305
# Poissons Ratio (y) = -0.06056 0.20540
# Poissons Ratio (z) = 0.35388 0.39851
#
# Static dielectric constant tensor:
#      x y z
#    x 3.359820 0.000000 0.164180 
#    y 0.000000 3.175300 0.000000 
#    z 0.164180 0.000000 3.233830 
# 
# 
# High freq. dielectric constant tensor:
#      x y z
#    x 1.731940 0.000000 0.019600 
#    y 0.000000 1.714350 0.000000 
#    z 0.019600 0.000000 1.728080 
# 
# From -- ./inp_files/22778.got.cif
#   From: 2010.03.12/outbox.cif.g09.slc.cpg/sg14_12_cif.got.tgz:22778.got - 2010.03.31 13:35:05.
