data_PCOD8126916
_publ_section_title
;
Structure prediction by ZEFSAII (Michael W. Deem and Ramdas Pophale) SiO2 
 PCOD8126916
Probable space group: P 21/C
;
_chemical_formula_sum "Si O2"
_cell_formula_units_Z 32
_cell_length_a 6.323741
_cell_length_b 19.066463
_cell_length_c 12.450849
_cell_angle_alpha 90.000000
_cell_angle_beta 75.842646
_cell_angle_gamma 90.000000
_cell_volume 1455.620537
_symmetry_space_group_name_H-M "P 21/C"
_symmetry_group_IT_number 14
_symmetry_cell_setting 'monoclinic'
loop_
_space_group_symop_operation_xyz
x,y,z
-x,1/2+y,1/2-z
-x,-y,-z
x,1/2-y,1/2+z
loop_
_atom_site_type_symbol
_atom_site_label
_atom_site_fract_x
_atom_site_fract_y
_atom_site_fract_z
Si Si1 0.779477 0.456334 0.524683
Si Si2 0.846082 0.031207 0.430062
Si Si3 0.832749 0.319188 0.633073
Si Si4 0.047481 0.821795 0.642474
Si Si5 0.559290 0.284462 0.050214
Si Si6 0.514817 0.077533 0.863188
Si Si7 0.760133 0.715031 0.566838
Si Si8 0.463225 0.072206 0.630848
O O1 0.781633 0.400524 0.620739
O O2 0.589840 0.509085 0.574563
O O3 0.726534 0.414423 0.417033
O O4 0.000000 0.500000 0.500000
O O5 0.626390 0.056973 0.513736
O O6 0.986612 0.093224 0.354450
O O7 0.762002 0.972466 0.354111
O O8 0.000000 0.000000 0.500000
O O9 0.618047 0.275101 0.629079
O O10 0.866456 0.300463 0.752350
O O11 0.046628 0.301855 0.538460
O O12 0.840076 0.770596 0.647906
O O13 0.212887 0.811425 0.524594
O O14 0.414925 0.344551 0.125641
O O15 0.432341 0.253929 0.967179
O O16 0.344400 0.142378 0.877709
O O17 0.579600 0.060032 0.732048
#
# Coordination Sequence:
#
# PCOD8126916 Si02
#       8
#     4   4   4   4   4   4   4   4
#     4  11  23  44  61  91 132 163 214 266 312 383
#     4  10  21  45  63  96 127 164 217 268 313 391
#     4  11  23  40  63  91 129 169 211 265 323 379
#     4  10  24  40  64  93 126 167 211 261 324 379
#     4  10  23  42  60  92 130 163 211 271 310 387
#     4  11  24  40  65  94 125 172 212 263 324 378
#     4  11  23  41  60  96 127 164 216 259 316 386
#     4  10  23  39  67  94 125 169 214 262 325 376
#
# _framework density 21.983749
#
# number of rings (size 3 to 8) (size 9 to 14) (size 15 to 20)
#    0.000    1.500    2.500    1.500    3.500    2.000 
#    0.000    0.000    0.000    0.000    0.000    0.000 
#    0.000    0.000    0.000    0.000    0.000    0.000 
#
# Total GULP energy -396499.610160 kJ/mol
# GULP energy per Si atom -12390.612817 kJ/mol
# Density = 2.193371 g / cm^3
# Si number density = 21.983749 Si / 1000 Ang^3
#
#
#
# Elastic Constant Matrix: (Units=GPa)
#
#
# Indices 1 2 3 4 5 6 
#
# 1 -44.4271 -24.6824 -3.5202 0.0000 -42.2178 0.0000
# 2 -24.6824 108.7825 20.0417 0.0000 -22.4926 0.0000
# 3 -3.5202 20.0417 95.1526 0.0000 22.9830 0.0000
# 4 0.0000 0.0000 0.0000 17.4842 0.0000 22.6086
# 5 -42.2178 -22.4926 22.9830 0.0000 -5.4576 0.0000
# 6 0.0000 0.0000 0.0000 22.6086 0.0000 30.7218
#
#
#
# Elastic Compliance Matrix: (Units=1/GPa)
#
#
# Indices 1 2 3 4 5 6 
#
# 1 0.013350 -0.006099 0.010238 0.000000 -0.035024 0.000000
# 2 -0.006099 0.008586 -0.002421 0.000000 0.001600 0.000000
# 3 0.010238 -0.002421 0.013939 0.000000 -0.010521 0.000000
# 4 0.000000 0.000000 0.000000 1.181679 0.000000 -0.869613
# 5 -0.035024 0.001600 -0.010521 0.000000 0.036798 0.000000
# 6 0.000000 0.000000 0.000000 -0.869613 0.000000 0.672510
#
#
# Mechanical properties :
#
#
# Convention : Reuss Voigt Hill
#
# Bulk Modulus (GPa) = 25.43705 15.90958 20.67331
# Shear Modulus (GPa) = 2.58194 19.72761 11.15478
#
# Velocity S-wave (km/s) = 1.08491 2.99887 2.25502
# Velocity P-wave (km/s) = 3.62841 4.38676 4.02548
#
# Compressibility (1/GPa) = 0.03931274
#
# Stress axis : x y z
#
# Youngs Moduli (GPa) = 74.90412 116.47313 71.74000
#
# Poissons Ratio (x) = 0.71035 -0.73448
# Poissons Ratio (y) = 0.45683 0.17365
# Poissons Ratio (z) = -0.76687 0.28192
#
# Static dielectric constant tensor:
#      x y z
#    x 3.864650 0.000000 0.093250 
#    y 0.000000 4.543470 0.000000 
#    z 0.093250 0.000000 3.636350 
# 
# 
# High freq. dielectric constant tensor:
#      x y z
#    x 1.851270 0.000000 0.023030 
#    y 0.000000 1.885160 0.000000 
#    z 0.023030 0.000000 1.857660 
# 
# From -- ./inp_files/21784.got.cif
#   From: 2010.03.12/outbox.cif.g09.slc.cpg/sg14_11_cif.got.tgz:21784.got - 2010.03.31 13:35:05.
