data_PCOD8126836
_publ_section_title
;
Structure prediction by ZEFSAII (Michael W. Deem and Ramdas Pophale) SiO2 
 PCOD8126836
Probable space group: P 21/C
;
_chemical_formula_sum "Si O2"
_cell_formula_units_Z 32
_cell_length_a 8.003249
_cell_length_b 21.519784
_cell_length_c 13.260751
_cell_angle_alpha 90.000000
_cell_angle_beta 144.801780
_cell_angle_gamma 90.000000
_cell_volume 1316.441457
_symmetry_space_group_name_H-M "P 21/C"
_symmetry_group_IT_number 14
_symmetry_cell_setting 'monoclinic'
loop_
_space_group_symop_operation_xyz
x,y,z
-x,1/2+y,1/2-z
-x,-y,-z
x,1/2-y,1/2+z
loop_
_atom_site_type_symbol
_atom_site_label
_atom_site_fract_x
_atom_site_fract_y
_atom_site_fract_z
Si Si1 0.170939 0.530237 0.953590
Si Si2 0.066338 0.752998 0.908771
Si Si3 0.424837 0.193029 0.470470
Si Si4 0.386941 0.570661 0.859853
Si Si5 0.095890 0.569988 0.524516
Si Si6 0.457556 0.261553 0.214543
Si Si7 0.517305 0.883922 0.753045
Si Si8 0.534584 0.002189 0.134041
O O1 0.170137 0.537501 0.831659
O O2 0.859746 0.507086 0.835320
O O3 0.413149 0.479021 0.100488
O O4 0.255111 0.593848 0.052355
O O5 0.876185 0.790279 0.733027
O O6 0.836029 0.719213 0.870414
O O7 0.291149 0.709653 0.956615
O O8 0.274770 0.792861 0.088707
O O9 0.418813 0.119098 0.481944
O O10 0.440937 0.221272 0.589915
O O11 0.201176 0.603381 0.680513
O O12 0.359548 0.560223 0.578210
O O13 0.000000 0.500000 0.500000
O O14 0.829205 0.610551 0.348211
O O15 0.529298 0.187795 0.246042
O O16 0.556995 0.929469 0.869602
O O17 0.500000 0.000000 0.000000
#
# Coordination Sequence:
#
# PCOD8126836 Si02
#       8
#     4   4   4   4   4   4   4   4
#     4  11  22  42  70  99 138 179 226 289 350 428
#     4  10  24  48  67 101 137 179 243 295 356 420
#     4  11  25  48  72 102 144 187 246 299 359 437
#     4  11  24  41  70  99 138 183 228 286 367 422
#     4  10  21  43  65  97 141 181 220 281 353 424
#     4  11  25  48  74  99 140 192 240 302 360 419
#     4  11  24  44  69  98 139 182 230 286 360 428
#     4  11  24  43  63 104 145 175 235 284 352 434
#
# _framework density 24.307956000000001
#
# number of rings (size 3 to 8) (size 9 to 14) (size 15 to 20)
#    0.000    1.250    2.500    4.125    5.250    2.000 
#    6.750    0.000    0.000    0.000    0.000    0.000 
#    0.000    0.000    0.000    0.000    0.000    0.000 
#
# Total GULP energy -396455.540214 kJ/mol
# GULP energy per Si atom -12389.235632 kJ/mol
# Density = 2.425263 g / cm^3
# Si number density = 24.307956 Si / 1000 Ang^3
#
#
#
# Elastic Constant Matrix: (Units=GPa)
#
#
# Indices 1 2 3 4 5 6 
#
# 1 120.3978 10.0515 43.6090 0.0000 -7.9375 0.0000
# 2 10.0515 61.0921 9.0055 0.0000 -5.0087 0.0000
# 3 43.6090 9.0055 137.4560 0.0000 -7.8197 0.0000
# 4 0.0000 0.0000 0.0000 25.7092 0.0000 -8.7688
# 5 -7.9375 -5.0087 -7.8197 0.0000 48.8775 0.0000
# 6 0.0000 0.0000 0.0000 -8.7688 0.0000 29.3738
#
#
#
# Elastic Compliance Matrix: (Units=1/GPa)
#
#
# Indices 1 2 3 4 5 6 
#
# 1 0.009505 -0.001058 -0.002891 0.000000 0.000973 0.000000
# 2 -0.001058 0.016761 -0.000681 0.000000 0.001437 0.000000
# 3 -0.002891 -0.000681 0.008282 0.000000 0.000786 0.000000
# 4 0.000000 0.000000 0.000000 0.043306 0.000000 0.012928
# 5 0.000973 0.001437 0.000786 0.000000 0.020890 0.000000
# 6 0.000000 0.000000 0.000000 0.012928 0.000000 0.037903
#
#
# Mechanical properties :
#
#
# Convention : Reuss Voigt Hill
#
# Bulk Modulus (GPa) = 39.54376 49.36420 44.45398
# Shear Modulus (GPa) = 32.39679 37.87744 35.13712
#
# Velocity S-wave (km/s) = 3.65467 3.95173 3.80610
# Velocity P-wave (km/s) = 5.84054 6.41665 6.13536
#
# Compressibility (1/GPa) = 0.02528844
#
# Stress axis : x y z
#
# Youngs Moduli (GPa) = 105.20329 59.66252 120.75039
#
# Poissons Ratio (x) = 0.06312 0.34909
# Poissons Ratio (y) = 0.11131 0.08219
# Poissons Ratio (z) = 0.30414 0.04061
#
# Static dielectric constant tensor:
#      x y z
#    x 4.695880 0.000000 0.084450 
#    y 0.000000 4.180710 0.000000 
#    z 0.084450 0.000000 4.817420 
# 
# 
# High freq. dielectric constant tensor:
#      x y z
#    x 1.978160 0.000000 -0.007400 
#    y 0.000000 1.943340 0.000000 
#    z -0.007400 0.000000 1.987820 
# 
# From -- ./inp_files/42210.got.cif
#   From: 2010.03.12/outbox.cif.g09.slc.cpg/sg14_22_cif.got.tgz:42210.got - 2010.03.31 13:35:05.
