data_PCOD8126614
_publ_section_title
;
Structure prediction by ZEFSAII (Michael W. Deem and Ramdas Pophale) SiO2 
 PCOD8126614
Probable space group: P 21/C
;
_chemical_formula_sum "Si O2"
_cell_formula_units_Z 32
_cell_length_a 10.447377
_cell_length_b 11.977021
_cell_length_c 14.027385
_cell_angle_alpha 90.000000
_cell_angle_beta 125.307377
_cell_angle_gamma 90.000000
_cell_volume 1432.374495
_symmetry_space_group_name_H-M "P 21/C"
_symmetry_group_IT_number 14
_symmetry_cell_setting 'monoclinic'
loop_
_space_group_symop_operation_xyz
x,y,z
-x,1/2+y,1/2-z
-x,-y,-z
x,1/2-y,1/2+z
loop_
_atom_site_type_symbol
_atom_site_label
_atom_site_fract_x
_atom_site_fract_y
_atom_site_fract_z
Si Si1 0.849954 0.399024 0.625243
Si Si2 0.363045 0.879931 0.796252
Si Si3 0.312762 0.022009 0.091620
Si Si4 0.706686 0.853939 0.726367
Si Si5 0.774083 0.571307 0.895486
Si Si6 0.525181 0.296713 0.282359
Si Si7 0.985910 0.696771 0.856207
Si Si8 0.862011 0.511669 0.145066
O O1 0.699321 0.370404 0.623731
O O2 0.820705 0.508940 0.547318
O O3 0.889733 0.295792 0.571123
O O4 0.993511 0.411213 0.760343
O O5 0.354289 0.760967 0.739262
O O6 0.547095 0.903510 0.887237
O O7 0.270656 0.972764 0.696158
O O8 0.379526 0.896642 0.130706
O O9 0.241053 0.079500 0.154764
O O10 0.533555 0.798936 0.665946
O O11 0.823354 0.752272 0.748813
O O12 0.714356 0.951293 0.648586
O O13 0.632267 0.660037 0.838470
O O14 0.937151 0.627517 0.929711
O O15 0.806247 0.526999 0.013751
O O16 0.071743 0.614904 0.816524
#
# Coordination Sequence:
#
# PCOD8126614 Si02
#       8
#     4   4   4   4   4   4   4   4
#     4  11  24  38  61  96 120 165 211 247 311 377
#     4  10  21  41  64  90 122 165 210 248 312 370
#     4  10  22  42  64  87 128 163 203 265 300 367
#     4   9  22  44  59  93 126 160 213 250 312 370
#     4  10  21  42  64  87 129 161 203 262 311 360
#     4   9  21  40  65  89 122 168 203 258 309 363
#     4  10  22  40  59  90 125 161 204 253 308 365
#     4  11  23  40  63  91 125 166 201 263 307 370
#
# _framework density 22.340526000000001
#
# number of rings (size 3 to 8) (size 9 to 14) (size 15 to 20)
#    0.000    2.000    1.250    0.750    3.500    3.000 
#   15.750    5.625    0.000    0.000    0.000    0.000 
#    0.000    0.000    0.000    0.000    0.000    0.000 
#
# Total GULP energy -396458.842595 kJ/mol
# GULP energy per Si atom -12389.338831 kJ/mol
# Density = 2.228968 g / cm^3
# Si number density = 22.340526 Si / 1000 Ang^3
#
#
#
# Elastic Constant Matrix: (Units=GPa)
#
#
# Indices 1 2 3 4 5 6 
#
# 1 59.5028 35.7083 23.1204 0.0000 -11.5962 0.0000
# 2 35.7083 78.9312 11.8412 0.0000 -3.3049 0.0000
# 3 23.1204 11.8412 62.6907 0.0000 -4.7171 0.0000
# 4 0.0000 0.0000 0.0000 22.4856 0.0000 -1.2926
# 5 -11.5962 -3.3049 -4.7171 0.0000 18.3061 0.0000
# 6 0.0000 0.0000 0.0000 -1.2926 0.0000 45.3837
#
#
#
# Elastic Compliance Matrix: (Units=1/GPa)
#
#
# Indices 1 2 3 4 5 6 
#
# 1 0.029615 -0.011640 -0.007618 0.000000 0.014696 0.000000
# 2 -0.011640 0.017669 0.000653 0.000000 -0.004015 0.000000
# 3 -0.007618 0.000653 0.018645 0.000000 0.000097 0.000000
# 4 0.000000 0.000000 0.000000 0.044546 0.000000 0.001269
# 5 0.014696 -0.004015 0.000097 0.000000 0.063236 0.000000
# 6 0.000000 0.000000 0.000000 0.001269 0.000000 0.022070
#
#
# Mechanical properties :
#
#
# Convention : Reuss Voigt Hill
#
# Bulk Modulus (GPa) = 34.81867 38.05161 36.43514
# Shear Modulus (GPa) = 20.61328 25.93207 23.27268
#
# Velocity S-wave (km/s) = 3.04087 3.41069 3.23108
# Velocity P-wave (km/s) = 5.28663 5.70789 5.50129
#
# Compressibility (1/GPa) = 0.02872023
#
# Stress axis : x y z
#
# Youngs Moduli (GPa) = 33.76677 56.59665 53.63470
#
# Poissons Ratio (x) = 0.65876 0.40858
# Poissons Ratio (y) = 0.39303 -0.03504
# Poissons Ratio (z) = 0.25723 -0.03697
#
# Static dielectric constant tensor:
#      x y z
#    x 4.324330 0.000000 0.007250 
#    y 0.000000 4.382250 0.000000 
#    z 0.007250 0.000000 3.589760 
# 
# 
# High freq. dielectric constant tensor:
#      x y z
#    x 1.888550 0.000000 0.003210 
#    y 0.000000 1.890320 0.000000 
#    z 0.003210 0.000000 1.840890 
# 
# From -- ./inp_files/44663.got.cif
#   From: 2010.03.12/outbox.cif.g09.slc.cpg/sg14_23_cif.got.tgz:44663.got - 2010.03.31 13:35:05.
