data_PCOD8126873
_publ_section_title
;
Structure prediction by ZEFSAII (Michael W. Deem and Ramdas Pophale) SiO2 
 PCOD8126873
Probable space group: P 21/C
;
_chemical_formula_sum "Si O2"
_cell_formula_units_Z 24
_cell_length_a 7.802312
_cell_length_b 9.046180
_cell_length_c 14.704491
_cell_angle_alpha 90.000000
_cell_angle_beta 76.148623
_cell_angle_gamma 90.000000
_cell_volume 1007.678471
_symmetry_space_group_name_H-M "P 21/C"
_symmetry_group_IT_number 14
_symmetry_cell_setting 'monoclinic'
loop_
_space_group_symop_operation_xyz
x,y,z
-x,1/2+y,1/2-z
-x,-y,-z
x,1/2-y,1/2+z
loop_
_atom_site_type_symbol
_atom_site_label
_atom_site_fract_x
_atom_site_fract_y
_atom_site_fract_z
Si Si1 0.729773 0.994697 0.746214
Si Si2 0.967210 0.599315 0.916844
Si Si3 0.642667 0.155282 0.063515
Si Si4 0.658733 0.090968 0.438374
Si Si5 0.755895 0.890745 0.936679
Si Si6 0.467620 0.773055 0.729241
O O1 0.811614 0.971043 0.835597
O O2 0.669259 0.835479 0.711986
O O3 0.548450 0.094092 0.769918
O O4 0.865508 0.089330 0.670065
O O5 0.805085 0.523037 0.885229
O O6 0.904007 0.768263 0.944176
O O7 0.000000 0.500000 0.000000
O O8 0.442085 0.171768 0.051105
O O9 0.645749 0.162313 0.171914
O O10 0.738003 0.298884 0.006846
O O11 0.746618 0.008306 0.019960
O O12 0.608410 0.183644 0.357551
O O13 0.500000 0.000000 0.500000
#
# Coordination Sequence:
#
# PCOD8126873 Si02
#       6
#     4   4   4   4   4   4
#     4  11  26  45  70 104 142 188 240 296 366 430
#     4  12  27  45  68 106 145 186 243 304 360 428
#     4  10  21  43  71 102 134 191 242 287 358 429
#     4  12  23  44  72 103 144 187 237 300 358 436
#     4  10  23  44  68  98 146 184 235 299 355 431
#     4  11  24  44  72 104 136 189 245 289 361 437
#
# _framework density 23.817122000000001
#
# number of rings (size 3 to 8) (size 9 to 14) (size 15 to 20)
#    0.000    1.000    3.333    3.000    4.667    0.000 
#    0.000    5.000    0.000    0.000    0.000    0.000 
#    0.000    0.000    0.000    0.000    0.000    0.000 
#
# Total GULP energy -297448.799811 kJ/mol
# GULP energy per Si atom -12393.699992 kJ/mol
# Density = 2.376291 g / cm^3
# Si number density = 23.817122 Si / 1000 Ang^3
#
#
#
# Elastic Constant Matrix: (Units=GPa)
#
#
# Indices 1 2 3 4 5 6 
#
# 1 61.8601 43.9845 14.5346 0.0000 -19.1337 0.0000
# 2 43.9845 135.4599 52.1618 0.0000 -14.6979 0.0000
# 3 14.5346 52.1618 135.9567 0.0000 -0.8708 0.0000
# 4 0.0000 0.0000 0.0000 35.4284 0.0000 0.6599
# 5 -19.1337 -14.6979 -0.8708 0.0000 22.8716 0.0000
# 6 0.0000 0.0000 0.0000 0.6599 0.0000 61.1835
#
#
#
# Elastic Compliance Matrix: (Units=1/GPa)
#
#
# Indices 1 2 3 4 5 6 
#
# 1 0.026400 -0.006561 -0.000191 0.000000 0.017862 0.000000
# 2 -0.006561 0.011027 -0.003520 0.000000 0.001464 0.000000
# 3 -0.000191 -0.003520 0.008713 0.000000 -0.002090 0.000000
# 4 0.000000 0.000000 0.000000 0.028232 0.000000 -0.000304
# 5 0.017862 0.001464 -0.002090 0.000000 0.059526 0.000000
# 6 0.000000 0.000000 0.000000 -0.000304 0.000000 0.016348
#
#
# Mechanical properties :
#
#
# Convention : Reuss Voigt Hill
#
# Bulk Modulus (GPa) = 39.06718 61.62651 50.34684
# Shear Modulus (GPa) = 27.88315 38.73644 33.30979
#
# Velocity S-wave (km/s) = 3.42529 4.03725 3.74380
# Velocity P-wave (km/s) = 5.66410 6.90388 6.31449
#
# Compressibility (1/GPa) = 0.02559694
#
# Stress axis : x y z
#
# Youngs Moduli (GPa) = 37.87873 90.68870 114.77463
#
# Poissons Ratio (x) = 0.59498 0.02190
# Poissons Ratio (y) = 0.24851 0.40399
# Poissons Ratio (z) = 0.00723 0.31921
#
# Static dielectric constant tensor:
#      x y z
#    x 4.238900 0.000000 -0.109410 
#    y 0.000000 4.166340 0.000000 
#    z -0.109410 0.000000 6.518640 
# 
# 
# High freq. dielectric constant tensor:
#      x y z
#    x 1.915030 0.000000 -0.001190 
#    y 0.000000 1.961310 0.000000 
#    z -0.001190 0.000000 1.954150 
# 
# From -- ./inp_files/38898.got.cif
#   From: 2010.03.12/outbox.cif.g09.slc.cpg/sg14_20_cif.got.tgz:38898.got - 2010.03.31 13:35:05.
