data_PCOD8126125
_publ_section_title
;
Structure prediction by ZEFSAII (Michael W. Deem and Ramdas Pophale) SiO2 
 PCOD8126125
Probable space group: P 21/C
;
_chemical_formula_sum "Si O2"
_cell_formula_units_Z 28
_cell_length_a 13.976919
_cell_length_b 6.520125
_cell_length_c 22.432470
_cell_angle_alpha 90.000000
_cell_angle_beta 143.566849
_cell_angle_gamma 90.000000
_cell_volume 1214.077616
_symmetry_space_group_name_H-M "P 21/C"
_symmetry_group_IT_number 14
_symmetry_cell_setting 'monoclinic'
loop_
_space_group_symop_operation_xyz
x,y,z
-x,1/2+y,1/2-z
-x,-y,-z
x,1/2-y,1/2+z
loop_
_atom_site_type_symbol
_atom_site_label
_atom_site_fract_x
_atom_site_fract_y
_atom_site_fract_z
Si Si1 0.160400 0.380811 0.015941
Si Si2 0.851439 0.651609 0.858122
Si Si3 0.363659 0.407181 0.009790
Si Si4 0.999451 0.015437 0.868021
Si Si5 0.712653 0.049398 0.650525
Si Si6 0.295819 0.952794 0.948568
Si Si7 0.652260 0.591768 0.649885
O O1 0.303178 0.467318 0.045250
O O2 0.089694 0.168715 0.956940
O O3 0.024313 0.550121 0.949036
O O4 0.230631 0.345647 0.117671
O O5 0.733475 0.529922 0.753350
O O6 0.882031 0.880772 0.850457
O O7 0.311524 0.586301 0.934360
O O8 0.279923 0.198286 0.947939
O O9 0.555801 0.371992 0.107800
O O10 0.131179 0.875382 0.897674
O O11 0.880772 0.134863 0.761597
O O12 0.724622 0.803642 0.663108
O O13 0.307698 0.915482 0.881425
O O14 0.460163 0.878794 0.063001
#
# Coordination Sequence:
#
# PCOD8126125 Si02
#       7
#     4   4   4   4   4   4   4
#     4  10  22  39  58  83 116 153 195 236 286 354
#     4  10  22  39  58  83 116 153 195 236 286 354
#     4   9  19  36  54  84 117 146 192 240 288 349
#     4  10  21  38  62  84 115 150 196 244 298 342
#     4   9  19  35  57  86 114 147 191 243 298 341
#     4   9  19  35  57  86 114 147 191 243 298 341
#     4   9  19  36  54  84 117 146 192 240 288 349
#
# _framework density 23.062774999999998
#
# number of rings (size 3 to 8) (size 9 to 14) (size 15 to 20)
#    0.000    2.571    0.000    0.429    6.000    0.000 
#    0.000    7.143    0.000    0.000    0.000    0.000 
#    0.000    0.000    0.000    0.000    0.000    0.000 
#
# Total GULP energy -347135.637369 kJ/mol
# GULP energy per Si atom -12397.701335 kJ/mol
# Density = 2.301028 g / cm^3
# Si number density = 23.062775 Si / 1000 Ang^3
#
#
#
# Elastic Constant Matrix: (Units=GPa)
#
#
# Indices 1 2 3 4 5 6 
#
# 1 170.1543 13.8111 63.7135 0.0000 -15.3853 0.0000
# 2 13.8111 17.1968 2.9774 0.0000 -10.2641 0.0000
# 3 63.7135 2.9774 117.6121 0.0000 -17.3794 0.0000
# 4 0.0000 0.0000 0.0000 29.7484 0.0000 -0.5601
# 5 -15.3853 -10.2641 -17.3794 0.0000 34.5311 0.0000
# 6 0.0000 0.0000 0.0000 -0.5601 0.0000 30.0855
#
#
#
# Elastic Compliance Matrix: (Units=1/GPa)
#
#
# Indices 1 2 3 4 5 6 
#
# 1 0.007880 -0.005791 -0.004168 0.000000 -0.000308 0.000000
# 2 -0.005791 0.075168 0.004488 0.000000 0.022022 0.000000
# 3 -0.004168 0.004488 0.011419 0.000000 0.005224 0.000000
# 4 0.000000 0.000000 0.000000 0.033627 0.000000 0.000626
# 5 -0.000308 0.022022 0.005224 0.000000 0.037997 0.000000
# 6 0.000000 0.000000 0.000000 0.000626 0.000000 0.033250
#
#
# Mechanical properties :
#
#
# Convention : Reuss Voigt Hill
#
# Bulk Modulus (GPa) = 11.97229 51.77412 31.87321
# Shear Modulus (GPa) = 20.99758 33.83710 27.41734
#
# Velocity S-wave (km/s) = 3.02065 3.83453 3.45166
# Velocity P-wave (km/s) = 4.16751 6.48866 5.45302
#
# Compressibility (1/GPa) = 0.08352618
#
# Stress axis : x y z
#
# Youngs Moduli (GPa) = 126.90833 13.30356 87.57689
#
# Poissons Ratio (x) = 0.07704 0.36498
# Poissons Ratio (y) = 0.73487 -0.39306
# Poissons Ratio (z) = 0.52890 -0.05971
#
# Static dielectric constant tensor:
#      x y z
#    x 4.560650 0.000000 -0.268500 
#    y 0.000000 4.200980 0.000000 
#    z -0.268500 0.000000 4.244650 
# 
# 
# High freq. dielectric constant tensor:
#      x y z
#    x 1.901880 0.000000 0.000420 
#    y 0.000000 1.925310 0.000000 
#    z 0.000420 0.000000 1.900750 
# 
# From -- ./inp_files/73653.got.cif
#   From: 2010.03.12/outbox.cif.g09.slc.cpg/sg14_37_cif.got.tgz:73653.got - 2010.03.31 13:35:05.
