data_PCOD8126797
_publ_section_title
;
Structure prediction by ZEFSAII (Michael W. Deem and Ramdas Pophale) SiO2 
 PCOD8126797
Probable space group: P 21/C
;
_chemical_formula_sum "Si O2"
_cell_formula_units_Z 28
_cell_length_a 7.851861
_cell_length_b 15.028136
_cell_length_c 19.000745
_cell_angle_alpha 90.000000
_cell_angle_beta 146.061545
_cell_angle_gamma 90.000000
_cell_volume 1251.749939
_symmetry_space_group_name_H-M "P 21/C"
_symmetry_group_IT_number 14
_symmetry_cell_setting 'monoclinic'
loop_
_space_group_symop_operation_xyz
x,y,z
-x,1/2+y,1/2-z
-x,-y,-z
x,1/2-y,1/2+z
loop_
_atom_site_type_symbol
_atom_site_label
_atom_site_fract_x
_atom_site_fract_y
_atom_site_fract_z
Si Si1 0.485925 0.105321 0.910010
Si Si2 0.527500 0.271297 0.551701
Si Si3 0.940457 0.806757 0.343685
Si Si4 0.806587 0.627908 0.345489
Si Si5 0.631543 0.074443 0.186753
Si Si6 0.335172 0.917372 0.580193
Si Si7 0.860465 0.600069 0.037890
O O1 0.337014 0.138971 0.785616
O O2 0.390747 0.001386 0.881421
O O3 0.377829 0.168562 0.937217
O O4 0.846776 0.099994 0.027661
O O5 0.557437 0.329985 0.630660
O O6 0.327502 0.187011 0.505575
O O7 0.873687 0.246379 0.651870
O O8 0.794643 0.736219 0.349359
O O9 0.208734 0.867304 0.468532
O O10 0.615055 0.568160 0.334515
O O11 0.676949 0.607988 0.221691
O O12 0.973162 0.066973 0.334255
O O13 0.117269 0.881857 0.567823
O O14 0.347600 0.022373 0.566913
#
# Coordination Sequence:
#
# PCOD8126797 Si02
#       7
#     4   4   4   4   4   4   4
#     4  11  23  43  64  93 132 172 210 263 322 381
#     4  11  24  40  61  95 130 173 209 260 319 387
#     4  11  22  42  64  92 130 171 211 260 322 381
#     4  10  22  39  67  96 123 164 218 264 320 376
#     4  11  22  43  63  95 127 167 216 267 317 378
#     4  10  21  42  69  95 123 167 213 273 316 376
#     4  10  22  43  67  95 126 162 221 266 321 379
#
# _framework density 22.368684999999999
#
# number of rings (size 3 to 8) (size 9 to 14) (size 15 to 20)
#    0.000    1.429    1.429    4.286    0.000    2.857 
#   10.286    0.000    0.000    0.000    0.000    0.000 
#    0.000    0.000    0.000    0.000    0.000    0.000 
#
# Total GULP energy -346948.516736 kJ/mol
# GULP energy per Si atom -12391.018455 kJ/mol
# Density = 2.231777 g / cm^3
# Si number density = 22.368685 Si / 1000 Ang^3
#
#
#
# Elastic Constant Matrix: (Units=GPa)
#
#
# Indices 1 2 3 4 5 6 
#
# 1 56.2319 43.2186 26.2597 0.0000 -4.9639 0.0000
# 2 43.2186 134.1113 52.1772 0.0000 8.9696 0.0000
# 3 26.2597 52.1772 162.8064 0.0000 -2.0243 0.0000
# 4 0.0000 0.0000 0.0000 43.3009 0.0000 -8.3216
# 5 -4.9639 8.9696 -2.0243 0.0000 21.9729 0.0000
# 6 0.0000 0.0000 0.0000 -8.3216 0.0000 40.9655
#
#
#
# Elastic Compliance Matrix: (Units=1/GPa)
#
#
# Indices 1 2 3 4 5 6 
#
# 1 0.025623 -0.008340 -0.001347 0.000000 0.009069 0.000000
# 2 -0.008340 0.011550 -0.002441 0.000000 -0.006824 0.000000
# 3 -0.001347 -0.002441 0.007159 0.000000 0.001352 0.000000
# 4 0.000000 0.000000 0.000000 0.024032 0.000000 0.004882
# 5 0.009069 -0.006824 0.001352 0.000000 0.050469 0.000000
# 6 0.000000 0.000000 0.000000 0.004882 0.000000 0.025403
#
#
# Mechanical properties :
#
#
# Convention : Reuss Voigt Hill
#
# Bulk Modulus (GPa) = 49.81243 66.27340 58.04291
# Shear Modulus (GPa) = 28.54132 36.68079 32.61105
#
# Velocity S-wave (km/s) = 3.57592 4.05387 3.82237
# Velocity P-wave (km/s) = 6.27429 7.18359 6.74428
#
# Compressibility (1/GPa) = 0.02007531
#
# Stress axis : x y z
#
# Youngs Moduli (GPa) = 39.02768 86.57836 139.68757
#
# Poissons Ratio (x) = 0.72202 0.18821
# Poissons Ratio (y) = 0.32547 0.34104
# Poissons Ratio (z) = 0.05258 0.21137
#
# Static dielectric constant tensor:
#      x y z
#    x 3.755730 0.000000 -0.165360 
#    y 0.000000 4.228710 0.000000 
#    z -0.165360 0.000000 4.200070 
# 
# 
# High freq. dielectric constant tensor:
#      x y z
#    x 1.855390 0.000000 -0.010190 
#    y 0.000000 1.892600 0.000000 
#    z -0.010190 0.000000 1.895450 
# 
# From -- ./inp_files/65886.got.cif
#   From: 2010.03.12/outbox.cif.g09.slc.cpg/sg14_33_cif.got.tgz:65886.got - 2010.03.31 13:35:05.
