data_PCOD8126887
_publ_section_title
;
Structure prediction by ZEFSAII (Michael W. Deem and Ramdas Pophale) SiO2 
 PCOD8126887
Probable space group: P 21/C
;
_chemical_formula_sum "Si O2"
_cell_formula_units_Z 28
_cell_length_a 12.989835
_cell_length_b 10.165757
_cell_length_c 22.253095
_cell_angle_alpha 90.000000
_cell_angle_beta 25.721151
_cell_angle_gamma 90.000000
_cell_volume 1275.308330
_symmetry_space_group_name_H-M "P 21/C"
_symmetry_group_IT_number 14
_symmetry_cell_setting 'monoclinic'
loop_
_space_group_symop_operation_xyz
x,y,z
-x,1/2+y,1/2-z
-x,-y,-z
x,1/2-y,1/2+z
loop_
_atom_site_type_symbol
_atom_site_label
_atom_site_fract_x
_atom_site_fract_y
_atom_site_fract_z
Si Si1 0.157637 0.557523 0.275868
Si Si2 0.298851 0.832681 0.148063
Si Si3 0.856739 0.173801 0.900736
Si Si4 0.339147 0.339004 0.449078
Si Si5 0.429510 0.436323 0.855434
Si Si6 0.529068 0.579750 0.302821
Si Si7 0.978586 0.939160 0.639518
O O1 0.253094 0.677648 0.185291
O O2 0.334418 0.509436 0.235925
O O3 0.082546 0.426202 0.278734
O O4 0.920356 0.612533 0.430445
O O5 0.300230 0.849809 0.076066
O O6 0.561366 0.870133 0.035396
O O7 0.103883 0.930120 0.281142
O O8 0.954828 0.322436 0.849361
O O9 0.689245 0.145792 0.046330
O O10 0.351377 0.186482 0.435185
O O11 0.512778 0.420242 0.313499
O O12 0.481922 0.383754 0.761193
O O13 0.210646 0.536511 0.975783
O O14 0.779512 0.620531 0.199895
#
# Coordination Sequence:
#
# PCOD8126887 Si02
#       7
#     4   4   4   4   4   4   4
#     4  10  22  42  63  96 123 167 209 258 314 369
#     4  10  21  44  66  92 127 169 210 253 314 383
#     4  11  25  40  66  96 128 163 212 264 312 365
#     4   9  21  41  65  90 122 174 210 252 318 373
#     4  11  23  41  66  92 129 162 216 258 312 379
#     4  10  25  41  63  93 129 169 205 262 318 371
#     4  11  24  42  65  96 125 167 212 257 317 368
#
# _framework density 21.955475
#
# number of rings (size 3 to 8) (size 9 to 14) (size 15 to 20)
#    0.000    1.714    1.429    1.286    4.000    9.714 
#    0.000    2.143    0.000    0.000    0.000    0.000 
#    0.000    0.000    0.000    0.000    0.000    0.000 
#
# Total GULP energy -346933.398584 kJ/mol
# GULP energy per Si atom -12390.478521 kJ/mol
# Density = 2.190550 g / cm^3
# Si number density = 21.955475 Si / 1000 Ang^3
#
#
#
# Elastic Constant Matrix: (Units=GPa)
#
#
# Indices 1 2 3 4 5 6 
#
# 1 116.8193 10.9469 33.8570 0.0000 -4.3087 0.0000
# 2 10.9469 76.2943 15.0124 0.0000 -0.8765 0.0000
# 3 33.8570 15.0124 78.6103 0.0000 -13.7699 0.0000
# 4 0.0000 0.0000 0.0000 16.4869 0.0000 -3.2573
# 5 -4.3087 -0.8765 -13.7699 0.0000 39.7415 0.0000
# 6 0.0000 0.0000 0.0000 -3.2573 0.0000 23.8543
#
#
#
# Elastic Compliance Matrix: (Units=1/GPa)
#
#
# Indices 1 2 3 4 5 6 
#
# 1 0.009813 -0.000589 -0.004184 0.000000 -0.000399 0.000000
# 2 -0.000589 0.013670 -0.002465 0.000000 -0.000616 0.000000
# 3 -0.004184 -0.002465 0.015868 0.000000 0.004990 0.000000
# 4 0.000000 0.000000 0.000000 0.062336 0.000000 0.008512
# 5 -0.000399 -0.000616 0.004990 0.000000 0.026835 0.000000
# 6 0.000000 0.000000 0.000000 0.008512 0.000000 0.043083
#
#
# Mechanical properties :
#
#
# Convention : Reuss Voigt Hill
#
# Bulk Modulus (GPa) = 40.20111 43.48403 41.84257
# Shear Modulus (GPa) = 25.72389 30.14372 27.93380
#
# Velocity S-wave (km/s) = 3.42663 3.70935 3.57079
# Velocity P-wave (km/s) = 5.83145 6.18015 6.00833
#
# Compressibility (1/GPa) = 0.02487493
#
# Stress axis : x y z
#
# Youngs Moduli (GPa) = 101.90228 73.15505 63.02119
#
# Poissons Ratio (x) = 0.04312 0.26367
# Poissons Ratio (y) = 0.06006 0.15532
# Poissons Ratio (z) = 0.42634 0.18030
#
# Static dielectric constant tensor:
#      x y z
#    x 3.964300 0.000000 -0.378320 
#    y 0.000000 4.199780 0.000000 
#    z -0.378320 0.000000 3.751800 
# 
# 
# High freq. dielectric constant tensor:
#      x y z
#    x 1.863550 0.000000 -0.024280 
#    y 0.000000 1.873110 0.000000 
#    z -0.024280 0.000000 1.845920 
# 
# From -- ./inp_files/35208.got.cif
#   From: 2010.03.12/outbox.cif.g09.slc.cpg/sg14_18_cif.got.tgz:35208.got - 2010.03.31 13:35:05.
