data_PCOD8126279
_publ_section_title
;
Structure prediction by ZEFSAII (Michael W. Deem and Ramdas Pophale) SiO2 
 PCOD8126279
Probable space group: P 21/C
;
_chemical_formula_sum "Si O2"
_cell_formula_units_Z 28
_cell_length_a 8.976934
_cell_length_b 11.715126
_cell_length_c 14.434346
_cell_angle_alpha 90.000000
_cell_angle_beta 63.699312
_cell_angle_gamma 90.000000
_cell_volume 1360.859378
_symmetry_space_group_name_H-M "P 21/C"
_symmetry_group_IT_number 14
_symmetry_cell_setting 'monoclinic'
loop_
_space_group_symop_operation_xyz
x,y,z
-x,1/2+y,1/2-z
-x,-y,-z
x,1/2-y,1/2+z
loop_
_atom_site_type_symbol
_atom_site_label
_atom_site_fract_x
_atom_site_fract_y
_atom_site_fract_z
Si Si1 0.195573 0.428845 0.753543
Si Si2 0.146984 0.677395 0.098199
Si Si3 0.562238 0.395813 0.852186
Si Si4 0.401933 0.268541 0.273226
Si Si5 0.319868 0.583303 0.885145
Si Si6 0.858642 0.053983 0.915781
Si Si7 0.223442 0.496207 0.363155
O O1 0.315789 0.319819 0.726064
O O2 0.236982 0.517584 0.822910
O O3 0.227418 0.491751 0.647364
O O4 0.005464 0.388552 0.813691
O O5 0.317271 0.638289 0.098952
O O6 0.119679 0.812429 0.112450
O O7 0.168919 0.635819 0.986347
O O8 0.445234 0.289265 0.859485
O O9 0.441240 0.500957 0.912198
O O10 0.662518 0.423778 0.730672
O O11 0.570019 0.312284 0.180597
O O12 0.271825 0.365361 0.335438
O O13 0.033479 0.991275 0.884677
O O14 0.748322 0.035267 0.038270
#
# Coordination Sequence:
#
# PCOD8126279 Si02
#       7
#     4   4   4   4   4   4   4
#     4  11  23  42  64  96 124 165 214 259 304 376
#     4  12  22  40  63  94 123 165 211 255 310 368
#     4  10  21  39  63  86 127 164 204 254 313 369
#     4  10  21  42  62  90 126 168 198 258 318 370
#     4  10  23  40  62  90 129 165 204 257 314 371
#     4  11  23  38  64  92 121 159 208 260 306 361
#     4  10  21  41  60  90 125 158 204 258 307 367
#
# _framework density 20.575233000000001
#
# number of rings (size 3 to 8) (size 9 to 14) (size 15 to 20)
#    0.000    1.429    2.857    2.571    0.000    1.143 
#    0.000    9.286    0.000    0.000    0.000    0.000 
#    0.000    0.000    0.000    0.000    0.000    0.000 
#
# Total GULP energy -347250.218621 kJ/mol
# GULP energy per Si atom -12401.793522 kJ/mol
# Density = 2.052840 g / cm^3
# Si number density = 20.575233 Si / 1000 Ang^3
#
#
#
# Elastic Constant Matrix: (Units=GPa)
#
#
# Indices 1 2 3 4 5 6 
#
# 1 73.4035 22.9141 6.2443 0.0000 20.5216 0.0000
# 2 22.9141 90.0343 29.3028 0.0000 12.5997 0.0000
# 3 6.2443 29.3028 77.5325 0.0000 10.7103 0.0000
# 4 0.0000 0.0000 0.0000 19.2830 0.0000 3.3965
# 5 20.5216 12.5997 10.7103 0.0000 27.6095 0.0000
# 6 0.0000 0.0000 0.0000 3.3965 0.0000 24.8014
#
#
#
# Elastic Compliance Matrix: (Units=1/GPa)
#
#
# Indices 1 2 3 4 5 6 
#
# 1 0.018021 -0.003341 0.001533 0.000000 -0.012464 0.000000
# 2 -0.003341 0.013750 -0.004653 0.000000 -0.001986 0.000000
# 3 0.001533 -0.004653 0.015212 0.000000 -0.004917 0.000000
# 4 0.000000 0.000000 0.000000 0.053141 0.000000 -0.007277
# 5 -0.012464 -0.001986 -0.004917 0.000000 0.048298 0.000000
# 6 0.000000 0.000000 0.000000 -0.007277 0.000000 0.041317
#
#
# Mechanical properties :
#
#
# Convention : Reuss Voigt Hill
#
# Bulk Modulus (GPa) = 29.35942 39.76584 34.56263
# Shear Modulus (GPa) = 23.36303 26.50606 24.93455
#
# Velocity S-wave (km/s) = 3.37336 3.59312 3.48497
# Velocity P-wave (km/s) = 5.42891 6.04839 5.74700
#
# Compressibility (1/GPa) = 0.03406062
#
# Stress axis : x y z
#
# Youngs Moduli (GPa) = 55.49218 72.72966 65.73671
#
# Poissons Ratio (x) = 0.24299 -0.10079
# Poissons Ratio (y) = 0.18540 0.30588
# Poissons Ratio (z) = -0.08508 0.33842
#
# Static dielectric constant tensor:
#      x y z
#    x 3.738050 0.000000 -0.030920 
#    y 0.000000 3.798150 0.000000 
#    z -0.030920 0.000000 3.567910 
# 
# 
# High freq. dielectric constant tensor:
#      x y z
#    x 1.809680 0.000000 -0.002150 
#    y 0.000000 1.817560 0.000000 
#    z -0.002150 0.000000 1.796360 
# 
# From -- ./inp_files/40127.got.cif
#   From: 2010.03.12/outbox.cif.g09.slc.cpg/sg14_21_cif.got.tgz:40127.got - 2010.03.31 13:35:05.
