data_PCOD8126361
_publ_section_title
;
Structure prediction by ZEFSAII (Michael W. Deem and Ramdas Pophale) SiO2 
 PCOD8126361
Probable space group: P 21/C
;
_chemical_formula_sum "Si O2"
_cell_formula_units_Z 20
_cell_length_a 17.079503
_cell_length_b 9.336029
_cell_length_c 10.312382
_cell_angle_alpha 90.000000
_cell_angle_beta 33.009560
_cell_angle_gamma 90.000000
_cell_volume 895.811723
_symmetry_space_group_name_H-M "P 21/C"
_symmetry_group_IT_number 14
_symmetry_cell_setting 'monoclinic'
loop_
_space_group_symop_operation_xyz
x,y,z
-x,1/2+y,1/2-z
-x,-y,-z
x,1/2-y,1/2+z
loop_
_atom_site_type_symbol
_atom_site_label
_atom_site_fract_x
_atom_site_fract_y
_atom_site_fract_z
Si Si1 0.277978 0.714429 0.435830
Si Si2 0.332125 0.034794 0.704487
Si Si3 0.600652 0.115262 0.972008
Si Si4 0.705029 0.865127 0.690350
Si Si5 0.147088 0.522355 0.222011
O O1 0.234238 0.557097 0.442648
O O2 0.374956 0.696097 0.428022
O O3 0.369763 0.783186 0.192291
O O4 0.145932 0.818073 0.658976
O O5 0.292402 0.200186 0.777028
O O6 0.500000 0.000000 0.500000
O O7 0.283955 0.990423 0.627591
O O8 0.696767 0.968705 0.829380
O O9 0.431778 0.082948 0.204228
O O10 0.840583 0.905039 0.410492
O O11 0.000000 0.500000 0.500000
#
# Coordination Sequence:
#
# PCOD8126361 Si02
#       5
#     4   4   4   4   4
#     4  11  21  42  67  96 133 174 218 273 341 385
#     4  12  23  40  70 101 127 169 228 278 331 389
#     4  10  21  39  67  99 136 166 218 287 342 380
#     4  10  23  39  65  98 133 172 222 277 332 397
#     4  11  26  45  64  94 140 181 221 267 332 404
#
# _framework density 22.326118999999998
#
# number of rings (size 3 to 8) (size 9 to 14) (size 15 to 20)
#    0.000    1.200    4.000    1.200    2.800    3.200 
#    0.000    1.000    0.000    0.000    0.000    0.000 
#    0.000    0.000    0.000    0.000    0.000    0.000 
#
# Total GULP energy -247798.638156 kJ/mol
# GULP energy per Si atom -12389.931908 kJ/mol
# Density = 2.227530 g / cm^3
# Si number density = 22.326119 Si / 1000 Ang^3
#
#
#
# Elastic Constant Matrix: (Units=GPa)
#
#
# Indices 1 2 3 4 5 6 
#
# 1 76.9578 36.4732 5.6836 0.0000 24.3628 0.0000
# 2 36.4732 181.9039 40.1031 0.0000 25.1116 0.0000
# 3 5.6836 40.1031 84.8966 0.0000 17.5348 0.0000
# 4 0.0000 0.0000 0.0000 28.3065 0.0000 11.4243
# 5 24.3628 25.1116 17.5348 0.0000 30.0563 0.0000
# 6 0.0000 0.0000 0.0000 11.4243 0.0000 31.6304
#
#
#
# Elastic Compliance Matrix: (Units=1/GPa)
#
#
# Indices 1 2 3 4 5 6 
#
# 1 0.018567 -0.002320 0.002912 0.000000 -0.014810 0.000000
# 2 -0.002320 0.006858 -0.002603 0.000000 -0.002331 0.000000
# 3 0.002912 -0.002603 0.014613 0.000000 -0.008711 0.000000
# 4 0.000000 0.000000 0.000000 0.041356 0.000000 -0.014937
# 5 -0.014810 -0.002331 -0.008711 0.000000 0.052305 0.000000
# 6 0.000000 0.000000 0.000000 -0.014937 0.000000 0.037010
#
#
# Mechanical properties :
#
#
# Convention : Reuss Voigt Hill
#
# Bulk Modulus (GPa) = 27.76553 56.47532 42.12042
# Shear Modulus (GPa) = 26.77559 35.43188 31.10374
#
# Velocity S-wave (km/s) = 3.46684 3.98806 3.73655
# Velocity P-wave (km/s) = 5.33748 6.82325 6.12557
#
# Compressibility (1/GPa) = 0.03601589
#
# Stress axis : x y z
#
# Youngs Moduli (GPa) = 53.85790 145.80985 68.43315
#
# Poissons Ratio (x) = 0.33833 -0.19928
# Poissons Ratio (y) = 0.12497 0.17813
# Poissons Ratio (z) = -0.15684 0.37954
#
# Static dielectric constant tensor:
#      x y z
#    x 3.955380 0.000000 0.372350 
#    y 0.000000 4.604930 0.000000 
#    z 0.372350 0.000000 3.740000 
# 
# 
# High freq. dielectric constant tensor:
#      x y z
#    x 1.863020 0.000000 0.036210 
#    y 0.000000 1.905680 0.000000 
#    z 0.036210 0.000000 1.852280 
# 
# From -- ./inp_files/27728.got.cif
#   From: 2010.03.12/outbox.cif.g09.slc.cpg/sg14_14_cif.got.tgz:27728.got - 2010.03.31 13:35:05.
