data_PCOD8126061
_publ_section_title
;
Structure prediction by ZEFSAII (Michael W. Deem and Ramdas Pophale) SiO2 
 PCOD8126061
Probable space group: P 21/C
;
_chemical_formula_sum "Si O2"
_cell_formula_units_Z 28
_cell_length_a 15.150687
_cell_length_b 17.159792
_cell_length_c 18.644243
_cell_angle_alpha 90.000000
_cell_angle_beta 161.570760
_cell_angle_gamma 90.000000
_cell_volume 1532.354550
_symmetry_space_group_name_H-M "P 21/C"
_symmetry_group_IT_number 14
_symmetry_cell_setting 'monoclinic'
loop_
_space_group_symop_operation_xyz
x,y,z
-x,1/2+y,1/2-z
-x,-y,-z
x,1/2-y,1/2+z
loop_
_atom_site_type_symbol
_atom_site_label
_atom_site_fract_x
_atom_site_fract_y
_atom_site_fract_z
Si Si1 0.836588 0.496201 0.949710
Si Si2 0.821678 0.256667 0.476359
Si Si3 0.345981 0.417810 0.387435
Si Si4 0.566889 0.872653 0.891317
Si Si5 0.715105 0.834238 0.408711
Si Si6 0.663184 0.772551 0.215512
Si Si7 0.065629 0.773057 0.273807
O O1 0.524909 0.459814 0.702566
O O2 0.808317 0.578852 0.964848
O O3 0.000000 0.500000 0.000000
O O4 0.017855 0.439458 0.140772
O O5 0.657662 0.186001 0.313520
O O6 0.610683 0.330387 0.317336
O O7 0.938981 0.234259 0.644265
O O8 0.092486 0.274198 0.636644
O O9 0.500000 0.500000 0.500000
O O10 0.451244 0.369111 0.536515
O O11 0.391217 0.360947 0.354310
O O12 0.881204 0.849184 0.108984
O O13 0.744171 0.779156 0.361341
O O14 0.918883 0.803349 0.627639
O O15 0.382142 0.721040 0.989316
#
# Coordination Sequence:
#
# PCOD8126061 Si02
#       7
#     4   4   4   4   4   4   4
#     4  12  20  33  53  87 118 150 183 234 300 354
#     4  10  21  38  54  80 116 156 199 240 279 344
#     4  12  21  30  56  86 118 149 179 228 298 352
#     4  11  20  36  54  79 120 153 185 230 291 347
#     4  10  22  35  54  85 119 149 192 241 290 343
#     4  11  20  34  54  82 113 148 200 230 282 348
#     4  10  22  35  55  80 114 157 196 236 286 344
#
# _framework density 18.272532999999999
#
# number of rings (size 3 to 8) (size 9 to 14) (size 15 to 20)
#    0.000    1.143    5.714    0.857    2.000    1.143 
#    0.000    0.000    0.000    0.857    0.000   15.000 
#    0.000    0.000    0.000    0.000    0.000    0.000 
#
# Total GULP energy -347009.889977 kJ/mol
# GULP energy per Si atom -12393.210356 kJ/mol
# Density = 1.823094 g / cm^3
# Si number density = 18.272533 Si / 1000 Ang^3
#
#
#
# Elastic Constant Matrix: (Units=GPa)
#
#
# Indices 1 2 3 4 5 6 
#
# 1 89.2054 41.8875 64.9829 0.0000 8.6842 0.0000
# 2 41.8875 67.9724 39.0065 0.0000 -0.1037 0.0000
# 3 64.9829 39.0065 129.2883 0.0000 4.9064 0.0000
# 4 0.0000 0.0000 0.0000 39.5394 0.0000 4.8698
# 5 8.6842 -0.1037 4.9064 0.0000 43.6232 0.0000
# 6 0.0000 0.0000 0.0000 4.8698 0.0000 29.9742
#
#
#
# Elastic Compliance Matrix: (Units=1/GPa)
#
#
# Indices 1 2 3 4 5 6 
#
# 1 0.021445 -0.008597 -0.008057 0.000000 -0.003384 0.000000
# 2 -0.008597 0.021257 -0.002168 0.000000 0.002006 0.000000
# 3 -0.008057 -0.002168 0.012431 0.000000 0.000201 0.000000
# 4 0.000000 0.000000 0.000000 0.025808 0.000000 -0.004193
# 5 -0.003384 0.002006 0.000201 0.000000 0.023579 0.000000
# 6 0.000000 0.000000 0.000000 -0.004193 0.000000 0.034043
#
#
# Mechanical properties :
#
#
# Convention : Reuss Voigt Hill
#
# Bulk Modulus (GPa) = 57.17962 64.24665 60.71314
# Shear Modulus (GPa) = 27.46682 31.99999 29.73341
#
# Velocity S-wave (km/s) = 3.88129 4.18935 4.03826
# Velocity P-wave (km/s) = 7.17262 7.65751 7.41902
#
# Compressibility (1/GPa) = 0.01748875
#
# Stress axis : x y z
#
# Youngs Moduli (GPa) = 46.62986 47.04266 80.44631
#
# Poissons Ratio (x) = 0.40445 0.64813
# Poissons Ratio (y) = 0.40090 0.17443
# Poissons Ratio (z) = 0.37568 0.10200
#
# Static dielectric constant tensor:
#      x y z
#    x 3.377310 0.000000 -0.063670 
#    y 0.000000 3.248690 0.000000 
#    z -0.063670 0.000000 4.034900 
# 
# 
# High freq. dielectric constant tensor:
#      x y z
#    x 1.688470 0.000000 -0.015750 
#    y 0.000000 1.678270 0.000000 
#    z -0.015750 0.000000 1.741250 
# 
# From -- ./inp_files/59681.got.cif
#   From: 2010.03.12/outbox.cif.g09.slc.cpg/sg14_30_cif.got.tgz:59681.got - 2010.03.31 13:35:05.
