data_PCOD8126621
_publ_section_title
;
Structure prediction by ZEFSAII (Michael W. Deem and Ramdas Pophale) SiO2 
 PCOD8126621
Probable space group: P 21/C
;
_chemical_formula_sum "Si O2"
_cell_formula_units_Z 32
_cell_length_a 16.018538
_cell_length_b 13.783399
_cell_length_c 22.747965
_cell_angle_alpha 90.000000
_cell_angle_beta 162.797511
_cell_angle_gamma 90.000000
_cell_volume 1485.408297
_symmetry_space_group_name_H-M "P 21/C"
_symmetry_group_IT_number 14
_symmetry_cell_setting 'monoclinic'
loop_
_space_group_symop_operation_xyz
x,y,z
-x,1/2+y,1/2-z
-x,-y,-z
x,1/2-y,1/2+z
loop_
_atom_site_type_symbol
_atom_site_label
_atom_site_fract_x
_atom_site_fract_y
_atom_site_fract_z
Si Si1 0.429365 0.372134 0.080064
Si Si2 0.602305 0.816784 0.573672
Si Si3 0.998242 0.141070 0.666360
Si Si4 0.091428 0.801840 0.697923
Si Si5 0.418938 0.410040 0.820174
Si Si6 0.862231 0.577605 0.864769
Si Si7 0.002564 0.776524 0.020992
Si Si8 0.523600 0.953827 0.953308
O O1 0.382290 0.367656 0.978827
O O2 0.534734 0.479154 0.166270
O O3 0.658499 0.293294 0.256958
O O4 0.130121 0.355011 0.909546
O O5 0.864194 0.743781 0.757602
O O6 0.306010 0.759629 0.382531
O O7 0.624020 0.897703 0.638781
O O8 0.000989 0.075359 0.608720
O O9 0.680400 0.155234 0.473721
O O10 0.165351 0.094692 0.835936
O O11 0.928566 0.735461 0.540439
O O12 0.275228 0.874126 0.780402
O O13 0.145428 0.373305 0.601564
O O14 0.536131 0.537376 0.636259
O O15 0.000000 0.500000 0.000000
O O16 0.882088 0.685102 0.903757
O O17 0.500000 0.000000 0.000000
#
# Coordination Sequence:
#
# PCOD8126621 Si02
#       8
#     4   4   4   4   4   4   4   4
#     4  11  24  43  66  87 132 174 212 258 323 388
#     4  10  22  43  67  93 126 165 216 276 320 372
#     4  10  22  40  65  96 126 168 211 270 321 381
#     4  10  21  41  64  92 123 166 208 261 323 377
#     4  12  24  43  65  94 129 174 220 257 322 386
#     4  11  20  38  63  93 130 160 209 267 325 367
#     4  11  25  40  62  92 132 168 207 264 314 384
#     4   9  18  35  62  91 125 155 199 264 323 362
#
# _framework density 21.542897
#
# number of rings (size 3 to 8) (size 9 to 14) (size 15 to 20)
#    0.000    1.500    2.500    3.000    1.750    0.000 
#    2.250    0.000    2.750    0.000    0.000    0.000 
#    0.000    0.000    0.000    0.000    0.000    0.000 
#
# Total GULP energy -396597.546837 kJ/mol
# GULP energy per Si atom -12393.673339 kJ/mol
# Density = 2.149386 g / cm^3
# Si number density = 21.542897 Si / 1000 Ang^3
#
#
#
# Elastic Constant Matrix: (Units=GPa)
#
#
# Indices 1 2 3 4 5 6 
#
# 1 79.5050 19.1127 38.6411 0.0000 -3.5092 0.0000
# 2 19.1127 84.6833 14.5970 0.0000 -5.1982 0.0000
# 3 38.6411 14.5970 79.1771 0.0000 -5.9484 0.0000
# 4 0.0000 0.0000 0.0000 29.8897 0.0000 -12.2791
# 5 -3.5092 -5.1982 -5.9484 0.0000 28.8347 0.0000
# 6 0.0000 0.0000 0.0000 -12.2791 0.0000 32.8906
#
#
#
# Elastic Compliance Matrix: (Units=1/GPa)
#
#
# Indices 1 2 3 4 5 6 
#
# 1 0.016980 -0.002483 -0.007829 0.000000 0.000004 0.000000
# 2 -0.002483 0.012648 -0.000987 0.000000 0.001774 0.000000
# 3 -0.007829 -0.000987 0.016808 0.000000 0.002337 0.000000
# 4 0.000000 0.000000 0.000000 0.039517 0.000000 0.014753
# 5 0.000004 0.001774 0.002337 0.000000 0.035483 0.000000
# 6 0.000000 0.000000 0.000000 0.014753 0.000000 0.035912
#
#
# Mechanical properties :
#
#
# Convention : Reuss Voigt Hill
#
# Bulk Modulus (GPa) = 41.94716 43.11854 42.53285
# Shear Modulus (GPa) = 26.61129 29.72397 28.16763
#
# Velocity S-wave (km/s) = 3.51845 3.71854 3.61988
# Velocity P-wave (km/s) = 6.00165 6.20446 6.10390
#
# Compressibility (1/GPa) = 0.02383951
#
# Stress axis : x y z
#
# Youngs Moduli (GPa) = 58.89385 79.06360 59.49523
#
# Poissons Ratio (x) = 0.19628 0.46577
# Poissons Ratio (y) = 0.14621 0.05872
# Poissons Ratio (z) = 0.46106 0.07803
#
# Static dielectric constant tensor:
#      x y z
#    x 3.666470 0.000000 -0.291250 
#    y 0.000000 3.848910 0.000000 
#    z -0.291250 0.000000 4.436880 
# 
# 
# High freq. dielectric constant tensor:
#      x y z
#    x 1.821760 0.000000 -0.023810 
#    y 0.000000 1.849870 0.000000 
#    z -0.023810 0.000000 1.852190 
# 
# From -- ./inp_files/68718.got.cif
#   From: 2010.03.12/outbox.cif.g09.slc.cpg/sg14_35_cif.got.tgz:68718.got - 2010.03.31 13:35:05.
