data_PCOD8126087
_publ_section_title
;
Structure prediction by ZEFSAII (Michael W. Deem and Ramdas Pophale) SiO2 
 PCOD8126087
Probable space group: P 21/C
;
_chemical_formula_sum "Si O2"
_cell_formula_units_Z 32
_cell_length_a 7.877793
_cell_length_b 20.172077
_cell_length_c 8.940847
_cell_angle_alpha 90.000000
_cell_angle_beta 87.895186
_cell_angle_gamma 90.000000
_cell_volume 1419.844335
_symmetry_space_group_name_H-M "P 21/C"
_symmetry_group_IT_number 14
_symmetry_cell_setting 'monoclinic'
loop_
_space_group_symop_operation_xyz
x,y,z
-x,1/2+y,1/2-z
-x,-y,-z
x,1/2-y,1/2+z
loop_
_atom_site_type_symbol
_atom_site_label
_atom_site_fract_x
_atom_site_fract_y
_atom_site_fract_z
Si Si1 0.064594 0.554513 0.882071
Si Si2 0.639258 0.283474 0.384044
Si Si3 0.556533 0.445485 0.113833
Si Si4 0.754880 0.906633 0.190532
Si Si5 0.617240 0.643681 0.417355
Si Si6 0.151836 0.696876 0.906463
Si Si7 0.434950 0.157094 0.396698
Si Si8 0.790343 0.717364 0.868945
O O1 0.257665 0.537157 0.822784
O O2 0.082016 0.625339 0.965398
O O3 0.930801 0.561129 0.747113
O O4 0.000000 0.500000 0.000000
O O5 0.556157 0.343067 0.483302
O O6 0.785311 0.245513 0.468227
O O7 0.713653 0.316238 0.231584
O O8 0.506735 0.227523 0.339700
O O9 0.411397 0.444723 0.244702
O O10 0.500000 0.500000 0.000000
O O11 0.561104 0.376877 0.014818
O O12 0.738086 0.828353 0.229433
O O13 0.742054 0.904961 0.008783
O O14 0.583334 0.611626 0.253480
O O15 0.693593 0.714368 0.371685
O O16 0.987584 0.735045 0.849434
O O17 0.254956 0.171816 0.483254
#
# Coordination Sequence:
#
# PCOD8126087 Si02
#       8
#     4   4   4   4   4   4   4   4
#     4  11  22  40  63  91 118 163 228 268 300 372
#     4  11  21  37  59  91 129 167 204 256 332 398
#     4  11  21  41  67  86 115 164 222 266 308 367
#     4  10  22  38  61  90 118 164 208 260 313 376
#     4  11  21  37  58  89 130 164 197 255 326 395
#     4  11  23  36  59  95 128 161 207 266 326 382
#     4  10  21  38  59  90 122 169 205 255 321 393
#     4   9  21  35  57  87 126 164 202 244 315 390
#
# _framework density 22.537682
#
# number of rings (size 3 to 8) (size 9 to 14) (size 15 to 20)
#    0.000    1.500    3.750    2.250    7.000    0.000 
#    0.000    0.625    0.000    0.750    0.000    0.000 
#    0.000    0.000    0.000    0.000    0.000    0.000 
#
# Total GULP energy -396478.507609 kJ/mol
# GULP energy per Si atom -12389.953363 kJ/mol
# Density = 2.248639 g / cm^3
# Si number density = 22.537682 Si / 1000 Ang^3
#
#
#
# Elastic Constant Matrix: (Units=GPa)
#
#
# Indices 1 2 3 4 5 6 
#
# 1 128.2224 -0.1283 21.2190 0.0000 3.3420 0.0000
# 2 -0.1283 30.7645 -11.3659 0.0000 -6.4231 0.0000
# 3 21.2190 -11.3659 102.8044 0.0000 6.9564 0.0000
# 4 0.0000 0.0000 0.0000 13.6737 0.0000 2.5092
# 5 3.3420 -6.4231 6.9564 0.0000 21.2572 0.0000
# 6 0.0000 0.0000 0.0000 2.5092 0.0000 28.0621
#
#
#
# Elastic Compliance Matrix: (Units=1/GPa)
#
#
# Indices 1 2 3 4 5 6 
#
# 1 0.008104 -0.000793 -0.001695 0.000000 -0.000959 0.000000
# 2 -0.000793 0.035830 0.003461 0.000000 0.009819 0.000000
# 3 -0.001695 0.003461 0.010606 0.000000 -0.002159 0.000000
# 4 0.000000 0.000000 0.000000 0.074353 0.000000 -0.006648
# 5 -0.000959 0.009819 -0.002159 0.000000 0.050867 0.000000
# 6 0.000000 0.000000 0.000000 -0.006648 0.000000 0.036230
#
#
# Mechanical properties :
#
#
# Convention : Reuss Voigt Hill
#
# Bulk Modulus (GPa) = 17.70393 31.24897 24.47645
# Shear Modulus (GPa) = 21.47096 29.40305 25.43700
#
# Velocity S-wave (km/s) = 3.08988 3.61587 3.36317
# Velocity P-wave (km/s) = 4.53896 5.59714 5.09559
#
# Compressibility (1/GPa) = 0.05648463
#
# Stress axis : x y z
#
# Youngs Moduli (GPa) = 123.40034 27.90939 94.28808
#
# Poissons Ratio (x) = 0.02212 0.15985
# Poissons Ratio (y) = 0.09782 -0.32629
# Poissons Ratio (z) = 0.20921 -0.09658
#
# Static dielectric constant tensor:
#      x y z
#    x 4.387250 0.000000 0.012360 
#    y 0.000000 3.930870 0.000000 
#    z 0.012360 0.000000 4.066430 
# 
# 
# High freq. dielectric constant tensor:
#      x y z
#    x 1.900710 0.000000 0.011930 
#    y 0.000000 1.863060 0.000000 
#    z 0.011930 0.000000 1.873080 
# 
# From -- ./inp_files/10686.got.cif
#   From: 2010.03.12/outbox.cif.g09.slc.cpg/sg14_6_cif.got.tgz:10686.got - 2010.03.31 13:35:05.
