data_PCOD8126544
_publ_section_title
;
Structure prediction by ZEFSAII (Michael W. Deem and Ramdas Pophale) SiO2 
 PCOD8126544
Probable space group: P 21/C
;
_chemical_formula_sum "Si O2"
_cell_formula_units_Z 28
_cell_length_a 8.279093
_cell_length_b 22.441541
_cell_length_c 10.052733
_cell_angle_alpha 90.000000
_cell_angle_beta 138.409839
_cell_angle_gamma 90.000000
_cell_volume 1239.810716
_symmetry_space_group_name_H-M "P 21/C"
_symmetry_group_IT_number 14
_symmetry_cell_setting 'monoclinic'
loop_
_space_group_symop_operation_xyz
x,y,z
-x,1/2+y,1/2-z
-x,-y,-z
x,1/2-y,1/2+z
loop_
_atom_site_type_symbol
_atom_site_label
_atom_site_fract_x
_atom_site_fract_y
_atom_site_fract_z
Si Si1 0.207679 0.406691 0.941283
Si Si2 0.047490 0.016492 0.815508
Si Si3 0.962543 0.233611 0.614243
Si Si4 0.731253 0.431868 0.340660
Si Si5 0.839960 0.851044 0.852707
Si Si6 0.197939 0.813769 0.751513
Si Si7 0.296134 0.368015 0.435771
O O1 0.293825 0.389010 0.844979
O O2 0.056314 0.468334 0.851875
O O3 0.046270 0.353216 0.900259
O O4 0.448937 0.414640 0.176344
O O5 0.209857 0.065898 0.837883
O O6 0.818560 0.048360 0.747323
O O7 0.223202 0.986396 0.031860
O O8 0.157133 0.280894 0.676164
O O9 0.111799 0.177668 0.757058
O O10 0.815121 0.260852 0.647943
O O11 0.778148 0.214382 0.381836
O O12 0.879123 0.373154 0.475773
O O13 0.706247 0.864747 0.906214
O O14 0.426528 0.854796 0.933478
#
# Coordination Sequence:
#
# PCOD8126544 Si02
#       7
#     4   4   4   4   4   4   4
#     4  10  21  40  69  97 131 176 218 266 330 398
#     4   9  20  38  62 101 131 174 216 264 333 392
#     4  11  24  45  63  95 128 178 222 268 331 392
#     4   9  18  37  68  93 135 170 219 272 315 397
#     4   9  21  40  63  98 123 171 226 266 325 384
#     4  11  27  42  67  99 129 177 224 269 341 388
#     4  11  24  42  65  95 138 169 217 281 326 393
#
# _framework density 22.584092999999999
#
# number of rings (size 3 to 8) (size 9 to 14) (size 15 to 20)
#    0.000    2.000    1.429    1.286    2.000    9.714 
#    0.000    1.429    0.000    0.000    0.000    0.000 
#    0.000    0.000    0.000    0.000    0.000    0.000 
#
# Total GULP energy -347228.546845 kJ/mol
# GULP energy per Si atom -12401.019530 kJ/mol
# Density = 2.253269 g / cm^3
# Si number density = 22.584093 Si / 1000 Ang^3
#
#
#
# Elastic Constant Matrix: (Units=GPa)
#
#
# Indices 1 2 3 4 5 6 
#
# 1 56.7411 14.3651 28.1470 0.0000 -0.6069 0.0000
# 2 14.3651 103.7177 30.0039 0.0000 -5.0263 0.0000
# 3 28.1470 30.0039 92.6441 0.0000 12.1704 0.0000
# 4 0.0000 0.0000 0.0000 28.4779 0.0000 1.2769
# 5 -0.6069 -5.0263 12.1704 0.0000 25.3644 0.0000
# 6 0.0000 0.0000 0.0000 1.2769 0.0000 25.7873
#
#
#
# Elastic Compliance Matrix: (Units=1/GPa)
#
#
# Indices 1 2 3 4 5 6 
#
# 1 0.021157 -0.000846 -0.006615 0.000000 0.003513 0.000000
# 2 -0.000846 0.011069 -0.003856 0.000000 0.004024 0.000000
# 3 -0.006615 -0.003856 0.015128 0.000000 -0.008181 0.000000
# 4 0.000000 0.000000 0.000000 0.035193 0.000000 -0.001743
# 5 0.003513 0.004024 -0.008181 0.000000 0.044232 0.000000
# 6 0.000000 0.000000 0.000000 -0.001743 0.000000 0.038865
#
#
# Mechanical properties :
#
#
# Convention : Reuss Voigt Hill
#
# Bulk Modulus (GPa) = 40.45631 44.23722 42.34676
# Shear Modulus (GPa) = 25.44269 27.96505 26.70387
#
# Velocity S-wave (km/s) = 3.36009 3.52271 3.44236
# Velocity P-wave (km/s) = 5.74510 6.01468 5.88143
#
# Compressibility (1/GPa) = 0.02471803
#
# Stress axis : x y z
#
# Youngs Moduli (GPa) = 47.26481 90.33950 66.10478
#
# Poissons Ratio (x) = 0.07646 0.43731
# Poissons Ratio (y) = 0.04000 0.25492
# Poissons Ratio (z) = 0.31267 0.34838
#
# Static dielectric constant tensor:
#      x y z
#    x 3.875630 0.000000 -0.201410 
#    y 0.000000 4.254540 0.000000 
#    z -0.201410 0.000000 3.840530 
# 
# 
# High freq. dielectric constant tensor:
#      x y z
#    x 1.871150 0.000000 -0.011200 
#    y 0.000000 1.904940 0.000000 
#    z -0.011200 0.000000 1.879320 
# 
# From -- ./inp_files/26985.got.cif
#   From: 2010.03.12/outbox.cif.g09.slc.cpg/sg14_14_cif.got.tgz:26985.got - 2010.03.31 13:35:05.
