data_PCOD8126977
_publ_section_title
;
Structure prediction by ZEFSAII (Michael W. Deem and Ramdas Pophale) SiO2 
 PCOD8126977
Probable space group: P 21/C
;
_chemical_formula_sum "Si O2"
_cell_formula_units_Z 32
_cell_length_a 18.496070
_cell_length_b 13.971375
_cell_length_c 8.091437
_cell_angle_alpha 90.000000
_cell_angle_beta 135.043457
_cell_angle_gamma 90.000000
_cell_volume 1477.405192
_symmetry_space_group_name_H-M "P 21/C"
_symmetry_group_IT_number 14
_symmetry_cell_setting 'monoclinic'
loop_
_space_group_symop_operation_xyz
x,y,z
-x,1/2+y,1/2-z
-x,-y,-z
x,1/2-y,1/2+z
loop_
_atom_site_type_symbol
_atom_site_label
_atom_site_fract_x
_atom_site_fract_y
_atom_site_fract_z
Si Si1 0.771894 0.852367 0.413514
Si Si2 0.150658 0.709711 0.638438
Si Si3 0.972287 0.151124 0.779285
Si Si4 0.382226 0.522307 0.291518
Si Si5 0.202895 0.346152 0.668570
Si Si6 0.099445 0.005645 0.550256
Si Si7 0.284480 0.619485 0.437202
Si Si8 0.297208 0.952320 0.294803
O O1 0.815324 0.845409 0.666635
O O2 0.735771 0.748227 0.291771
O O3 0.862819 0.888129 0.437736
O O4 0.677518 0.925403 0.259398
O O5 0.047054 0.676241 0.563173
O O6 0.105847 0.772808 0.422607
O O7 0.241564 0.771458 0.876234
O O8 0.195467 0.609860 0.649339
O O9 0.925758 0.047146 0.663077
O O10 0.089069 0.156735 0.905658
O O11 0.500000 0.500000 0.500000
O O12 0.349732 0.603156 0.373706
O O13 0.363142 0.556554 0.070926
O O14 0.267333 0.437281 0.713508
O O15 0.188413 0.951791 0.791675
O O16 0.000000 0.000000 0.500000
O O17 0.349924 0.591333 0.711102
#
# Coordination Sequence:
#
# PCOD8126977 Si02
#       8
#     4   4   4   4   4   4   4   4
#     4  10  24  41  62  88 130 169 215 273 330 389
#     4  11  21  39  60  96 129 173 220 270 312 382
#     4  11  22  33  57  89 130 173 221 260 306 381
#     4  10  24  48  71  95 127 159 217 289 341 399
#     4  11  24  37  60  93 131 180 216 261 327 391
#     4  10  22  37  58  89 126 174 220 266 308 375
#     4  10  22  39  68  95 128 167 212 274 329 388
#     4  11  23  42  68  93 131 178 215 272 341 393
#
# _framework density 21.659594999999999
#
# number of rings (size 3 to 8) (size 9 to 14) (size 15 to 20)
#    0.000    1.500    1.250    4.500    8.750    4.500 
#    0.000    2.500    0.000    0.000    0.000    0.000 
#    0.000    0.000    0.000    0.000    0.000    0.000 
#
# Total GULP energy -396502.226091 kJ/mol
# GULP energy per Si atom -12390.694565 kJ/mol
# Density = 2.161030 g / cm^3
# Si number density = 21.659595 Si / 1000 Ang^3
#
#
#
# Elastic Constant Matrix: (Units=GPa)
#
#
# Indices 1 2 3 4 5 6 
#
# 1 75.6063 10.9510 34.6460 0.0000 -6.8979 0.0000
# 2 10.9510 86.9048 10.3543 0.0000 -12.6987 0.0000
# 3 34.6460 10.3543 77.6362 0.0000 -2.6683 0.0000
# 4 0.0000 0.0000 0.0000 19.4228 0.0000 -7.3471
# 5 -6.8979 -12.6987 -2.6683 0.0000 28.8334 0.0000
# 6 0.0000 0.0000 0.0000 -7.3471 0.0000 23.9354
#
#
#
# Elastic Compliance Matrix: (Units=1/GPa)
#
#
# Indices 1 2 3 4 5 6 
#
# 1 0.017000 -0.000822 -0.007373 0.000000 0.003023 0.000000
# 2 -0.000822 0.012505 -0.001122 0.000000 0.005207 0.000000
# 3 -0.007373 -0.001122 0.016295 0.000000 -0.000750 0.000000
# 4 0.000000 0.000000 0.000000 0.058249 0.000000 0.017880
# 5 0.003023 0.005207 -0.000750 0.000000 0.037629 0.000000
# 6 0.000000 0.000000 0.000000 0.017880 0.000000 0.047267
#
#
# Mechanical properties :
#
#
# Convention : Reuss Voigt Hill
#
# Bulk Modulus (GPa) = 36.81114 39.11666 37.96390
# Shear Modulus (GPa) = 23.08039 26.71803 24.89921
#
# Velocity S-wave (km/s) = 3.26789 3.51599 3.39421
# Velocity P-wave (km/s) = 5.59205 5.88064 5.73816
#
# Compressibility (1/GPa) = 0.02716569
#
# Stress axis : x y z
#
# Youngs Moduli (GPa) = 58.82424 79.96829 61.36984
#
# Poissons Ratio (x) = 0.06574 0.45247
# Poissons Ratio (y) = 0.04836 0.06885
# Poissons Ratio (z) = 0.43370 0.08972
#
# Static dielectric constant tensor:
#      x y z
#    x 3.757070 0.000000 -0.396400 
#    y 0.000000 4.288680 0.000000 
#    z -0.396400 0.000000 3.824960 
# 
# 
# High freq. dielectric constant tensor:
#      x y z
#    x 1.835850 0.000000 -0.033480 
#    y 0.000000 1.859190 0.000000 
#    z -0.033480 0.000000 1.832260 
# 
# From -- ./inp_files/19032.got.cif
#   From: 2010.03.12/outbox.cif.g09.slc.cpg/sg14_10_cif.got.tgz:19032.got - 2010.03.31 13:35:05.
