data_PCOD8126829
_publ_section_title
;
Structure prediction by ZEFSAII (Michael W. Deem and Ramdas Pophale) SiO2 
 PCOD8126829
Probable space group: P 21/C
;
_chemical_formula_sum "Si O2"
_cell_formula_units_Z 28
_cell_length_a 15.320929
_cell_length_b 7.828236
_cell_length_c 13.248855
_cell_angle_alpha 90.000000
_cell_angle_beta 50.341920
_cell_angle_gamma 90.000000
_cell_volume 1223.327929
_symmetry_space_group_name_H-M "P 21/C"
_symmetry_group_IT_number 14
_symmetry_cell_setting 'monoclinic'
loop_
_space_group_symop_operation_xyz
x,y,z
-x,1/2+y,1/2-z
-x,-y,-z
x,1/2-y,1/2+z
loop_
_atom_site_type_symbol
_atom_site_label
_atom_site_fract_x
_atom_site_fract_y
_atom_site_fract_z
Si Si1 0.289504 0.475659 0.745552
Si Si2 0.503068 0.249523 0.572688
Si Si3 0.853948 0.167881 0.806935
Si Si4 0.353296 0.926455 0.687327
Si Si5 0.310492 0.777724 0.405999
Si Si6 0.034857 0.054372 0.123024
Si Si7 0.849213 0.639300 0.661848
O O1 0.411651 0.400054 0.619372
O O2 0.240540 0.625953 0.708970
O O3 0.306364 0.542030 0.848037
O O4 0.193073 0.332620 0.809714
O O5 0.589311 0.234225 0.413648
O O6 0.573571 0.269916 0.622653
O O7 0.447194 0.068121 0.632881
O O8 0.955612 0.279007 0.686575
O O9 0.904438 0.991375 0.816010
O O10 0.794915 0.274918 0.940146
O O11 0.303045 0.871699 0.830836
O O12 0.244424 0.015166 0.714439
O O13 0.130295 0.088370 0.969408
O O14 0.963052 0.885539 0.142831
#
# Coordination Sequence:
#
# PCOD8126829 Si02
#       7
#     4   4   4   4   4   4   4
#     4  11  26  44  67 105 136 182 230 288 342 423
#     4  10  23  42  68  96 132 177 220 280 349 411
#     4  12  27  43  69 102 138 183 238 287 350 408
#     4  10  21  43  64  95 132 171 218 280 338 410
#     4  12  23  41  66  97 133 176 225 283 338 416
#     4  11  24  44  69  97 135 187 228 291 344 406
#     4  10  22  45  69  94 138 178 232 284 344 409
#
# _framework density 22.888383999999999
#
# number of rings (size 3 to 8) (size 9 to 14) (size 15 to 20)
#    0.000    1.143    1.429    4.286    4.000    4.000 
#    7.714    0.000    0.000    0.000    0.000    0.000 
#    0.000    0.000    0.000    0.000    0.000    0.000 
#
# Total GULP energy -347055.484373 kJ/mol
# GULP energy per Si atom -12394.838728 kJ/mol
# Density = 2.283629 g / cm^3
# Si number density = 22.888384 Si / 1000 Ang^3
#
#
#
# Elastic Constant Matrix: (Units=GPa)
#
#
# Indices 1 2 3 4 5 6 
#
# 1 100.0500 33.1107 26.7412 0.0000 6.0760 0.0000
# 2 33.1107 72.1128 42.2232 0.0000 -14.8510 0.0000
# 3 26.7412 42.2232 108.3734 0.0000 -7.1212 0.0000
# 4 0.0000 0.0000 0.0000 37.0985 0.0000 -6.0756
# 5 6.0760 -14.8510 -7.1212 0.0000 34.6295 0.0000
# 6 0.0000 0.0000 0.0000 -6.0756 0.0000 35.4086
#
#
#
# Elastic Compliance Matrix: (Units=1/GPa)
#
#
# Indices 1 2 3 4 5 6 
#
# 1 0.012652 -0.006268 -0.001016 0.000000 -0.005117 0.000000
# 2 -0.006268 0.022563 -0.006626 0.000000 0.009414 0.000000
# 3 -0.001016 -0.006626 0.012047 0.000000 -0.000186 0.000000
# 4 0.000000 0.000000 0.000000 0.027735 0.000000 0.004759
# 5 -0.005117 0.009414 -0.000186 0.000000 0.033774 0.000000
# 6 0.000000 0.000000 0.000000 0.004759 0.000000 0.029058
#
#
# Mechanical properties :
#
#
# Convention : Reuss Voigt Hill
#
# Bulk Modulus (GPa) = 51.43240 53.85403 52.64321
# Shear Modulus (GPa) = 29.04808 33.32473 31.18641
#
# Velocity S-wave (km/s) = 3.56633 3.81985 3.69527
# Velocity P-wave (km/s) = 6.28316 6.56011 6.42313
#
# Compressibility (1/GPa) = 0.01944300
#
# Stress axis : x y z
#
# Youngs Moduli (GPa) = 79.04156 44.32018 83.00655
#
# Poissons Ratio (x) = 0.27779 0.08433
# Poissons Ratio (y) = 0.49542 0.54997
# Poissons Ratio (z) = 0.08031 0.29365
#
# Static dielectric constant tensor:
#      x y z
#    x 4.218460 0.000000 -0.141430 
#    y 0.000000 4.005290 0.000000 
#    z -0.141430 0.000000 4.103250 
# 
# 
# High freq. dielectric constant tensor:
#      x y z
#    x 1.916370 0.000000 -0.016460 
#    y 0.000000 1.905620 0.000000 
#    z -0.016460 0.000000 1.903960 
# 
# From -- ./inp_files/31734.got.cif
#   From: 2010.03.12/outbox.cif.g09.slc.cpg/sg14_16_cif.got.tgz:31734.got - 2010.03.31 13:35:05.
