data_PCOD8126305
_publ_section_title
;
Structure prediction by ZEFSAII (Michael W. Deem and Ramdas Pophale) SiO2 
 PCOD8126305
Probable space group: P 21/C
;
_chemical_formula_sum "Si O2"
_cell_formula_units_Z 20
_cell_length_a 9.013122
_cell_length_b 7.196538
_cell_length_c 23.039015
_cell_angle_alpha 90.000000
_cell_angle_beta 144.354152
_cell_angle_gamma 90.000000
_cell_volume 870.888428
_symmetry_space_group_name_H-M "P 21/C"
_symmetry_group_IT_number 14
_symmetry_cell_setting 'monoclinic'
loop_
_space_group_symop_operation_xyz
x,y,z
-x,1/2+y,1/2-z
-x,-y,-z
x,1/2-y,1/2+z
loop_
_atom_site_type_symbol
_atom_site_label
_atom_site_fract_x
_atom_site_fract_y
_atom_site_fract_z
Si Si1 0.656659 0.244136 0.315952
Si Si2 0.277004 0.918308 0.284052
Si Si3 0.361585 0.756021 0.565246
Si Si4 0.878971 0.629310 0.843383
Si Si5 0.207666 0.981929 0.807639
O O1 0.720813 0.382026 0.284178
O O2 0.742567 0.327253 0.406171
O O3 0.347675 0.218482 0.223988
O O4 0.791848 0.047059 0.353069
O O5 0.306477 0.725295 0.328057
O O6 0.006811 0.017871 0.210738
O O7 0.507620 0.045740 0.379295
O O8 0.556239 0.610695 0.597757
O O9 0.136834 0.782861 0.448581
O O10 0.922924 0.567067 0.791362
#
# Coordination Sequence:
#
# PCOD8126305 Si02
#       5
#     4   4   4   4   4
#     4  10  21  39  64  90 126 162 207 268 314 362
#     4  11  21  41  66  92 132 169 204 267 321 368
#     4  11  22  43  66  91 130 167 219 257 315 388
#     4  10  22  41  64  93 123 170 213 263 316 377
#     4  10  23  42  63  94 130 169 209 263 322 373
#
# _framework density 22.965053000000001
#
# number of rings (size 3 to 8) (size 9 to 14) (size 15 to 20)
#    0.000    1.600    4.000    0.600    0.000    0.800 
#    3.600    4.000    0.000    0.000    0.000    0.000 
#    0.000    0.000    0.000    0.000    0.000    0.000 
#
# Total GULP energy -247966.369150 kJ/mol
# GULP energy per Si atom -12398.318457 kJ/mol
# Density = 2.291278 g / cm^3
# Si number density = 22.965053 Si / 1000 Ang^3
#
#
#
# Elastic Constant Matrix: (Units=GPa)
#
#
# Indices 1 2 3 4 5 6 
#
# 1 73.4576 -5.9725 16.1596 0.0000 9.8904 0.0000
# 2 -5.9725 86.3308 10.5268 0.0000 -1.5108 0.0000
# 3 16.1596 10.5268 85.3074 0.0000 -0.6804 0.0000
# 4 0.0000 0.0000 0.0000 34.4538 0.0000 7.7265
# 5 9.8904 -1.5108 -0.6804 0.0000 15.0618 0.0000
# 6 0.0000 0.0000 0.0000 7.7265 0.0000 27.2114
#
#
#
# Elastic Compliance Matrix: (Units=1/GPa)
#
#
# Indices 1 2 3 4 5 6 
#
# 1 0.015836 0.001309 -0.003244 0.000000 -0.010414 0.000000
# 2 0.001309 0.011887 -0.001713 0.000000 0.000256 0.000000
# 3 -0.003244 -0.001713 0.012568 0.000000 0.002526 0.000000
# 4 0.000000 0.000000 0.000000 0.030998 0.000000 -0.008802
# 5 -0.010414 0.000256 0.002526 0.000000 0.073371 0.000000
# 6 0.000000 0.000000 0.000000 -0.008802 0.000000 0.039249
#
#
# Mechanical properties :
#
#
# Convention : Reuss Voigt Hill
#
# Bulk Modulus (GPa) = 30.30777 31.83594 31.07185
# Shear Modulus (GPa) = 24.72753 30.30418 27.51586
#
# Velocity S-wave (km/s) = 3.28494 3.63654 3.46520
# Velocity P-wave (km/s) = 5.25488 5.61475 5.43779
#
# Compressibility (1/GPa) = 0.03299484
#
# Stress axis : x y z
#
# Youngs Moduli (GPa) = 63.14918 84.12391 79.56488
#
# Poissons Ratio (x) = -0.11011 0.25813
# Poissons Ratio (y) = -0.08265 0.13628
# Poissons Ratio (z) = 0.20487 0.14408
#
# Static dielectric constant tensor:
#      x y z
#    x 4.454760 0.000000 0.017840 
#    y 0.000000 4.275680 0.000000 
#    z 0.017840 0.000000 3.695310 
# 
# 
# High freq. dielectric constant tensor:
#      x y z
#    x 1.924730 0.000000 0.003460 
#    y 0.000000 1.922890 0.000000 
#    z 0.003460 0.000000 1.870600 
# 
# From -- ./inp_files/33647.got.cif
#   From: 2010.03.12/outbox.cif.g09.slc.cpg/sg14_17_cif.got.tgz:33647.got - 2010.03.31 13:35:05.
