data_PCOD8126019
_publ_section_title
;
Structure prediction by ZEFSAII (Michael W. Deem and Ramdas Pophale) SiO2 
 PCOD8126019
Probable space group: P 21/C
;
_chemical_formula_sum "Si O2"
_cell_formula_units_Z 32
_cell_length_a 11.820787
_cell_length_b 12.595281
_cell_length_c 21.608624
_cell_angle_alpha 90.000000
_cell_angle_beta 149.344879
_cell_angle_gamma 90.000000
_cell_volume 1640.363839
_symmetry_space_group_name_H-M "P 21/C"
_symmetry_group_IT_number 14
_symmetry_cell_setting 'monoclinic'
loop_
_space_group_symop_operation_xyz
x,y,z
-x,1/2+y,1/2-z
-x,-y,-z
x,1/2-y,1/2+z
loop_
_atom_site_type_symbol
_atom_site_label
_atom_site_fract_x
_atom_site_fract_y
_atom_site_fract_z
Si Si1 0.042617 0.696615 0.440148
Si Si2 0.076745 0.385467 0.202936
Si Si3 0.212050 0.724629 0.831438
Si Si4 0.423272 0.114526 0.297054
Si Si5 0.004803 0.125395 0.365886
Si Si6 0.495234 0.125394 0.634118
Si Si7 0.542619 0.303376 0.440146
Si Si8 0.712056 0.224629 0.331431
O O1 0.249968 0.647074 0.499972
O O2 0.107194 0.714183 0.541820
O O3 0.976253 0.810231 0.380059
O O4 0.839656 0.614552 0.340736
O O5 0.996313 0.501321 0.147926
O O6 0.339672 0.385445 0.340729
O O7 0.947515 0.347955 0.202743
O O8 0.062470 0.812235 0.727416
O O9 0.334186 0.648804 0.840608
O O10 0.392905 0.785771 0.958226
O O11 0.476287 0.189775 0.380049
O O12 0.552521 0.152008 0.297252
O O13 0.503687 0.998673 0.352067
O O14 0.834311 0.148830 0.340670
O O15 0.250036 0.162429 0.499993
O O16 0.562420 0.187796 0.727376
#
# Coordination Sequence:
#
# PCOD8126019 Si02
#       8
#     4   4   4   4   4   4   4   4
#     4   9  19  37  58  85 116 146 185 230 275 327
#     4  10  21  37  61  85 110 149 189 229 276 329
#     4  10  22  38  56  83 117 146 182 232 279 331
#     4  10  21  37  61  85 110 149 189 229 276 329
#     4  11  23  38  58  83 112 149 187 228 280 331
#     4  11  23  38  58  83 112 149 187 228 280 331
#     4   9  19  37  58  85 116 146 185 230 275 327
#     4  10  22  38  56  83 117 146 182 232 279 331
#
# _framework density 19.507867000000001
#
# number of rings (size 3 to 8) (size 9 to 14) (size 15 to 20)
#    0.000    2.000    0.000    3.750    0.000   11.000 
#    0.000    5.000    0.000    0.000    0.000    0.000 
#    0.000    0.000    0.000    0.000    0.000    0.000 
#
# Total GULP energy -396960.563797 kJ/mol
# GULP energy per Si atom -12405.017619 kJ/mol
# Density = 1.946347 g / cm^3
# Si number density = 19.507867 Si / 1000 Ang^3
#
#
#
# Elastic Constant Matrix: (Units=GPa)
#
#
# Indices 1 2 3 4 5 6 
#
# 1 74.9741 24.2919 48.9257 0.0000 -10.0075 0.0000
# 2 24.2919 60.3826 30.7828 0.0000 -6.7542 0.0000
# 3 48.9257 30.7828 152.5889 0.0000 -2.1857 0.0000
# 4 0.0000 0.0000 0.0000 22.2438 0.0000 -1.2066
# 5 -10.0075 -6.7542 -2.1857 0.0000 40.6594 0.0000
# 6 0.0000 0.0000 0.0000 -1.2066 0.0000 20.3316
#
#
#
# Elastic Compliance Matrix: (Units=1/GPa)
#
#
# Indices 1 2 3 4 5 6 
#
# 1 0.018522 -0.004518 -0.004977 0.000000 0.003541 0.000000
# 2 -0.004518 0.019902 -0.002537 0.000000 0.002058 0.000000
# 3 -0.004977 -0.002537 0.008644 0.000000 -0.001182 0.000000
# 4 0.000000 0.000000 0.000000 0.045102 0.000000 0.002677
# 5 0.003541 0.002058 -0.001182 0.000000 0.025744 0.000000
# 6 0.000000 0.000000 0.000000 0.002677 0.000000 0.049343
#
#
# Mechanical properties :
#
#
# Convention : Reuss Voigt Hill
#
# Bulk Modulus (GPa) = 43.46905 55.10516 49.28711
# Shear Modulus (GPa) = 25.12696 28.90996 27.01846
#
# Velocity S-wave (km/s) = 3.59282 3.85381 3.72560
# Velocity P-wave (km/s) = 6.28827 6.93624 6.62019
#
# Compressibility (1/GPa) = 0.02300487
#
# Stress axis : x y z
#
# Youngs Moduli (GPa) = 53.98955 50.24572 115.68589
#
# Poissons Ratio (x) = 0.22703 0.57573
# Poissons Ratio (y) = 0.24394 0.29347
# Poissons Ratio (z) = 0.26869 0.12746
#
# Static dielectric constant tensor:
#      x y z
#    x 3.629820 0.000000 0.040940 
#    y 0.000000 3.230330 0.000000 
#    z 0.040940 0.000000 3.937600 
# 
# 
# High freq. dielectric constant tensor:
#      x y z
#    x 1.768980 0.000000 0.002150 
#    y 0.000000 1.736900 0.000000 
#    z 0.002150 0.000000 1.783960 
# 
# From -- ./inp_files/29342.got.cif
#   From: 2010.03.12/outbox.cif.g09.slc.cpg/sg14_15_cif.got.tgz:29342.got - 2010.03.31 13:35:05.
