data_PCOD8126391
_publ_section_title
;
Structure prediction by ZEFSAII (Michael W. Deem and Ramdas Pophale) SiO2 
 PCOD8126391
Probable space group: P 21/C
;
_chemical_formula_sum "Si O2"
_cell_formula_units_Z 28
_cell_length_a 21.178334
_cell_length_b 8.366943
_cell_length_c 11.542396
_cell_angle_alpha 90.000000
_cell_angle_beta 143.331435
_cell_angle_gamma 90.000000
_cell_volume 1221.415948
_symmetry_space_group_name_H-M "P 21/C"
_symmetry_group_IT_number 14
_symmetry_cell_setting 'monoclinic'
loop_
_space_group_symop_operation_xyz
x,y,z
-x,1/2+y,1/2-z
-x,-y,-z
x,1/2-y,1/2+z
loop_
_atom_site_type_symbol
_atom_site_label
_atom_site_fract_x
_atom_site_fract_y
_atom_site_fract_z
Si Si1 0.386084 0.388376 0.211053
Si Si2 0.919822 0.717828 0.676145
Si Si3 0.920378 0.049620 0.986631
Si Si4 0.720684 0.567767 0.490558
Si Si5 0.387217 0.537651 0.451366
Si Si6 0.828041 0.472685 0.103599
Si Si7 0.739052 0.193083 0.843111
O O1 0.364726 0.205394 0.152882
O O2 0.394485 0.404932 0.362339
O O3 0.497690 0.442688 0.318463
O O4 0.289705 0.496092 0.018862
O O5 0.952713 0.607917 0.613251
O O6 0.843056 0.615899 0.648160
O O7 0.855437 0.883605 0.552171
O O8 0.021657 0.783284 0.895220
O O9 0.918214 0.016331 0.841054
O O10 0.797868 0.086630 0.832767
O O11 0.707127 0.510769 0.602028
O O12 0.685902 0.423548 0.357267
O O13 0.355967 0.707531 0.350599
O O14 0.827370 0.303887 0.038202
#
# Coordination Sequence:
#
# PCOD8126391 Si02
#       7
#     4   4   4   4   4   4   4
#     4   9  22  39  62  91 121 166 215 250 316 382
#     4  10  23  40  62  90 117 162 213 252 320 380
#     4  11  22  41  63  86 124 162 205 268 314 375
#     4  10  22  39  61  92 124 161 212 264 316 373
#     4  10  21  41  62  88 129 165 204 266 313 374
#     4  10  21  40  60  87 124 158 203 259 312 376
#     4  10  22  38  60  91 121 161 209 251 318 380
#
# _framework density 22.924213999999999
#
# number of rings (size 3 to 8) (size 9 to 14) (size 15 to 20)
#    0.000    2.000    0.000    2.143    0.000   14.286 
#    0.000   11.429    0.000    0.000    0.000    0.000 
#    0.000    0.000    0.000    0.000    0.000    0.000 
#
# Total GULP energy -347003.518524 kJ/mol
# GULP energy per Si atom -12392.982804 kJ/mol
# Density = 2.287204 g / cm^3
# Si number density = 22.924214 Si / 1000 Ang^3
#
#
#
# Elastic Constant Matrix: (Units=GPa)
#
#
# Indices 1 2 3 4 5 6 
#
# 1 120.5797 34.1884 25.3278 0.0000 -10.8059 0.0000
# 2 34.1884 100.6919 25.1911 0.0000 -14.1923 0.0000
# 3 25.3278 25.1911 116.5738 0.0000 6.0407 0.0000
# 4 0.0000 0.0000 0.0000 28.9991 0.0000 -3.9845
# 5 -10.8059 -14.1923 6.0407 0.0000 22.7956 0.0000
# 6 0.0000 0.0000 0.0000 -3.9845 0.0000 23.0151
#
#
#
# Elastic Compliance Matrix: (Units=1/GPa)
#
#
# Indices 1 2 3 4 5 6 
#
# 1 0.009649 -0.002323 -0.001781 0.000000 0.003599 0.000000
# 2 -0.002323 0.012385 -0.002549 0.000000 0.007285 0.000000
# 3 -0.001781 -0.002549 0.009776 0.000000 -0.005022 0.000000
# 4 0.000000 0.000000 0.000000 0.035324 0.000000 0.006116
# 5 0.003599 0.007285 -0.005022 0.000000 0.051440 0.000000
# 6 0.000000 0.000000 0.000000 0.006116 0.000000 0.044508
#
#
# Mechanical properties :
#
#
# Convention : Reuss Voigt Hill
#
# Bulk Modulus (GPa) = 54.04416 56.36222 55.20319
# Shear Modulus (GPa) = 27.38886 31.83785 29.61336
#
# Velocity S-wave (km/s) = 3.46028 3.73074 3.59805
# Velocity P-wave (km/s) = 6.29214 6.57249 6.43384
#
# Compressibility (1/GPa) = 0.01850339
#
# Stress axis : x y z
#
# Youngs Moduli (GPa) = 103.64220 80.74573 102.28903
#
# Poissons Ratio (x) = 0.18759 0.18216
# Poissons Ratio (y) = 0.24078 0.26073
# Poissons Ratio (z) = 0.18457 0.20582
#
# Static dielectric constant tensor:
#      x y z
#    x 4.178200 0.000000 0.263310 
#    y 0.000000 4.169460 0.000000 
#    z 0.263310 0.000000 4.049640 
# 
# 
# High freq. dielectric constant tensor:
#      x y z
#    x 1.911550 0.000000 0.027980 
#    y 0.000000 1.909450 0.000000 
#    z 0.027980 0.000000 1.893780 
# 
# From -- ./inp_files/34935.got.cif
#   From: 2010.03.12/outbox.cif.g09.slc.cpg/sg14_18_cif.got.tgz:34935.got - 2010.03.31 13:35:05.
