data_PCOD8126173
_publ_section_title
;
Structure prediction by ZEFSAII (Michael W. Deem and Ramdas Pophale) SiO2 
 PCOD8126173
Probable space group: P 21/C
;
_chemical_formula_sum "Si O2"
_cell_formula_units_Z 32
_cell_length_a 18.962374
_cell_length_b 9.183137
_cell_length_c 9.381268
_cell_angle_alpha 90.000000
_cell_angle_beta 73.380665
_cell_angle_gamma 90.000000
_cell_volume 1565.356697
_symmetry_space_group_name_H-M "P 21/C"
_symmetry_group_IT_number 14
_symmetry_cell_setting 'monoclinic'
loop_
_space_group_symop_operation_xyz
x,y,z
-x,1/2+y,1/2-z
-x,-y,-z
x,1/2-y,1/2+z
loop_
_atom_site_type_symbol
_atom_site_label
_atom_site_fract_x
_atom_site_fract_y
_atom_site_fract_z
Si Si1 0.855627 0.173148 0.646837
Si Si2 0.482738 0.792436 0.921920
Si Si3 0.415795 0.244416 0.391699
Si Si4 0.758806 0.249287 0.455054
Si Si5 0.646796 0.036390 0.126032
Si Si6 0.055933 0.403806 0.876745
Si Si7 0.625307 0.054675 0.465896
Si Si8 0.005349 0.349857 0.582038
O O1 0.830621 0.197214 0.499301
O O2 0.926542 0.272093 0.635855
O O3 0.869931 0.000868 0.668095
O O4 0.786206 0.222910 0.779986
O O5 0.547954 0.816018 0.772470
O O6 0.449249 0.628553 0.931004
O O7 0.415837 0.903667 0.943788
O O8 0.518612 0.817613 0.055389
O O9 0.352659 0.361990 0.391202
O O10 0.375723 0.115641 0.499687
O O11 0.725923 0.399893 0.536482
O O12 0.697199 0.124221 0.496761
O O13 0.627312 0.083369 0.296727
O O14 0.031820 0.375440 0.728000
O O15 0.000000 0.500000 0.000000
O O16 0.062944 0.251265 0.958908
O O17 0.000000 0.500000 0.500000
#
# Coordination Sequence:
#
# PCOD8126173 Si02
#       8
#     4   4   4   4   4   4   4   4
#     4  11  22  42  67  93 123 167 215 245 301 382
#     4  11  22  37  65  89 117 160 203 260 327 385
#     4  12  22  38  63  87 123 155 202 267 333 366
#     4  11  24  42  66  86 119 176 215 250 302 379
#     4  11  23  41  60  90 123 160 210 260 313 373
#     4  10  21  38  64  98 132 164 206 257 311 365
#     4  11  23  42  59  89 128 157 208 267 308 376
#     4  11  21  39  67 102 137 162 201 265 325 365
#
# _framework density 20.442623000000001
#
# number of rings (size 3 to 8) (size 9 to 14) (size 15 to 20)
#    0.000    1.000    3.750    5.250    0.000    1.000 
#    0.000    3.750    0.000    0.000    0.000    0.000 
#    0.000    0.000    0.000    0.000    0.000    0.000 
#
# Total GULP energy -396815.180881 kJ/mol
# GULP energy per Si atom -12400.474403 kJ/mol
# Density = 2.039610 g / cm^3
# Si number density = 20.442623 Si / 1000 Ang^3
#
#
#
# Elastic Constant Matrix: (Units=GPa)
#
#
# Indices 1 2 3 4 5 6 
#
# 1 71.4727 27.8909 16.5978 0.0000 4.0811 0.0000
# 2 27.8909 102.1861 33.3407 0.0000 0.8179 0.0000
# 3 16.5978 33.3407 96.1615 0.0000 4.0699 0.0000
# 4 0.0000 0.0000 0.0000 36.1823 0.0000 4.5866
# 5 4.0811 0.8179 4.0699 0.0000 31.1685 0.0000
# 6 0.0000 0.0000 0.0000 4.5866 0.0000 20.9953
#
#
#
# Elastic Compliance Matrix: (Units=1/GPa)
#
#
# Indices 1 2 3 4 5 6 
#
# 1 0.015923 -0.003901 -0.001319 0.000000 -0.001810 0.000000
# 2 -0.003901 0.011992 -0.003512 0.000000 0.000655 0.000000
# 3 -0.001319 -0.003512 0.011899 0.000000 -0.001289 0.000000
# 4 0.000000 0.000000 0.000000 0.028425 0.000000 -0.006210
# 5 -0.001810 0.000655 -0.001289 0.000000 0.032472 0.000000
# 6 0.000000 0.000000 0.000000 -0.006210 0.000000 0.048986
#
#
# Mechanical properties :
#
#
# Convention : Reuss Voigt Hill
#
# Bulk Modulus (GPa) = 44.74443 47.27548 46.00996
# Shear Modulus (GPa) = 28.63496 30.46862 29.55179
#
# Velocity S-wave (km/s) = 3.74672 3.86482 3.80623
# Velocity P-wave (km/s) = 6.37593 6.56444 6.47087
#
# Compressibility (1/GPa) = 0.02234915
#
# Stress axis : x y z
#
# Youngs Moduli (GPa) = 62.80035 83.39224 84.04014
#
# Poissons Ratio (x) = 0.32534 0.11087
# Poissons Ratio (y) = 0.24500 0.29515
# Poissons Ratio (z) = 0.08285 0.29287
#
# Static dielectric constant tensor:
#      x y z
#    x 3.533380 0.000000 0.047340 
#    y 0.000000 4.005120 0.000000 
#    z 0.047340 0.000000 3.781280 
# 
# 
# High freq. dielectric constant tensor:
#      x y z
#    x 1.775800 0.000000 0.009110 
#    y 0.000000 1.804310 0.000000 
#    z 0.009110 0.000000 1.814470 
# 
# From -- ./inp_files/18612.got.cif
#   From: 2010.03.12/outbox.cif.g09.slc.cpg/sg14_10_cif.got.tgz:18612.got - 2010.03.31 13:35:05.
