data_PCOD8126717
_publ_section_title
;
Structure prediction by ZEFSAII (Michael W. Deem and Ramdas Pophale) SiO2 
 PCOD8126717
Probable space group: P 21/C
;
_chemical_formula_sum "Si O2"
_cell_formula_units_Z 24
_cell_length_a 16.283376
_cell_length_b 10.512655
_cell_length_c 21.525407
_cell_angle_alpha 90.000000
_cell_angle_beta 161.471248
_cell_angle_gamma 90.000000
_cell_volume 1170.942263
_symmetry_space_group_name_H-M "P 21/C"
_symmetry_group_IT_number 14
_symmetry_cell_setting 'monoclinic'
loop_
_space_group_symop_operation_xyz
x,y,z
-x,1/2+y,1/2-z
-x,-y,-z
x,1/2-y,1/2+z
loop_
_atom_site_type_symbol
_atom_site_label
_atom_site_fract_x
_atom_site_fract_y
_atom_site_fract_z
Si Si1 0.525694 0.698298 0.683284
Si Si2 0.190032 0.569663 0.913623
Si Si3 0.548693 0.828779 0.340955
Si Si4 0.681218 0.054320 0.078282
Si Si5 0.959041 0.145913 0.954452
Si Si6 0.053653 0.811608 0.195541
O O1 0.294944 0.801075 0.519441
O O2 0.536419 0.634478 0.759103
O O3 0.468169 0.585934 0.593073
O O4 0.789533 0.768377 0.852663
O O5 0.179757 0.583548 0.831321
O O6 0.895861 0.553662 0.723526
O O7 0.365885 0.451014 0.058102
O O8 0.269193 0.790966 0.167942
O O9 0.747048 0.710399 0.490044
O O10 0.810071 0.178310 0.198144
O O11 0.500000 0.000000 0.000000
O O12 0.888235 0.142636 0.831561
O O13 0.000000 0.000000 0.000000
#
# Coordination Sequence:
#
# PCOD8126717 Si02
#       6
#     4   4   4   4   4   4
#     4  10  23  42  61  93 126 157 209 252 302 368
#     4  10  21  42  61  86 125 162 197 255 303 357
#     4  10  22  40  63  90 122 162 198 256 308 349
#     4  10  23  41  62  91 121 163 207 249 307 359
#     4  11  22  40  65  91 121 161 205 248 305 369
#     4   9  23  42  59  92 125 154 209 249 299 368
#
# _framework density 20.496313000000001
#
# number of rings (size 3 to 8) (size 9 to 14) (size 15 to 20)
#    0.000    2.000    1.667    0.000    7.000    0.667 
#    0.000    2.500    0.000    0.000    0.000    0.000 
#    0.000    0.000    0.000    0.000    0.000    0.000 
#
# Total GULP energy -297599.242246 kJ/mol
# GULP energy per Si atom -12399.968427 kJ/mol
# Density = 2.044966 g / cm^3
# Si number density = 20.496313 Si / 1000 Ang^3
#
#
#
# Elastic Constant Matrix: (Units=GPa)
#
#
# Indices 1 2 3 4 5 6 
#
# 1 151.2157 56.2572 81.8220 0.0000 -0.6687 0.0000
# 2 56.2572 49.4982 37.9903 0.0000 -0.5678 0.0000
# 3 81.8220 37.9903 129.2233 0.0000 7.0849 0.0000
# 4 0.0000 0.0000 0.0000 22.3100 0.0000 -5.4566
# 5 -0.6687 -0.5678 7.0849 0.0000 47.1759 0.0000
# 6 0.0000 0.0000 0.0000 -5.4566 0.0000 34.5965
#
#
#
# Elastic Compliance Matrix: (Units=1/GPa)
#
#
# Indices 1 2 3 4 5 6 
#
# 1 0.013856 -0.011581 -0.005417 0.000000 0.000870 0.000000
# 2 -0.011581 0.035872 -0.003254 0.000000 0.000756 0.000000
# 3 -0.005417 -0.003254 0.012232 0.000000 -0.001953 0.000000
# 4 0.000000 0.000000 0.000000 0.046621 0.000000 0.007353
# 5 0.000870 0.000756 -0.001953 0.000000 0.021512 0.000000
# 6 0.000000 0.000000 0.000000 0.007353 0.000000 0.030064
#
#
# Mechanical properties :
#
#
# Convention : Reuss Voigt Hill
#
# Bulk Modulus (GPa) = 46.60721 75.78624 61.19672
# Shear Modulus (GPa) = 24.05992 31.07433 27.56713
#
# Velocity S-wave (km/s) = 3.42989 3.89793 3.67138
# Velocity P-wave (km/s) = 6.20276 7.57062 6.92057
#
# Compressibility (1/GPa) = 0.02145591
#
# Stress axis : x y z
#
# Youngs Moduli (GPa) = 72.16878 27.87702 81.75228
#
# Poissons Ratio (x) = 0.32285 0.44282
# Poissons Ratio (y) = 0.83580 0.26605
# Poissons Ratio (z) = 0.39091 0.09072
#
# Static dielectric constant tensor:
#      x y z
#    x 3.734690 0.000000 -0.149370 
#    y 0.000000 3.735830 0.000000 
#    z -0.149370 0.000000 4.044760 
# 
# 
# High freq. dielectric constant tensor:
#      x y z
#    x 1.806500 0.000000 -0.007790 
#    y 0.000000 1.788390 0.000000 
#    z -0.007790 0.000000 1.818320 
# 
# From -- ./inp_files/68534.got.cif
#   From: 2010.03.12/outbox.cif.g09.slc.cpg/sg14_35_cif.got.tgz:68534.got - 2010.03.31 13:35:05.
