data_PCOD8126812
_publ_section_title
;
Structure prediction by ZEFSAII (Michael W. Deem and Ramdas Pophale) SiO2 
 PCOD8126812
Probable space group: P 21/C
;
_chemical_formula_sum "Si O2"
_cell_formula_units_Z 32
_cell_length_a 11.720348
_cell_length_b 11.215430
_cell_length_c 14.231543
_cell_angle_alpha 90.000000
_cell_angle_beta 46.310897
_cell_angle_gamma 90.000000
_cell_volume 1352.713750
_symmetry_space_group_name_H-M "P 21/C"
_symmetry_group_IT_number 14
_symmetry_cell_setting 'monoclinic'
loop_
_space_group_symop_operation_xyz
x,y,z
-x,1/2+y,1/2-z
-x,-y,-z
x,1/2-y,1/2+z
loop_
_atom_site_type_symbol
_atom_site_label
_atom_site_fract_x
_atom_site_fract_y
_atom_site_fract_z
Si Si1 0.459600 0.309260 0.946864
Si Si2 0.188108 0.402462 0.796002
Si Si3 0.915246 0.098392 0.894358
Si Si4 0.599837 0.987324 0.674523
Si Si5 0.145971 0.830276 0.466079
Si Si6 0.317308 0.398532 0.414429
Si Si7 0.742211 0.855813 0.271208
Si Si8 0.232030 0.848726 0.209183
O O1 0.396590 0.379939 0.074993
O O2 0.492362 0.418226 0.855823
O O3 0.335598 0.220003 0.966739
O O4 0.616665 0.236814 0.883797
O O5 0.267959 0.402733 0.853948
O O6 0.224176 0.281249 0.723047
O O7 0.265883 0.508537 0.690304
O O8 0.998531 0.410602 0.914223
O O9 0.876279 0.168822 0.820315
O O10 0.101345 0.067720 0.793799
O O11 0.864242 0.191612 0.003027
O O12 0.827822 0.973401 0.961245
O O13 0.691021 0.109016 0.589966
O O14 0.476628 0.022733 0.827092
O O15 0.136289 0.825041 0.358635
O O16 0.302663 0.370984 0.311488
#
# Coordination Sequence:
#
# PCOD8126812 Si02
#       8
#     4   4   4   4   4   4   4   4
#     4  12  26  42  71 106 137 181 232 290 345 409
#     4  10  21  42  72  95 138 186 236 280 335 411
#     4  11  27  45  70 100 140 183 229 284 348 416
#     4  11  23  42  70  95 137 182 227 289 345 400
#     4  10  23  45  68 101 139 188 232 287 342 411
#     4  12  25  46  73  97 143 179 230 290 346 410
#     4  11  27  44  67 104 138 184 225 284 356 409
#     4  11  23  42  72 104 133 181 237 282 336 417
#
# _framework density 23.656151000000001
#
# number of rings (size 3 to 8) (size 9 to 14) (size 15 to 20)
#    0.000    1.000    3.750    3.375    7.000    1.500 
#    2.250    0.000    0.000    0.000    0.000    0.000 
#    0.000    0.000    0.000    0.000    0.000    0.000 
#
# Total GULP energy -396565.599569 kJ/mol
# GULP energy per Si atom -12392.674987 kJ/mol
# Density = 2.360231 g / cm^3
# Si number density = 23.656151 Si / 1000 Ang^3
#
#
#
# Elastic Constant Matrix: (Units=GPa)
#
#
# Indices 1 2 3 4 5 6 
#
# 1 89.3352 -5.2725 16.3188 0.0000 9.3448 0.0000
# 2 -5.2725 41.5694 13.5795 0.0000 4.4481 0.0000
# 3 16.3188 13.5795 75.3621 0.0000 1.3291 0.0000
# 4 0.0000 0.0000 0.0000 33.4298 0.0000 -2.4947
# 5 9.3448 4.4481 1.3291 0.0000 42.2892 0.0000
# 6 0.0000 0.0000 0.0000 -2.4947 0.0000 26.9219
#
#
#
# Elastic Compliance Matrix: (Units=1/GPa)
#
#
# Indices 1 2 3 4 5 6 
#
# 1 0.012238 0.002882 -0.003118 0.000000 -0.002909 0.000000
# 2 0.002882 0.026516 -0.005345 0.000000 -0.003258 0.000000
# 3 -0.003118 -0.005345 0.014894 0.000000 0.000783 0.000000
# 4 0.000000 0.000000 0.000000 0.030122 0.000000 0.002791
# 5 -0.002909 -0.003258 0.000783 0.000000 0.024608 0.000000
# 6 0.000000 0.000000 0.000000 0.002791 0.000000 0.037403
#
#
# Mechanical properties :
#
#
# Convention : Reuss Voigt Hill
#
# Bulk Modulus (GPa) = 23.53676 28.39092 25.96384
# Shear Modulus (GPa) = 29.22210 32.63757 30.92984
#
# Velocity S-wave (km/s) = 3.51848 3.71841 3.61983
# Velocity P-wave (km/s) = 5.14562 5.51933 5.33575
#
# Compressibility (1/GPa) = 0.04248672
#
# Stress axis : x y z
#
# Youngs Moduli (GPa) = 81.71419 37.71272 67.14271
#
# Poissons Ratio (x) = -0.10869 0.20935
# Poissons Ratio (y) = -0.23550 0.35885
# Poissons Ratio (z) = 0.25478 0.20156
#
# Static dielectric constant tensor:
#      x y z
#    x 4.384480 0.000000 0.019860 
#    y 0.000000 4.270210 0.000000 
#    z 0.019860 0.000000 4.223800 
# 
# 
# High freq. dielectric constant tensor:
#      x y z
#    x 1.938610 0.000000 0.003440 
#    y 0.000000 1.937100 0.000000 
#    z 0.003440 0.000000 1.931980 
# 
# From -- ./inp_files/44623.got.cif
#   From: 2010.03.12/outbox.cif.g09.slc.cpg/sg14_23_cif.got.tgz:44623.got - 2010.03.31 13:35:05.
