data_PCOD8126501
_publ_section_title
;
Structure prediction by ZEFSAII (Michael W. Deem and Ramdas Pophale) SiO2 
 PCOD8126501
Probable space group: P 21/C
;
_chemical_formula_sum "Si O2"
_cell_formula_units_Z 20
_cell_length_a 19.845336
_cell_length_b 9.890095
_cell_length_c 9.708522
_cell_angle_alpha 90.000000
_cell_angle_beta 29.592337
_cell_angle_gamma 90.000000
_cell_volume 940.991313
_symmetry_space_group_name_H-M "P 21/C"
_symmetry_group_IT_number 14
_symmetry_cell_setting 'monoclinic'
loop_
_space_group_symop_operation_xyz
x,y,z
-x,1/2+y,1/2-z
-x,-y,-z
x,1/2-y,1/2+z
loop_
_atom_site_type_symbol
_atom_site_label
_atom_site_fract_x
_atom_site_fract_y
_atom_site_fract_z
Si Si1 0.520798 0.356674 0.391068
Si Si2 0.633954 0.770951 0.102071
Si Si3 0.075296 0.137972 0.396747
Si Si4 0.773835 0.492208 0.866969
Si Si5 0.976112 0.623255 0.702218
O O1 0.500000 0.500000 0.500000
O O2 0.430203 0.342218 0.415884
O O3 0.478648 0.239161 0.574476
O O4 0.680134 0.359224 0.063306
O O5 0.762166 0.862497 0.924710
O O6 0.685539 0.620085 0.971938
O O7 0.056239 0.177044 0.589641
O O8 0.000899 0.250317 0.438870
O O9 0.000000 0.000000 0.500000
O O10 0.882622 0.460493 0.553371
O O11 0.851086 0.530493 0.871758
#
# Coordination Sequence:
#
# PCOD8126501 Si02
#       5
#     4   4   4   4   4
#     4  10  21  41  64  90 126 169 210 259 322 388
#     4  10  21  40  66  87 130 167 214 263 328 373
#     4  11  24  39  65  96 126 171 217 263 328 383
#     4   9  21  41  66  91 128 171 213 270 322 370
#     4  10  23  41  66  92 132 164 221 269 318 381
#
# _framework density 21.254180999999999
#
# number of rings (size 3 to 8) (size 9 to 14) (size 15 to 20)
#    0.000    2.000    0.000    3.600   11.200    1.600 
#    7.200    4.000    0.000    0.000    0.000    0.000 
#    0.000    0.000    0.000    0.000    0.000    0.000 
#
# Total GULP energy -247912.202841 kJ/mol
# GULP energy per Si atom -12395.610142 kJ/mol
# Density = 2.120581 g / cm^3
# Si number density = 21.254181 Si / 1000 Ang^3
#
#
#
# Elastic Constant Matrix: (Units=GPa)
#
#
# Indices 1 2 3 4 5 6 
#
# 1 100.9236 45.8443 45.4917 0.0000 -1.3215 0.0000
# 2 45.8443 77.7022 51.8083 0.0000 -14.4917 0.0000
# 3 45.4917 51.8083 115.2047 0.0000 -15.6480 0.0000
# 4 0.0000 0.0000 0.0000 43.7718 0.0000 -5.4802
# 5 -1.3215 -14.4917 -15.6480 0.0000 29.5729 0.0000
# 6 0.0000 0.0000 0.0000 -5.4802 0.0000 43.7768
#
#
#
# Elastic Compliance Matrix: (Units=1/GPa)
#
#
# Indices 1 2 3 4 5 6 
#
# 1 0.014602 -0.007445 -0.003044 0.000000 -0.004606 0.000000
# 2 -0.007445 0.022887 -0.006330 0.000000 0.007534 0.000000
# 3 -0.003044 -0.006330 0.013240 0.000000 0.003768 0.000000
# 4 0.000000 0.000000 0.000000 0.023210 0.000000 0.002905
# 5 -0.004606 0.007534 0.003768 0.000000 0.039295 0.000000
# 6 0.000000 0.000000 0.000000 0.002905 0.000000 0.023207
#
#
# Mechanical properties :
#
#
# Convention : Reuss Voigt Hill
#
# Bulk Modulus (GPa) = 58.50125 64.45767 61.47946
# Shear Modulus (GPa) = 28.44556 33.47004 30.95780
#
# Velocity S-wave (km/s) = 3.66232 3.97262 3.82062
# Velocity P-wave (km/s) = 6.74298 7.17183 6.96071
#
# Compressibility (1/GPa) = 0.01709365
#
# Stress axis : x y z
#
# Youngs Moduli (GPa) = 68.48431 43.69212 75.52696
#
# Poissons Ratio (x) = 0.32528 0.22987
# Poissons Ratio (y) = 0.50985 0.47805
# Poissons Ratio (z) = 0.20844 0.27655
#
# Static dielectric constant tensor:
#      x y z
#    x 3.831170 0.000000 -0.338630 
#    y 0.000000 3.863870 0.000000 
#    z -0.338630 0.000000 5.336990 
# 
# 
# High freq. dielectric constant tensor:
#      x y z
#    x 1.825750 0.000000 -0.001780 
#    y 0.000000 1.811310 0.000000 
#    z -0.001780 0.000000 1.848850 
# 
# From -- ./inp_files/7869.got.cif
#   From: 2010.03.12/outbox.cif.g09.slc.cpg/sg14_4_cif.got.tgz:7869.got - 2010.03.31 13:35:05.
