data_PCOD8126735
_publ_section_title
;
Structure prediction by ZEFSAII (Michael W. Deem and Ramdas Pophale) SiO2 
 PCOD8126735
Probable space group: P 21/C
;
_chemical_formula_sum "Si O2"
_cell_formula_units_Z 32
_cell_length_a 11.872180
_cell_length_b 8.799117
_cell_length_c 30.263785
_cell_angle_alpha 90.000000
_cell_angle_beta 149.489339
_cell_angle_gamma 90.000000
_cell_volume 1605.087970
_symmetry_space_group_name_H-M "P 21/C"
_symmetry_group_IT_number 14
_symmetry_cell_setting 'monoclinic'
loop_
_space_group_symop_operation_xyz
x,y,z
-x,1/2+y,1/2-z
-x,-y,-z
x,1/2-y,1/2+z
loop_
_atom_site_type_symbol
_atom_site_label
_atom_site_fract_x
_atom_site_fract_y
_atom_site_fract_z
Si Si1 0.383855 0.898507 0.307745
Si Si2 0.226327 0.060153 0.961407
Si Si3 0.793989 0.396366 0.921509
Si Si4 0.668742 0.352454 0.639167
Si Si5 0.156304 0.796666 0.661804
Si Si6 0.972768 0.640011 0.308396
Si Si7 0.216436 0.923163 0.053227
Si Si8 0.288024 0.442414 0.266075
O O1 0.429552 0.779409 0.362363
O O2 0.339941 0.810936 0.246777
O O3 0.583936 0.008423 0.364955
O O4 0.178961 0.997683 0.255847
O O5 0.077681 0.211850 0.911242
O O6 0.143180 0.923979 0.902510
O O7 0.481890 0.108677 0.038820
O O8 0.244393 0.994074 0.015755
O O9 0.780497 0.328936 0.867421
O O10 0.822715 0.256050 0.964381
O O11 0.000000 0.500000 0.000000
O O12 0.888905 0.302174 0.687191
O O13 0.737195 0.496948 0.692371
O O14 0.146808 0.955719 0.684469
O O15 0.816725 0.774770 0.273553
O O16 0.449485 0.945563 0.158937
O O17 0.000000 0.000000 0.000000
#
# Coordination Sequence:
#
# PCOD8126735 Si02
#       8
#     4   4   4   4   4   4   4   4
#     4  10  23  40  62  91 125 159 209 254 295 374
#     4  10  22  40  62  89 125 157 205 249 302 368
#     4  12  25  38  62  89 124 163 198 245 307 365
#     4  10  21  42  63  86 124 166 200 250 317 353
#     4  10  23  40  60  88 124 162 197 246 306 360
#     4  11  21  39  65  92 117 160 210 260 298 355
#     4  11  23  42  61  88 123 164 197 243 306 367
#     4  10  23  40  63  90 123 155 204 254 296 363
#
# _framework density 19.936599999999999
#
# number of rings (size 3 to 8) (size 9 to 14) (size 15 to 20)
#    0.000    1.500    2.500    1.875    7.000    0.000 
#    0.000    0.625    0.000    0.000    0.000    0.000 
#    0.000    0.000    0.000    0.000    0.000    0.000 
#
# Total GULP energy -396633.463865 kJ/mol
# GULP energy per Si atom -12394.795746 kJ/mol
# Density = 1.989122 g / cm^3
# Si number density = 19.936600 Si / 1000 Ang^3
#
#
#
# Elastic Constant Matrix: (Units=GPa)
#
#
# Indices 1 2 3 4 5 6 
#
# 1 77.3499 29.2413 35.8643 0.0000 18.4720 0.0000
# 2 29.2413 130.3773 52.8687 0.0000 5.7124 0.0000
# 3 35.8643 52.8687 105.2748 0.0000 9.2535 0.0000
# 4 0.0000 0.0000 0.0000 34.4961 0.0000 3.2483
# 5 18.4720 5.7124 9.2535 0.0000 23.8460 0.0000
# 6 0.0000 0.0000 0.0000 3.2483 0.0000 31.2032
#
#
#
# Elastic Compliance Matrix: (Units=1/GPa)
#
#
# Indices 1 2 3 4 5 6 
#
# 1 0.018561 -0.001882 -0.004301 0.000000 -0.012258 0.000000
# 2 -0.001882 0.009827 -0.004364 0.000000 0.000797 0.000000
# 3 -0.004301 -0.004364 0.013222 0.000000 -0.000754 0.000000
# 4 0.000000 0.000000 0.000000 0.029276 0.000000 -0.003048
# 5 -0.012258 0.000797 -0.000754 0.000000 0.051533 0.000000
# 6 0.000000 0.000000 0.000000 -0.003048 0.000000 0.032365
#
#
# Mechanical properties :
#
#
# Convention : Reuss Voigt Hill
#
# Bulk Modulus (GPa) = 48.74050 60.99452 54.86751
# Shear Modulus (GPa) = 27.36482 30.91089 29.13785
#
# Velocity S-wave (km/s) = 3.70887 3.94186 3.82714
# Velocity P-wave (km/s) = 6.54536 7.16787 6.86368
#
# Compressibility (1/GPa) = 0.02051682
#
# Stress axis : x y z
#
# Youngs Moduli (GPa) = 53.87569 101.76253 75.63191
#
# Poissons Ratio (x) = 0.19151 0.32527
# Poissons Ratio (y) = 0.10139 0.33005
# Poissons Ratio (z) = 0.23171 0.44409
#
# Static dielectric constant tensor:
#      x y z
#    x 3.323930 0.000000 -0.004580 
#    y 0.000000 3.867400 0.000000 
#    z -0.004580 0.000000 3.874350 
# 
# 
# High freq. dielectric constant tensor:
#      x y z
#    x 1.767230 0.000000 0.009160 
#    y 0.000000 1.791060 0.000000 
#    z 0.009160 0.000000 1.786060 
# 
# From -- ./inp_files/80013.got.cif
#   From: 2010.03.12/outbox.cif.g09.slc.cpg/sg14_41_cif.got.tgz:80013.got - 2010.03.31 13:35:05.
