data_PCOD8126749
_publ_section_title
;
Structure prediction by ZEFSAII (Michael W. Deem and Ramdas Pophale) SiO2 
 PCOD8126749
Probable space group: P 21/C
;
_chemical_formula_sum "Si O2"
_cell_formula_units_Z 32
_cell_length_a 12.084551
_cell_length_b 8.666173
_cell_length_c 14.347139
_cell_angle_alpha 90.000000
_cell_angle_beta 84.705390
_cell_angle_gamma 90.000000
_cell_volume 1496.119374
_symmetry_space_group_name_H-M "P 21/C"
_symmetry_group_IT_number 14
_symmetry_cell_setting 'monoclinic'
loop_
_space_group_symop_operation_xyz
x,y,z
-x,1/2+y,1/2-z
-x,-y,-z
x,1/2-y,1/2+z
loop_
_atom_site_type_symbol
_atom_site_label
_atom_site_fract_x
_atom_site_fract_y
_atom_site_fract_z
Si Si1 0.752185 0.208052 0.870595
Si Si2 0.247064 0.438920 0.368465
Si Si3 0.871091 0.748279 0.276406
Si Si4 0.485297 0.714553 0.867338
Si Si5 0.227111 0.767576 0.429841
Si Si6 0.582023 0.424371 0.779168
Si Si7 0.309088 0.369623 0.569075
Si Si8 0.088345 0.586991 0.791373
O O1 0.668913 0.329684 0.833080
O O2 0.854591 0.186385 0.794023
O O3 0.688890 0.047443 0.897627
O O4 0.804655 0.281719 0.959610
O O5 0.165960 0.333889 0.314458
O O6 0.186525 0.602498 0.392870
O O7 0.359572 0.467544 0.302361
O O8 0.272656 0.355104 0.464548
O O9 0.771731 0.729665 0.358108
O O10 0.922086 0.587424 0.240197
O O11 0.966279 0.846494 0.320477
O O12 0.360272 0.723733 0.913375
O O13 0.511827 0.533749 0.852719
O O14 0.498277 0.804396 0.767754
O O15 0.568156 0.795873 0.933952
O O16 0.164785 0.901803 0.378108
#
# Coordination Sequence:
#
# PCOD8126749 Si02
#       8
#     4   4   4   4   4   4   4   4
#     4  10  22  42  63  89 130 166 208 256 309 375
#     4  10  21  42  64  91 126 168 205 254 310 371
#     4  11  24  42  68  89 125 164 210 266 311 374
#     4  11  22  36  63  94 129 167 204 257 305 375
#     4  10  23  41  62  94 127 166 208 255 314 372
#     4  11  22  37  65  87 134 167 208 251 308 378
#     4  10  23  41  63  98 125 166 211 249 315 376
#     4  11  23  43  64  91 123 163 211 262 316 367
#
# _framework density 21.388669
#
# number of rings (size 3 to 8) (size 9 to 14) (size 15 to 20)
#    0.000    1.500    3.750    1.500    1.750    8.000 
#    0.000    5.000    0.000    0.000    0.000    0.000 
#    0.000    0.000    0.000    0.000    0.000    0.000 
#
# Total GULP energy -396880.053877 kJ/mol
# GULP energy per Si atom -12402.501684 kJ/mol
# Density = 2.133999 g / cm^3
# Si number density = 21.388669 Si / 1000 Ang^3
#
#
#
# Elastic Constant Matrix: (Units=GPa)
#
#
# Indices 1 2 3 4 5 6 
#
# 1 96.0344 37.5920 36.0587 0.0000 20.6640 0.0000
# 2 37.5920 73.1486 24.3815 0.0000 2.3628 0.0000
# 3 36.0587 24.3815 107.8330 0.0000 8.8977 0.0000
# 4 0.0000 0.0000 0.0000 30.1824 0.0000 4.5763
# 5 20.6640 2.3628 8.8977 0.0000 14.9379 0.0000
# 6 0.0000 0.0000 0.0000 4.5763 0.0000 32.8631
#
#
#
# Elastic Compliance Matrix: (Units=1/GPa)
#
#
# Indices 1 2 3 4 5 6 
#
# 1 0.020198 -0.008662 -0.002738 0.000000 -0.024939 0.000000
# 2 -0.008662 0.018502 -0.002139 0.000000 0.010330 0.000000
# 3 -0.002738 -0.002139 0.010866 0.000000 -0.002347 0.000000
# 4 0.000000 0.000000 0.000000 0.033847 0.000000 -0.004713
# 5 -0.024939 0.010330 -0.002347 0.000000 0.101206 0.000000
# 6 0.000000 0.000000 0.000000 -0.004713 0.000000 0.031086
#
#
# Mechanical properties :
#
#
# Convention : Reuss Voigt Hill
#
# Bulk Modulus (GPa) = 44.46750 52.56449 48.51600
# Shear Modulus (GPa) = 19.97781 27.52893 23.75337
#
# Velocity S-wave (km/s) = 3.05952 3.59148 3.33612
# Velocity P-wave (km/s) = 5.77202 6.46742 6.12959
#
# Compressibility (1/GPa) = 0.02248833
#
# Stress axis : x y z
#
# Youngs Moduli (GPa) = 49.51066 54.04954 92.02663
#
# Poissons Ratio (x) = 0.46816 0.25194
# Poissons Ratio (y) = 0.42885 0.19686
# Poissons Ratio (z) = 0.13555 0.11562
#
# Static dielectric constant tensor:
#      x y z
#    x 3.677530 0.000000 0.015780 
#    y 0.000000 3.982660 0.000000 
#    z 0.015780 0.000000 3.982120 
# 
# 
# High freq. dielectric constant tensor:
#      x y z
#    x 1.825800 0.000000 0.009210 
#    y 0.000000 1.843860 0.000000 
#    z 0.009210 0.000000 1.842920 
# 
# From -- ./inp_files/43435.got.cif
#   From: 2010.03.12/outbox.cif.g09.slc.cpg/sg14_22_cif.got.tgz:43435.got - 2010.03.31 13:35:05.
