data_PCOD8126697
_publ_section_title
;
Structure prediction by ZEFSAII (Michael W. Deem and Ramdas Pophale) SiO2 
 PCOD8126697
Probable space group: P 21/C
;
_chemical_formula_sum "Si O2"
_cell_formula_units_Z 24
_cell_length_a 10.476416
_cell_length_b 15.987787
_cell_length_c 10.026137
_cell_angle_alpha 90.000000
_cell_angle_beta 138.992805
_cell_angle_gamma 90.000000
_cell_volume 1101.895400
_symmetry_space_group_name_H-M "P 21/C"
_symmetry_group_IT_number 14
_symmetry_cell_setting 'monoclinic'
loop_
_space_group_symop_operation_xyz
x,y,z
-x,1/2+y,1/2-z
-x,-y,-z
x,1/2-y,1/2+z
loop_
_atom_site_type_symbol
_atom_site_label
_atom_site_fract_x
_atom_site_fract_y
_atom_site_fract_z
Si Si1 0.452641 0.453341 0.096924
Si Si2 0.284054 0.416896 0.384237
Si Si3 0.027957 0.203720 0.542180
Si Si4 0.863302 0.021106 0.015998
Si Si5 0.897996 0.661229 0.193288
Si Si6 0.709747 0.062258 0.301072
O O1 0.661960 0.430164 0.324579
O O2 0.332120 0.519327 0.090349
O O3 0.500000 0.500000 0.000000
O O4 0.328789 0.367829 0.976229
O O5 0.217829 0.331063 0.266697
O O6 0.191859 0.432888 0.457618
O O7 0.202416 0.491066 0.225164
O O8 0.514645 0.407503 0.573616
O O9 0.065262 0.214228 0.413175
O O10 0.014830 0.293020 0.605838
O O11 0.846289 0.142854 0.428465
O O12 0.976602 0.076669 0.213420
O O13 0.000000 0.000000 0.000000
#
# Coordination Sequence:
#
# PCOD8126697 Si02
#       6
#     4   4   4   4   4   4
#     4  11  23  41  70 100 130 167 232 285 325 399
#     4  10  21  41  71  94 125 168 231 280 329 400
#     4  12  26  42  67  95 144 178 220 276 349 410
#     4  11  23  41  71 100 128 169 231 282 335 398
#     4  12  27  43  63 102 138 179 221 280 342 405
#     4  10  21  41  69  97 121 173 225 278 331 399
#
# _framework density 21.780650000000001
#
# number of rings (size 3 to 8) (size 9 to 14) (size 15 to 20)
#    0.000    1.000    5.000    1.500    2.333    1.333 
#    0.000    0.000    0.000    0.000    0.000    0.000 
#    0.000    0.000    0.000    0.000    0.000    0.000 
#
# Total GULP energy -297476.700998 kJ/mol
# GULP energy per Si atom -12394.862542 kJ/mol
# Density = 2.173108 g / cm^3
# Si number density = 21.780650 Si / 1000 Ang^3
#
#
#
# Elastic Constant Matrix: (Units=GPa)
#
#
# Indices 1 2 3 4 5 6 
#
# 1 132.3919 25.3193 26.2584 0.0000 -17.3358 0.0000
# 2 25.3193 54.4853 25.6524 0.0000 3.7685 0.0000
# 3 26.2584 25.6524 96.9060 0.0000 -0.4052 0.0000
# 4 0.0000 0.0000 0.0000 46.7554 0.0000 -10.1890
# 5 -17.3358 3.7685 -0.4052 0.0000 39.3866 0.0000
# 6 0.0000 0.0000 0.0000 -10.1890 0.0000 23.1537
#
#
#
# Elastic Compliance Matrix: (Units=1/GPa)
#
#
# Indices 1 2 3 4 5 6 
#
# 1 0.009155 -0.003882 -0.001435 0.000000 0.004386 0.000000
# 2 -0.003882 0.022782 -0.004995 0.000000 -0.003940 0.000000
# 3 -0.001435 -0.004995 0.012030 0.000000 -0.000030 0.000000
# 4 0.000000 0.000000 0.000000 0.023657 0.000000 0.010410
# 5 0.004386 -0.003940 -0.000030 0.000000 0.027697 0.000000
# 6 0.000000 0.000000 0.000000 0.010410 0.000000 0.047771
#
#
# Mechanical properties :
#
#
# Convention : Reuss Voigt Hill
#
# Bulk Modulus (GPa) = 42.83971 48.69371 45.76671
# Shear Modulus (GPa) = 29.15530 35.62934 32.39232
#
# Velocity S-wave (km/s) = 3.66264 4.04892 3.86062
# Velocity P-wave (km/s) = 6.13172 6.65307 6.39771
#
# Compressibility (1/GPa) = 0.02334283
#
# Stress axis : x y z
#
# Youngs Moduli (GPa) = 109.23446 43.89455 83.12415
#
# Poissons Ratio (x) = 0.17040 0.11925
# Poissons Ratio (y) = 0.42406 0.41522
# Poissons Ratio (z) = 0.15671 0.21926
#
# Static dielectric constant tensor:
#      x y z
#    x 4.078070 0.000000 0.178480 
#    y 0.000000 3.878200 0.000000 
#    z 0.178480 0.000000 4.683660 
# 
# 
# High freq. dielectric constant tensor:
#      x y z
#    x 1.864860 0.000000 -0.003500 
#    y 0.000000 1.822040 0.000000 
#    z -0.003500 0.000000 1.878030 
# 
# From -- ./inp_files/29883.got.cif
#   From: 2010.03.12/outbox.cif.g09.slc.cpg/sg14_15_cif.got.tgz:29883.got - 2010.03.31 13:35:05.
