data_PCOD8126541
_publ_section_title
;
Structure prediction by ZEFSAII (Michael W. Deem and Ramdas Pophale) SiO2 
 PCOD8126541
Probable space group: P 21/C
;
_chemical_formula_sum "Si O2"
_cell_formula_units_Z 28
_cell_length_a 7.560598
_cell_length_b 8.996130
_cell_length_c 25.452555
_cell_angle_alpha 90.000000
_cell_angle_beta 132.482461
_cell_angle_gamma 90.000000
_cell_volume 1276.720763
_symmetry_space_group_name_H-M "P 21/C"
_symmetry_group_IT_number 14
_symmetry_cell_setting 'monoclinic'
loop_
_space_group_symop_operation_xyz
x,y,z
-x,1/2+y,1/2-z
-x,-y,-z
x,1/2-y,1/2+z
loop_
_atom_site_type_symbol
_atom_site_label
_atom_site_fract_x
_atom_site_fract_y
_atom_site_fract_z
Si Si1 0.279460 0.328109 0.845241
Si Si2 0.147598 0.361769 0.936513
Si Si3 0.975687 0.121134 0.724781
Si Si4 0.729787 0.977037 0.306176
Si Si5 0.461703 0.721641 0.312475
Si Si6 0.776037 0.095559 0.476439
Si Si7 0.897137 0.660307 0.473847
O O1 0.246394 0.308971 0.900833
O O2 0.112484 0.451877 0.783567
O O3 0.555999 0.376128 0.891741
O O4 0.208058 0.168299 0.806484
O O5 0.872203 0.421072 0.876484
O O6 0.313106 0.498580 0.991595
O O7 0.150949 0.225012 0.977632
O O8 0.763901 0.235428 0.696186
O O9 0.070403 0.125736 0.683648
O O10 0.540850 0.868807 0.296351
O O11 0.598306 0.087258 0.238922
O O12 0.659818 0.662226 0.391778
O O13 0.893022 0.252127 0.515314
O O14 0.000000 0.000000 0.500000
O O15 0.000000 0.500000 0.500000
#
# Coordination Sequence:
#
# PCOD8126541 Si02
#       7
#     4   4   4   4   4   4   4
#     4  11  24  42  72  96 139 183 227 295 345 424
#     4  10  21  47  62 100 128 184 234 273 353 421
#     4  11  24  45  64 107 137 180 234 289 348 413
#     4  11  27  43  74 103 139 186 240 286 353 428
#     4  12  26  47  72 105 140 189 231 297 354 420
#     4  10  21  40  69  93 128 179 226 276 347 415
#     4  11  26  42  68 101 140 173 233 293 347 413
#
# _framework density 21.931184999999999
#
# number of rings (size 3 to 8) (size 9 to 14) (size 15 to 20)
#    0.000    1.143    4.286    2.143    8.000    1.143 
#    0.000    0.714    0.000    0.000    0.000    0.000 
#    0.000    0.000    0.000    0.000    0.000    0.000 
#
# Total GULP energy -346888.116567 kJ/mol
# GULP energy per Si atom -12388.861306 kJ/mol
# Density = 2.188127 g / cm^3
# Si number density = 21.931185 Si / 1000 Ang^3
#
#
#
# Elastic Constant Matrix: (Units=GPa)
#
#
# Indices 1 2 3 4 5 6 
#
# 1 82.9775 35.1213 31.1290 0.0000 12.9409 0.0000
# 2 35.1213 126.0816 69.9660 0.0000 0.8718 0.0000
# 3 31.1290 69.9660 157.2138 0.0000 15.4508 0.0000
# 4 0.0000 0.0000 0.0000 45.8548 0.0000 -4.3964
# 5 12.9409 0.8718 15.4508 0.0000 33.6171 0.0000
# 6 0.0000 0.0000 0.0000 -4.3964 0.0000 21.0422
#
#
#
# Elastic Compliance Matrix: (Units=1/GPa)
#
#
# Indices 1 2 3 4 5 6 
#
# 1 0.014689 -0.003619 -0.000787 0.000000 -0.005199 0.000000
# 2 -0.003619 0.011550 -0.004746 0.000000 0.003275 0.000000
# 3 -0.000787 -0.004746 0.008993 0.000000 -0.003707 0.000000
# 4 0.000000 0.000000 0.000000 0.022254 0.000000 0.004649
# 5 -0.005199 0.003275 -0.003707 0.000000 0.033367 0.000000
# 6 0.000000 0.000000 0.000000 0.004649 0.000000 0.048495
#
#
# Mechanical properties :
#
#
# Convention : Reuss Voigt Hill
#
# Bulk Modulus (GPa) = 59.06952 70.96728 65.01840
# Shear Modulus (GPa) = 30.61946 35.43994 33.02970
#
# Velocity S-wave (km/s) = 3.74058 4.02426 3.88501
# Velocity P-wave (km/s) = 6.75636 7.34998 7.05941
#
# Compressibility (1/GPa) = 0.01692920
#
# Stress axis : x y z
#
# Youngs Moduli (GPa) = 68.07628 86.57754 111.19927
#
# Poissons Ratio (x) = 0.31335 0.08750
# Poissons Ratio (y) = 0.24639 0.52770
# Poissons Ratio (z) = 0.05357 0.41086
#
# Static dielectric constant tensor:
#      x y z
#    x 4.126420 0.000000 -0.021630 
#    y 0.000000 4.088010 0.000000 
#    z -0.021630 0.000000 4.292530 
# 
# 
# High freq. dielectric constant tensor:
#      x y z
#    x 1.866190 0.000000 0.006560 
#    y 0.000000 1.856150 0.000000 
#    z 0.006560 0.000000 1.870760 
# 
# From -- ./inp_files/76401.got.cif
#   From: 2010.03.12/outbox.cif.g09.slc.cpg/sg14_39_cif.got.tgz:76401.got - 2010.03.31 13:35:05.
