data_PCOD8126896
_publ_section_title
;
Structure prediction by ZEFSAII (Michael W. Deem and Ramdas Pophale) SiO2 
 PCOD8126896
Probable space group: P 21/C
;
_chemical_formula_sum "Si O2"
_cell_formula_units_Z 28
_cell_length_a 7.846980
_cell_length_b 12.138602
_cell_length_c 19.401687
_cell_angle_alpha 90.000000
_cell_angle_beta 43.759744
_cell_angle_gamma 90.000000
_cell_volume 1278.168870
_symmetry_space_group_name_H-M "P 21/C"
_symmetry_group_IT_number 14
_symmetry_cell_setting 'monoclinic'
loop_
_space_group_symop_operation_xyz
x,y,z
-x,1/2+y,1/2-z
-x,-y,-z
x,1/2-y,1/2+z
loop_
_atom_site_type_symbol
_atom_site_label
_atom_site_fract_x
_atom_site_fract_y
_atom_site_fract_z
Si Si1 0.559559 0.165705 0.433514
Si Si2 0.010695 0.293320 0.072748
Si Si3 0.602219 0.452404 0.599604
Si Si4 0.230215 0.644372 0.723053
Si Si5 0.012282 0.957178 0.898125
Si Si6 0.768437 0.960602 0.303210
Si Si7 0.366553 0.706392 0.929148
O O1 0.636555 0.256320 0.354892
O O2 0.639507 0.203070 0.486306
O O3 0.266729 0.142234 0.510007
O O4 0.693908 0.049757 0.382289
O O5 0.792424 0.329836 0.188887
O O6 0.077791 0.166635 0.065280
O O7 0.905333 0.308966 0.025604
O O8 0.362813 0.528447 0.669570
O O9 0.766487 0.490703 0.616088
O O10 0.522845 0.324812 0.626738
O O11 0.771071 0.467572 0.481870
O O12 0.951117 0.631391 0.779386
O O13 0.107021 0.972809 0.794144
O O14 0.531981 0.890592 0.348822
#
# Coordination Sequence:
#
# PCOD8126896 Si02
#       7
#     4   4   4   4   4   4   4
#     4  12  26  48  69 101 139 182 227 280 344 402
#     4  11  24  48  71  99 139 181 226 285 342 405
#     4  10  23  42  71 101 132 179 230 280 342 396
#     4  12  25  43  74  98 137 181 229 282 343 407
#     4  10  21  44  68 100 137 174 231 284 330 408
#     4  12  26  43  68 102 142 180 225 283 339 411
#     4  11  26  46  68 102 140 178 231 280 338 408
#
# _framework density 21.90634
#
# number of rings (size 3 to 8) (size 9 to 14) (size 15 to 20)
#    0.000    0.857    4.286    2.143    4.000    1.714 
#    5.143    0.000    0.000    0.000    0.000    0.000 
#    0.000    0.000    0.000    0.000    0.000    0.000 
#
# Total GULP energy -347260.689576 kJ/mol
# GULP energy per Si atom -12402.167485 kJ/mol
# Density = 2.185648 g / cm^3
# Si number density = 21.906340 Si / 1000 Ang^3
#
#
#
# Elastic Constant Matrix: (Units=GPa)
#
#
# Indices 1 2 3 4 5 6 
#
# 1 105.6874 25.6466 46.5807 0.0000 6.5016 0.0000
# 2 25.6466 79.1000 23.2432 0.0000 -6.3641 0.0000
# 3 46.5807 23.2432 98.4776 0.0000 4.4166 0.0000
# 4 0.0000 0.0000 0.0000 35.6064 0.0000 -3.3090
# 5 6.5016 -6.3641 4.4166 0.0000 23.8829 0.0000
# 6 0.0000 0.0000 0.0000 -3.3090 0.0000 32.2969
#
#
#
# Elastic Compliance Matrix: (Units=1/GPa)
#
#
# Indices 1 2 3 4 5 6 
#
# 1 0.012622 -0.002838 -0.005155 0.000000 -0.003239 0.000000
# 2 -0.002838 0.014664 -0.002348 0.000000 0.005114 0.000000
# 3 -0.005155 -0.002348 0.013222 0.000000 -0.001667 0.000000
# 4 0.000000 0.000000 0.000000 0.028355 0.000000 0.002905
# 5 -0.003239 0.005114 -0.001667 0.000000 0.044424 0.000000
# 6 0.000000 0.000000 0.000000 0.002905 0.000000 0.031260
#
#
# Mechanical properties :
#
#
# Convention : Reuss Voigt Hill
#
# Bulk Modulus (GPa) = 50.44071 52.68957 51.56514
# Shear Modulus (GPa) = 29.09722 30.87686 29.98704
#
# Velocity S-wave (km/s) = 3.64848 3.75840 3.70384
# Velocity P-wave (km/s) = 6.38938 6.55275 6.47158
#
# Compressibility (1/GPa) = 0.01982526
#
# Stress axis : x y z
#
# Youngs Moduli (GPa) = 79.22729 68.19486 75.63180
#
# Poissons Ratio (x) = 0.19355 0.38989
# Poissons Ratio (y) = 0.22486 0.17758
# Poissons Ratio (z) = 0.40843 0.16012
#
# Static dielectric constant tensor:
#      x y z
#    x 3.921000 0.000000 0.073310 
#    y 0.000000 3.904700 0.000000 
#    z 0.073310 0.000000 3.974890 
# 
# 
# High freq. dielectric constant tensor:
#      x y z
#    x 1.861160 0.000000 0.001960 
#    y 0.000000 1.868490 0.000000 
#    z 0.001960 0.000000 1.862340 
# 
# From -- ./inp_files/65555.got.cif
#   From: 2010.03.12/outbox.cif.g09.slc.cpg/sg14_33_cif.got.tgz:65555.got - 2010.03.31 13:35:05.
