data_PCOD8126579
_publ_section_title
;
Structure prediction by ZEFSAII (Michael W. Deem and Ramdas Pophale) SiO2 
 PCOD8126579
Probable space group: P 21/C
;
_chemical_formula_sum "Si O2"
_cell_formula_units_Z 28
_cell_length_a 29.480935
_cell_length_b 11.655280
_cell_length_c 23.453448
_cell_angle_alpha 90.000000
_cell_angle_beta 169.610251
_cell_angle_gamma 90.000000
_cell_volume 1453.350479
_symmetry_space_group_name_H-M "P 21/C"
_symmetry_group_IT_number 14
_symmetry_cell_setting 'monoclinic'
loop_
_space_group_symop_operation_xyz
x,y,z
-x,1/2+y,1/2-z
-x,-y,-z
x,1/2-y,1/2+z
loop_
_atom_site_type_symbol
_atom_site_label
_atom_site_fract_x
_atom_site_fract_y
_atom_site_fract_z
Si Si1 0.545199 0.251296 0.347710
Si Si2 0.900540 0.081180 0.217996
Si Si3 0.418293 0.174494 0.817623
Si Si4 0.600198 0.401266 0.084802
Si Si5 0.119850 0.197014 0.238232
Si Si6 0.566391 0.010365 0.418052
Si Si7 0.073512 0.570739 0.035618
O O1 0.756713 0.316202 0.572646
O O2 0.506577 0.304483 0.362137
O O3 0.632090 0.118257 0.458193
O O4 0.272347 0.260937 0.981547
O O5 0.140130 0.124254 0.478662
O O6 0.982228 0.989215 0.365508
O O7 0.725031 0.021850 0.953338
O O8 0.414983 0.292270 0.850101
O O9 0.625149 0.085597 0.097609
O O10 0.856909 0.358852 0.431602
O O11 0.500000 0.500000 0.000000
O O12 0.636450 0.455524 0.068008
O O13 0.271184 0.101515 0.391657
O O14 0.063111 0.305611 0.127124
O O15 0.000000 0.500000 0.000000
#
# Coordination Sequence:
#
# PCOD8126579 Si02
#       7
#     4   4   4   4   4   4   4
#     4  10  21  41  62  90 126 163 204 261 306 366
#     4  11  22  39  65  90 127 164 211 250 316 365
#     4  10  23  39  62  93 122 166 206 256 308 371
#     4  10  23  39  60  92 125 160 207 258 309 366
#     4  10  22  39  64  89 125 166 204 256 312 368
#     4  10  22  41  63  90 126 163 211 257 308 372
#     4  11  21  41  63  93 127 163 210 254 309 370
#
# _framework density 19.265826000000001
#
# number of rings (size 3 to 8) (size 9 to 14) (size 15 to 20)
#    0.000    1.714    2.857    0.857    4.000    1.143 
#    0.000    5.714    0.000    0.000    0.000    0.000 
#    0.000    0.000    0.000    0.000    0.000    0.000 
#
# Total GULP energy -347124.633774 kJ/mol
# GULP energy per Si atom -12397.308349 kJ/mol
# Density = 1.922198 g / cm^3
# Si number density = 19.265826 Si / 1000 Ang^3
#
#
#
# Elastic Constant Matrix: (Units=GPa)
#
#
# Indices 1 2 3 4 5 6 
#
# 1 45.1656 27.1034 20.9798 0.0000 -1.9841 0.0000
# 2 27.1034 113.9492 43.2071 0.0000 4.7457 0.0000
# 3 20.9798 43.2071 101.9985 0.0000 -2.5734 0.0000
# 4 0.0000 0.0000 0.0000 30.4219 0.0000 -4.0998
# 5 -1.9841 4.7457 -2.5734 0.0000 26.6323 0.0000
# 6 0.0000 0.0000 0.0000 -4.0998 0.0000 34.3330
#
#
#
# Elastic Compliance Matrix: (Units=1/GPa)
#
#
# Indices 1 2 3 4 5 6 
#
# 1 0.026933 -0.005290 -0.003232 0.000000 0.002637 0.000000
# 2 -0.005290 0.011636 -0.003913 0.000000 -0.002846 0.000000
# 3 -0.003232 -0.003913 0.012168 0.000000 0.001632 0.000000
# 4 0.000000 0.000000 0.000000 0.033409 0.000000 0.003989
# 5 0.002637 -0.002846 0.001632 0.000000 0.038410 0.000000
# 6 0.000000 0.000000 0.000000 0.003989 0.000000 0.029603
#
#
# Mechanical properties :
#
#
# Convention : Reuss Voigt Hill
#
# Bulk Modulus (GPa) = 38.66105 49.29933 43.98019
# Shear Modulus (GPa) = 26.93236 29.59898 28.26567
#
# Velocity S-wave (km/s) = 3.74295 3.92388 3.83448
# Velocity P-wave (km/s) = 6.22819 6.79512 6.51782
#
# Compressibility (1/GPa) = 0.02586583
#
# Stress axis : x y z
#
# Youngs Moduli (GPa) = 37.12975 85.93756 82.18561
#
# Poissons Ratio (x) = 0.45463 0.26564
# Poissons Ratio (y) = 0.19643 0.32158
# Poissons Ratio (z) = 0.12001 0.33626
#
# Static dielectric constant tensor:
#      x y z
#    x 6.870740 0.000000 -0.250350 
#    y 0.000000 3.742490 0.000000 
#    z -0.250350 0.000000 3.841340 
# 
# 
# High freq. dielectric constant tensor:
#      x y z
#    x 1.730620 0.000000 -0.022500 
#    y 0.000000 1.770740 0.000000 
#    z -0.022500 0.000000 1.763100 
# 
# From -- ./inp_files/39758.got.cif
#   From: 2010.03.12/outbox.cif.g09.slc.cpg/sg14_20_cif.got.tgz:39758.got - 2010.03.31 13:35:05.
