data_PCOD8126826
_publ_section_title
;
Structure prediction by ZEFSAII (Michael W. Deem and Ramdas Pophale) SiO2 
 PCOD8126826
Probable space group: P 21/C
;
_chemical_formula_sum "Si O2"
_cell_formula_units_Z 24
_cell_length_a 5.785203
_cell_length_b 13.931965
_cell_length_c 14.131023
_cell_angle_alpha 90.000000
_cell_angle_beta 87.839761
_cell_angle_gamma 90.000000
_cell_volume 1138.140361
_symmetry_space_group_name_H-M "P 21/C"
_symmetry_group_IT_number 14
_symmetry_cell_setting 'monoclinic'
loop_
_space_group_symop_operation_xyz
x,y,z
-x,1/2+y,1/2-z
-x,-y,-z
x,1/2-y,1/2+z
loop_
_atom_site_type_symbol
_atom_site_label
_atom_site_fract_x
_atom_site_fract_y
_atom_site_fract_z
Si Si1 0.870922 0.253370 0.038401
Si Si2 0.228949 0.298128 0.179266
Si Si3 0.605397 0.157520 0.210001
Si Si4 0.835196 0.193110 0.831826
Si Si5 0.255019 0.963417 0.460583
Si Si6 0.442182 0.956987 0.267439
O O1 0.751041 0.181150 0.114004
O O2 0.723538 0.348984 0.023766
O O3 0.115273 0.286967 0.077954
O O4 0.906265 0.197079 0.940051
O O5 0.346570 0.196801 0.202130
O O6 0.405481 0.385643 0.170528
O O7 0.057686 0.326103 0.265663
O O8 0.718186 0.207283 0.300317
O O9 0.594119 0.043644 0.224139
O O10 0.665817 0.102126 0.818399
O O11 0.252122 0.991032 0.348055
O O12 0.500000 0.000000 0.500000
O O13 0.000000 0.000000 0.500000
#
# Coordination Sequence:
#
# PCOD8126826 Si02
#       6
#     4   4   4   4   4   4
#     4  11  23  43  64  99 133 177 232 284 346 414
#     4  10  21  43  64  91 138 171 223 288 334 431
#     4  10  23  42  66  91 136 177 222 282 353 414
#     4  10  23  40  65  93 131 178 224 283 347 416
#     4  12  25  40  70 103 137 175 238 291 343 415
#     4  11  23  44  64  98 135 177 225 289 346 413
#
# _framework density 21.087029999999999
#
# number of rings (size 3 to 8) (size 9 to 14) (size 15 to 20)
#    0.000    1.333    5.000    2.000    2.333    6.000 
#    0.000    1.667    0.000    0.000    0.000    0.000 
#    0.000    0.000    0.000    0.000    0.000    0.000 
#
# Total GULP energy -297454.229945 kJ/mol
# GULP energy per Si atom -12393.926248 kJ/mol
# Density = 2.103903 g / cm^3
# Si number density = 21.087030 Si / 1000 Ang^3
#
#
#
# Elastic Constant Matrix: (Units=GPa)
#
#
# Indices 1 2 3 4 5 6 
#
# 1 108.9293 26.3630 41.5015 0.0000 7.5740 0.0000
# 2 26.3630 92.8977 41.4256 0.0000 7.0303 0.0000
# 3 41.5015 41.4256 146.3879 0.0000 14.3664 0.0000
# 4 0.0000 0.0000 0.0000 25.8992 0.0000 -5.0718
# 5 7.5740 7.0303 14.3664 0.0000 18.7940 0.0000
# 6 0.0000 0.0000 0.0000 -5.0718 0.0000 15.2335
#
#
#
# Elastic Compliance Matrix: (Units=1/GPa)
#
#
# Indices 1 2 3 4 5 6 
#
# 1 0.010636 -0.001849 -0.002313 0.000000 -0.001827 0.000000
# 2 -0.001849 0.012718 -0.002898 0.000000 -0.001797 0.000000
# 3 -0.002313 -0.002898 0.008767 0.000000 -0.004685 0.000000
# 4 0.000000 0.000000 0.000000 0.041304 0.000000 0.013752
# 5 -0.001827 -0.001797 -0.004685 0.000000 0.058198 0.000000
# 6 0.000000 0.000000 0.000000 0.013752 0.000000 0.070223
#
#
# Mechanical properties :
#
#
# Convention : Reuss Voigt Hill
#
# Bulk Modulus (GPa) = 55.55451 62.97723 59.26587
# Shear Modulus (GPa) = 22.52593 27.91366 25.21980
#
# Velocity S-wave (km/s) = 3.27193 3.64227 3.46206
# Velocity P-wave (km/s) = 6.37782 6.90061 6.64436
#
# Compressibility (1/GPa) = 0.01800034
#
# Stress axis : x y z
#
# Youngs Moduli (GPa) = 94.02120 78.63102 114.06534
#
# Poissons Ratio (x) = 0.14536 0.26382
# Poissons Ratio (y) = 0.17382 0.33061
# Poissons Ratio (z) = 0.21746 0.22791
#
# Static dielectric constant tensor:
#      x y z
#    x 4.034990 0.000000 0.001840 
#    y 0.000000 3.674040 0.000000 
#    z 0.001840 0.000000 3.759370 
# 
# 
# High freq. dielectric constant tensor:
#      x y z
#    x 1.834520 0.000000 -0.002600 
#    y 0.000000 1.818040 0.000000 
#    z -0.002600 0.000000 1.822530 
# 
# From -- ./inp_files/37294.got.cif
#   From: 2010.03.12/outbox.cif.g09.slc.cpg/sg14_19_cif.got.tgz:37294.got - 2010.03.31 13:35:05.
