data_PCOD8126132
_publ_section_title
;
Structure prediction by ZEFSAII (Michael W. Deem and Ramdas Pophale) SiO2 
 PCOD8126132
Probable space group: P 21/C
;
_chemical_formula_sum "Si O2"
_cell_formula_units_Z 24
_cell_length_a 16.030497
_cell_length_b 8.715332
_cell_length_c 21.760127
_cell_angle_alpha 90.000000
_cell_angle_beta 21.266339
_cell_angle_gamma 90.000000
_cell_volume 1102.667206
_symmetry_space_group_name_H-M "P 21/C"
_symmetry_group_IT_number 14
_symmetry_cell_setting 'monoclinic'
loop_
_space_group_symop_operation_xyz
x,y,z
-x,1/2+y,1/2-z
-x,-y,-z
x,1/2-y,1/2+z
loop_
_atom_site_type_symbol
_atom_site_label
_atom_site_fract_x
_atom_site_fract_y
_atom_site_fract_z
Si Si1 0.616436 0.334031 0.924217
Si Si2 0.440337 0.158863 0.671244
Si Si3 0.061792 0.211846 0.666968
Si Si4 0.996238 0.837450 0.533514
Si Si5 0.934618 0.365571 0.873603
Si Si6 0.570629 0.196729 0.322932
O O1 0.578234 0.237362 0.887907
O O2 0.893492 0.330342 0.746816
O O3 0.500000 0.500000 0.000000
O O4 0.506359 0.258464 0.060927
O O5 0.216778 0.245627 0.851021
O O6 0.659626 0.166288 0.565916
O O7 0.376691 0.982380 0.705449
O O8 0.050098 0.241512 0.748586
O O9 0.322970 0.238789 0.464318
O O10 0.001399 0.034446 0.695496
O O11 0.961334 0.843474 0.630494
O O12 0.239021 0.761515 0.352608
O O13 0.000000 0.000000 0.500000
#
# Coordination Sequence:
#
# PCOD8126132 Si02
#       6
#     4   4   4   4   4   4
#     4   9  18  37  65  92 120 158 211 263 310 372
#     4   9  21  41  61  85 120 168 214 253 308 378
#     4  10  21  41  66  93 122 163 219 266 314 379
#     4  12  25  39  58  93 134 164 204 265 325 382
#     4  10  23  42  65  92 125 165 213 268 322 380
#     4  10  21  38  62  89 120 166 208 253 317 381
#
# _framework density 21.765405999999999
#
# number of rings (size 3 to 8) (size 9 to 14) (size 15 to 20)
#    0.000    2.000    0.000    3.500    0.000    9.333 
#    0.000    9.167    0.000    0.000    0.000    0.000 
#    0.000    0.000    0.000    0.000    0.000    0.000 
#
# Total GULP energy -297412.896955 kJ/mol
# GULP energy per Si atom -12392.204040 kJ/mol
# Density = 2.171587 g / cm^3
# Si number density = 21.765406 Si / 1000 Ang^3
#
#
#
# Elastic Constant Matrix: (Units=GPa)
#
#
# Indices 1 2 3 4 5 6 
#
# 1 83.9905 33.3378 24.9555 0.0000 -8.4073 0.0000
# 2 33.3378 75.9390 61.9000 0.0000 -14.3871 0.0000
# 3 24.9555 61.9000 140.6919 0.0000 -27.8690 0.0000
# 4 0.0000 0.0000 0.0000 42.8735 0.0000 -2.1973
# 5 -8.4073 -14.3871 -27.8690 0.0000 32.2326 0.0000
# 6 0.0000 0.0000 0.0000 -2.1973 0.0000 32.1001
#
#
#
# Elastic Compliance Matrix: (Units=1/GPa)
#
#
# Indices 1 2 3 4 5 6 
#
# 1 0.014479 -0.006587 0.000598 0.000000 0.001353 0.000000
# 2 -0.006587 0.023600 -0.009012 0.000000 0.001024 0.000000
# 3 0.000598 -0.009012 0.012309 0.000000 0.006776 0.000000
# 4 0.000000 0.000000 0.000000 0.023407 0.000000 0.001602
# 5 0.001353 0.001024 0.006776 0.000000 0.037693 0.000000
# 6 0.000000 0.000000 0.000000 0.001602 0.000000 0.031262
#
#
# Mechanical properties :
#
#
# Convention : Reuss Voigt Hill
#
# Bulk Modulus (GPa) = 49.05549 60.11201 54.58375
# Shear Modulus (GPa) = 27.84775 33.46977 30.65876
#
# Velocity S-wave (km/s) = 3.58082 3.92567 3.75720
# Velocity P-wave (km/s) = 6.29949 6.94449 6.62984
#
# Compressibility (1/GPa) = 0.02038508
#
# Stress axis : x y z
#
# Youngs Moduli (GPa) = 69.06779 42.37210 81.24173
#
# Poissons Ratio (x) = 0.27912 -0.04860
# Poissons Ratio (y) = 0.45498 0.73217
# Poissons Ratio (z) = -0.04131 0.38187
#
# Static dielectric constant tensor:
#      x y z
#    x 4.617290 0.000000 0.859670 
#    y 0.000000 3.308250 0.000000 
#    z 0.859670 0.000000 5.526150 
# 
# 
# High freq. dielectric constant tensor:
#      x y z
#    x 1.855820 0.000000 -0.012720 
#    y 0.000000 1.829690 0.000000 
#    z -0.012720 0.000000 1.863320 
# 
# From -- ./inp_files/74137.got.cif
#   From: 2010.03.12/outbox.cif.g09.slc.cpg/sg14_38_cif.got.tgz:74137.got - 2010.03.31 13:35:05.
