data_PCOD8126625
_publ_section_title
;
Structure prediction by ZEFSAII (Michael W. Deem and Ramdas Pophale) SiO2 
 PCOD8126625
Probable space group: P 21/C
;
_chemical_formula_sum "Si O2"
_cell_formula_units_Z 28
_cell_length_a 19.381286
_cell_length_b 5.392648
_cell_length_c 13.341275
_cell_angle_alpha 90.000000
_cell_angle_beta 118.039675
_cell_angle_gamma 90.000000
_cell_volume 1230.713292
_symmetry_space_group_name_H-M "P 21/C"
_symmetry_group_IT_number 14
_symmetry_cell_setting 'monoclinic'
loop_
_space_group_symop_operation_xyz
x,y,z
-x,1/2+y,1/2-z
-x,-y,-z
x,1/2-y,1/2+z
loop_
_atom_site_type_symbol
_atom_site_label
_atom_site_fract_x
_atom_site_fract_y
_atom_site_fract_z
Si Si1 0.547575 0.543558 0.302204
Si Si2 0.915337 0.705969 0.880806
Si Si3 0.644560 0.027996 0.055835
Si Si4 0.914922 0.293988 0.504774
Si Si5 0.674438 0.167857 0.754662
Si Si6 0.764489 0.650903 0.177141
Si Si7 0.759916 0.179333 0.497050
O O1 0.506054 0.803883 0.254023
O O2 0.570894 0.537214 0.435840
O O3 0.622081 0.530406 0.279428
O O4 0.906823 0.430861 0.919995
O O5 0.846118 0.713812 0.752403
O O6 0.907480 0.929605 0.955057
O O7 0.999796 0.749859 0.885769
O O8 0.619810 0.207700 0.131182
O O9 0.714572 0.129435 0.035700
O O10 0.683482 0.796902 0.138108
O O11 0.847526 0.277468 0.541436
O O12 0.752090 0.061489 0.752944
O O13 0.711455 0.361746 0.860620
O O14 0.765702 0.576002 0.061245
#
# Coordination Sequence:
#
# PCOD8126625 Si02
#       7
#     4   4   4   4   4   4   4
#     4  11  28  47  70 103 138 169 218 274 341 410
#     4  10  22  40  65  95 130 180 222 277 334 393
#     4  10  25  42  70  99 130 175 229 269 335 402
#     4  10  21  41  64  93 135 177 225 275 339 384
#     4  10  23  44  70  95 135 177 220 276 333 401
#     4  11  23  40  68  99 133 179 233 277 330 404
#     4  10  22  40  64  98 131 178 225 282 326 396
#
# _framework density 22.751031999999999
#
# number of rings (size 3 to 8) (size 9 to 14) (size 15 to 20)
#    0.000    1.714    1.429    0.857   12.000    2.286 
#    2.571    0.000    0.000    0.000    0.000    0.000 
#    0.000    0.000    0.000    0.000    0.000    0.000 
#
# Total GULP energy -346931.422218 kJ/mol
# GULP energy per Si atom -12390.407936 kJ/mol
# Density = 2.269925 g / cm^3
# Si number density = 22.751032 Si / 1000 Ang^3
#
#
#
# Elastic Constant Matrix: (Units=GPa)
#
#
# Indices 1 2 3 4 5 6 
#
# 1 66.0260 -5.6500 24.5084 0.0000 4.4691 0.0000
# 2 -5.6500 56.6025 9.9292 0.0000 5.0879 0.0000
# 3 24.5084 9.9292 128.8757 0.0000 11.2428 0.0000
# 4 0.0000 0.0000 0.0000 30.0270 0.0000 9.8900
# 5 4.4691 5.0879 11.2428 0.0000 37.7131 0.0000
# 6 0.0000 0.0000 0.0000 9.8900 0.0000 26.3680
#
#
#
# Elastic Compliance Matrix: (Units=1/GPa)
#
#
# Indices 1 2 3 4 5 6 
#
# 1 0.016634 0.002346 -0.003229 0.000000 -0.001325 0.000000
# 2 0.002346 0.018397 -0.001666 0.000000 -0.002263 0.000000
# 3 -0.003229 -0.001666 0.008674 0.000000 -0.001979 0.000000
# 4 0.000000 0.000000 0.000000 0.037998 0.000000 -0.014252
# 5 -0.001325 -0.002263 -0.001979 0.000000 0.027568 0.000000
# 6 0.000000 0.000000 0.000000 -0.014252 0.000000 0.043270
#
#
# Mechanical properties :
#
#
# Convention : Reuss Voigt Hill
#
# Bulk Modulus (GPa) = 25.90116 34.34216 30.12166
# Shear Modulus (GPa) = 29.32404 33.66939 31.49671
#
# Velocity S-wave (km/s) = 3.59403 3.85113 3.72480
# Velocity P-wave (km/s) = 5.35090 5.90783 5.63625
#
# Compressibility (1/GPa) = 0.03860831
#
# Stress axis : x y z
#
# Youngs Moduli (GPa) = 60.11643 54.35690 115.28240
#
# Poissons Ratio (x) = -0.12752 0.37219
# Poissons Ratio (y) = -0.14103 0.19207
# Poissons Ratio (z) = 0.19409 0.09056
#
# Static dielectric constant tensor:
#      x y z
#    x 4.194680 0.000000 0.110160 
#    y 0.000000 4.031820 0.000000 
#    z 0.110160 0.000000 4.178300 
# 
# 
# High freq. dielectric constant tensor:
#      x y z
#    x 1.900000 0.000000 0.008410 
#    y 0.000000 1.893980 0.000000 
#    z 0.008410 0.000000 1.895620 
# 
# From -- ./inp_files/34787.got.cif
#   From: 2010.03.12/outbox.cif.g09.slc.cpg/sg14_18_cif.got.tgz:34787.got - 2010.03.31 13:35:05.
