data_PCOD8126667
_publ_section_title
;
Structure prediction by ZEFSAII (Michael W. Deem and Ramdas Pophale) SiO2 
 PCOD8126667
Probable space group: P 21/C
;
_chemical_formula_sum "Si O2"
_cell_formula_units_Z 32
_cell_length_a 29.240574
_cell_length_b 9.412812
_cell_length_c 18.381652
_cell_angle_alpha 90.000000
_cell_angle_beta 17.166020
_cell_angle_gamma 90.000000
_cell_volume 1493.207066
_symmetry_space_group_name_H-M "P 21/C"
_symmetry_group_IT_number 14
_symmetry_cell_setting 'monoclinic'
loop_
_space_group_symop_operation_xyz
x,y,z
-x,1/2+y,1/2-z
-x,-y,-z
x,1/2-y,1/2+z
loop_
_atom_site_type_symbol
_atom_site_label
_atom_site_fract_x
_atom_site_fract_y
_atom_site_fract_z
Si Si1 0.377984 0.760435 0.106891
Si Si2 0.029387 0.829193 0.641380
Si Si3 0.111968 0.149689 0.756509
Si Si4 0.476239 0.191145 0.959000
Si Si5 0.553115 0.952054 0.739753
Si Si6 0.412649 0.472835 0.978609
Si Si7 0.061483 0.114833 0.994367
Si Si8 0.882735 0.650458 0.985553
O O1 0.195479 0.755443 0.398561
O O2 0.443848 0.609611 0.980787
O O3 0.462813 0.812897 0.051165
O O4 0.408398 0.868555 0.994172
O O5 0.953391 0.794705 0.678882
O O6 0.908456 0.751704 0.877884
O O7 0.035919 0.997497 0.645074
O O8 0.297288 0.150113 0.480901
O O9 0.027826 0.145467 0.961735
O O10 0.057279 0.006565 0.796224
O O11 0.495711 0.346812 0.895697
O O12 0.300766 0.132297 0.224690
O O13 0.578200 0.093161 0.750107
O O14 0.518689 0.990523 0.707684
O O15 0.231657 0.445112 0.248677
O O16 0.036537 0.265733 0.070989
#
# Coordination Sequence:
#
# PCOD8126667 Si02
#       8
#     4   4   4   4   4   4   4   4
#     4  12  24  41  65  99 129 170 215 268 320 386
#     4  12  25  41  66  92 130 168 216 266 324 383
#     4  10  21  41  67  94 126 171 212 263 324 386
#     4  11  24  43  67  96 133 169 213 268 319 391
#     4  11  23  42  69  94 129 173 216 260 328 391
#     4  10  22  43  66  95 132 169 213 268 323 378
#     4   9  20  41  67  93 125 168 217 259 317 393
#     4  11  25  42  65  92 128 171 215 266 325 383
#
# _framework density 21.430384
#
# number of rings (size 3 to 8) (size 9 to 14) (size 15 to 20)
#    0.000    1.250    2.500    3.000    5.250    0.500 
#    2.250    0.000    0.000    0.000    0.000    0.000 
#    0.000    0.000    0.000    0.000    0.000    0.000 
#
# Total GULP energy -396800.566560 kJ/mol
# GULP energy per Si atom -12400.017705 kJ/mol
# Density = 2.138161 g / cm^3
# Si number density = 21.430384 Si / 1000 Ang^3
#
#
#
# Elastic Constant Matrix: (Units=GPa)
#
#
# Indices 1 2 3 4 5 6 
#
# 1 70.8209 22.7414 6.7747 0.0000 13.4060 0.0000
# 2 22.7414 114.2520 6.1283 0.0000 17.2222 0.0000
# 3 6.7747 6.1283 41.4612 0.0000 10.7584 0.0000
# 4 0.0000 0.0000 0.0000 25.8553 0.0000 6.4666
# 5 13.4060 17.2222 10.7584 0.0000 31.0085 0.0000
# 6 0.0000 0.0000 0.0000 6.4666 0.0000 38.1952
#
#
#
# Elastic Compliance Matrix: (Units=1/GPa)
#
#
# Indices 1 2 3 4 5 6 
#
# 1 0.015956 -0.002330 -0.000889 0.000000 -0.005296 0.000000
# 2 -0.002330 0.009893 0.000091 0.000000 -0.004519 0.000000
# 3 -0.000889 0.000091 0.026555 0.000000 -0.008880 0.000000
# 4 0.000000 0.000000 0.000000 0.040387 0.000000 -0.006838
# 5 -0.005296 -0.004519 -0.008880 0.000000 0.040129 0.000000
# 6 0.000000 0.000000 0.000000 -0.006838 0.000000 0.027339
#
#
# Mechanical properties :
#
#
# Convention : Reuss Voigt Hill
#
# Bulk Modulus (GPa) = 21.66944 33.09146 27.38045
# Shear Modulus (GPa) = 27.48823 31.73778 29.61300
#
# Velocity S-wave (km/s) = 3.58533 3.85251 3.72132
# Velocity P-wave (km/s) = 5.22235 5.93835 5.59182
#
# Compressibility (1/GPa) = 0.04614795
#
# Stress axis : x y z
#
# Youngs Moduli (GPa) = 62.67321 101.08561 37.65803
#
# Poissons Ratio (x) = 0.23553 0.03346
# Poissons Ratio (y) = 0.14603 -0.00343
# Poissons Ratio (z) = 0.05569 -0.00920
#
# Static dielectric constant tensor:
#      x y z
#    x 3.958730 0.000000 0.241030 
#    y 0.000000 4.033860 0.000000 
#    z 0.241030 0.000000 3.756170 
# 
# 
# High freq. dielectric constant tensor:
#      x y z
#    x 1.841940 0.000000 0.013750 
#    y 0.000000 1.846280 0.000000 
#    z 0.013750 0.000000 1.835000 
# 
# From -- ./inp_files/62640.got.cif
#   From: 2010.03.12/outbox.cif.g09.slc.cpg/sg14_32_cif.got.tgz:62640.got - 2010.03.31 13:35:05.
