data_PCOD8126093
_publ_section_title
;
Structure prediction by ZEFSAII (Michael W. Deem and Ramdas Pophale) SiO2 
 PCOD8126093
Probable space group: P 21/C
;
_chemical_formula_sum "Si O2"
_cell_formula_units_Z 32
_cell_length_a 18.980737
_cell_length_b 9.287907
_cell_length_c 9.115125
_cell_angle_alpha 90.000000
_cell_angle_beta 83.231326
_cell_angle_gamma 90.000000
_cell_volume 1595.717359
_symmetry_space_group_name_H-M "P 21/C"
_symmetry_group_IT_number 14
_symmetry_cell_setting 'monoclinic'
loop_
_space_group_symop_operation_xyz
x,y,z
-x,1/2+y,1/2-z
-x,-y,-z
x,1/2-y,1/2+z
loop_
_atom_site_type_symbol
_atom_site_label
_atom_site_fract_x
_atom_site_fract_y
_atom_site_fract_z
Si Si1 0.521258 0.414298 0.352799
Si Si2 0.202013 0.084421 0.754830
Si Si3 0.954447 0.649090 0.648313
Si Si4 0.063882 0.423646 0.670249
Si Si5 0.779433 0.626734 0.415209
Si Si6 0.546976 0.421150 0.874112
Si Si7 0.683418 0.078042 0.769263
Si Si8 0.297269 0.634190 0.071076
O O1 0.500000 0.500000 0.500000
O O2 0.460539 0.479827 0.265601
O O3 0.517491 0.241485 0.364401
O O4 0.599812 0.452871 0.276679
O O5 0.117523 0.064548 0.791183
O O6 0.216296 0.207456 0.631568
O O7 0.234411 0.940549 0.677274
O O8 0.236473 0.117752 0.906398
O O9 0.951785 0.815110 0.693735
O O10 0.964415 0.650437 0.471313
O O11 0.021069 0.570799 0.709421
O O12 0.147536 0.457118 0.639931
O O13 0.718087 0.563789 0.327849
O O14 0.628163 0.432812 0.900256
O O15 0.500000 0.500000 0.000000
O O16 0.713796 0.119365 0.601349
O O17 0.702039 0.199390 0.884378
#
# Coordination Sequence:
#
# PCOD8126093 Si02
#       8
#     4   4   4   4   4   4   4   4
#     4  11  25  40  66  90 122 161 199 255 307 366
#     4  10  21  38  60  87 118 157 196 248 291 353
#     4   9  19  36  57  84 118 151 196 238 293 343
#     4   9  19  36  57  84 117 154 191 244 287 349
#     4  10  21  38  60  86 120 154 200 243 297 350
#     4  11  23  44  62  90 122 157 205 249 307 369
#     4  11  24  42  61  87 118 158 197 244 301 355
#     4  11  24  41  63  84 121 157 196 247 297 357
#
# _framework density 20.053675999999999
#
# number of rings (size 3 to 8) (size 9 to 14) (size 15 to 20)
#    0.000    1.750    1.250    2.250    7.000    4.500 
#    0.000    2.500    0.000    0.000    0.000    0.000 
#    0.000    0.000    0.000    0.000    0.000    0.000 
#
# Total GULP energy -396723.939472 kJ/mol
# GULP energy per Si atom -12397.623109 kJ/mol
# Density = 2.000803 g / cm^3
# Si number density = 20.053676 Si / 1000 Ang^3
#
#
#
# Elastic Constant Matrix: (Units=GPa)
#
#
# Indices 1 2 3 4 5 6 
#
# 1 56.1697 23.5378 3.0363 0.0000 3.5480 0.0000
# 2 23.5378 48.0407 6.0692 0.0000 -1.3883 0.0000
# 3 3.0363 6.0692 102.7291 0.0000 0.6385 0.0000
# 4 0.0000 0.0000 0.0000 35.9072 0.0000 1.3719
# 5 3.5480 -1.3883 0.6385 0.0000 27.1180 0.0000
# 6 0.0000 0.0000 0.0000 1.3719 0.0000 38.7771
#
#
#
# Elastic Compliance Matrix: (Units=1/GPa)
#
#
# Indices 1 2 3 4 5 6 
#
# 1 0.022739 -0.011246 0.000014 0.000000 -0.003551 0.000000
# 2 -0.011246 0.026567 -0.001255 0.000000 0.002861 0.000000
# 3 0.000014 -0.001255 0.009810 0.000000 -0.000297 0.000000
# 4 0.000000 0.000000 0.000000 0.027887 0.000000 -0.000987
# 5 -0.003551 0.002861 -0.000297 0.000000 0.037494 0.000000
# 6 0.000000 0.000000 0.000000 -0.000987 0.000000 0.025823
#
#
# Mechanical properties :
#
#
# Convention : Reuss Voigt Hill
#
# Bulk Modulus (GPa) = 29.28824 30.24737 29.76781
# Shear Modulus (GPa) = 26.78468 31.98021 29.38245
#
# Velocity S-wave (km/s) = 3.65862 3.99774 3.83193
# Velocity P-wave (km/s) = 5.69947 6.03533 5.86980
#
# Compressibility (1/GPa) = 0.03414339
#
# Stress axis : x y z
#
# Youngs Moduli (GPa) = 43.97698 37.64104 101.93777
#
# Poissons Ratio (x) = 0.42330 -0.00146
# Poissons Ratio (y) = 0.49455 0.12793
# Poissons Ratio (z) = -0.00063 0.04724
#
# Static dielectric constant tensor:
#      x y z
#    x 4.913030 0.000000 -0.038900 
#    y 0.000000 3.494890 0.000000 
#    z -0.038900 0.000000 3.700260 
# 
# 
# High freq. dielectric constant tensor:
#      x y z
#    x 1.781970 0.000000 0.001790 
#    y 0.000000 1.774090 0.000000 
#    z 0.001790 0.000000 1.797130 
# 
# From -- ./inp_files/18597.got.cif
#   From: 2010.03.12/outbox.cif.g09.slc.cpg/sg14_10_cif.got.tgz:18597.got - 2010.03.31 13:35:05.
