data_PCOD8126398
_publ_section_title
;
Structure prediction by ZEFSAII (Michael W. Deem and Ramdas Pophale) SiO2 
 PCOD8126398
Probable space group: P 21/C
;
_chemical_formula_sum "Si O2"
_cell_formula_units_Z 28
_cell_length_a 8.940231
_cell_length_b 13.844484
_cell_length_c 12.407770
_cell_angle_alpha 90.000000
_cell_angle_beta 70.795348
_cell_angle_gamma 90.000000
_cell_volume 1450.280740
_symmetry_space_group_name_H-M "P 21/C"
_symmetry_group_IT_number 14
_symmetry_cell_setting 'monoclinic'
loop_
_space_group_symop_operation_xyz
x,y,z
-x,1/2+y,1/2-z
-x,-y,-z
x,1/2-y,1/2+z
loop_
_atom_site_type_symbol
_atom_site_label
_atom_site_fract_x
_atom_site_fract_y
_atom_site_fract_z
Si Si1 0.890780 0.886675 0.294052
Si Si2 0.983566 0.092349 0.291253
Si Si3 0.654124 0.763707 0.218977
Si Si4 0.067006 0.183211 0.476456
Si Si5 0.849992 0.217869 0.884802
Si Si6 0.671126 0.586618 0.360487
Si Si7 0.543229 0.379186 0.391549
O O1 0.735211 0.835467 0.285944
O O2 0.927595 0.848502 0.403569
O O3 0.044581 0.869545 0.184845
O O4 0.867765 0.002042 0.299533
O O5 0.050914 0.091334 0.398793
O O6 0.880666 0.189811 0.297774
O O7 0.137879 0.094088 0.177194
O O8 0.601152 0.666751 0.294504
O O9 0.504426 0.818680 0.203294
O O10 0.773270 0.739695 0.093482
O O11 0.913727 0.253185 0.489481
O O12 0.669242 0.184332 0.929703
O O13 0.616673 0.480487 0.333639
O O14 0.607003 0.603205 0.496284
#
# Coordination Sequence:
#
# PCOD8126398 Si02
#       7
#     4   4   4   4   4   4   4
#     4  11  17  36  61  79 118 152 193 248 288 342
#     4   9  19  37  60  88 109 152 204 236 290 349
#     4  10  22  36  57  88 116 156 197 237 301 354
#     4   8  19  35  56  84 110 153 190 241 291 333
#     4   9  21  34  57  89 108 150 203 235 278 353
#     4  10  21  40  61  79 126 159 187 247 302 342
#     4  11  22  39  60  87 122 158 193 243 302 349
#
# _framework density 19.306608000000001
#
# number of rings (size 3 to 8) (size 9 to 14) (size 15 to 20)
#    0.857    1.429    2.857    1.286    0.000    2.286 
#    0.000    2.143    0.000    4.286    0.000    0.000 
#    0.000    0.000    0.000    0.000    0.000    0.000 
#
# Total GULP energy -346949.220056 kJ/mol
# GULP energy per Si atom -12391.043573 kJ/mol
# Density = 1.926267 g / cm^3
# Si number density = 19.306608 Si / 1000 Ang^3
#
#
#
# Elastic Constant Matrix: (Units=GPa)
#
#
# Indices 1 2 3 4 5 6 
#
# 1 68.0637 33.9395 17.5072 0.0000 -0.0056 0.0000
# 2 33.9395 118.3731 7.6957 0.0000 3.6990 0.0000
# 3 17.5072 7.6957 39.5316 0.0000 -1.4173 0.0000
# 4 0.0000 0.0000 0.0000 23.0018 0.0000 1.9071
# 5 -0.0056 3.6990 -1.4173 0.0000 13.8802 0.0000
# 6 0.0000 0.0000 0.0000 1.9071 0.0000 27.0192
#
#
#
# Elastic Compliance Matrix: (Units=1/GPa)
#
#
# Indices 1 2 3 4 5 6 
#
# 1 0.019112 -0.005013 -0.007468 0.000000 0.000581 0.000000
# 2 -0.005013 0.009955 0.000187 0.000000 -0.002636 0.000000
# 3 -0.007468 0.000187 0.028670 0.000000 0.002874 0.000000
# 4 0.000000 0.000000 0.000000 0.043731 0.000000 -0.003087
# 5 0.000581 -0.002636 0.002874 0.000000 0.073042 0.000000
# 6 0.000000 0.000000 0.000000 -0.003087 0.000000 0.037229
#
#
# Mechanical properties :
#
#
# Convention : Reuss Voigt Hill
#
# Bulk Modulus (GPa) = 30.16406 38.25039 34.20723
# Shear Modulus (GPa) = 20.21226 23.90197 22.05711
#
# Velocity S-wave (km/s) = 3.23911 3.52237 3.38370
# Velocity P-wave (km/s) = 5.44488 6.03306 5.74650
#
# Compressibility (1/GPa) = 0.03315203
#
# Stress axis : x y z
#
# Youngs Moduli (GPa) = 52.32195 100.44977 34.87975
#
# Poissons Ratio (x) = 0.50351 0.26047
# Poissons Ratio (y) = 0.26226 -0.00654
# Poissons Ratio (z) = 0.39072 -0.01882
#
# Static dielectric constant tensor:
#      x y z
#    x 3.243880 0.000000 -0.035250 
#    y 0.000000 3.670980 0.000000 
#    z -0.035250 0.000000 3.211550 
# 
# 
# High freq. dielectric constant tensor:
#      x y z
#    x 1.727060 0.000000 -0.002670 
#    y 0.000000 1.761960 0.000000 
#    z -0.002670 0.000000 1.732870 
# 
# From -- ./inp_files/25206.got.cif
#   From: 2010.03.12/outbox.cif.g09.slc.cpg/sg14_13_cif.got.tgz:25206.got - 2010.03.31 13:35:05.
