data_PCOD8126166
_publ_section_title
;
Structure prediction by ZEFSAII (Michael W. Deem and Ramdas Pophale) SiO2 
 PCOD8126166
Probable space group: P 21/C
;
_chemical_formula_sum "Si O2"
_cell_formula_units_Z 28
_cell_length_a 11.429923
_cell_length_b 7.753042
_cell_length_c 13.007660
_cell_angle_alpha 90.000000
_cell_angle_beta 82.045413
_cell_angle_gamma 90.000000
_cell_volume 1141.604394
_symmetry_space_group_name_H-M "P 21/C"
_symmetry_group_IT_number 14
_symmetry_cell_setting 'monoclinic'
loop_
_space_group_symop_operation_xyz
x,y,z
-x,1/2+y,1/2-z
-x,-y,-z
x,1/2-y,1/2+z
loop_
_atom_site_type_symbol
_atom_site_label
_atom_site_fract_x
_atom_site_fract_y
_atom_site_fract_z
Si Si1 0.175224 0.480391 0.737319
Si Si2 0.049884 0.949419 0.604000
Si Si3 0.119704 0.580198 0.530361
Si Si4 0.284236 0.713633 0.877701
Si Si5 0.519594 0.563970 0.832017
Si Si6 0.345016 0.249216 0.337667
Si Si7 0.725248 0.600394 0.964726
O O1 0.177004 0.462225 0.613040
O O2 0.232757 0.660065 0.771803
O O3 0.253616 0.318121 0.763367
O O4 0.042164 0.470393 0.793495
O O5 0.089455 0.752167 0.597010
O O6 0.156529 0.085525 0.618383
O O7 0.000000 0.000000 0.500000
O O8 0.217334 0.614841 0.428023
O O9 0.000000 0.500000 0.500000
O O10 0.427122 0.725957 0.851625
O O11 0.254091 0.556622 0.957650
O O12 0.596641 0.578311 0.716679
O O13 0.451866 0.385426 0.841541
O O14 0.605367 0.574710 0.918426
O O15 0.282895 0.270306 0.458055
#
# Coordination Sequence:
#
# PCOD8126166 Si02
#       7
#     4   4   4   4   4   4   4
#     4  10  22  41  62  90 128 162 201 256 317 366
#     4  11  20  42  66  89 125 167 206 250 317 380
#     4  11  25  40  64  94 127 160 213 262 309 378
#     4   9  20  42  62  86 125 168 202 252 316 371
#     4  10  21  38  64  91 118 162 212 249 314 368
#     4  10  21  40  61  87 123 157 205 260 302 374
#     4   9  19  37  64  85 119 168 204 241 309 386
#
# _framework density 24.526886000000001
#
# number of rings (size 3 to 8) (size 9 to 14) (size 15 to 20)
#    0.000    2.286    4.286    1.714    2.000    9.143 
#    2.571    1.429    0.000    0.000    0.000    0.000 
#    0.000    0.000    0.000    0.000    0.000    0.000 
#
# Total GULP energy -346960.401461 kJ/mol
# GULP energy per Si atom -12391.442909 kJ/mol
# Density = 2.447106 g / cm^3
# Si number density = 24.526886 Si / 1000 Ang^3
#
#
#
# Elastic Constant Matrix: (Units=GPa)
#
#
# Indices 1 2 3 4 5 6 
#
# 1 135.8546 -8.5434 32.2131 0.0000 15.0649 0.0000
# 2 -8.5434 9.6992 -7.7419 0.0000 3.7730 0.0000
# 3 32.2131 -7.7419 88.6131 0.0000 11.6883 0.0000
# 4 0.0000 0.0000 0.0000 23.0599 0.0000 -4.8282
# 5 15.0649 3.7730 11.6883 0.0000 47.3687 0.0000
# 6 0.0000 0.0000 0.0000 -4.8282 0.0000 11.6544
#
#
#
# Elastic Compliance Matrix: (Units=1/GPa)
#
#
# Indices 1 2 3 4 5 6 
#
# 1 0.008616 0.006936 -0.002162 0.000000 -0.002759 0.000000
# 2 0.006936 0.122938 0.010131 0.000000 -0.014498 0.000000
# 3 -0.002162 0.010131 0.013408 0.000000 -0.003428 0.000000
# 4 0.000000 0.000000 0.000000 0.047484 0.000000 0.019672
# 5 -0.002759 -0.014498 -0.003428 0.000000 0.023989 0.000000
# 6 0.000000 0.000000 0.000000 0.019672 0.000000 0.093954
#
#
# Mechanical properties :
#
#
# Convention : Reuss Voigt Hill
#
# Bulk Modulus (GPa) = 5.72170 29.55807 17.63989
# Shear Modulus (GPa) = 14.75647 30.96587 22.86117
#
# Velocity S-wave (km/s) = 2.45551 3.55706 3.05632
# Velocity P-wave (km/s) = 3.22137 5.38031 4.43424
#
# Compressibility (1/GPa) = 0.17477325
#
# Stress axis : x y z
#
# Youngs Moduli (GPa) = 116.06820 8.13421 74.58075
#
# Poissons Ratio (x) = -0.05642 0.16125
# Poissons Ratio (y) = -0.80510 -0.75561
# Poissons Ratio (z) = 0.25094 -0.08241
#
# Static dielectric constant tensor:
#      x y z
#    x 5.016770 0.000000 -0.484510 
#    y 0.000000 4.393020 0.000000 
#    z -0.484510 0.000000 4.698010 
# 
# 
# High freq. dielectric constant tensor:
#      x y z
#    x 1.996030 0.000000 -0.009100 
#    y 0.000000 1.945280 0.000000 
#    z -0.009100 0.000000 1.976080 
# 
# From -- ./inp_files/43156.got.cif
#   From: 2010.03.12/outbox.cif.g09.slc.cpg/sg14_22_cif.got.tgz:43156.got - 2010.03.31 13:35:05.
