data_PCOD8126881
_publ_section_title
;
Structure prediction by ZEFSAII (Michael W. Deem and Ramdas Pophale) SiO2 
 PCOD8126881
Probable space group: P 21/C
;
_chemical_formula_sum "Si O2"
_cell_formula_units_Z 28
_cell_length_a 6.535763
_cell_length_b 8.106117
_cell_length_c 30.737097
_cell_angle_alpha 90.000000
_cell_angle_beta 127.128963
_cell_angle_gamma 90.000000
_cell_volume 1298.321606
_symmetry_space_group_name_H-M "P 21/C"
_symmetry_group_IT_number 14
_symmetry_cell_setting 'monoclinic'
loop_
_space_group_symop_operation_xyz
x,y,z
-x,1/2+y,1/2-z
-x,-y,-z
x,1/2-y,1/2+z
loop_
_atom_site_type_symbol
_atom_site_label
_atom_site_fract_x
_atom_site_fract_y
_atom_site_fract_z
Si Si1 0.734740 0.420971 0.214094
Si Si2 0.171206 0.475137 0.153502
Si Si3 0.078802 0.278310 0.817933
Si Si4 0.338150 0.426041 0.423215
Si Si5 0.304616 0.724583 0.879047
Si Si6 0.833930 0.919300 0.441382
Si Si7 0.885279 0.084863 0.027112
O O1 0.456105 0.409350 0.200754
O O2 0.782087 0.601328 0.198773
O O3 0.745288 0.277845 0.179044
O O4 0.949433 0.377598 0.277398
O O5 0.163005 0.532861 0.101713
O O6 0.134927 0.622915 0.182589
O O7 0.954356 0.334987 0.130973
O O8 0.272626 0.211630 0.879262
O O9 0.390261 0.595861 0.404763
O O10 0.118423 0.459737 0.431775
O O11 0.592458 0.360873 0.479981
O O12 0.541433 0.601040 0.920480
O O13 0.946589 0.743916 0.440564
O O14 0.000000 0.000000 0.500000
O O15 0.000000 0.000000 0.000000
#
# Coordination Sequence:
#
# PCOD8126881 Si02
#       7
#     4   4   4   4   4   4   4
#     4  10  24  45  67  98 126 166 214 270 330 377
#     4  10  24  43  63  97 128 168 216 259 331 386
#     4  11  25  43  69  95 127 167 216 271 320 396
#     4  11  24  40  64  94 132 170 216 264 324 383
#     4  10  21  44  63  94 130 169 215 265 319 389
#     4  11  24  39  68  93 132 174 215 269 318 384
#     4  11  24  41  60  97 132 174 216 261 322 381
#
# _framework density 21.566303999999999
#
# number of rings (size 3 to 8) (size 9 to 14) (size 15 to 20)
#    0.000    1.429    2.857    0.857    8.000    4.000 
#    0.000    0.000    0.000    0.000    0.000    0.000 
#    0.000    0.000    0.000    0.000    0.000    0.000 
#
# Total GULP energy -347109.569145 kJ/mol
# GULP energy per Si atom -12396.770327 kJ/mol
# Density = 2.151722 g / cm^3
# Si number density = 21.566304 Si / 1000 Ang^3
#
#
#
# Elastic Constant Matrix: (Units=GPa)
#
#
# Indices 1 2 3 4 5 6 
#
# 1 126.2331 29.9580 22.0646 0.0000 4.8989 0.0000
# 2 29.9580 64.1447 19.6575 0.0000 -5.2220 0.0000
# 3 22.0646 19.6575 86.0507 0.0000 3.5240 0.0000
# 4 0.0000 0.0000 0.0000 44.6418 0.0000 -6.8180
# 5 4.8989 -5.2220 3.5240 0.0000 32.7611 0.0000
# 6 0.0000 0.0000 0.0000 -6.8180 0.0000 23.8144
#
#
#
# Elastic Compliance Matrix: (Units=1/GPa)
#
#
# Indices 1 2 3 4 5 6 
#
# 1 0.009188 -0.004027 -0.001359 0.000000 -0.001869 0.000000
# 2 -0.004027 0.018847 -0.003436 0.000000 0.003976 0.000000
# 3 -0.001359 -0.003436 0.012825 0.000000 -0.001724 0.000000
# 4 0.000000 0.000000 0.000000 0.023425 0.000000 0.006706
# 5 -0.001869 0.003976 -0.001724 0.000000 0.031623 0.000000
# 6 0.000000 0.000000 0.000000 0.006706 0.000000 0.043911
#
#
# Mechanical properties :
#
#
# Convention : Reuss Voigt Hill
#
# Bulk Modulus (GPa) = 43.07356 46.64319 44.85837
# Shear Modulus (GPa) = 30.26621 33.89335 32.07978
#
# Velocity S-wave (km/s) = 3.75027 3.96863 3.86099
# Velocity P-wave (km/s) = 6.22645 6.53259 6.38136
#
# Compressibility (1/GPa) = 0.02321610
#
# Stress axis : x y z
#
# Youngs Moduli (GPa) = 108.84222 53.05920 77.97206
#
# Poissons Ratio (x) = 0.21364 0.10600
# Poissons Ratio (y) = 0.43826 0.26789
# Poissons Ratio (z) = 0.14796 0.18230
#
# Static dielectric constant tensor:
#      x y z
#    x 4.074820 0.000000 -0.034370 
#    y 0.000000 3.748280 0.000000 
#    z -0.034370 0.000000 3.981850 
# 
# 
# High freq. dielectric constant tensor:
#      x y z
#    x 1.858660 0.000000 -0.004940 
#    y 0.000000 1.824940 0.000000 
#    z -0.004940 0.000000 1.853620 
# 
# From -- ./inp_files/75651.got.cif
#   From: 2010.03.12/outbox.cif.g09.slc.cpg/sg14_38_cif.got.tgz:75651.got - 2010.03.31 13:35:05.
