data_PCOD8126418
_publ_section_title
;
Structure prediction by ZEFSAII (Michael W. Deem and Ramdas Pophale) SiO2 
 PCOD8126418
Probable space group: P 21/C
;
_chemical_formula_sum "Si O2"
_cell_formula_units_Z 32
_cell_length_a 18.930639
_cell_length_b 20.167232
_cell_length_c 9.523947
_cell_angle_alpha 90.000000
_cell_angle_beta 153.258348
_cell_angle_gamma 90.000000
_cell_volume 1636.102413
_symmetry_space_group_name_H-M "P 21/C"
_symmetry_group_IT_number 14
_symmetry_cell_setting 'monoclinic'
loop_
_space_group_symop_operation_xyz
x,y,z
-x,1/2+y,1/2-z
-x,-y,-z
x,1/2-y,1/2+z
loop_
_atom_site_type_symbol
_atom_site_label
_atom_site_fract_x
_atom_site_fract_y
_atom_site_fract_z
Si Si1 0.659511 0.991947 0.366966
Si Si2 0.884682 0.260160 0.165485
Si Si3 0.695093 0.625323 0.753386
Si Si4 0.663089 0.362817 0.872622
Si Si5 0.677497 0.870504 0.895736
Si Si6 0.316230 0.860609 0.272240
Si Si7 0.894142 0.748820 0.689412
Si Si8 0.656361 0.991917 0.687473
O O1 0.741804 0.063949 0.503240
O O2 0.625498 0.973565 0.469498
O O3 0.761367 0.935765 0.466649
O O4 0.500000 0.000000 0.000000
O O5 0.979187 0.271655 0.474423
O O6 0.006564 0.279353 0.262131
O O7 0.746639 0.314048 0.912199
O O8 0.807166 0.186743 0.026159
O O9 0.518953 0.638471 0.493569
O O10 0.694526 0.606861 0.587712
O O11 0.799367 0.688633 0.965739
O O12 0.682626 0.336277 0.065332
O O13 0.495507 0.855140 0.533393
O O14 0.746524 0.930390 0.921269
O O15 0.777038 0.805190 0.044114
O O16 0.254833 0.936851 0.146825
O O17 0.500000 0.000000 0.500000
#
# Coordination Sequence:
#
# PCOD8126418 Si02
#       8
#     4   4   4   4   4   4   4   4
#     4   9  18  35  61  89 116 149 194 247 293 342
#     4  12  23  42  57  82 121 157 197 237 293 347
#     4  10  21  40  62  88 118 151 199 245 288 351
#     4   9  19  39  62  85 114 151 194 237 287 348
#     4  10  21  40  62  88 117 153 197 244 292 349
#     4   9  19  39  62  85 115 150 191 242 286 342
#     4  12  25  40  59  82 123 159 192 245 292 346
#     4   9  18  35  61  89 117 148 193 247 296 343
#
# _framework density 19.558676999999999
#
# number of rings (size 3 to 8) (size 9 to 14) (size 15 to 20)
#    0.000    2.000    2.500    3.000    1.750    0.000 
#   11.250    2.500    0.000    0.000    0.000    0.000 
#    0.000    0.000    0.000    0.000    0.000    0.000 
#
# Total GULP energy -396599.340107 kJ/mol
# GULP energy per Si atom -12393.729378 kJ/mol
# Density = 1.951416 g / cm^3
# Si number density = 19.558677 Si / 1000 Ang^3
#
#
#
# Elastic Constant Matrix: (Units=GPa)
#
#
# Indices 1 2 3 4 5 6 
#
# 1 112.2348 38.8744 26.5120 0.0000 -9.6893 0.0000
# 2 38.8744 116.9601 33.6323 0.0000 2.7957 0.0000
# 3 26.5120 33.6323 64.7294 0.0000 -6.4041 0.0000
# 4 0.0000 0.0000 0.0000 8.8616 0.0000 -16.8167
# 5 -9.6893 2.7957 -6.4041 0.0000 30.4367 0.0000
# 6 0.0000 0.0000 0.0000 -16.8167 0.0000 25.8903
#
#
#
# Elastic Compliance Matrix: (Units=1/GPa)
#
#
# Indices 1 2 3 4 5 6 
#
# 1 0.010808 -0.002921 -0.002596 0.000000 0.003163 0.000000
# 2 -0.002921 0.010970 -0.004795 0.000000 -0.002947 0.000000
# 3 -0.002596 -0.004795 0.019369 0.000000 0.003689 0.000000
# 4 0.000000 0.000000 0.000000 -0.485090 0.000000 -0.315084
# 5 0.003163 -0.002947 0.003689 0.000000 0.034909 0.000000
# 6 0.000000 0.000000 0.000000 -0.315084 0.000000 -0.166034
#
#
# Mechanical properties :
#
#
# Convention : Reuss Voigt Hill
#
# Bulk Modulus (GPa) = 48.72763 54.66242 51.69503
# Shear Modulus (GPa) = -9.13070 26.03142 8.45036
#
# Velocity S-wave (km/s) = -2.16298 3.65216 2.08084
# Velocity P-wave (km/s) = 4.32778 6.76705 5.67990
#
# Compressibility (1/GPa) = 0.02052224
#
# Stress axis : x y z
#
# Youngs Moduli (GPa) = 92.52378 91.15666 51.63022
#
# Poissons Ratio (x) = 0.26631 0.13403
# Poissons Ratio (y) = 0.27030 0.24756
# Poissons Ratio (z) = 0.24019 0.43708
#
# Static dielectric constant tensor:
#      x y z
#    x 3.685640 0.000000 -0.151280 
#    y 0.000000 4.125090 0.000000 
#    z -0.151280 0.000000 3.396300 
# 
# 
# High freq. dielectric constant tensor:
#      x y z
#    x 1.762770 0.000000 -0.012400 
#    y 0.000000 1.772860 0.000000 
#    z -0.012400 0.000000 1.737850 
# 
# From -- ./inp_files/18236.got.cif
#   From: 2010.03.12/outbox.cif.g09.slc.cpg/sg14_10_cif.got.tgz:18236.got - 2010.03.31 13:35:05.
