data_PCOD8126976
_publ_section_title
;
Structure prediction by ZEFSAII (Michael W. Deem and Ramdas Pophale) SiO2 
 PCOD8126976
Probable space group: P 21/C
;
_chemical_formula_sum "Si O2"
_cell_formula_units_Z 28
_cell_length_a 13.544337
_cell_length_b 8.617957
_cell_length_c 12.559001
_cell_angle_alpha 90.000000
_cell_angle_beta 116.423596
_cell_angle_gamma 90.000000
_cell_volume 1312.794097
_symmetry_space_group_name_H-M "P 21/C"
_symmetry_group_IT_number 14
_symmetry_cell_setting 'monoclinic'
loop_
_space_group_symop_operation_xyz
x,y,z
-x,1/2+y,1/2-z
-x,-y,-z
x,1/2-y,1/2+z
loop_
_atom_site_type_symbol
_atom_site_label
_atom_site_fract_x
_atom_site_fract_y
_atom_site_fract_z
Si Si1 0.227411 0.502625 0.004115
Si Si2 0.899139 0.264215 0.199987
Si Si3 0.486574 0.174941 0.177015
Si Si4 0.046952 0.020221 0.906791
Si Si5 0.532549 0.480732 0.895836
Si Si6 0.732886 0.847237 0.042817
Si Si7 0.729927 0.052018 0.238763
O O1 0.344261 0.586335 0.043757
O O2 0.207386 0.501621 0.122229
O O3 0.136300 0.603208 0.900548
O O4 0.237320 0.333211 0.955858
O O5 0.795466 0.193494 0.214460
O O6 0.984978 0.336178 0.323420
O O7 0.968061 0.135224 0.169245
O O8 0.481249 0.358414 0.171594
O O9 0.603611 0.105243 0.195819
O O10 0.461885 0.137844 0.290205
O O11 0.387611 0.106625 0.058641
O O12 0.176952 0.055178 0.979467
O O13 0.000000 0.000000 0.000000
O O14 0.500000 0.500000 0.000000
O O15 0.734833 0.898722 0.167333
#
# Coordination Sequence:
#
# PCOD8126976 Si02
#       7
#     4   4   4   4   4   4   4
#     4  10  22  39  60  89 122 157 201 253 307 364
#     4  11  23  42  65  91 122 160 205 257 309 367
#     4  10  22  39  62  91 127 165 206 253 310 371
#     4  11  25  42  63  91 121 162 209 254 307 365
#     4  10  22  37  58  89 124 163 204 250 307 370
#     4  10  23  40  62  90 124 165 206 252 308 365
#     4  10  22  41  64  93 125 162 205 255 309 368
#
# _framework density 21.328554
#
# number of rings (size 3 to 8) (size 9 to 14) (size 15 to 20)
#    0.000    1.714    0.000    3.000    0.000   18.286 
#    0.000    5.000    0.000    0.000    0.000    0.000 
#    0.000    0.000    0.000    0.000    0.000    0.000 
#
# Total GULP energy -347103.383626 kJ/mol
# GULP energy per Si atom -12396.549415 kJ/mol
# Density = 2.128001 g / cm^3
# Si number density = 21.328554 Si / 1000 Ang^3
#
#
#
# Elastic Constant Matrix: (Units=GPa)
#
#
# Indices 1 2 3 4 5 6 
#
# 1 107.9220 37.7419 56.3985 0.0000 -11.9237 0.0000
# 2 37.7419 91.1395 54.1991 0.0000 -0.1731 0.0000
# 3 56.3985 54.1991 132.5644 0.0000 -20.4137 0.0000
# 4 0.0000 0.0000 0.0000 42.6210 0.0000 1.8017
# 5 -11.9237 -0.1731 -20.4137 0.0000 36.6145 0.0000
# 6 0.0000 0.0000 0.0000 1.8017 0.0000 30.1907
#
#
#
# Elastic Compliance Matrix: (Units=1/GPa)
#
#
# Indices 1 2 3 4 5 6 
#
# 1 0.012494 -0.002886 -0.003841 0.000000 0.001914 0.000000
# 2 -0.002886 0.015596 -0.005778 0.000000 -0.004087 0.000000
# 3 -0.003841 -0.005778 0.012408 0.000000 0.005640 0.000000
# 4 0.000000 0.000000 0.000000 0.023522 0.000000 -0.001404
# 5 0.001914 -0.004087 0.005640 0.000000 0.031060 0.000000
# 6 0.000000 0.000000 0.000000 -0.001404 0.000000 0.033207
#
#
# Mechanical properties :
#
#
# Convention : Reuss Voigt Hill
#
# Bulk Modulus (GPa) = 64.56486 69.81165 67.18826
# Shear Modulus (GPa) = 31.55407 34.10435 32.82921
#
# Velocity S-wave (km/s) = 3.85051 4.00309 3.92754
# Velocity P-wave (km/s) = 7.07855 7.35995 7.22062
#
# Compressibility (1/GPa) = 0.01548830
#
# Stress axis : x y z
#
# Youngs Moduli (GPa) = 80.03954 64.12061 80.59166
#
# Poissons Ratio (x) = 0.18507 0.30952
# Poissons Ratio (y) = 0.23101 0.46564
# Poissons Ratio (z) = 0.30740 0.37048
#
# Static dielectric constant tensor:
#      x y z
#    x 4.045170 0.000000 0.066220 
#    y 0.000000 3.838320 0.000000 
#    z 0.066220 0.000000 4.229260 
# 
# 
# High freq. dielectric constant tensor:
#      x y z
#    x 1.837910 0.000000 -0.001970 
#    y 0.000000 1.838840 0.000000 
#    z -0.001970 0.000000 1.848890 
# 
# From -- ./inp_files/31470.got.cif
#   From: 2010.03.12/outbox.cif.g09.slc.cpg/sg14_16_cif.got.tgz:31470.got - 2010.03.31 13:35:05.
