data_PCOD8126378
_publ_section_title
;
Structure prediction by ZEFSAII (Michael W. Deem and Ramdas Pophale) SiO2 
 PCOD8126378
Probable space group: P 21/C
;
_chemical_formula_sum "Si O2"
_cell_formula_units_Z 32
_cell_length_a 16.474309
_cell_length_b 6.881432
_cell_length_c 14.481712
_cell_angle_alpha 90.000000
_cell_angle_beta 90.960237
_cell_angle_gamma 90.000000
_cell_volume 1641.515329
_symmetry_space_group_name_H-M "P 21/C"
_symmetry_group_IT_number 14
_symmetry_cell_setting 'monoclinic'
loop_
_space_group_symop_operation_xyz
x,y,z
-x,1/2+y,1/2-z
-x,-y,-z
x,1/2-y,1/2+z
loop_
_atom_site_type_symbol
_atom_site_label
_atom_site_fract_x
_atom_site_fract_y
_atom_site_fract_z
Si Si1 0.864862 0.268295 0.871090
Si Si2 0.847415 0.342090 0.669502
Si Si3 0.682617 0.940874 0.531110
Si Si4 0.666385 0.275364 0.666926
Si Si5 0.686126 0.268889 0.382877
Si Si6 0.132924 0.017238 0.449165
Si Si7 0.972825 0.879112 0.085070
Si Si8 0.406402 0.466678 0.479823
O O1 0.851436 0.385538 0.777666
O O2 0.779931 0.155938 0.887436
O O3 0.943858 0.133538 0.854067
O O4 0.884030 0.406690 0.956320
O O5 0.754231 0.355709 0.636889
O O6 0.878734 0.130901 0.636994
O O7 0.898988 0.516054 0.631548
O O8 0.623149 0.756429 0.523645
O O9 0.651813 0.066763 0.618177
O O10 0.676084 0.063605 0.435732
O O11 0.777375 0.884329 0.549026
O O12 0.654414 0.256416 0.776925
O O13 0.607283 0.434341 0.620551
O O14 0.638008 0.434758 0.434602
O O15 0.060772 0.169423 0.441755
O O16 0.000000 0.000000 0.000000
O O17 0.500000 0.500000 0.500000
#
# Coordination Sequence:
#
# PCOD8126378 Si02
#       8
#     4   4   4   4   4   4   4   4
#     4  10  22  39  59  82 120 160 202 253 297 352
#     4  10  22  40  58  83 119 160 202 249 298 349
#     4   9  20  38  66  85 119 160 197 244 302 358
#     4   9  20  42  62  86 124 162 200 243 297 371
#     4   9  21  42  61  87 122 162 202 245 300 372
#     4  10  21  40  56  85 115 156 203 243 295 364
#     4  12  24  33  57  83 115 160 199 259 303 338
#     4  11  23  40  64  97 120 152 195 253 309 368
#
# _framework density 19.494181999999999
#
# number of rings (size 3 to 8) (size 9 to 14) (size 15 to 20)
#    0.000    2.000    1.250    1.875    3.500    3.000 
#    4.500    3.750    0.000    0.000    0.000    0.000 
#    0.000    0.000    0.000    0.000    0.000    0.000 
#
# Total GULP energy -396553.672312 kJ/mol
# GULP energy per Si atom -12392.302260 kJ/mol
# Density = 1.944981 g / cm^3
# Si number density = 19.494182 Si / 1000 Ang^3
#
#
#
# Elastic Constant Matrix: (Units=GPa)
#
#
# Indices 1 2 3 4 5 6 
#
# 1 111.4658 57.4008 45.1972 0.0000 15.3171 0.0000
# 2 57.4008 86.1143 39.7273 0.0000 7.0242 0.0000
# 3 45.1972 39.7273 124.0562 0.0000 0.6707 0.0000
# 4 0.0000 0.0000 0.0000 12.3098 0.0000 0.1578
# 5 15.3171 7.0242 0.6707 0.0000 22.9073 0.0000
# 6 0.0000 0.0000 0.0000 0.1578 0.0000 28.9955
#
#
#
# Elastic Compliance Matrix: (Units=1/GPa)
#
#
# Indices 1 2 3 4 5 6 
#
# 1 0.015535 -0.008369 -0.002938 0.000000 -0.007736 0.000000
# 2 -0.008369 0.018520 -0.002882 0.000000 0.000001 0.000000
# 3 -0.002938 -0.002882 0.010040 0.000000 0.002554 0.000000
# 4 0.000000 0.000000 0.000000 0.081241 0.000000 -0.000442
# 5 -0.007736 0.000001 0.002554 0.000000 0.048751 0.000000
# 6 0.000000 0.000000 0.000000 -0.000442 0.000000 0.034490
#
#
# Mechanical properties :
#
#
# Convention : Reuss Voigt Hill
#
# Bulk Modulus (GPa) = 63.62027 67.36521 65.49274
# Shear Modulus (GPa) = 20.64439 24.79661 22.72050
#
# Velocity S-wave (km/s) = 3.25776 3.57038 3.41765
# Velocity P-wave (km/s) = 6.84522 7.18529 7.01732
#
# Compressibility (1/GPa) = 0.01571826
#
# Stress axis : x y z
#
# Youngs Moduli (GPa) = 64.36918 53.99482 99.59788
#
# Poissons Ratio (x) = 0.45188 0.29263
# Poissons Ratio (y) = 0.53870 0.28703
# Poissons Ratio (z) = 0.18913 0.15561
#
# Static dielectric constant tensor:
#      x y z
#    x 3.640420 0.000000 0.103790 
#    y 0.000000 3.195220 0.000000 
#    z 0.103790 0.000000 3.609240 
# 
# 
# High freq. dielectric constant tensor:
#      x y z
#    x 1.765900 0.000000 0.001320 
#    y 0.000000 1.741240 0.000000 
#    z 0.001320 0.000000 1.766750 
# 
# From -- ./inp_files/48177.got.cif
#   From: 2010.03.12/outbox.cif.g09.slc.cpg/sg14_25_cif.got.tgz:48177.got - 2010.03.31 13:35:05.
