data_PCOD8126270
_publ_section_title
;
Structure prediction by ZEFSAII (Michael W. Deem and Ramdas Pophale) SiO2 
 PCOD8126270
Probable space group: P 21/C
;
_chemical_formula_sum "Si O2"
_cell_formula_units_Z 24
_cell_length_a 28.517597
_cell_length_b 5.319759
_cell_length_c 19.652042
_cell_angle_alpha 90.000000
_cell_angle_beta 19.891645
_cell_angle_gamma 90.000000
_cell_volume 1014.380852
_symmetry_space_group_name_H-M "P 21/C"
_symmetry_group_IT_number 14
_symmetry_cell_setting 'monoclinic'
loop_
_space_group_symop_operation_xyz
x,y,z
-x,1/2+y,1/2-z
-x,-y,-z
x,1/2-y,1/2+z
loop_
_atom_site_type_symbol
_atom_site_label
_atom_site_fract_x
_atom_site_fract_y
_atom_site_fract_z
Si Si1 0.592142 0.375655 0.029832
Si Si2 0.673754 0.442818 0.309621
Si Si3 0.909652 0.767061 0.950591
Si Si4 0.928498 0.730275 0.265567
Si Si5 0.339072 0.409451 0.928578
Si Si6 0.411894 0.719696 0.708875
O O1 0.677153 0.533422 0.969304
O O2 0.491029 0.203401 0.212684
O O3 0.496679 0.528543 0.106649
O O4 0.710592 0.231594 0.824524
O O5 0.514328 0.497565 0.545718
O O6 0.691673 0.273309 0.215471
O O7 0.760670 0.702715 0.187668
O O8 0.889359 0.762606 0.897784
O O9 0.973943 0.031289 0.887700
O O10 0.000687 0.530426 0.850597
O O11 0.786518 0.725466 0.417496
O O12 0.327004 0.646969 0.892882
#
# Coordination Sequence:
#
# PCOD8126270 Si02
#       6
#     4   4   4   4   4   4
#     4  11  23  37  64  92 129 168 200 272 321 381
#     4  10  22  39  62  94 124 161 213 263 322 374
#     4  10  22  41  63  92 124 170 217 267 310 379
#     4  10  23  39  65  91 125 171 216 262 315 379
#     4  11  22  39  61  94 126 165 216 254 324 388
#     4  10  21  39  62  93 124 161 204 268 321 374
#
# _framework density 23.659752999999998
#
# number of rings (size 3 to 8) (size 9 to 14) (size 15 to 20)
#    0.000    1.667    3.333    0.500    4.667    1.333 
#    0.000    1.667    0.000    0.000    0.000    0.000 
#    0.000    0.000    0.000    0.000    0.000    0.000 
#
# Total GULP energy -297441.321443 kJ/mol
# GULP energy per Si atom -12393.388393 kJ/mol
# Density = 2.360590 g / cm^3
# Si number density = 23.659753 Si / 1000 Ang^3
#
#
#
# Elastic Constant Matrix: (Units=GPa)
#
#
# Indices 1 2 3 4 5 6 
#
# 1 82.5628 8.3754 11.7528 0.0000 4.1268 0.0000
# 2 8.3754 52.9219 -17.1900 0.0000 10.7235 0.0000
# 3 11.7528 -17.1900 39.2063 0.0000 -1.4726 0.0000
# 4 0.0000 0.0000 0.0000 29.8261 0.0000 -0.5696
# 5 4.1268 10.7235 -1.4726 0.0000 26.3070 0.0000
# 6 0.0000 0.0000 0.0000 -0.5696 0.0000 17.4826
#
#
#
# Elastic Compliance Matrix: (Units=1/GPa)
#
#
# Indices 1 2 3 4 5 6 
#
# 1 0.013350 -0.003786 -0.005695 0.000000 -0.000870 0.000000
# 2 -0.003786 0.025161 0.011829 0.000000 -0.009000 0.000000
# 3 -0.005695 0.011829 0.032320 0.000000 -0.002119 0.000000
# 4 0.000000 0.000000 0.000000 0.033549 0.000000 0.001093
# 5 -0.000870 -0.009000 -0.002119 0.000000 0.041699 0.000000
# 6 0.000000 0.000000 0.000000 0.001093 0.000000 0.057235
#
#
# Mechanical properties :
#
#
# Convention : Reuss Voigt Hill
#
# Bulk Modulus (GPa) = 13.24041 20.06305 16.65173
# Shear Modulus (GPa) = 22.34195 26.17333 24.25764
#
# Velocity S-wave (km/s) = 3.07628 3.32962 3.20546
# Velocity P-wave (km/s) = 4.26923 4.82495 4.55557
#
# Compressibility (1/GPa) = 0.07552636
#
# Stress axis : x y z
#
# Youngs Moduli (GPa) = 74.90525 39.74421 30.94067
#
# Poissons Ratio (x) = 0.15049 0.17620
# Poissons Ratio (y) = 0.28362 -0.36599
# Poissons Ratio (z) = 0.42657 -0.47013
#
# Static dielectric constant tensor:
#      x y z
#    x 4.242450 0.000000 0.151520 
#    y 0.000000 4.221350 0.000000 
#    z 0.151520 0.000000 4.150350 
# 
# 
# High freq. dielectric constant tensor:
#      x y z
#    x 1.921960 0.000000 0.007380 
#    y 0.000000 1.934690 0.000000 
#    z 0.007380 0.000000 1.918710 
# 
# From -- ./inp_files/66230.got.cif
#   From: 2010.03.12/outbox.cif.g09.slc.cpg/sg14_34_cif.got.tgz:66230.got - 2010.03.31 13:35:05.
