data_PCOD8126675
_publ_section_title
;
Structure prediction by ZEFSAII (Michael W. Deem and Ramdas Pophale) SiO2 
 PCOD8126675
Probable space group: P 21/C
;
_chemical_formula_sum "Si O2"
_cell_formula_units_Z 28
_cell_length_a 18.210661
_cell_length_b 6.474928
_cell_length_c 13.919364
_cell_angle_alpha 90.000000
_cell_angle_beta 120.535422
_cell_angle_gamma 90.000000
_cell_volume 1413.650877
_symmetry_space_group_name_H-M "P 21/C"
_symmetry_group_IT_number 14
_symmetry_cell_setting 'monoclinic'
loop_
_space_group_symop_operation_xyz
x,y,z
-x,1/2+y,1/2-z
-x,-y,-z
x,1/2-y,1/2+z
loop_
_atom_site_type_symbol
_atom_site_label
_atom_site_fract_x
_atom_site_fract_y
_atom_site_fract_z
Si Si1 0.455212 0.800165 0.010958
Si Si2 0.787527 0.757633 0.764393
Si Si3 0.905814 0.036797 0.973746
Si Si4 0.821938 0.802927 0.074935
Si Si5 0.327785 0.915656 0.091284
Si Si6 0.385447 0.028636 0.334049
Si Si7 0.803208 0.423700 0.932553
O O1 0.399049 0.856607 0.064050
O O2 0.527082 0.645496 0.093049
O O3 0.393627 0.694217 0.890876
O O4 0.500000 0.000000 0.000000
O O5 0.837577 0.705295 0.699471
O O6 0.694721 0.846624 0.675059
O O7 0.778670 0.549942 0.820713
O O8 0.837985 0.929552 0.858020
O O9 0.896098 0.939329 0.073968
O O10 0.885271 0.280444 0.963688
O O11 0.000000 0.000000 0.000000
O O12 0.826301 0.572128 0.036135
O O13 0.731120 0.906457 0.992355
O O14 0.275833 0.714359 0.087938
O O15 0.374536 0.008922 0.213740
#
# Coordination Sequence:
#
# PCOD8126675 Si02
#       7
#     4   4   4   4   4   4   4
#     4  11  27  40  61  90 127 169 216 280 321 390
#     4  11  22  42  68  94 126 171 221 261 321 395
#     4  10  23  44  62 100 135 164 216 258 321 394
#     4  10  22  40  65  96 121 167 214 257 320 390
#     4  11  23  40  64  91 123 166 216 263 330 383
#     4  11  24  42  59  93 124 164 225 265 322 392
#     4  10  21  41  68  88 127 173 199 270 315 380
#
# _framework density 19.80687
#
# number of rings (size 3 to 8) (size 9 to 14) (size 15 to 20)
#    0.000    1.429    4.286    1.714    6.000    5.714 
#    5.143    0.000    0.000    0.000    0.000    0.000 
#    0.000    0.000    0.000    0.000    0.000    0.000 
#
# Total GULP energy -347284.583323 kJ/mol
# GULP energy per Si atom -12403.020833 kJ/mol
# Density = 1.976179 g / cm^3
# Si number density = 19.806870 Si / 1000 Ang^3
#
#
#
# Elastic Constant Matrix: (Units=GPa)
#
#
# Indices 1 2 3 4 5 6 
#
# 1 140.0966 41.3101 28.8975 0.0000 -9.4271 0.0000
# 2 41.3101 124.5985 26.0862 0.0000 -6.9939 0.0000
# 3 28.8975 26.0862 50.0867 0.0000 -23.7781 0.0000
# 4 0.0000 0.0000 0.0000 24.6020 0.0000 -2.3896
# 5 -9.4271 -6.9939 -23.7781 0.0000 40.2997 0.0000
# 6 0.0000 0.0000 0.0000 -2.3896 0.0000 27.9227
#
#
#
# Elastic Compliance Matrix: (Units=1/GPa)
#
#
# Indices 1 2 3 4 5 6 
#
# 1 0.008555 -0.001980 -0.004330 0.000000 -0.000898 0.000000
# 2 -0.001980 0.009548 -0.004534 0.000000 -0.001481 0.000000
# 3 -0.004330 -0.004534 0.033298 0.000000 0.017847 0.000000
# 4 0.000000 0.000000 0.000000 0.040988 0.000000 0.003508
# 5 -0.000898 -0.001481 0.017847 0.000000 0.034877 0.000000
# 6 0.000000 0.000000 0.000000 0.003508 0.000000 0.036113
#
#
# Mechanical properties :
#
#
# Convention : Reuss Voigt Hill
#
# Bulk Modulus (GPa) = 33.65617 56.37438 45.01527
# Shear Modulus (GPa) = 25.64471 33.13072 29.38772
#
# Velocity S-wave (km/s) = 3.60215 4.09429 3.85608
# Velocity P-wave (km/s) = 5.85916 7.13265 6.52704
#
# Compressibility (1/GPa) = 0.02971224
#
# Stress axis : x y z
#
# Youngs Moduli (GPa) = 116.89607 104.73069 30.03196
#
# Poissons Ratio (x) = 0.20737 0.13005
# Poissons Ratio (y) = 0.23145 0.13616
# Poissons Ratio (z) = 0.50622 0.47483
#
# Static dielectric constant tensor:
#      x y z
#    x 3.774390 0.000000 -0.149490 
#    y 0.000000 3.891590 0.000000 
#    z -0.149490 0.000000 3.551120 
# 
# 
# High freq. dielectric constant tensor:
#      x y z
#    x 1.777940 0.000000 -0.013290 
#    y 0.000000 1.787610 0.000000 
#    z -0.013290 0.000000 1.765950 
# 
# From -- ./inp_files/48208.got.cif
#   From: 2010.03.12/outbox.cif.g09.slc.cpg/sg14_25_cif.got.tgz:48208.got - 2010.03.31 13:35:05.
