data_PCOD8126846
_publ_section_title
;
Structure prediction by ZEFSAII (Michael W. Deem and Ramdas Pophale) SiO2 
 PCOD8126846
Probable space group: P 21/C
;
_chemical_formula_sum "Si O2"
_cell_formula_units_Z 32
_cell_length_a 25.389846
_cell_length_b 7.329007
_cell_length_c 14.832421
_cell_angle_alpha 90.000000
_cell_angle_beta 152.049002
_cell_angle_gamma 90.000000
_cell_volume 1293.681182
_symmetry_space_group_name_H-M "P 21/C"
_symmetry_group_IT_number 14
_symmetry_cell_setting 'monoclinic'
loop_
_space_group_symop_operation_xyz
x,y,z
-x,1/2+y,1/2-z
-x,-y,-z
x,1/2-y,1/2+z
loop_
_atom_site_type_symbol
_atom_site_label
_atom_site_fract_x
_atom_site_fract_y
_atom_site_fract_z
Si Si1 0.643247 0.156053 0.804187
Si Si2 0.886544 0.595976 0.098024
Si Si3 0.815780 0.337802 0.712404
Si Si4 0.583982 0.639848 0.544482
Si Si5 0.721301 0.183969 0.249451
Si Si6 0.759026 0.743271 0.173244
Si Si7 0.987062 0.819782 0.093821
Si Si8 0.679093 0.748373 0.866424
O O1 0.536956 0.283548 0.663681
O O2 0.684158 0.160199 0.762370
O O3 0.619832 0.944656 0.787787
O O4 0.739760 0.231802 0.014812
O O5 0.971712 0.685117 0.155804
O O6 0.956435 0.505521 0.285293
O O7 0.810102 0.449343 0.931536
O O8 0.806268 0.753606 0.018449
O O9 0.776827 0.229210 0.743985
O O10 0.800537 0.552313 0.709799
O O11 0.941359 0.284311 0.874708
O O12 0.608538 0.431777 0.550355
O O13 0.677009 0.764734 0.635419
O O14 0.600022 0.635150 0.678343
O O15 0.869263 0.628562 0.367587
O O16 0.691997 0.659182 0.985755
#
# Coordination Sequence:
#
# PCOD8126846 Si02
#       8
#     4   4   4   4   4   4   4   4
#     4  11  22  40  71  97 135 185 229 282 351 424
#     4  11  25  41  68  96 136 181 233 290 352 422
#     4  10  22  39  66 101 137 181 230 276 357 422
#     4  10  21  43  66  98 137 182 231 283 353 406
#     4  10  21  44  64 101 138 179 228 290 343 416
#     4  10  22  41  69  96 140 182 225 289 347 423
#     4  12  23  42  70  99 135 188 231 286 361 421
#     4  10  23  44  62  96 138 175 227 291 346 409
#
# _framework density 24.735614000000002
#
# number of rings (size 3 to 8) (size 9 to 14) (size 15 to 20)
#    0.000    1.500    5.000    1.125    3.500    1.500 
#    2.250    5.000    0.000    0.000    0.000    0.000 
#    0.000    0.000    0.000    0.000    0.000    0.000 
#
# Total GULP energy -396657.228727 kJ/mol
# GULP energy per Si atom -12395.538398 kJ/mol
# Density = 2.467931 g / cm^3
# Si number density = 24.735614 Si / 1000 Ang^3
#
#
#
# Elastic Constant Matrix: (Units=GPa)
#
#
# Indices 1 2 3 4 5 6 
#
# 1 113.9489 0.6301 14.4444 0.0000 -3.9476 0.0000
# 2 0.6301 36.5389 11.3230 0.0000 3.0509 0.0000
# 3 14.4444 11.3230 82.5571 0.0000 -0.6462 0.0000
# 4 0.0000 0.0000 0.0000 34.6734 0.0000 -3.3354
# 5 -3.9476 3.0509 -0.6462 0.0000 38.1110 0.0000
# 6 0.0000 0.0000 0.0000 -3.3354 0.0000 23.3795
#
#
#
# Elastic Compliance Matrix: (Units=1/GPa)
#
#
# Indices 1 2 3 4 5 6 
#
# 1 0.009009 0.000269 -0.001606 0.000000 0.000884 0.000000
# 2 0.000269 0.028804 -0.004016 0.000000 -0.002346 0.000000
# 3 -0.001606 -0.004016 0.012948 0.000000 0.000375 0.000000
# 4 0.000000 0.000000 0.000000 0.029242 0.000000 0.004172
# 5 0.000884 -0.002346 0.000375 0.000000 0.026525 0.000000
# 6 0.000000 0.000000 0.000000 0.004172 0.000000 0.043368
#
#
# Mechanical properties :
#
#
# Convention : Reuss Voigt Hill
#
# Bulk Modulus (GPa) = 24.96688 31.76000 28.36344
# Shear Modulus (GPa) = 28.74350 33.00928 30.87639
#
# Velocity S-wave (km/s) = 3.41255 3.65702 3.53690
# Velocity P-wave (km/s) = 5.06387 5.54070 5.30764
#
# Compressibility (1/GPa) = 0.04005305
#
# Stress axis : x y z
#
# Youngs Moduli (GPa) = 111.00502 34.71763 77.23466
#
# Poissons Ratio (x) = -0.00932 0.12404
# Poissons Ratio (y) = -0.02981 0.31017
# Poissons Ratio (z) = 0.17828 0.13942
#
# Static dielectric constant tensor:
#      x y z
#    x 4.890120 0.000000 -0.190660 
#    y 0.000000 4.043000 0.000000 
#    z -0.190660 0.000000 4.523690 
# 
# 
# High freq. dielectric constant tensor:
#      x y z
#    x 1.998980 0.000000 -0.005430 
#    y 0.000000 1.954600 0.000000 
#    z -0.005430 0.000000 1.983540 
# 
# From -- ./inp_files/51402.got.cif
#   From: 2010.03.12/outbox.cif.g09.slc.cpg/sg14_26_cif.got.tgz:51402.got - 2010.03.31 13:35:05.
