data_PCOD8126291
_publ_section_title
;
Structure prediction by ZEFSAII (Michael W. Deem and Ramdas Pophale) SiO2 
 PCOD8126291
Probable space group: P 21/C
;
_chemical_formula_sum "Si O2"
_cell_formula_units_Z 32
_cell_length_a 5.000121
_cell_length_b 8.737651
_cell_length_c 34.093351
_cell_angle_alpha 90.000000
_cell_angle_beta 89.801934
_cell_angle_gamma 90.000000
_cell_volume 1489.506158
_symmetry_space_group_name_H-M "P 21/C"
_symmetry_group_IT_number 14
_symmetry_cell_setting 'monoclinic'
loop_
_space_group_symop_operation_xyz
x,y,z
-x,1/2+y,1/2-z
-x,-y,-z
x,1/2-y,1/2+z
loop_
_atom_site_type_symbol
_atom_site_label
_atom_site_fract_x
_atom_site_fract_y
_atom_site_fract_z
Si Si1 0.509689 0.929695 0.591642
Si Si2 0.985856 0.071143 0.457615
Si Si3 0.156482 0.328363 0.706798
Si Si4 0.487316 0.931065 0.092049
Si Si5 0.350779 0.994249 0.823419
Si Si6 0.666146 0.501255 0.824176
Si Si7 0.982432 0.929642 0.042514
Si Si8 0.828887 0.826402 0.703438
O O1 0.790051 0.985010 0.573346
O O2 0.501893 0.749392 0.600729
O O3 0.295707 0.979195 0.559572
O O4 0.447558 0.016806 0.631890
O O5 0.006605 0.250283 0.463263
O O6 0.000000 0.000000 0.500000
O O7 0.396363 0.451275 0.703755
O O8 0.256499 0.167215 0.690886
O O9 0.071464 0.311519 0.752074
O O10 0.895186 0.378573 0.682760
O O11 0.542886 0.019885 0.132261
O O12 0.207013 0.982977 0.073456
O O13 0.703254 0.983488 0.060247
O O14 0.249644 0.163365 0.814036
O O15 0.428065 0.436630 0.797346
O O16 0.925963 0.391269 0.822624
O O17 0.000000 0.000000 0.000000
#
# Coordination Sequence:
#
# PCOD8126291 Si02
#       8
#     4   4   4   4   4   4   4   4
#     4  10  21  40  66  90 122 170 215 256 310 395
#     4  10  21  39  63  92 124 159 209 259 317 384
#     4  12  26  43  62 102 138 165 215 295 336 373
#     4  10  21  40  66  90 123 170 215 256 309 396
#     4  12  25  44  68  97 134 174 227 271 335 392
#     4  12  25  44  68  97 134 173 227 272 334 392
#     4  10  21  39  63  93 124 159 209 259 317 383
#     4  12  24  43  72  91 127 184 227 262 330 413
#
# _framework density 21.483629000000001
#
# number of rings (size 3 to 8) (size 9 to 14) (size 15 to 20)
#    0.000    1.000    1.250    6.000    3.500    0.000 
#    6.750    0.000    0.000    0.000    0.000    0.000 
#    0.000    0.000    0.000    0.000    0.000    0.000 
#
# Total GULP energy -396939.287028 kJ/mol
# GULP energy per Si atom -12404.352720 kJ/mol
# Density = 2.143473 g / cm^3
# Si number density = 21.483629 Si / 1000 Ang^3
#
#
#
# Elastic Constant Matrix: (Units=GPa)
#
#
# Indices 1 2 3 4 5 6 
#
# 1 106.7761 34.2324 22.8491 0.0000 -6.4042 0.0000
# 2 34.2324 57.5484 51.0405 0.0000 4.5881 0.0000
# 3 22.8491 51.0405 138.1022 0.0000 -3.2337 0.0000
# 4 0.0000 0.0000 0.0000 27.8935 0.0000 -0.4136
# 5 -6.4042 4.5881 -3.2337 0.0000 32.2629 0.0000
# 6 0.0000 0.0000 0.0000 -0.4136 0.0000 29.1666
#
#
#
# Elastic Compliance Matrix: (Units=1/GPa)
#
#
# Indices 1 2 3 4 5 6 
#
# 1 0.012079 -0.008613 0.001272 0.000000 0.003750 0.000000
# 2 -0.008613 0.032705 -0.010837 0.000000 -0.007447 0.000000
# 3 0.001272 -0.010837 0.011104 0.000000 0.002907 0.000000
# 4 0.000000 0.000000 0.000000 0.035858 0.000000 0.000508
# 5 0.003750 -0.007447 0.002907 0.000000 0.033090 0.000000
# 6 0.000000 0.000000 0.000000 0.000508 0.000000 0.034293
#
#
# Mechanical properties :
#
#
# Convention : Reuss Voigt Hill
#
# Bulk Modulus (GPa) = 51.19345 57.63008 54.41177
# Shear Modulus (GPa) = 24.75320 30.81823 27.78572
#
# Velocity S-wave (km/s) = 3.39807 3.79159 3.60021
# Velocity P-wave (km/s) = 6.26711 6.78613 6.53178
#
# Compressibility (1/GPa) = 0.01953375
#
# Stress axis : x y z
#
# Youngs Moduli (GPa) = 82.78623 30.57656 90.06112
#
# Poissons Ratio (x) = 0.26335 -0.11460
# Poissons Ratio (y) = 0.71303 0.97595
# Poissons Ratio (z) = -0.10534 0.33134
#
# Static dielectric constant tensor:
#      x y z
#    x 4.365450 0.000000 -0.007910 
#    y 0.000000 3.722630 0.000000 
#    z -0.007910 0.000000 4.026910 
# 
# 
# High freq. dielectric constant tensor:
#      x y z
#    x 1.865100 0.000000 0.000870 
#    y 0.000000 1.825070 0.000000 
#    z 0.000870 0.000000 1.857700 
# 
# From -- ./inp_files/78701.got.cif
#   From: 2010.03.12/outbox.cif.g09.slc.cpg/sg14_40_cif.got.tgz:78701.got - 2010.03.31 13:35:05.
