data_PCOD8126427
_publ_section_title
;
Structure prediction by ZEFSAII (Michael W. Deem and Ramdas Pophale) SiO2 
 PCOD8126427
Probable space group: P 21/C
;
_chemical_formula_sum "Si O2"
_cell_formula_units_Z 24
_cell_length_a 13.015167
_cell_length_b 5.431342
_cell_length_c 15.072270
_cell_angle_alpha 90.000000
_cell_angle_beta 93.555224
_cell_angle_gamma 90.000000
_cell_volume 1063.405624
_symmetry_space_group_name_H-M "P 21/C"
_symmetry_group_IT_number 14
_symmetry_cell_setting 'monoclinic'
loop_
_space_group_symop_operation_xyz
x,y,z
-x,1/2+y,1/2-z
-x,-y,-z
x,1/2-y,1/2+z
loop_
_atom_site_type_symbol
_atom_site_label
_atom_site_fract_x
_atom_site_fract_y
_atom_site_fract_z
Si Si1 0.706641 0.584417 0.357065
Si Si2 0.439906 0.803158 0.263856
Si Si3 0.048781 0.635904 0.367628
Si Si4 0.490128 0.250282 0.054137
Si Si5 0.116310 0.803751 0.058044
Si Si6 0.860301 0.573048 0.792084
O O1 0.660782 0.346393 0.302078
O O2 0.619324 0.743517 0.401006
O O3 0.792840 0.507477 0.433776
O O4 0.763588 0.742918 0.283799
O O5 0.497251 0.561853 0.230980
O O6 0.418617 0.752628 0.367243
O O7 0.099140 0.778493 0.454714
O O8 0.138470 0.565606 0.302481
O O9 0.990748 0.399532 0.405662
O O10 0.971225 0.800076 0.306949
O O11 0.500000 0.500000 0.000000
O O12 0.500000 0.000000 0.000000
O O13 0.156753 0.582896 0.119907
#
# Coordination Sequence:
#
# PCOD8126427 Si02
#       6
#     4   4   4   4   4   4
#     4  10  25  41  64  99 128 181 228 288 347 419
#     4  10  22  43  71  94 136 180 225 283 359 422
#     4  10  21  40  62  95 124 186 214 276 354 397
#     4  11  24  44  69  97 136 178 230 292 357 423
#     4  10  22  40  65  90 138 163 229 283 331 423
#     4  11  21  40  66  93 139 174 235 280 343 426
#
# _framework density 22.568995999999999
#
# number of rings (size 3 to 8) (size 9 to 14) (size 15 to 20)
#    0.000    1.667    1.667    2.500    7.000    1.333 
#    3.000    0.000    0.000    0.000    0.000    0.000 
#    0.000    0.000    0.000    0.000    0.000    0.000 
#
# Total GULP energy -297419.263360 kJ/mol
# GULP energy per Si atom -12392.469307 kJ/mol
# Density = 2.251763 g / cm^3
# Si number density = 22.568996 Si / 1000 Ang^3
#
#
#
# Elastic Constant Matrix: (Units=GPa)
#
#
# Indices 1 2 3 4 5 6 
#
# 1 87.7202 19.1121 36.5611 0.0000 -6.6236 0.0000
# 2 19.1121 110.4410 41.3159 0.0000 -8.3917 0.0000
# 3 36.5611 41.3159 158.2291 0.0000 -5.8848 0.0000
# 4 0.0000 0.0000 0.0000 43.3083 0.0000 -0.8671
# 5 -6.6236 -8.3917 -5.8848 0.0000 22.7788 0.0000
# 6 0.0000 0.0000 0.0000 -0.8671 0.0000 22.8478
#
#
#
# Elastic Compliance Matrix: (Units=1/GPa)
#
#
# Indices 1 2 3 4 5 6 
#
# 1 0.012921 -0.001055 -0.002610 0.000000 0.002694 0.000000
# 2 -0.001055 0.010335 -0.002347 0.000000 0.002894 0.000000
# 3 -0.002610 -0.002347 0.007548 0.000000 0.000326 0.000000
# 4 0.000000 0.000000 0.000000 0.023108 0.000000 0.000877
# 5 0.002694 0.002894 0.000326 0.000000 0.045835 0.000000
# 6 0.000000 0.000000 0.000000 0.000877 0.000000 0.043801
#
#
# Mechanical properties :
#
#
# Convention : Reuss Voigt Hill
#
# Bulk Modulus (GPa) = 53.24819 61.15209 57.20014
# Shear Modulus (GPa) = 30.89626 35.08039 32.98833
#
# Velocity S-wave (km/s) = 3.70397 3.94682 3.82732
# Velocity P-wave (km/s) = 6.47590 6.92273 6.70304
#
# Compressibility (1/GPa) = 0.01877998
#
# Stress axis : x y z
#
# Youngs Moduli (GPa) = 77.39367 96.75678 132.48451
#
# Poissons Ratio (x) = 0.10207 0.34577
# Poissons Ratio (y) = 0.08164 0.31098
# Poissons Ratio (z) = 0.20199 0.22711
#
# Static dielectric constant tensor:
#      x y z
#    x 4.012470 0.000000 0.219990 
#    y 0.000000 4.074600 0.000000 
#    z 0.219990 0.000000 4.349900 
# 
# 
# High freq. dielectric constant tensor:
#      x y z
#    x 1.873230 0.000000 0.009260 
#    y 0.000000 1.891800 0.000000 
#    z 0.009260 0.000000 1.896890 
# 
# From -- ./inp_files/45720.got.cif
#   From: 2010.03.12/outbox.cif.g09.slc.cpg/sg14_23_cif.got.tgz:45720.got - 2010.03.31 13:35:05.
