data_PCOD8126968
_publ_section_title
;
Structure prediction by ZEFSAII (Michael W. Deem and Ramdas Pophale) SiO2 
 PCOD8126968
Probable space group: P 21/C
;
_chemical_formula_sum "Si O2"
_cell_formula_units_Z 28
_cell_length_a 8.286954
_cell_length_b 9.275923
_cell_length_c 27.440246
_cell_angle_alpha 90.000000
_cell_angle_beta 43.735357
_cell_angle_gamma 90.000000
_cell_volume 1458.224780
_symmetry_space_group_name_H-M "P 21/C"
_symmetry_group_IT_number 14
_symmetry_cell_setting 'monoclinic'
loop_
_space_group_symop_operation_xyz
x,y,z
-x,1/2+y,1/2-z
-x,-y,-z
x,1/2-y,1/2+z
loop_
_atom_site_type_symbol
_atom_site_label
_atom_site_fract_x
_atom_site_fract_y
_atom_site_fract_z
Si Si1 0.495620 0.246954 0.120602
Si Si2 0.602886 0.278873 0.889943
Si Si3 0.767231 0.969642 0.578517
Si Si4 0.517555 0.460502 0.334752
Si Si5 0.617943 0.347240 0.489203
Si Si6 0.110159 0.162297 0.269808
Si Si7 0.133739 0.226704 0.870057
O O1 0.628975 0.381533 0.115445
O O2 0.618422 0.103023 0.116119
O O3 0.226083 0.248535 0.198638
O O4 0.496583 0.232069 0.061691
O O5 0.378756 0.367331 0.924439
O O6 0.599672 0.124230 0.864818
O O7 0.590356 0.262540 0.950586
O O8 0.835172 0.364414 0.821660
O O9 0.830807 0.886203 0.614541
O O10 0.000000 0.000000 0.500000
O O11 0.752411 0.509814 0.254275
O O12 0.353727 0.371085 0.335287
O O13 0.500000 0.500000 0.500000
O O14 0.897077 0.355013 0.439349
O O15 0.137195 0.261066 0.311479
#
# Coordination Sequence:
#
# PCOD8126968 Si02
#       7
#     4   4   4   4   4   4   4
#     4  10  22  36  63  86 121 153 207 243 302 358
#     4  10  22  40  65  84 123 162 195 255 305 356
#     4  11  23  41  61  91 125 159 200 257 311 358
#     4   9  21  39  60  87 114 162 203 240 306 356
#     4  11  20  40  62  89 116 158 207 252 296 364
#     4   9  22  38  60  88 121 151 209 243 302 358
#     4  10  22  40  63  85 125 160 200 255 307 360
#
# _framework density 19.201429000000001
#
# number of rings (size 3 to 8) (size 9 to 14) (size 15 to 20)
#    0.857    1.143    2.857    0.000    4.000    2.286 
#    0.000    0.000    0.000    0.000    0.000    0.000 
#    0.000    0.000    0.000    0.000    0.000    0.000 
#
# Total GULP energy -346935.083677 kJ/mol
# GULP energy per Si atom -12390.538703 kJ/mol
# Density = 1.915773 g / cm^3
# Si number density = 19.201429 Si / 1000 Ang^3
#
#
#
# Elastic Constant Matrix: (Units=GPa)
#
#
# Indices 1 2 3 4 5 6 
#
# 1 73.8089 24.4945 42.2222 0.0000 -7.7395 0.0000
# 2 24.4945 96.8045 32.0630 0.0000 -7.6736 0.0000
# 3 42.2222 32.0630 135.9175 0.0000 -3.3009 0.0000
# 4 0.0000 0.0000 0.0000 28.4930 0.0000 -6.1193
# 5 -7.7395 -7.6736 -3.3009 0.0000 28.9172 0.0000
# 6 0.0000 0.0000 0.0000 -6.1193 0.0000 29.3547
#
#
#
# Elastic Compliance Matrix: (Units=1/GPa)
#
#
# Indices 1 2 3 4 5 6 
#
# 1 0.017476 -0.002580 -0.004737 0.000000 0.003452 0.000000
# 2 -0.002580 0.011797 -0.001928 0.000000 0.002220 0.000000
# 3 -0.004737 -0.001928 0.009266 0.000000 -0.000722 0.000000
# 4 0.000000 0.000000 0.000000 0.036741 0.000000 0.007659
# 5 0.003452 0.002220 -0.000722 0.000000 0.036012 0.000000
# 6 0.000000 0.000000 0.000000 0.007659 0.000000 0.035663
#
#
# Mechanical properties :
#
#
# Convention : Reuss Voigt Hill
#
# Bulk Modulus (GPa) = 49.87092 56.01004 52.94048
# Shear Modulus (GPa) = 29.04831 31.20305 30.12568
#
# Velocity S-wave (km/s) = 3.89372 4.03555 3.96527
# Velocity P-wave (km/s) = 6.80027 7.13773 6.97104
#
# Compressibility (1/GPa) = 0.02005177
#
# Stress axis : x y z
#
# Youngs Moduli (GPa) = 57.22120 84.76531 107.92121
#
# Poissons Ratio (x) = 0.21865 0.51117
# Poissons Ratio (y) = 0.14760 0.20805
# Poissons Ratio (z) = 0.27103 0.16341
#
# Static dielectric constant tensor:
#      x y z
#    x 3.328770 0.000000 0.036600 
#    y 0.000000 3.154920 0.000000 
#    z 0.036600 0.000000 3.495860 
# 
# 
# High freq. dielectric constant tensor:
#      x y z
#    x 1.741450 0.000000 -0.001660 
#    y 0.000000 1.742290 0.000000 
#    z -0.001660 0.000000 1.752070 
# 
# From -- ./inp_files/76450.got.cif
#   From: 2010.03.12/outbox.cif.g09.slc.cpg/sg14_39_cif.got.tgz:76450.got - 2010.03.31 13:35:05.
