data_PCOD8126338
_publ_section_title
;
Structure prediction by ZEFSAII (Michael W. Deem and Ramdas Pophale) SiO2 
 PCOD8126338
Probable space group: P 21/C
;
_chemical_formula_sum "Si O2"
_cell_formula_units_Z 24
_cell_length_a 12.074717
_cell_length_b 5.983936
_cell_length_c 15.668251
_cell_angle_alpha 90.000000
_cell_angle_beta 111.954081
_cell_angle_gamma 90.000000
_cell_volume 1050.003495
_symmetry_space_group_name_H-M "P 21/C"
_symmetry_group_IT_number 14
_symmetry_cell_setting 'monoclinic'
loop_
_space_group_symop_operation_xyz
x,y,z
-x,1/2+y,1/2-z
-x,-y,-z
x,1/2-y,1/2+z
loop_
_atom_site_type_symbol
_atom_site_label
_atom_site_fract_x
_atom_site_fract_y
_atom_site_fract_z
Si Si1 0.838501 0.565262 0.388267
Si Si2 0.064526 0.815564 0.464523
Si Si3 0.340512 0.708837 0.758293
Si Si4 0.452287 0.911676 0.639368
Si Si5 0.260511 0.364942 0.990493
Si Si6 0.392764 0.062594 0.906012
O O1 0.866211 0.351778 0.453995
O O2 0.761429 0.481538 0.284075
O O3 0.768246 0.740416 0.428268
O O4 0.960447 0.676408 0.385018
O O5 0.158247 0.955116 0.432843
O O6 0.000000 0.000000 0.500000
O O7 0.344606 0.852046 0.672802
O O8 0.473078 0.611565 0.799459
O O9 0.324903 0.856178 0.839604
O O10 0.544990 0.714014 0.647239
O O11 0.384378 0.997770 0.535108
O O12 0.283488 0.186920 0.922203
O O13 0.500000 0.000000 0.000000
#
# Coordination Sequence:
#
# PCOD8126338 Si02
#       6
#     4   4   4   4   4   4
#     4  10  21  39  66 102 121 170 232 280 332 400
#     4   9  20  38  67 100 119 166 230 278 326 401
#     4  12  23  37  62  94 139 175 224 278 332 406
#     4  12  23  40  61  97 135 175 214 267 336 412
#     4  11  22  39  64  97 139 173 223 281 339 403
#     4  12  26  38  58 100 137 179 221 265 342 417
#
# _framework density 22.857068000000002
#
# number of rings (size 3 to 8) (size 9 to 14) (size 15 to 20)
#    0.000    1.000    5.000    2.500    0.000    0.000 
#    0.000    0.000    0.000    0.000   73.667    0.000 
#    0.000    0.000    0.000    0.000    0.000    0.000 
#
# Total GULP energy -297396.369930 kJ/mol
# GULP energy per Si atom -12391.515414 kJ/mol
# Density = 2.280504 g / cm^3
# Si number density = 22.857068 Si / 1000 Ang^3
#
#
#
# Elastic Constant Matrix: (Units=GPa)
#
#
# Indices 1 2 3 4 5 6 
#
# 1 119.5408 60.6368 56.0693 0.0000 22.1916 0.0000
# 2 60.6368 112.5918 45.3279 0.0000 9.5367 0.0000
# 3 56.0693 45.3279 88.9435 0.0000 7.3969 0.0000
# 4 0.0000 0.0000 0.0000 49.2671 0.0000 9.4359
# 5 22.1916 9.5367 7.3969 0.0000 28.5762 0.0000
# 6 0.0000 0.0000 0.0000 9.4359 0.0000 53.7980
#
#
#
# Elastic Compliance Matrix: (Units=1/GPa)
#
#
# Indices 1 2 3 4 5 6 
#
# 1 0.015615 -0.005030 -0.006552 0.000000 -0.008751 0.000000
# 2 -0.005030 0.012945 -0.003466 0.000000 0.000483 0.000000
# 3 -0.006552 -0.003466 0.016986 0.000000 0.001848 0.000000
# 4 0.000000 0.000000 0.000000 0.021003 0.000000 -0.003684
# 5 -0.008751 0.000483 0.001848 0.000000 0.041150 0.000000
# 6 0.000000 0.000000 0.000000 -0.003684 0.000000 0.019234
#
#
# Mechanical properties :
#
#
# Convention : Reuss Voigt Hill
#
# Bulk Modulus (GPa) = 64.72985 71.68268 68.20627
# Shear Modulus (GPa) = 30.82972 36.93107 33.88039
#
# Velocity S-wave (km/s) = 3.67659 4.02399 3.85421
# Velocity P-wave (km/s) = 6.81205 7.28144 7.05065
#
# Compressibility (1/GPa) = 0.01544882
#
# Stress axis : x y z
#
# Youngs Moduli (GPa) = 64.04208 77.24792 58.87102
#
# Poissons Ratio (x) = 0.38859 0.38572
# Poissons Ratio (y) = 0.32216 0.20407
# Poissons Ratio (z) = 0.41960 0.26777
#
# Static dielectric constant tensor:
#      x y z
#    x 4.300700 0.000000 0.355920 
#    y 0.000000 4.478990 0.000000 
#    z 0.355920 0.000000 3.856650 
# 
# 
# High freq. dielectric constant tensor:
#      x y z
#    x 1.893520 0.000000 0.021420 
#    y 0.000000 1.927900 0.000000 
#    z 0.021420 0.000000 1.867540 
# 
# From -- ./inp_files/56628.got.cif
#   From: 2010.03.12/outbox.cif.g09.slc.cpg/sg14_29_cif.got.tgz:56628.got - 2010.03.31 13:35:05.
