data_PCOD8126719
_publ_section_title
;
Structure prediction by ZEFSAII (Michael W. Deem and Ramdas Pophale) SiO2 
 PCOD8126719
Probable space group: P 21/C
;
_chemical_formula_sum "Si O2"
_cell_formula_units_Z 28
_cell_length_a 7.687881
_cell_length_b 16.214471
_cell_length_c 17.266015
_cell_angle_alpha 90.000000
_cell_angle_beta 41.900348
_cell_angle_gamma 90.000000
_cell_volume 1437.381585
_symmetry_space_group_name_H-M "P 21/C"
_symmetry_group_IT_number 14
_symmetry_cell_setting 'monoclinic'
loop_
_space_group_symop_operation_xyz
x,y,z
-x,1/2+y,1/2-z
-x,-y,-z
x,1/2-y,1/2+z
loop_
_atom_site_type_symbol
_atom_site_label
_atom_site_fract_x
_atom_site_fract_y
_atom_site_fract_z
Si Si1 0.986140 0.704023 0.989867
Si Si2 0.313129 0.101534 0.533617
Si Si3 0.565310 0.651264 0.835115
Si Si4 0.190848 0.618736 0.436946
Si Si5 0.867035 0.448272 0.824909
Si Si6 0.088506 0.019544 0.846962
Si Si7 0.759794 0.680094 0.225969
O O1 0.272959 0.668297 0.906030
O O2 0.004977 0.803217 0.980183
O O3 0.860844 0.669149 0.952643
O O4 0.797825 0.674853 0.121204
O O5 0.420132 0.138510 0.578135
O O6 0.570096 0.076214 0.399698
O O7 0.138583 0.019896 0.607489
O O8 0.651809 0.571199 0.758469
O O9 0.765497 0.724740 0.749073
O O10 0.156816 0.554584 0.380109
O O11 0.489993 0.641986 0.342535
O O12 0.122923 0.578955 0.542680
O O13 0.017468 0.482590 0.699061
O O14 0.009026 0.367457 0.808376
#
# Coordination Sequence:
#
# PCOD8126719 Si02
#       7
#     4   4   4   4   4   4   4
#     4  11  22  40  65  94 121 165 209 257 310 366
#     4  10  22  40  63  94 124 159 214 254 312 367
#     4  10  22  41  62  90 127 162 203 264 304 366
#     4  10  23  39  62  91 123 169 205 255 309 374
#     4  10  22  39  63  94 123 167 202 264 310 374
#     4  10  21  42  61  87 130 157 210 254 311 373
#     4  11  22  39  63  90 127 161 205 255 314 366
#
# _framework density 19.479865
#
# number of rings (size 3 to 8) (size 9 to 14) (size 15 to 20)
#    0.000    1.714    2.857    0.857    4.000    1.143 
#    0.000    0.000    3.143    0.000    0.000    0.000 
#    0.000    0.000    0.000    0.000    0.000    0.000 
#
# Total GULP energy -347198.294128 kJ/mol
# GULP energy per Si atom -12399.939076 kJ/mol
# Density = 1.943553 g / cm^3
# Si number density = 19.479865 Si / 1000 Ang^3
#
#
#
# Elastic Constant Matrix: (Units=GPa)
#
#
# Indices 1 2 3 4 5 6 
#
# 1 85.2932 56.4926 44.1824 0.0000 6.6838 0.0000
# 2 56.4926 116.5092 50.2613 0.0000 6.4729 0.0000
# 3 44.1824 50.2613 115.1453 0.0000 13.8699 0.0000
# 4 0.0000 0.0000 0.0000 31.9577 0.0000 2.0325
# 5 6.6838 6.4729 13.8699 0.0000 16.9656 0.0000
# 6 0.0000 0.0000 0.0000 2.0325 0.0000 30.0489
#
#
#
# Elastic Compliance Matrix: (Units=1/GPa)
#
#
# Indices 1 2 3 4 5 6 
#
# 1 0.018654 -0.007333 -0.003781 0.000000 -0.001460 0.000000
# 2 -0.007333 0.013458 -0.003095 0.000000 0.000284 0.000000
# 3 -0.003781 -0.003095 0.012384 0.000000 -0.007454 0.000000
# 4 0.000000 0.000000 0.000000 0.031427 0.000000 -0.002126
# 5 -0.001460 0.000284 -0.007454 0.000000 0.065504 0.000000
# 6 0.000000 0.000000 0.000000 -0.002126 0.000000 0.033423
#
#
# Mechanical properties :
#
#
# Convention : Reuss Voigt Hill
#
# Bulk Modulus (GPa) = 62.19433 68.75781 65.47607
# Shear Modulus (GPa) = 23.96630 26.86187 25.41409
#
# Velocity S-wave (km/s) = 3.51138 3.71746 3.61589
# Velocity P-wave (km/s) = 6.95964 7.33481 7.14969
#
# Compressibility (1/GPa) = 0.01607864
#
# Stress axis : x y z
#
# Youngs Moduli (GPa) = 53.60797 74.30639 80.74648
#
# Poissons Ratio (x) = 0.54486 0.30531
# Poissons Ratio (y) = 0.39308 0.24991
# Poissons Ratio (z) = 0.20270 0.22998
#
# Static dielectric constant tensor:
#      x y z
#    x 3.114400 0.000000 0.048100 
#    y 0.000000 3.895940 0.000000 
#    z 0.048100 0.000000 3.832970 
# 
# 
# High freq. dielectric constant tensor:
#      x y z
#    x 1.726600 0.000000 0.004320 
#    y 0.000000 1.778160 0.000000 
#    z 0.004320 0.000000 1.777440 
# 
# From -- ./inp_files/37809.got.cif
#   From: 2010.03.12/outbox.cif.g09.slc.cpg/sg14_19_cif.got.tgz:37809.got - 2010.03.31 13:35:05.
