data_PCOD8126332
_publ_section_title
;
Structure prediction by ZEFSAII (Michael W. Deem and Ramdas Pophale) SiO2 
 PCOD8126332
Probable space group: P 21/C
;
_chemical_formula_sum "Si O2"
_cell_formula_units_Z 24
_cell_length_a 5.225616
_cell_length_b 12.746200
_cell_length_c 14.998727
_cell_angle_alpha 90.000000
_cell_angle_beta 80.330469
_cell_angle_gamma 90.000000
_cell_volume 984.823313
_symmetry_space_group_name_H-M "P 21/C"
_symmetry_group_IT_number 14
_symmetry_cell_setting 'monoclinic'
loop_
_space_group_symop_operation_xyz
x,y,z
-x,1/2+y,1/2-z
-x,-y,-z
x,1/2-y,1/2+z
loop_
_atom_site_type_symbol
_atom_site_label
_atom_site_fract_x
_atom_site_fract_y
_atom_site_fract_z
Si Si1 0.190636 0.285887 0.984913
Si Si2 0.031432 0.452518 0.277518
Si Si3 0.744865 0.211159 0.892919
Si Si4 0.596780 0.674472 0.846118
Si Si5 0.730899 0.519833 0.132773
Si Si6 0.320340 0.648847 0.262699
O O1 0.443809 0.223433 0.934761
O O2 0.177488 0.407248 0.953958
O O3 0.929611 0.228522 0.967561
O O4 0.199230 0.285083 0.091641
O O5 0.259889 0.364650 0.253153
O O6 0.128211 0.561261 0.316545
O O7 0.797702 0.406010 0.350796
O O8 0.966322 0.474595 0.177482
O O9 0.825281 0.293010 0.810626
O O10 0.428542 0.578862 0.897734
O O11 0.404359 0.769050 0.832821
O O12 0.569721 0.588985 0.211659
#
# Coordination Sequence:
#
# PCOD8126332 Si02
#       6
#     4   4   4   4   4   4
#     4  11  25  42  64 102 138 169 211 281 345 386
#     4  11  22  40  70  93 127 179 232 270 319 405
#     4  11  23  43  64  93 135 174 218 271 329 393
#     4  11  24  40  66  97 135 169 221 280 338 388
#     4  10  21  39  65  96 129 170 222 279 325 394
#     4  10  22  40  64  97 127 177 229 268 322 403
#
# _framework density 24.369857
#
# number of rings (size 3 to 8) (size 9 to 14) (size 15 to 20)
#    0.000    1.333    3.333    2.500    4.667    0.667 
#    0.000    1.667    0.000    0.000    0.000    0.000 
#    0.000    0.000    0.000    0.000    0.000    0.000 
#
# Total GULP energy -297607.516081 kJ/mol
# GULP energy per Si atom -12400.313170 kJ/mol
# Density = 2.431439 g / cm^3
# Si number density = 24.369857 Si / 1000 Ang^3
#
#
#
# Elastic Constant Matrix: (Units=GPa)
#
#
# Indices 1 2 3 4 5 6 
#
# 1 73.6731 24.5851 6.6511 0.0000 26.5444 0.0000
# 2 24.5851 91.0829 17.9428 0.0000 3.0091 0.0000
# 3 6.6511 17.9428 62.8988 0.0000 30.9994 0.0000
# 4 0.0000 0.0000 0.0000 27.6520 0.0000 7.0818
# 5 26.5444 3.0091 30.9994 0.0000 34.5407 0.0000
# 6 0.0000 0.0000 0.0000 7.0818 0.0000 41.2525
#
#
#
# Elastic Compliance Matrix: (Units=1/GPa)
#
#
# Indices 1 2 3 4 5 6 
#
# 1 0.029098 -0.010276 0.018710 0.000000 -0.038258 0.000000
# 2 -0.010276 0.015506 -0.011768 0.000000 0.017108 0.000000
# 3 0.018710 -0.011768 0.042781 0.000000 -0.051748 0.000000
# 4 0.000000 0.000000 0.000000 0.037827 0.000000 -0.006494
# 5 -0.038258 0.017108 -0.051748 0.000000 0.103305 0.000000
# 6 0.000000 0.000000 0.000000 -0.006494 0.000000 0.025356
#
#
# Mechanical properties :
#
#
# Convention : Reuss Voigt Hill
#
# Bulk Modulus (GPa) = 12.38915 36.22366 24.30640
# Shear Modulus (GPa) = 17.39460 32.58741 24.99101
#
# Velocity S-wave (km/s) = 2.67456 3.66074 3.20580
# Velocity P-wave (km/s) = 3.82525 5.72402 4.86811
#
# Compressibility (1/GPa) = 0.08071580
#
# Stress axis : x y z
#
# Youngs Moduli (GPa) = 34.36684 64.49224 23.37492
#
# Poissons Ratio (x) = 0.66271 -0.43734
# Poissons Ratio (y) = 0.35315 0.27508
# Poissons Ratio (z) = -0.64299 0.75895
#
# Static dielectric constant tensor:
#      x y z
#    x 4.304630 0.000000 0.201840 
#    y 0.000000 4.635940 0.000000 
#    z 0.201840 0.000000 3.838780 
# 
# 
# High freq. dielectric constant tensor:
#      x y z
#    x 1.974110 0.000000 0.017070 
#    y 0.000000 1.971740 0.000000 
#    z 0.017070 0.000000 1.930330 
# 
# From -- ./inp_files/52987.got.cif
#   From: 2010.03.12/outbox.cif.g09.slc.cpg/sg14_27_cif.got.tgz:52987.got - 2010.03.31 13:35:05.
