data_PCOD8126307
_publ_section_title
;
Structure prediction by ZEFSAII (Michael W. Deem and Ramdas Pophale) SiO2 
 PCOD8126307
Probable space group: P 21/C
;
_chemical_formula_sum "Si O2"
_cell_formula_units_Z 28
_cell_length_a 11.191939
_cell_length_b 5.350195
_cell_length_c 22.322786
_cell_angle_alpha 90.000000
_cell_angle_beta 94.829166
_cell_angle_gamma 90.000000
_cell_volume 1331.922365
_symmetry_space_group_name_H-M "P 21/C"
_symmetry_group_IT_number 14
_symmetry_cell_setting 'monoclinic'
loop_
_space_group_symop_operation_xyz
x,y,z
-x,1/2+y,1/2-z
-x,-y,-z
x,1/2-y,1/2+z
loop_
_atom_site_type_symbol
_atom_site_label
_atom_site_fract_x
_atom_site_fract_y
_atom_site_fract_z
Si Si1 0.995514 0.745895 0.961195
Si Si2 0.386516 0.932739 0.319045
Si Si3 0.359629 0.375009 0.474990
Si Si4 0.398345 0.377411 0.693585
Si Si5 0.569965 0.234849 0.405522
Si Si6 0.267805 0.316827 0.086517
Si Si7 0.756550 0.133100 0.579707
O O1 0.106018 0.718689 0.920907
O O2 0.872596 0.734760 0.918841
O O3 0.000000 0.500000 0.000000
O O4 0.000000 0.000000 0.000000
O O5 0.460797 0.694707 0.297133
O O6 0.264923 0.866755 0.349084
O O7 0.351486 0.093068 0.259188
O O8 0.467590 0.058468 0.373275
O O9 0.499413 0.348576 0.460598
O O10 0.338823 0.387555 0.547176
O O11 0.322058 0.641876 0.448898
O O12 0.273931 0.140717 0.450481
O O13 0.383473 0.608674 0.648700
O O14 0.313200 0.174780 0.657499
O O15 0.686256 0.085747 0.436739
#
# Coordination Sequence:
#
# PCOD8126307 Si02
#       7
#     4   4   4   4   4   4   4
#     4  12  24  44  68  91 130 174 217 263 320 394
#     4  10  21  39  64  91 124 169 219 254 324 384
#     4  11  22  40  63  98 133 163 209 264 336 388
#     4  11  21  38  63  90 128 168 210 264 317 392
#     4  10  22  37  61  94 130 167 203 269 324 391
#     4  11  25  37  62  97 128 168 215 266 330 388
#     4  11  22  41  68  93 123 176 216 266 314 394
#
# _framework density 21.022245999999999
#
# number of rings (size 3 to 8) (size 9 to 14) (size 15 to 20)
#    0.000    1.143    5.714    0.429    4.000    0.571 
#    0.000    0.000    3.143    0.000    0.000    0.000 
#    0.000    0.000    0.000    0.000    0.000    0.000 
#
# Total GULP energy -346931.595304 kJ/mol
# GULP energy per Si atom -12390.414118 kJ/mol
# Density = 2.097440 g / cm^3
# Si number density = 21.022246 Si / 1000 Ang^3
#
#
#
# Elastic Constant Matrix: (Units=GPa)
#
#
# Indices 1 2 3 4 5 6 
#
# 1 148.5519 21.7668 48.7860 0.0000 -13.3936 0.0000
# 2 21.7668 91.3413 29.0686 0.0000 -5.7688 0.0000
# 3 48.7860 29.0686 140.2724 0.0000 -20.6765 0.0000
# 4 0.0000 0.0000 0.0000 30.6383 0.0000 -2.5193
# 5 -13.3936 -5.7688 -20.6765 0.0000 30.9400 0.0000
# 6 0.0000 0.0000 0.0000 -2.5193 0.0000 28.5744
#
#
#
# Elastic Compliance Matrix: (Units=1/GPa)
#
#
# Indices 1 2 3 4 5 6 
#
# 1 0.007770 -0.001033 -0.002242 0.000000 0.001673 0.000000
# 2 -0.001033 0.011869 -0.002041 0.000000 0.000402 0.000000
# 3 -0.002242 -0.002041 0.009021 0.000000 0.004678 0.000000
# 4 0.000000 0.000000 0.000000 0.032877 0.000000 0.002899
# 5 0.001673 0.000402 0.004678 0.000000 0.036246 0.000000
# 6 0.000000 0.000000 0.000000 0.002899 0.000000 0.035252
#
#
# Mechanical properties :
#
#
# Convention : Reuss Voigt Hill
#
# Bulk Modulus (GPa) = 55.46621 64.37870 59.92245
# Shear Modulus (GPa) = 33.40552 36.73348 35.06950
#
# Velocity S-wave (km/s) = 3.99062 4.18468 4.08880
# Velocity P-wave (km/s) = 6.90472 7.35114 7.13143
#
# Compressibility (1/GPa) = 0.01802900
#
# Stress axis : x y z
#
# Youngs Moduli (GPa) = 128.69998 84.25312 110.85025
#
# Poissons Ratio (x) = 0.08699 0.24851
# Poissons Ratio (y) = 0.13288 0.22628
# Poissons Ratio (z) = 0.28852 0.17198
#
# Static dielectric constant tensor:
#      x y z
#    x 4.604720 0.000000 -0.346760 
#    y 0.000000 4.225740 0.000000 
#    z -0.346760 0.000000 4.151210 
# 
# 
# High freq. dielectric constant tensor:
#      x y z
#    x 1.801040 0.000000 -0.010860 
#    y 0.000000 1.847380 0.000000 
#    z -0.010860 0.000000 1.822160 
# 
# From -- ./inp_files/66286.got.cif
#   From: 2010.03.12/outbox.cif.g09.slc.cpg/sg14_34_cif.got.tgz:66286.got - 2010.03.31 13:35:05.
