data_PCOD8126549
_publ_section_title
;
Structure prediction by ZEFSAII (Michael W. Deem and Ramdas Pophale) SiO2 
 PCOD8126549
Probable space group: P 21/C
;
_chemical_formula_sum "Si O2"
_cell_formula_units_Z 20
_cell_length_a 24.285402
_cell_length_b 8.076712
_cell_length_c 12.797552
_cell_angle_alpha 90.000000
_cell_angle_beta 22.824595
_cell_angle_gamma 90.000000
_cell_volume 973.731451
_symmetry_space_group_name_H-M "P 21/C"
_symmetry_group_IT_number 14
_symmetry_cell_setting 'monoclinic'
loop_
_space_group_symop_operation_xyz
x,y,z
-x,1/2+y,1/2-z
-x,-y,-z
x,1/2-y,1/2+z
loop_
_atom_site_type_symbol
_atom_site_label
_atom_site_fract_x
_atom_site_fract_y
_atom_site_fract_z
Si Si1 0.863634 0.918241 0.012193
Si Si2 0.442489 0.946460 0.989684
Si Si3 0.358027 0.296622 0.476388
Si Si4 0.839283 0.236776 0.477666
Si Si5 0.845156 0.989176 0.818452
O O1 0.848069 0.869766 0.916114
O O2 0.013937 0.859842 0.793390
O O3 0.738845 0.837324 0.296772
O O4 0.854747 0.118497 0.038655
O O5 0.534487 0.793158 0.788934
O O6 0.278641 0.894343 0.283975
O O7 0.500000 0.000000 0.000000
O O8 0.451093 0.101482 0.896538
O O9 0.265103 0.425995 0.573442
O O10 0.800267 0.325623 0.435245
O O11 0.000000 0.000000 0.500000
#
# Coordination Sequence:
#
# PCOD8126549 Si02
#       5
#     4   4   4   4   4
#     4  10  21  41  69 100 129 176 228 282 335 401
#     4  12  28  45  68 102 139 182 232 273 344 410
#     4  12  24  45  67  98 140 184 225 282 341 404
#     4  10  22  42  69  97 135 172 226 284 327 405
#     4  10  21  40  71  95 134 172 224 283 342 382
#
# _framework density 20.539542999999998
#
# number of rings (size 3 to 8) (size 9 to 14) (size 15 to 20)
#    1.200    0.000    2.000    4.800    2.800    0.800 
#    3.600    2.000    0.000    0.000    0.000    0.000 
#    0.000    0.000    0.000    0.000    0.000    0.000 
#
# Total GULP energy -247965.973403 kJ/mol
# GULP energy per Si atom -12398.298670 kJ/mol
# Density = 2.049279 g / cm^3
# Si number density = 20.539543 Si / 1000 Ang^3
#
#
#
# Elastic Constant Matrix: (Units=GPa)
#
#
# Indices 1 2 3 4 5 6 
#
# 1 110.0745 35.7934 25.5308 0.0000 -2.5139 0.0000
# 2 35.7934 88.3151 19.3881 0.0000 -8.8747 0.0000
# 3 25.5308 19.3881 77.3823 0.0000 -3.7513 0.0000
# 4 0.0000 0.0000 0.0000 37.1102 0.0000 0.8106
# 5 -2.5139 -8.8747 -3.7513 0.0000 32.1211 0.0000
# 6 0.0000 0.0000 0.0000 0.8106 0.0000 45.7808
#
#
#
# Elastic Compliance Matrix: (Units=1/GPa)
#
#
# Indices 1 2 3 4 5 6 
#
# 1 0.010962 -0.003912 -0.002662 0.000000 -0.000534 0.000000
# 2 -0.003912 0.013668 -0.001977 0.000000 0.003239 0.000000
# 3 -0.002662 -0.001977 0.014341 0.000000 0.000920 0.000000
# 4 0.000000 0.000000 0.000000 0.026957 0.000000 -0.000477
# 5 -0.000534 0.003239 0.000920 0.000000 0.032093 0.000000
# 6 0.000000 0.000000 0.000000 -0.000477 0.000000 0.021852
#
#
# Mechanical properties :
#
#
# Convention : Reuss Voigt Hill
#
# Bulk Modulus (GPa) = 45.72717 48.57739 47.15228
# Shear Modulus (GPa) = 34.65835 36.00641 35.33238
#
# Velocity S-wave (km/s) = 4.11225 4.19146 4.15204
# Velocity P-wave (km/s) = 6.69767 6.86487 6.78179
#
# Compressibility (1/GPa) = 0.02186884
#
# Stress axis : x y z
#
# Youngs Moduli (GPa) = 91.22263 73.16310 69.72923
#
# Poissons Ratio (x) = 0.28622 0.18565
# Poissons Ratio (y) = 0.35687 0.13784
# Poissons Ratio (z) = 0.24288 0.14463
#
# Static dielectric constant tensor:
#      x y z
#    x 3.773890 0.000000 0.056370 
#    y 0.000000 3.637530 0.000000 
#    z 0.056370 0.000000 3.756780 
# 
# 
# High freq. dielectric constant tensor:
#      x y z
#    x 1.800050 0.000000 0.004290 
#    y 0.000000 1.802770 0.000000 
#    z 0.004290 0.000000 1.812420 
# 
# From -- ./inp_files/36370.got.cif
#   From: 2010.03.12/outbox.cif.g09.slc.cpg/sg14_19_cif.got.tgz:36370.got - 2010.03.31 13:35:05.
