data_PCOD8126991
_publ_section_title
;
Structure prediction by ZEFSAII (Michael W. Deem and Ramdas Pophale) SiO2 
 PCOD8126991
Probable space group: P 21/C
;
_chemical_formula_sum "Si O2"
_cell_formula_units_Z 32
_cell_length_a 5.375005
_cell_length_b 25.853494
_cell_length_c 11.011607
_cell_angle_alpha 90.000000
_cell_angle_beta 111.282467
_cell_angle_gamma 90.000000
_cell_volume 1425.845988
_symmetry_space_group_name_H-M "P 21/C"
_symmetry_group_IT_number 14
_symmetry_cell_setting 'monoclinic'
loop_
_space_group_symop_operation_xyz
x,y,z
-x,1/2+y,1/2-z
-x,-y,-z
x,1/2-y,1/2+z
loop_
_atom_site_type_symbol
_atom_site_label
_atom_site_fract_x
_atom_site_fract_y
_atom_site_fract_z
Si Si1 0.373237 0.123991 0.261068
Si Si2 0.307607 0.210657 0.438856
Si Si3 0.091349 0.347921 0.111738
Si Si4 0.227420 0.731641 0.801207
Si Si5 0.208381 0.842984 0.864379
Si Si6 0.402619 0.492355 0.846801
Si Si7 0.521412 0.806518 0.145278
Si Si8 0.920755 0.966182 0.371368
O O1 0.434868 0.167022 0.374657
O O2 0.593702 0.130191 0.195834
O O3 0.409335 0.067984 0.323160
O O4 0.065638 0.125968 0.159071
O O5 0.081258 0.182161 0.480174
O O6 0.509843 0.236947 0.569340
O O7 0.238487 0.265161 0.353920
O O8 0.378489 0.345027 0.230792
O O9 0.015951 0.407252 0.080476
O O10 0.903034 0.320674 0.174611
O O11 0.087532 0.788007 0.793879
O O12 0.293700 0.728256 0.669509
O O13 0.384056 0.839738 0.016718
O O14 0.604944 0.522874 0.790959
O O15 0.102223 0.516778 0.787232
O O16 0.500000 0.500000 0.000000
O O17 0.000000 0.000000 0.500000
#
# Coordination Sequence:
#
# PCOD8126991 Si02
#       8
#     4   4   4   4   4   4   4   4
#     4  12  24  42  68  97 135 176 218 274 347 391
#     4  10  22  37  61  97 135 173 219 272 329 404
#     4  11  24  38  71  94 136 181 219 277 348 388
#     4  10  23  38  63  96 134 181 224 270 326 402
#     4  11  26  41  64  96 137 183 221 268 323 411
#     4  10  22  40  64  94 130 157 212 278 337 393
#     4  10  23  43  59  93 137 181 229 265 318 413
#     4  10  22  39  65  98 131 160 214 282 341 393
#
# _framework density 22.442817000000002
#
# number of rings (size 3 to 8) (size 9 to 14) (size 15 to 20)
#    0.000    1.500    1.250    3.000   14.000    1.000 
#    0.000    0.000    0.000    4.500    0.000    0.000 
#    0.000    0.000    0.000    0.000    0.000    0.000 
#
# Total GULP energy -396494.291240 kJ/mol
# GULP energy per Si atom -12390.446601 kJ/mol
# Density = 2.239174 g / cm^3
# Si number density = 22.442817 Si / 1000 Ang^3
#
#
#
# Elastic Constant Matrix: (Units=GPa)
#
#
# Indices 1 2 3 4 5 6 
#
# 1 140.3379 38.8431 7.8728 0.0000 -10.2302 0.0000
# 2 38.8431 145.5458 22.4843 0.0000 -6.4590 0.0000
# 3 7.8728 22.4843 57.8190 0.0000 -11.1943 0.0000
# 4 0.0000 0.0000 0.0000 30.1434 0.0000 -4.0653
# 5 -10.2302 -6.4590 -11.1943 0.0000 18.8849 0.0000
# 6 0.0000 0.0000 0.0000 -4.0653 0.0000 37.0411
#
#
#
# Elastic Compliance Matrix: (Units=1/GPa)
#
#
# Indices 1 2 3 4 5 6 
#
# 1 0.007941 -0.002017 0.000455 0.000000 0.003882 0.000000
# 2 -0.002017 0.007837 -0.002785 0.000000 -0.000063 0.000000
# 3 0.000455 -0.002785 0.020537 0.000000 0.011467 0.000000
# 4 0.000000 0.000000 0.000000 0.033673 0.000000 0.003696
# 5 0.003882 -0.000063 0.011467 0.000000 0.061831 0.000000
# 6 0.000000 0.000000 0.000000 0.003696 0.000000 0.027403
#
#
# Mechanical properties :
#
#
# Convention : Reuss Voigt Hill
#
# Bulk Modulus (GPa) = 36.20675 53.56701 44.88688
# Shear Modulus (GPa) = 28.22896 35.51404 31.87150
#
# Velocity S-wave (km/s) = 3.55042 3.98228 3.77254
# Velocity P-wave (km/s) = 5.74241 6.71303 6.24660
#
# Compressibility (1/GPa) = 0.02761916
#
# Stress axis : x y z
#
# Youngs Moduli (GPa) = 125.92100 127.60780 48.69350
#
# Poissons Ratio (x) = 0.25744 -0.02214
# Poissons Ratio (y) = 0.25403 0.13561
# Poissons Ratio (z) = -0.05725 0.35539
#
# Static dielectric constant tensor:
#      x y z
#    x 6.930380 0.000000 0.078190 
#    y 0.000000 3.979500 0.000000 
#    z 0.078190 0.000000 4.053850 
# 
# 
# High freq. dielectric constant tensor:
#      x y z
#    x 1.907100 0.000000 0.004260 
#    y 0.000000 1.875410 0.000000 
#    z 0.004260 0.000000 1.864760 
# 
# From -- ./inp_files/22200.got.cif
#   From: 2010.03.12/outbox.cif.g09.slc.cpg/sg14_12_cif.got.tgz:22200.got - 2010.03.31 13:35:05.
