data_PCOD8126715
_publ_section_title
;
Structure prediction by ZEFSAII (Michael W. Deem and Ramdas Pophale) SiO2 
 PCOD8126715
Probable space group: P 21/C
;
_chemical_formula_sum "Si O2"
_cell_formula_units_Z 28
_cell_length_a 18.591071
_cell_length_b 9.683972
_cell_length_c 8.938459
_cell_angle_alpha 90.000000
_cell_angle_beta 49.938730
_cell_angle_gamma 90.000000
_cell_volume 1231.641848
_symmetry_space_group_name_H-M "P 21/C"
_symmetry_group_IT_number 14
_symmetry_cell_setting 'monoclinic'
loop_
_space_group_symop_operation_xyz
x,y,z
-x,1/2+y,1/2-z
-x,-y,-z
x,1/2-y,1/2+z
loop_
_atom_site_type_symbol
_atom_site_label
_atom_site_fract_x
_atom_site_fract_y
_atom_site_fract_z
Si Si1 0.107881 0.641597 0.799204
Si Si2 0.524966 0.599997 0.176422
Si Si3 0.698060 0.064956 0.502473
Si Si4 0.230977 0.796593 0.869560
Si Si5 0.098269 0.341263 0.911558
Si Si6 0.216773 0.210445 0.522796
Si Si7 0.415289 0.149807 0.735555
O O1 0.162084 0.744997 0.833035
O O2 0.167616 0.613820 0.568241
O O3 0.094581 0.505519 0.912945
O O4 0.005549 0.707845 0.896733
O O5 0.509635 0.739309 0.294227
O O6 0.431104 0.506462 0.279394
O O7 0.596381 0.500206 0.169699
O O8 0.569307 0.649712 0.961234
O O9 0.713215 0.182647 0.608119
O O10 0.697768 0.111954 0.326627
O O11 0.774002 0.943818 0.423761
O O12 0.124271 0.278991 0.717031
O O13 0.187493 0.295232 0.889946
O O14 0.310273 0.302856 0.417693
#
# Coordination Sequence:
#
# PCOD8126715 Si02
#       7
#     4   4   4   4   4   4   4
#     4  10  22  40  60  89 124 165 211 264 310 374
#     4  10  23  44  64 100 125 171 206 264 315 382
#     4  10  22  40  64  91 124 162 214 256 322 373
#     4  10  21  42  60  88 125 165 211 261 312 379
#     4  11  23  38  61  90 125 164 213 258 317 369
#     4  11  22  41  63  93 123 168 210 264 308 385
#     4  10  23  43  67  93 134 159 219 255 322 376
#
# _framework density 22.733881
#
# number of rings (size 3 to 8) (size 9 to 14) (size 15 to 20)
#    0.000    1.714    1.429    2.571    4.000    2.857 
#    2.571    2.143    0.000    0.000    0.000    0.000 
#    0.000    0.000    0.000    0.000    0.000    0.000 
#
# Total GULP energy -347059.113124 kJ/mol
# GULP energy per Si atom -12394.968326 kJ/mol
# Density = 2.268214 g / cm^3
# Si number density = 22.733881 Si / 1000 Ang^3
#
#
#
# Elastic Constant Matrix: (Units=GPa)
#
#
# Indices 1 2 3 4 5 6 
#
# 1 73.0734 12.7428 13.8696 0.0000 19.2407 0.0000
# 2 12.7428 66.7437 20.9148 0.0000 3.6294 0.0000
# 3 13.8696 20.9148 65.9781 0.0000 11.9382 0.0000
# 4 0.0000 0.0000 0.0000 34.3684 0.0000 1.3674
# 5 19.2407 3.6294 11.9382 0.0000 21.6766 0.0000
# 6 0.0000 0.0000 0.0000 1.3674 0.0000 31.7359
#
#
#
# Elastic Compliance Matrix: (Units=1/GPa)
#
#
# Indices 1 2 3 4 5 6 
#
# 1 0.018309 -0.002582 -0.000186 0.000000 -0.015716 0.000000
# 2 -0.002582 0.017000 -0.005271 0.000000 0.002349 0.000000
# 3 -0.000186 -0.005271 0.018523 0.000000 -0.009153 0.000000
# 4 0.000000 0.000000 0.000000 0.029146 0.000000 -0.001256
# 5 -0.015716 0.002349 -0.009153 0.000000 0.064731 0.000000
# 6 0.000000 0.000000 0.000000 -0.001256 0.000000 0.031564
#
#
# Mechanical properties :
#
#
# Convention : Reuss Voigt Hill
#
# Bulk Modulus (GPa) = 26.48895 33.42773 29.95834
# Shear Modulus (GPa) = 24.04581 28.10738 26.07660
#
# Velocity S-wave (km/s) = 3.25577 3.52001 3.39047
# Velocity P-wave (km/s) = 5.08040 5.59075 5.34167
#
# Compressibility (1/GPa) = 0.03775159
#
# Stress axis : x y z
#
# Youngs Moduli (GPa) = 54.61852 58.82450 53.98749
#
# Poissons Ratio (x) = 0.15191 0.01006
# Poissons Ratio (y) = 0.14105 0.28457
# Poissons Ratio (z) = 0.01018 0.31006
#
# Static dielectric constant tensor:
#      x y z
#    x 4.179080 0.000000 0.040650 
#    y 0.000000 4.286830 0.000000 
#    z 0.040650 0.000000 4.060450 
# 
# 
# High freq. dielectric constant tensor:
#      x y z
#    x 1.909000 0.000000 0.007270 
#    y 0.000000 1.898450 0.000000 
#    z 0.007270 0.000000 1.883280 
# 
# From -- ./inp_files/18727.got.cif
#   From: 2010.03.12/outbox.cif.g09.slc.cpg/sg14_10_cif.got.tgz:18727.got - 2010.03.31 13:35:05.
