data_PCOD8126574
_publ_section_title
;
Structure prediction by ZEFSAII (Michael W. Deem and Ramdas Pophale) SiO2 
 PCOD8126574
Probable space group: P 21/C
;
_chemical_formula_sum "Si O2"
_cell_formula_units_Z 24
_cell_length_a 28.002862
_cell_length_b 5.461892
_cell_length_c 13.679880
_cell_angle_alpha 90.000000
_cell_angle_beta 150.470609
_cell_angle_gamma 90.000000
_cell_volume 1031.240989
_symmetry_space_group_name_H-M "P 21/C"
_symmetry_group_IT_number 14
_symmetry_cell_setting 'monoclinic'
loop_
_space_group_symop_operation_xyz
x,y,z
-x,1/2+y,1/2-z
-x,-y,-z
x,1/2-y,1/2+z
loop_
_atom_site_type_symbol
_atom_site_label
_atom_site_fract_x
_atom_site_fract_y
_atom_site_fract_z
Si Si1 0.041908 0.582422 0.928132
Si Si2 0.095940 0.737113 0.716563
Si Si3 0.613891 0.875144 0.896712
Si Si4 0.714727 0.520549 0.375176
Si Si5 0.138184 0.352831 0.936376
Si Si6 0.615692 0.127047 0.508603
O O1 0.133193 0.538786 0.018386
O O2 0.005124 0.345788 0.922252
O O3 0.086123 0.780057 0.082200
O O4 0.950076 0.665343 0.699347
O O5 0.110943 0.465712 0.782589
O O6 0.190059 0.891207 0.914278
O O7 0.499055 0.875505 0.688363
O O8 0.649985 0.882767 0.848889
O O9 0.650549 0.123492 0.016425
O O10 0.650315 0.621144 0.012749
O O11 0.654895 0.359726 0.190418
O O12 0.754267 0.746437 0.379956
#
# Coordination Sequence:
#
# PCOD8126574 Si02
#       6
#     4   4   4   4   4   4
#     4  10  21  41  62  85 128 174 228 271 336 406
#     4  10  23  39  60  92 127 174 222 280 338 394
#     4  10  24  47  71 105 137 185 224 278 342 415
#     4  11  26  40  66 105 133 174 230 285 343 402
#     4  11  22  41  63  94 127 180 226 281 345 397
#     4  10  24  46  75  99 142 183 224 274 349 412
#
# _framework density 23.272932000000001
#
# number of rings (size 3 to 8) (size 9 to 14) (size 15 to 20)
#    0.000    1.667    1.667    1.000    7.000    0.000 
#    0.000    5.000    0.000    0.000    0.000    0.000 
#    0.000    0.000    0.000    0.000    0.000    0.000 
#
# Total GULP energy -297411.266436 kJ/mol
# GULP energy per Si atom -12392.136101 kJ/mol
# Density = 2.321996 g / cm^3
# Si number density = 23.272932 Si / 1000 Ang^3
#
#
#
# Elastic Constant Matrix: (Units=GPa)
#
#
# Indices 1 2 3 4 5 6 
#
# 1 133.3744 29.0045 13.6100 0.0000 -9.3174 0.0000
# 2 29.0045 90.1384 5.1796 0.0000 4.6160 0.0000
# 3 13.6100 5.1796 52.8281 0.0000 -18.8769 0.0000
# 4 0.0000 0.0000 0.0000 17.3602 0.0000 -6.2049
# 5 -9.3174 4.6160 -18.8769 0.0000 27.9741 0.0000
# 6 0.0000 0.0000 0.0000 -6.2049 0.0000 30.9908
#
#
#
# Elastic Compliance Matrix: (Units=1/GPa)
#
#
# Indices 1 2 3 4 5 6 
#
# 1 0.008381 -0.002775 -0.000957 0.000000 0.002604 0.000000
# 2 -0.002775 0.012327 -0.002043 0.000000 -0.004337 0.000000
# 3 -0.000957 -0.002043 0.025541 0.000000 0.017254 0.000000
# 4 0.000000 0.000000 0.000000 0.062043 0.000000 0.012422
# 5 0.002604 -0.004337 0.017254 0.000000 0.048973 0.000000
# 6 0.000000 0.000000 0.000000 0.012422 0.000000 0.034755
#
#
# Mechanical properties :
#
#
# Convention : Reuss Voigt Hill
#
# Bulk Modulus (GPa) = 28.81986 41.32546 35.07266
# Shear Modulus (GPa) = 23.24111 30.50146 26.87129
#
# Velocity S-wave (km/s) = 3.16354 3.62415 3.40165
# Velocity P-wave (km/s) = 5.07487 5.94205 5.52550
#
# Compressibility (1/GPa) = 0.03469829
#
# Stress axis : x y z
#
# Youngs Moduli (GPa) = 119.32187 81.12573 39.15221
#
# Poissons Ratio (x) = 0.22513 0.03745
# Poissons Ratio (y) = 0.33113 0.08001
# Poissons Ratio (z) = 0.11415 0.16578
#
# Static dielectric constant tensor:
#      x y z
#    x 4.316590 0.000000 -0.102450 
#    y 0.000000 4.400960 0.000000 
#    z -0.102450 0.000000 4.100280 
# 
# 
# High freq. dielectric constant tensor:
#      x y z
#    x 1.925720 0.000000 -0.008240 
#    y 0.000000 1.913840 0.000000 
#    z -0.008240 0.000000 1.917980 
# 
# From -- ./inp_files/50854.got.cif
#   From: 2010.03.12/outbox.cif.g09.slc.cpg/sg14_26_cif.got.tgz:50854.got - 2010.03.31 13:35:05.
