data_PCOD8126099
_publ_section_title
;
Structure prediction by ZEFSAII (Michael W. Deem and Ramdas Pophale) SiO2 
 PCOD8126099
Probable space group: P 21/C
;
_chemical_formula_sum "Si O2"
_cell_formula_units_Z 32
_cell_length_a 17.129629
_cell_length_b 21.636106
_cell_length_c 9.034929
_cell_angle_alpha 90.000000
_cell_angle_beta 150.437646
_cell_angle_gamma 90.000000
_cell_volume 1652.056689
_symmetry_space_group_name_H-M "P 21/C"
_symmetry_group_IT_number 14
_symmetry_cell_setting 'monoclinic'
loop_
_space_group_symop_operation_xyz
x,y,z
-x,1/2+y,1/2-z
-x,-y,-z
x,1/2-y,1/2+z
loop_
_atom_site_type_symbol
_atom_site_label
_atom_site_fract_x
_atom_site_fract_y
_atom_site_fract_z
Si Si1 0.537861 0.578303 0.414955
Si Si2 0.903758 0.735797 0.458772
Si Si3 0.129329 0.745907 0.097301
Si Si4 0.339552 0.353896 0.823566
Si Si5 0.839105 0.876279 0.260896
Si Si6 0.810600 0.384649 0.667331
Si Si7 0.371944 0.843257 0.395440
Si Si8 0.477198 0.936085 0.147839
O O1 0.721971 0.588204 0.678642
O O2 0.487798 0.508520 0.297766
O O3 0.509237 0.593995 0.539948
O O4 0.427994 0.622679 0.135896
O O5 0.743184 0.696842 0.208431
O O6 0.855538 0.806212 0.345710
O O7 0.019032 0.710805 0.519386
O O8 0.007977 0.724135 0.773977
O O9 0.194163 0.687064 0.292796
O O10 0.280499 0.781444 0.287056
O O11 0.220023 0.382017 0.505685
O O12 0.481232 0.322049 0.964965
O O13 0.404335 0.407674 0.035908
O O14 0.010093 0.909823 0.543954
O O15 0.739435 0.388861 0.384031
O O16 0.705394 0.424320 0.607727
#
# Coordination Sequence:
#
# PCOD8126099 Si02
#       8
#     4   4   4   4   4   4   4   4
#     4  10  24  42  60  84 114 151 201 249 288 336
#     4  11  21  37  59  90 127 151 185 237 289 350
#     4  11  21  37  59  90 127 151 185 237 289 350
#     4  10  22  38  60  86 120 156 194 231 293 346
#     4  10  21  38  60  89 119 153 193 232 290 352
#     4  10  21  38  60  89 119 153 193 232 290 352
#     4  10  22  38  60  86 120 156 194 231 293 346
#     4  10  24  42  60  84 114 151 201 249 288 336
#
# _framework density 19.369796000000001
#
# number of rings (size 3 to 8) (size 9 to 14) (size 15 to 20)
#    0.000    1.750    5.000    0.000    3.500   10.000 
#    0.000    0.000    0.000    3.750    0.000    0.000 
#    0.000    0.000    0.000    0.000    0.000    0.000 
#
# Total GULP energy -396720.676930 kJ/mol
# GULP energy per Si atom -12397.521154 kJ/mol
# Density = 1.932571 g / cm^3
# Si number density = 19.369796 Si / 1000 Ang^3
#
#
#
# Elastic Constant Matrix: (Units=GPa)
#
#
# Indices 1 2 3 4 5 6 
#
# 1 86.1603 2.0173 24.5187 0.0000 8.5023 0.0000
# 2 2.0173 35.1152 2.3908 0.0000 6.4086 0.0000
# 3 24.5187 2.3908 101.0819 0.0000 9.2234 0.0000
# 4 0.0000 0.0000 0.0000 11.6958 0.0000 -2.4769
# 5 8.5023 6.4086 9.2234 0.0000 32.4658 0.0000
# 6 0.0000 0.0000 0.0000 -2.4769 0.0000 26.5788
#
#
#
# Elastic Compliance Matrix: (Units=1/GPa)
#
#
# Indices 1 2 3 4 5 6 
#
# 1 0.012663 -0.000079 -0.002842 0.000000 -0.002493 0.000000
# 2 -0.000079 0.029545 -0.000153 0.000000 -0.005768 0.000000
# 3 -0.002842 -0.000153 0.010795 0.000000 -0.002292 0.000000
# 4 0.000000 0.000000 0.000000 0.087222 0.000000 0.008128
# 5 -0.002493 -0.005768 -0.002292 0.000000 0.033244 0.000000
# 6 0.000000 0.000000 0.000000 0.008128 0.000000 0.038381
#
#
# Mechanical properties :
#
#
# Convention : Reuss Voigt Hill
#
# Bulk Modulus (GPa) = 21.34270 31.13456 26.23863
# Shear Modulus (GPa) = 21.40239 27.04345 24.22292
#
# Velocity S-wave (km/s) = 3.32766 3.74058 3.54015
# Velocity P-wave (km/s) = 5.08005 5.89615 5.50325
#
# Compressibility (1/GPa) = 0.04685443
#
# Stress axis : x y z
#
# Youngs Moduli (GPa) = 78.97050 33.84632 92.63405
#
# Poissons Ratio (x) = 0.00267 0.26328
# Poissons Ratio (y) = 0.00623 0.01421
# Poissons Ratio (z) = 0.22445 0.00519
#
# Static dielectric constant tensor:
#      x y z
#    x 3.907090 0.000000 0.085280 
#    y 0.000000 3.144560 0.000000 
#    z 0.085280 0.000000 3.753500 
# 
# 
# High freq. dielectric constant tensor:
#      x y z
#    x 1.773080 0.000000 0.000740 
#    y 0.000000 1.719550 0.000000 
#    z 0.000740 0.000000 1.767900 
# 
# From -- ./inp_files/10644.got.cif
#   From: 2010.03.12/outbox.cif.g09.slc.cpg/sg14_6_cif.got.tgz:10644.got - 2010.03.31 13:35:05.
