data_PCOD8126031
_publ_section_title
;
Structure prediction by ZEFSAII (Michael W. Deem and Ramdas Pophale) SiO2 
 PCOD8126031
Probable space group: P 21/C
;
_chemical_formula_sum "Si O2"
_cell_formula_units_Z 16
_cell_length_a 10.106474
_cell_length_b 16.801183
_cell_length_c 4.953351
_cell_angle_alpha 90.000000
_cell_angle_beta 60.704988
_cell_angle_gamma 90.000000
_cell_volume 733.518089
_symmetry_space_group_name_H-M "P 21/C"
_symmetry_group_IT_number 14
_symmetry_cell_setting 'monoclinic'
loop_
_space_group_symop_operation_xyz
x,y,z
-x,1/2+y,1/2-z
-x,-y,-z
x,1/2-y,1/2+z
loop_
_atom_site_type_symbol
_atom_site_label
_atom_site_fract_x
_atom_site_fract_y
_atom_site_fract_z
Si Si1 0.833896 0.027953 0.251593
Si Si2 0.337335 0.030741 0.079131
Si Si3 0.729930 0.800146 0.031736
Si Si4 0.915826 0.198800 0.339095
O O1 0.826229 0.118296 0.364874
O O2 0.776327 0.971269 0.551285
O O3 0.725307 0.023057 0.101610
O O4 0.000000 0.000000 0.000000
O O5 0.360280 0.120611 0.952961
O O6 0.500000 0.000000 0.000000
O O7 0.685682 0.728820 0.873661
O O8 0.906941 0.821766 0.847146
O O9 0.870974 0.230949 0.677524
#
# Coordination Sequence:
#
# PCOD8126031 Si02
#       4
#     4   4   4   4
#     4  12  24  42  69  96 128 168 222 270 319 379
#     4  12  26  44  65  98 136 173 214 265 328 388
#     4  10  21  38  64  93 125 168 217 262 316 389
#     4  10  21  37  62  97 127 162 215 274 320 369
#
# _framework density 21.812687
#
# number of rings (size 3 to 8) (size 9 to 14) (size 15 to 20)
#    0.000    1.000    2.500    4.500    7.000    0.000 
#    0.000    7.500    0.000    0.000    0.000    0.000 
#    0.000    0.000    0.000    0.000    0.000    0.000 
#
# Total GULP energy -198495.222929 kJ/mol
# GULP energy per Si atom -12405.951433 kJ/mol
# Density = 2.176304 g / cm^3
# Si number density = 21.812687 Si / 1000 Ang^3
#
#
#
# Elastic Constant Matrix: (Units=GPa)
#
#
# Indices 1 2 3 4 5 6 
#
# 1 133.0199 67.1791 32.7757 0.0000 27.2588 0.0000
# 2 67.1791 114.3914 9.6548 0.0000 -0.1759 0.0000
# 3 32.7757 9.6548 77.2427 0.0000 19.4254 0.0000
# 4 0.0000 0.0000 0.0000 24.3293 0.0000 16.0839
# 5 27.2588 -0.1759 19.4254 0.0000 31.2526 0.0000
# 6 0.0000 0.0000 0.0000 16.0839 0.0000 43.4420
#
#
#
# Elastic Compliance Matrix: (Units=1/GPa)
#
#
# Indices 1 2 3 4 5 6 
#
# 1 0.014699 -0.008456 -0.002304 0.000000 -0.011436 0.000000
# 2 -0.008456 0.013719 -0.000001 0.000000 0.007453 0.000000
# 3 -0.002304 -0.000001 0.015905 0.000000 -0.007876 0.000000
# 4 0.000000 0.000000 0.000000 0.054423 0.000000 -0.020150
# 5 -0.011436 0.007453 -0.007876 0.000000 0.046909 0.000000
# 6 0.000000 0.000000 0.000000 -0.020150 0.000000 0.030479
#
#
# Mechanical properties :
#
#
# Convention : Reuss Voigt Hill
#
# Bulk Modulus (GPa) = 43.85758 60.43032 52.14395
# Shear Modulus (GPa) = 24.35957 34.14110 29.25034
#
# Velocity S-wave (km/s) = 3.34542 3.96055 3.66591
# Velocity P-wave (km/s) = 5.92221 6.97703 6.47115
#
# Compressibility (1/GPa) = 0.02280108
#
# Stress axis : x y z
#
# Youngs Moduli (GPa) = 68.03032 72.89027 62.87395
#
# Poissons Ratio (x) = 0.61633 0.14488
# Poissons Ratio (y) = 0.57524 0.00008
# Poissons Ratio (z) = 0.15676 0.00009
#
# Static dielectric constant tensor:
#      x y z
#    x 3.896390 0.000000 0.403310 
#    y 0.000000 4.208860 0.000000 
#    z 0.403310 0.000000 4.014670 
# 
# 
# High freq. dielectric constant tensor:
#      x y z
#    x 1.848370 0.000000 0.034720 
#    y 0.000000 1.867280 0.000000 
#    z 0.034720 0.000000 1.854730 
# 
# From -- ./inp_files/879.got.cif
#   From: 2010.03.12/outbox.cif.g09.slc.cpg/sg14_1_cif.got.tgz:879.got - 2010.03.31 13:35:05.
