data_PCOD8126395
_publ_section_title
;
Structure prediction by ZEFSAII (Michael W. Deem and Ramdas Pophale) SiO2 
 PCOD8126395
Probable space group: P 21/C
;
_chemical_formula_sum "Si O2"
_cell_formula_units_Z 24
_cell_length_a 6.620565
_cell_length_b 14.209593
_cell_length_c 18.605282
_cell_angle_alpha 90.000000
_cell_angle_beta 135.065219
_cell_angle_gamma 90.000000
_cell_volume 1236.240699
_symmetry_space_group_name_H-M "P 21/C"
_symmetry_group_IT_number 14
_symmetry_cell_setting 'monoclinic'
loop_
_space_group_symop_operation_xyz
x,y,z
-x,1/2+y,1/2-z
-x,-y,-z
x,1/2-y,1/2+z
loop_
_atom_site_type_symbol
_atom_site_label
_atom_site_fract_x
_atom_site_fract_y
_atom_site_fract_z
Si Si1 0.082814 0.509783 0.334856
Si Si2 0.635331 0.717893 0.992415
Si Si3 0.392534 0.614110 0.524371
Si Si4 0.786374 0.180392 0.741021
Si Si5 0.766377 0.838964 0.670528
Si Si6 0.723860 0.250377 0.876986
O O1 0.109666 0.567466 0.416689
O O2 0.396026 0.468812 0.396822
O O3 0.855316 0.426135 0.280953
O O4 0.987505 0.580296 0.247592
O O5 0.539563 0.818965 0.000715
O O6 0.642150 0.642009 0.059351
O O7 0.947813 0.719077 0.035788
O O8 0.421976 0.680587 0.878824
O O9 0.300770 0.666000 0.573016
O O10 0.637237 0.224101 0.773779
O O11 0.074013 0.237100 0.792420
O O12 0.498191 0.833091 0.657600
#
# Coordination Sequence:
#
# PCOD8126395 Si02
#       6
#     4   4   4   4   4   4
#     4  11  21  40  64  92 118 161 204 248 301 357
#     4  10  21  41  61  87 125 161 197 250 302 361
#     4  10  21  40  64  90 119 154 208 255 298 349
#     4  11  22  40  61  91 125 155 203 250 302 360
#     4  10  22  41  61  87 124 163 198 245 308 358
#     4  10  21  40  60  91 120 160 198 250 307 349
#
# _framework density 19.413694
#
# number of rings (size 3 to 8) (size 9 to 14) (size 15 to 20)
#    0.000    1.667    6.667    0.000    2.333    1.333 
#    6.000    0.833    0.000    0.000    0.000    0.000 
#    0.000    0.000    0.000    0.000    0.000    0.000 
#
# Total GULP energy -297472.817153 kJ/mol
# GULP energy per Si atom -12394.700715 kJ/mol
# Density = 1.936951 g / cm^3
# Si number density = 19.413694 Si / 1000 Ang^3
#
#
#
# Elastic Constant Matrix: (Units=GPa)
#
#
# Indices 1 2 3 4 5 6 
#
# 1 109.2938 23.5081 48.1203 0.0000 -4.3212 0.0000
# 2 23.5081 65.3131 36.4509 0.0000 6.9180 0.0000
# 3 48.1203 36.4509 176.4026 0.0000 3.9948 0.0000
# 4 0.0000 0.0000 0.0000 44.0210 0.0000 6.0598
# 5 -4.3212 6.9180 3.9948 0.0000 21.4366 0.0000
# 6 0.0000 0.0000 0.0000 6.0598 0.0000 9.7441
#
#
#
# Elastic Compliance Matrix: (Units=1/GPa)
#
#
# Indices 1 2 3 4 5 6 
#
# 1 0.011023 -0.002972 -0.002475 0.000000 0.003642 0.000000
# 2 -0.002972 0.018645 -0.002904 0.000000 -0.006075 0.000000
# 3 -0.002475 -0.002904 0.006964 0.000000 -0.000859 0.000000
# 4 0.000000 0.000000 0.000000 0.024843 0.000000 -0.015450
# 5 0.003642 -0.006075 -0.000859 0.000000 0.049504 0.000000
# 6 0.000000 0.000000 0.000000 -0.015450 0.000000 0.112234
#
#
# Mechanical properties :
#
#
# Convention : Reuss Voigt Hill
#
# Bulk Modulus (GPa) = 50.17984 63.01868 56.59926
# Shear Modulus (GPa) = 20.27919 31.23570 25.75744
#
# Velocity S-wave (km/s) = 3.23551 4.01553 3.64643
# Velocity P-wave (km/s) = 6.31362 7.35056 6.85173
#
# Compressibility (1/GPa) = 0.01992832
#
# Stress axis : x y z
#
# Youngs Moduli (GPa) = 90.72217 53.63402 143.60214
#
# Poissons Ratio (x) = 0.15939 0.35545
# Poissons Ratio (y) = 0.26960 0.41709
# Poissons Ratio (z) = 0.22456 0.15578
#
# Static dielectric constant tensor:
#      x y z
#    x 3.382260 0.000000 0.002970 
#    y 0.000000 3.423650 0.000000 
#    z 0.002970 0.000000 3.836960 
# 
# 
# High freq. dielectric constant tensor:
#      x y z
#    x 1.739730 0.000000 0.003410 
#    y 0.000000 1.737240 0.000000 
#    z 0.003410 0.000000 1.777010 
# 
# From -- ./inp_files/37419.got.cif
#   From: 2010.03.12/outbox.cif.g09.slc.cpg/sg14_19_cif.got.tgz:37419.got - 2010.03.31 13:35:05.
