data_PCOD8126339
_publ_section_title
;
Structure prediction by ZEFSAII (Michael W. Deem and Ramdas Pophale) SiO2 
 PCOD8126339
Probable space group: P 21/C
;
_chemical_formula_sum "Si O2"
_cell_formula_units_Z 28
_cell_length_a 5.000863
_cell_length_b 17.738847
_cell_length_c 15.617254
_cell_angle_alpha 90.000000
_cell_angle_beta 76.603112
_cell_angle_gamma 90.000000
_cell_volume 1347.700627
_symmetry_space_group_name_H-M "P 21/C"
_symmetry_group_IT_number 14
_symmetry_cell_setting 'monoclinic'
loop_
_space_group_symop_operation_xyz
x,y,z
-x,1/2+y,1/2-z
-x,-y,-z
x,1/2-y,1/2+z
loop_
_atom_site_type_symbol
_atom_site_label
_atom_site_fract_x
_atom_site_fract_y
_atom_site_fract_z
Si Si1 0.643726 0.110230 0.391380
Si Si2 0.508950 0.420535 0.450351
Si Si3 0.730309 0.499971 0.280959
Si Si4 0.922925 0.834752 0.512728
Si Si5 0.036286 0.663168 0.482391
Si Si6 0.947619 0.530084 0.908068
Si Si7 0.208610 0.597407 0.299230
O O1 0.326663 0.134123 0.410677
O O2 0.784837 0.139388 0.293213
O O3 0.791012 0.148107 0.461162
O O4 0.685473 0.018310 0.392633
O O5 0.500000 0.500000 0.500000
O O6 0.613056 0.430019 0.344722
O O7 0.196703 0.393859 0.470135
O O8 0.694641 0.356893 0.482251
O O9 0.511515 0.567306 0.297705
O O10 0.800088 0.477888 0.177553
O O11 0.999451 0.527364 0.311844
O O12 0.913671 0.746207 0.501463
O O13 0.895553 0.880050 0.423894
O O14 0.113248 0.656529 0.377111
O O15 0.000000 0.500000 0.000000
#
# Coordination Sequence:
#
# PCOD8126339 Si02
#       7
#     4   4   4   4   4   4   4
#     4  10  21  39  66  88 121 164 212 255 304 376
#     4  12  22  41  65  88 124 161 212 256 301 369
#     4  11  22  36  66  95 114 154 213 258 305 358
#     4  11  23  41  58  92 126 165 206 250 328 370
#     4  12  24  40  62  88 129 170 197 259 321 375
#     4   9  20  40  66  90 123 159 210 264 301 363
#     4  11  20  38  63  92 116 158 209 254 307 368
#
# _framework density 20.776126999999999
#
# number of rings (size 3 to 8) (size 9 to 14) (size 15 to 20)
#    0.000    1.143    2.857    5.143    0.000    3.429 
#    5.143    0.000    0.000    0.000    0.000    0.000 
#    0.000    0.000    0.000    0.000    0.000    0.000 
#
# Total GULP energy -347053.368377 kJ/mol
# GULP energy per Si atom -12394.763156 kJ/mol
# Density = 2.072884 g / cm^3
# Si number density = 20.776127 Si / 1000 Ang^3
#
#
#
# Elastic Constant Matrix: (Units=GPa)
#
#
# Indices 1 2 3 4 5 6 
#
# 1 71.6248 12.8479 16.8216 0.0000 -10.1725 0.0000
# 2 12.8479 104.6310 38.0403 0.0000 -7.7426 0.0000
# 3 16.8216 38.0403 143.9640 0.0000 -14.0357 0.0000
# 4 0.0000 0.0000 0.0000 15.2598 0.0000 -3.5986
# 5 -10.1725 -7.7426 -14.0357 0.0000 31.0227 0.0000
# 6 0.0000 0.0000 0.0000 -3.5986 0.0000 30.3078
#
#
#
# Elastic Compliance Matrix: (Units=1/GPa)
#
#
# Indices 1 2 3 4 5 6 
#
# 1 0.015005 -0.001156 -0.001042 0.000000 0.004160 0.000000
# 2 -0.001156 0.010724 -0.002589 0.000000 0.001126 0.000000
# 3 -0.001042 -0.002589 0.008009 0.000000 0.002636 0.000000
# 4 0.000000 0.000000 0.000000 0.067419 0.000000 0.008005
# 5 0.004160 0.001126 0.002636 0.000000 0.035072 0.000000
# 6 0.000000 0.000000 0.000000 0.008005 0.000000 0.033945
#
#
# Mechanical properties :
#
#
# Convention : Reuss Voigt Hill
#
# Bulk Modulus (GPa) = 41.38394 50.62658 46.00526
# Shear Modulus (GPa) = 26.62376 32.15206 29.38791
#
# Velocity S-wave (km/s) = 3.58363 3.93816 3.76507
# Velocity P-wave (km/s) = 6.08978 6.71560 6.41033
#
# Compressibility (1/GPa) = 0.02416397
#
# Stress axis : x y z
#
# Youngs Moduli (GPa) = 66.64633 93.25017 124.85992
#
# Poissons Ratio (x) = 0.10777 0.13014
# Poissons Ratio (y) = 0.07702 0.32323
# Poissons Ratio (z) = 0.06946 0.24140
#
# Static dielectric constant tensor:
#      x y z
#    x 3.791700 0.000000 -0.062460 
#    y 0.000000 3.763730 0.000000 
#    z -0.062460 0.000000 4.176990 
# 
# 
# High freq. dielectric constant tensor:
#      x y z
#    x 1.823830 0.000000 -0.010360 
#    y 0.000000 1.778220 0.000000 
#    z -0.010360 0.000000 1.825140 
# 
# From -- ./inp_files/37671.got.cif
#   From: 2010.03.12/outbox.cif.g09.slc.cpg/sg14_19_cif.got.tgz:37671.got - 2010.03.31 13:35:05.
