data_PCOD8126223
_publ_section_title
;
Structure prediction by ZEFSAII (Michael W. Deem and Ramdas Pophale) SiO2 
 PCOD8126223
Probable space group: P 21/C
;
_chemical_formula_sum "Si O2"
_cell_formula_units_Z 20
_cell_length_a 11.894548
_cell_length_b 14.378036
_cell_length_c 10.047868
_cell_angle_alpha 90.000000
_cell_angle_beta 32.354476
_cell_angle_gamma 90.000000
_cell_volume 919.605677
_symmetry_space_group_name_H-M "P 21/C"
_symmetry_group_IT_number 14
_symmetry_cell_setting 'monoclinic'
loop_
_space_group_symop_operation_xyz
x,y,z
-x,1/2+y,1/2-z
-x,-y,-z
x,1/2-y,1/2+z
loop_
_atom_site_type_symbol
_atom_site_label
_atom_site_fract_x
_atom_site_fract_y
_atom_site_fract_z
Si Si1 0.806409 0.097216 0.898829
Si Si2 0.500003 0.750003 0.199355
Si Si3 0.120534 0.157950 0.805953
Si Si4 0.193589 0.402785 0.511643
Si Si5 0.120547 0.657945 0.952966
O O1 0.646494 0.183771 0.064679
O O2 0.698504 0.000002 0.051504
O O3 0.881434 0.088582 0.671047
O O4 0.007885 0.111767 0.792048
O O5 0.646495 0.816231 0.142340
O O6 0.359982 0.817520 0.248940
O O7 0.640030 0.682491 0.968885
O O8 0.118553 0.088586 0.933926
O O9 0.999985 0.250001 0.973118
O O10 0.992118 0.388238 0.807819
#
# Coordination Sequence:
#
# PCOD8126223 Si02
#       5
#     4   4   4   4   4
#     4  11  23  39  62  90 120 157 199 245 296 350
#     4  10  22  38  62  88 120 158 198 244 294 350
#     4  10  21  39  60  85 120 157 196 244 296 351
#     4  11  23  39  62  90 120 157 199 245 296 350
#     4  10  21  39  60  85 120 157 196 244 296 351
#
# _framework density 21.748453000000001
#
# number of rings (size 3 to 8) (size 9 to 14) (size 15 to 20)
#    0.000    1.600    0.000    6.000    0.000    6.400 
#    0.000    0.000    0.000    0.000    0.000    0.000 
#    0.000    0.000    0.000    0.000    0.000    0.000 
#
# Total GULP energy -248036.208520 kJ/mol
# GULP energy per Si atom -12401.810426 kJ/mol
# Density = 2.169895 g / cm^3
# Si number density = 21.748453 Si / 1000 Ang^3
#
#
#
# Elastic Constant Matrix: (Units=GPa)
#
#
# Indices 1 2 3 4 5 6 
#
# 1 104.1210 22.5667 77.4154 0.0000 15.4848 0.0000
# 2 22.5667 82.0372 21.3108 0.0000 2.1291 0.0000
# 3 77.4154 21.3108 94.6001 0.0000 0.6457 0.0000
# 4 0.0000 0.0000 0.0000 25.2604 0.0000 1.2349
# 5 15.4848 2.1291 0.6457 0.0000 33.9453 0.0000
# 6 0.0000 0.0000 0.0000 1.2349 0.0000 25.9864
#
#
#
# Elastic Compliance Matrix: (Units=1/GPa)
#
#
# Indices 1 2 3 4 5 6 
#
# 1 0.029461 -0.001625 -0.023655 0.000000 -0.012887 0.000000
# 2 -0.001625 0.013056 -0.001611 0.000000 -0.000047 0.000000
# 3 -0.023655 -0.001611 0.030221 0.000000 0.010317 0.000000
# 4 0.000000 0.000000 0.000000 0.039680 0.000000 -0.001886
# 5 -0.012887 -0.000047 0.010317 0.000000 0.035145 0.000000
# 6 0.000000 0.000000 0.000000 -0.001886 0.000000 0.038571
#
#
# Mechanical properties :
#
#
# Convention : Reuss Voigt Hill
#
# Bulk Modulus (GPa) = 52.75314 58.14934 55.45124
# Shear Modulus (GPa) = 20.30581 27.66945 23.98763
#
# Velocity S-wave (km/s) = 3.05891 3.57073 3.32468
# Velocity P-wave (km/s) = 6.06503 6.61781 6.34744
#
# Compressibility (1/GPa) = 0.01895622
#
# Stress axis : x y z
#
# Youngs Moduli (GPa) = 33.94347 76.59130 33.08925
#
# Poissons Ratio (x) = 0.12444 0.78273
# Poissons Ratio (y) = 0.05515 0.05332
# Poissons Ratio (z) = 0.80293 0.12341
#
# Static dielectric constant tensor:
#      x y z
#    x 3.803090 0.000000 -0.064040 
#    y 0.000000 3.981180 0.000000 
#    z -0.064040 0.000000 3.840790 
# 
# 
# High freq. dielectric constant tensor:
#      x y z
#    x 1.855850 0.000000 0.007210 
#    y 0.000000 1.851580 0.000000 
#    z 0.007210 0.000000 1.851590 
# 
# From -- ./inp_files/5494.got.cif
#   From: 2010.03.12/outbox.cif.g09.slc.cpg/sg14_3_cif.got.tgz:5494.got - 2010.03.31 13:35:05.
