data_PCOD8126740
_publ_section_title
;
Structure prediction by ZEFSAII (Michael W. Deem and Ramdas Pophale) SiO2 
 PCOD8126740
Probable space group: P 21/C
;
_chemical_formula_sum "Si O2"
_cell_formula_units_Z 32
_cell_length_a 29.934088
_cell_length_b 9.331517
_cell_length_c 12.313773
_cell_angle_alpha 90.000000
_cell_angle_beta 25.179701
_cell_angle_gamma 90.000000
_cell_volume 1463.412746
_symmetry_space_group_name_H-M "P 21/C"
_symmetry_group_IT_number 14
_symmetry_cell_setting 'monoclinic'
loop_
_space_group_symop_operation_xyz
x,y,z
-x,1/2+y,1/2-z
-x,-y,-z
x,1/2-y,1/2+z
loop_
_atom_site_type_symbol
_atom_site_label
_atom_site_fract_x
_atom_site_fract_y
_atom_site_fract_z
Si Si1 0.263792 0.404471 0.022865
Si Si2 0.528121 0.819024 0.824649
Si Si3 0.578162 0.079181 0.562484
Si Si4 0.952093 0.268485 0.641453
Si Si5 0.238959 0.928823 0.008111
Si Si6 0.347560 0.692120 0.887628
Si Si7 0.129838 0.164876 0.380443
Si Si8 0.873705 0.921946 0.370907
O O1 0.371621 0.322647 0.816267
O O2 0.259560 0.567785 0.074523
O O3 0.170651 0.327970 0.293785
O O4 0.234197 0.397112 0.959774
O O5 0.536416 0.932565 0.707633
O O6 0.510228 0.657627 0.817218
O O7 0.429783 0.860696 0.115401
O O8 0.604017 0.195189 0.599088
O O9 0.684382 0.044622 0.262371
O O10 0.858741 0.172175 0.803404
O O11 0.908767 0.415046 0.783910
O O12 0.008240 0.173330 0.611901
O O13 0.037152 0.307917 0.361150
O O14 0.198481 0.080047 0.139957
O O15 0.303262 0.848956 0.961937
O O16 0.148880 0.095018 0.453671
#
# Coordination Sequence:
#
# PCOD8126740 Si02
#       8
#     4   4   4   4   4   4   4   4
#     4  10  21  42  63  94 127 166 221 261 316 398
#     4  10  23  42  65  97 126 174 222 261 328 391
#     4  10  23  40  65  95 132 170 209 273 323 380
#     4  10  23  45  62  94 129 168 218 263 334 398
#     4  11  24  41  62 101 130 164 219 274 324 386
#     4  10  22  40  66  91 129 179 217 251 332 403
#     4  11  26  39  66 101 123 167 222 276 321 377
#     4  10  23  43  68  89 127 177 212 267 330 393
#
# _framework density 21.866695
#
# number of rings (size 3 to 8) (size 9 to 14) (size 15 to 20)
#    0.000    1.750    1.250    1.875    3.500    9.000 
#    4.500    2.500    0.000    0.000    0.000    0.000 
#    0.000    0.000    0.000    0.000    0.000    0.000 
#
# Total GULP energy -396707.564898 kJ/mol
# GULP energy per Si atom -12397.111403 kJ/mol
# Density = 2.181693 g / cm^3
# Si number density = 21.866695 Si / 1000 Ang^3
#
#
#
# Elastic Constant Matrix: (Units=GPa)
#
#
# Indices 1 2 3 4 5 6 
#
# 1 117.7955 34.6753 51.0446 0.0000 2.6900 0.0000
# 2 34.6753 66.9394 40.3974 0.0000 3.3280 0.0000
# 3 51.0446 40.3974 81.8039 0.0000 2.9979 0.0000
# 4 0.0000 0.0000 0.0000 28.2365 0.0000 -4.2178
# 5 2.6900 3.3280 2.9979 0.0000 32.3465 0.0000
# 6 0.0000 0.0000 0.0000 -4.2178 0.0000 33.6883
#
#
#
# Elastic Compliance Matrix: (Units=1/GPa)
#
#
# Indices 1 2 3 4 5 6 
#
# 1 0.011900 -0.002391 -0.006239 0.000000 -0.000165 0.000000
# 2 -0.002391 0.021810 -0.009235 0.000000 -0.001189 0.000000
# 3 -0.006239 -0.009235 0.020694 0.000000 -0.000449 0.000000
# 4 0.000000 0.000000 0.000000 0.036090 0.000000 0.004518
# 5 -0.000165 -0.001189 -0.000449 0.000000 0.031093 0.000000
# 6 0.000000 0.000000 0.000000 0.004518 0.000000 0.030250
#
#
# Mechanical properties :
#
#
# Convention : Reuss Voigt Hill
#
# Bulk Modulus (GPa) = 53.54784 57.64147 55.59465
# Shear Modulus (GPa) = 25.80096 28.21571 27.00833
#
# Velocity S-wave (km/s) = 3.43872 3.59604 3.51826
# Velocity P-wave (km/s) = 6.34885 6.60754 6.47949
#
# Compressibility (1/GPa) = 0.01867489
#
# Stress axis : x y z
#
# Youngs Moduli (GPa) = 84.03047 45.85105 48.32296
#
# Poissons Ratio (x) = 0.10964 0.30148
# Poissons Ratio (y) = 0.20094 0.44625
# Poissons Ratio (z) = 0.52425 0.42342
#
# Static dielectric constant tensor:
#      x y z
#    x 4.124730 0.000000 -0.164620 
#    y 0.000000 3.941410 0.000000 
#    z -0.164620 0.000000 3.845000 
# 
# 
# High freq. dielectric constant tensor:
#      x y z
#    x 1.867640 0.000000 -0.009480 
#    y 0.000000 1.863900 0.000000 
#    z -0.009480 0.000000 1.848320 
# 
# From -- ./inp_files/36469.got.cif
#   From: 2010.03.12/outbox.cif.g09.slc.cpg/sg14_19_cif.got.tgz:36469.got - 2010.03.31 13:35:05.
