data_PCOD8126060
_publ_section_title
;
Structure prediction by ZEFSAII (Michael W. Deem and Ramdas Pophale) SiO2 
 PCOD8126060
Probable space group: P 21/C
;
_chemical_formula_sum "Si O2"
_cell_formula_units_Z 28
_cell_length_a 10.293585
_cell_length_b 8.719391
_cell_length_c 14.644338
_cell_angle_alpha 90.000000
_cell_angle_beta 111.209260
_cell_angle_gamma 90.000000
_cell_volume 1225.355466
_symmetry_space_group_name_H-M "P 21/C"
_symmetry_group_IT_number 14
_symmetry_cell_setting 'monoclinic'
loop_
_space_group_symop_operation_xyz
x,y,z
-x,1/2+y,1/2-z
-x,-y,-z
x,1/2-y,1/2+z
loop_
_atom_site_type_symbol
_atom_site_label
_atom_site_fract_x
_atom_site_fract_y
_atom_site_fract_z
Si Si1 0.620260 0.544336 0.305069
Si Si2 0.880521 0.152403 0.807554
Si Si3 0.911494 0.393947 0.664983
Si Si4 0.630030 0.859234 0.205456
Si Si5 0.074505 0.113809 0.646612
Si Si6 0.910880 0.656649 0.052142
Si Si7 0.304850 0.397786 0.470586
O O1 0.742350 0.429395 0.307048
O O2 0.621157 0.684392 0.235341
O O3 0.473264 0.457627 0.257634
O O4 0.631539 0.600461 0.412499
O O5 0.846630 0.295216 0.731953
O O6 0.959165 0.222322 0.916320
O O7 0.991574 0.041806 0.781738
O O8 0.788389 0.449167 0.566700
O O9 0.018431 0.285913 0.637977
O O10 0.791171 0.918669 0.253794
O O11 0.585976 0.882973 0.086933
O O12 0.131901 0.098006 0.558297
O O13 0.953403 0.986021 0.628065
O O14 0.780314 0.739997 0.064400
#
# Coordination Sequence:
#
# PCOD8126060 Si02
#       7
#     4   4   4   4   4   4   4
#     4  12  28  48  69  97 139 186 234 277 338 410
#     4  11  22  40  67 102 140 179 227 280 344 410
#     4  11  22  37  71 103 137 175 220 285 352 401
#     4  12  27  46  70  94 139 189 229 278 329 418
#     4  11  21  40  66 107 139 172 224 284 345 403
#     4  10  21  37  70 101 141 168 220 289 351 397
#     4  11  24  48  72 101 137 180 230 284 351 405
#
# _framework density 22.850512999999999
#
# number of rings (size 3 to 8) (size 9 to 14) (size 15 to 20)
#    0.000    0.857    2.857    4.714    6.000    2.286 
#    0.000    0.714    0.000    0.000    0.000    0.000 
#    0.000    0.000    0.000    0.000    0.000    0.000 
#
# Total GULP energy -347055.395566 kJ/mol
# GULP energy per Si atom -12394.835556 kJ/mol
# Density = 2.279850 g / cm^3
# Si number density = 22.850513 Si / 1000 Ang^3
#
#
#
# Elastic Constant Matrix: (Units=GPa)
#
#
# Indices 1 2 3 4 5 6 
#
# 1 83.1107 19.2278 4.6258 0.0000 -3.3815 0.0000
# 2 19.2278 114.2645 13.4134 0.0000 2.2183 0.0000
# 3 4.6258 13.4134 90.1820 0.0000 -15.6232 0.0000
# 4 0.0000 0.0000 0.0000 29.5808 0.0000 -6.3311
# 5 -3.3815 2.2183 -15.6232 0.0000 24.4696 0.0000
# 6 0.0000 0.0000 0.0000 -6.3311 0.0000 34.6242
#
#
#
# Elastic Compliance Matrix: (Units=1/GPa)
#
#
# Indices 1 2 3 4 5 6 
#
# 1 0.012611 -0.002161 0.000012 0.000000 0.001946 0.000000
# 2 -0.002161 0.009353 -0.001663 0.000000 -0.002208 0.000000
# 3 0.000012 -0.001663 0.012775 0.000000 0.008309 0.000000
# 4 0.000000 0.000000 0.000000 0.035183 0.000000 0.006433
# 5 0.001946 -0.002208 0.008309 0.000000 0.046641 0.000000
# 6 0.000000 0.000000 0.000000 0.006433 0.000000 0.030058
#
#
# Mechanical properties :
#
#
# Convention : Reuss Voigt Hill
#
# Bulk Modulus (GPa) = 36.88111 40.23235 38.55673
# Shear Modulus (GPa) = 30.62159 34.42091 32.52125
#
# Velocity S-wave (km/s) = 3.66469 3.88539 3.77665
# Velocity P-wave (km/s) = 5.83796 6.14600 5.99396
#
# Compressibility (1/GPa) = 0.02711415
#
# Stress axis : x y z
#
# Youngs Moduli (GPa) = 79.29793 106.91317 78.27878
#
# Poissons Ratio (x) = 0.23106 -0.00092
# Poissons Ratio (y) = 0.17138 0.13017
# Poissons Ratio (z) = -0.00093 0.17779
#
# Static dielectric constant tensor:
#      x y z
#    x 3.910720 0.000000 -0.055780 
#    y 0.000000 4.364010 0.000000 
#    z -0.055780 0.000000 4.166320 
# 
# 
# High freq. dielectric constant tensor:
#      x y z
#    x 1.883030 0.000000 -0.019270 
#    y 0.000000 1.919590 0.000000 
#    z -0.019270 0.000000 1.910210 
# 
# From -- ./inp_files/43478.got.cif
#   From: 2010.03.12/outbox.cif.g09.slc.cpg/sg14_22_cif.got.tgz:43478.got - 2010.03.31 13:35:05.
