data_PCOD8126562
_publ_section_title
;
Structure prediction by ZEFSAII (Michael W. Deem and Ramdas Pophale) SiO2 
 PCOD8126562
Probable space group: P 21/C
;
_chemical_formula_sum "Si O2"
_cell_formula_units_Z 28
_cell_length_a 10.989586
_cell_length_b 20.995541
_cell_length_c 8.881375
_cell_angle_alpha 90.000000
_cell_angle_beta 134.838029
_cell_angle_gamma 90.000000
_cell_volume 1453.107908
_symmetry_space_group_name_H-M "P 21/C"
_symmetry_group_IT_number 14
_symmetry_cell_setting 'monoclinic'
loop_
_space_group_symop_operation_xyz
x,y,z
-x,1/2+y,1/2-z
-x,-y,-z
x,1/2-y,1/2+z
loop_
_atom_site_type_symbol
_atom_site_label
_atom_site_fract_x
_atom_site_fract_y
_atom_site_fract_z
Si Si1 0.242307 0.508065 0.293697
Si Si2 0.083577 0.712637 0.906834
Si Si3 0.048820 0.103156 0.506115
Si Si4 0.196338 0.824586 0.176585
Si Si5 0.478514 0.511517 0.225554
Si Si6 0.540372 0.898805 0.512798
Si Si7 0.129356 0.330216 0.777922
O O1 0.190289 0.434070 0.227696
O O2 0.336582 0.531599 0.223866
O O3 0.355631 0.513887 0.541521
O O4 0.079007 0.552138 0.179878
O O5 0.159908 0.690955 0.816814
O O6 0.054908 0.650357 0.978970
O O7 0.905467 0.753786 0.736366
O O8 0.224650 0.757751 0.112382
O O9 0.141140 0.141214 0.454547
O O10 0.362761 0.867925 0.303624
O O11 0.029383 0.860055 0.957860
O O12 0.408467 0.455412 0.056855
O O13 0.521955 0.573632 0.164874
O O14 0.690696 0.845735 0.646772
#
# Coordination Sequence:
#
# PCOD8126562 Si02
#       7
#     4   4   4   4   4   4   4
#     4  10  22  37  65  90 120 163 202 259 309 354
#     4  10  21  41  61  86 126 155 205 255 292 375
#     4  11  20  40  64  90 121 164 205 247 315 357
#     4  10  22  40  60  88 121 159 201 250 305 358
#     4  10  22  40  56  92 124 155 207 262 291 377
#     4  11  22  41  62  87 127 160 204 251 317 362
#     4  10  21  41  61  89 123 162 199 255 298 366
#
# _framework density 19.269044000000001
#
# number of rings (size 3 to 8) (size 9 to 14) (size 15 to 20)
#    0.857    0.857    2.857    1.714    2.000    0.000 
#    5.143    5.000    0.000    0.000    0.000    0.000 
#    0.000    0.000    0.000    0.000    0.000    0.000 
#
# Total GULP energy -347117.030735 kJ/mol
# GULP energy per Si atom -12397.036812 kJ/mol
# Density = 1.922519 g / cm^3
# Si number density = 19.269044 Si / 1000 Ang^3
#
#
#
# Elastic Constant Matrix: (Units=GPa)
#
#
# Indices 1 2 3 4 5 6 
#
# 1 54.2218 10.0901 25.7136 0.0000 1.7836 0.0000
# 2 10.0901 63.4331 11.4101 0.0000 -3.2355 0.0000
# 3 25.7136 11.4101 64.0977 0.0000 -1.8523 0.0000
# 4 0.0000 0.0000 0.0000 18.2159 0.0000 15.2477
# 5 1.7836 -3.2355 -1.8523 0.0000 37.1202 0.0000
# 6 0.0000 0.0000 0.0000 15.2477 0.0000 14.6760
#
#
#
# Elastic Compliance Matrix: (Units=1/GPa)
#
#
# Indices 1 2 3 4 5 6 
#
# 1 0.023148 -0.002161 -0.008952 0.000000 -0.001747 0.000000
# 2 -0.002161 0.016548 -0.002037 0.000000 0.001445 0.000000
# 3 -0.008952 -0.002037 0.019590 0.000000 0.001230 0.000000
# 4 0.000000 0.000000 0.000000 0.421169 0.000000 -0.437573
# 5 -0.001747 0.001445 0.001230 0.000000 0.027211 0.000000
# 6 0.000000 0.000000 0.000000 -0.437573 0.000000 0.522754
#
#
# Mechanical properties :
#
#
# Convention : Reuss Voigt Hill
#
# Bulk Modulus (GPa) = 30.31515 30.68668 30.50091
# Shear Modulus (GPa) = 4.68289 22.97167 13.82728
#
# Velocity S-wave (km/s) = 1.56062 3.45650 2.68169
# Velocity P-wave (km/s) = 4.36052 5.64711 5.04500
#
# Compressibility (1/GPa) = 0.03298681
#
# Stress axis : x y z
#
# Youngs Moduli (GPa) = 43.20110 60.42847 51.04519
#
# Poissons Ratio (x) = 0.13058 0.45694
# Poissons Ratio (y) = 0.09335 0.10399
# Poissons Ratio (z) = 0.38673 0.12310
#
# Static dielectric constant tensor:
#      x y z
#    x 3.387520 0.000000 -0.094580 
#    y 0.000000 3.555950 0.000000 
#    z -0.094580 0.000000 3.469530 
# 
# 
# High freq. dielectric constant tensor:
#      x y z
#    x 1.746570 0.000000 -0.013030 
#    y 0.000000 1.743140 0.000000 
#    z -0.013030 0.000000 1.748210 
# 
# From -- ./inp_files/14203.got.cif
#   From: 2010.03.12/outbox.cif.g09.slc.cpg/sg14_8_cif.got.tgz:14203.got - 2010.03.31 13:35:05.
