data_PCOD8126912
_publ_section_title
;
Structure prediction by ZEFSAII (Michael W. Deem and Ramdas Pophale) SiO2 
 PCOD8126912
Probable space group: P 21/C
;
_chemical_formula_sum "Si O2"
_cell_formula_units_Z 28
_cell_length_a 24.200372
_cell_length_b 9.521352
_cell_length_c 8.834467
_cell_angle_alpha 90.000000
_cell_angle_beta 139.587654
_cell_angle_gamma 90.000000
_cell_volume 1319.672924
_symmetry_space_group_name_H-M "P 21/C"
_symmetry_group_IT_number 14
_symmetry_cell_setting 'monoclinic'
loop_
_space_group_symop_operation_xyz
x,y,z
-x,1/2+y,1/2-z
-x,-y,-z
x,1/2-y,1/2+z
loop_
_atom_site_type_symbol
_atom_site_label
_atom_site_fract_x
_atom_site_fract_y
_atom_site_fract_z
Si Si1 0.502784 0.859784 0.105624
Si Si2 0.267992 0.932249 0.046391
Si Si3 0.254395 0.395118 0.091636
Si Si4 0.090029 0.430165 0.208767
Si Si5 0.848249 0.779251 0.886195
Si Si6 0.685893 0.320922 0.675876
Si Si7 0.606389 0.820214 0.611206
O O1 0.569306 0.885651 0.380418
O O2 0.530777 0.720419 0.069975
O O3 0.412907 0.823128 0.989763
O O4 0.500000 0.000000 0.000000
O O5 0.301922 0.843475 0.976206
O O6 0.169170 0.973690 0.821096
O O7 0.276769 0.832605 0.210161
O O8 0.323989 0.073183 0.175745
O O9 0.189358 0.338680 0.081509
O O10 0.262218 0.562073 0.121908
O O11 0.346026 0.327255 0.319322
O O12 0.226112 0.359059 0.861424
O O13 0.100600 0.392294 0.407596
O O14 0.087725 0.291596 0.099316
O O15 0.000000 0.500000 0.000000
#
# Coordination Sequence:
#
# PCOD8126912 Si02
#       7
#     4   4   4   4   4   4   4
#     4  12  28  42  68 102 137 183 241 295 339 408
#     4  12  28  45  72  96 144 185 228 290 359 423
#     4  11  20  42  73  96 130 186 237 268 338 429
#     4  11  25  46  73 108 139 177 236 291 351 422
#     4  10  21  44  74 102 133 184 233 276 347 429
#     4  12  27  43  64 103 142 179 231 292 354 401
#     4  12  25  45  71  94 137 188 239 281 346 421
#
# _framework density 21.217379000000001
#
# number of rings (size 3 to 8) (size 9 to 14) (size 15 to 20)
#    0.000    0.571    5.714    2.571    6.000    2.286 
#    0.000    1.429    0.000    0.000    0.000    0.000 
#    0.000    0.000    0.000    0.000    0.000    0.000 
#
# Total GULP energy -347291.882999 kJ/mol
# GULP energy per Si atom -12403.281536 kJ/mol
# Density = 2.116909 g / cm^3
# Si number density = 21.217379 Si / 1000 Ang^3
#
#
#
# Elastic Constant Matrix: (Units=GPa)
#
#
# Indices 1 2 3 4 5 6 
#
# 1 87.7138 22.9653 60.2108 0.0000 -0.9630 0.0000
# 2 22.9653 79.6262 35.4874 0.0000 3.5061 0.0000
# 3 60.2108 35.4874 132.7381 0.0000 3.6181 0.0000
# 4 0.0000 0.0000 0.0000 44.9589 0.0000 -2.5417
# 5 -0.9630 3.5061 3.6181 0.0000 36.7674 0.0000
# 6 0.0000 0.0000 0.0000 -2.5417 0.0000 33.8831
#
#
#
# Elastic Compliance Matrix: (Units=1/GPa)
#
#
# Indices 1 2 3 4 5 6 
#
# 1 0.016805 -0.001693 -0.007206 0.000000 0.001311 0.000000
# 2 -0.001693 0.014464 -0.003068 0.000000 -0.001122 0.000000
# 3 -0.007206 -0.003068 0.011651 0.000000 -0.001043 0.000000
# 4 0.000000 0.000000 0.000000 0.022337 0.000000 0.001676
# 5 0.001311 -0.001122 -0.001043 0.000000 0.027442 0.000000
# 6 0.000000 0.000000 0.000000 0.001676 0.000000 0.029639
#
#
# Mechanical properties :
#
#
# Convention : Reuss Voigt Hill
#
# Bulk Modulus (GPa) = 52.67259 59.71168 56.19213
# Shear Modulus (GPa) = 32.76530 35.21621 33.99076
#
# Velocity S-wave (km/s) = 3.93398 4.07846 4.00687
# Velocity P-wave (km/s) = 6.74641 7.09805 6.92446
#
# Compressibility (1/GPa) = 0.01898521
#
# Stress axis : x y z
#
# Youngs Moduli (GPa) = 59.50688 69.13795 85.82957
#
# Poissons Ratio (x) = 0.11705 0.61848
# Poissons Ratio (y) = 0.10074 0.26336
# Poissons Ratio (z) = 0.42880 0.21214
#
# Static dielectric constant tensor:
#      x y z
#    x 3.916000 0.000000 -0.281560 
#    y 0.000000 3.904330 0.000000 
#    z -0.281560 0.000000 3.933950 
# 
# 
# High freq. dielectric constant tensor:
#      x y z
#    x 1.833340 0.000000 -0.016940 
#    y 0.000000 1.829900 0.000000 
#    z -0.016940 0.000000 1.833310 
# 
# From -- ./inp_files/19753.got.cif
#   From: 2010.03.12/outbox.cif.g09.slc.cpg/sg14_10_cif.got.tgz:19753.got - 2010.03.31 13:35:05.
