data_PCOD8126264
_publ_section_title
;
Structure prediction by ZEFSAII (Michael W. Deem and Ramdas Pophale) SiO2 
 PCOD8126264
Probable space group: P 21/C
;
_chemical_formula_sum "Si O2"
_cell_formula_units_Z 28
_cell_length_a 11.874349
_cell_length_b 12.817211
_cell_length_c 9.137143
_cell_angle_alpha 90.000000
_cell_angle_beta 63.655480
_cell_angle_gamma 90.000000
_cell_volume 1246.208017
_symmetry_space_group_name_H-M "P 21/C"
_symmetry_group_IT_number 14
_symmetry_cell_setting 'monoclinic'
loop_
_space_group_symop_operation_xyz
x,y,z
-x,1/2+y,1/2-z
-x,-y,-z
x,1/2-y,1/2+z
loop_
_atom_site_type_symbol
_atom_site_label
_atom_site_fract_x
_atom_site_fract_y
_atom_site_fract_z
Si Si1 0.694552 0.297069 0.648383
Si Si2 0.169315 0.857995 0.635476
Si Si3 0.258646 0.233467 0.319498
Si Si4 0.683007 0.511310 0.122071
Si Si5 0.315014 0.509376 0.542780
Si Si6 0.879816 0.853093 0.876438
Si Si7 0.519225 0.634461 0.725558
O O1 0.757193 0.343321 0.756539
O O2 0.797680 0.232025 0.498746
O O3 0.646344 0.389865 0.572307
O O4 0.575896 0.226927 0.763764
O O5 0.203466 0.969990 0.544764
O O6 0.021764 0.857989 0.746444
O O7 0.137086 0.282484 0.470131
O O8 0.212622 0.197075 0.190120
O O9 0.368525 0.319463 0.239293
O O10 0.314372 0.135999 0.380881
O O11 0.694471 0.464217 0.280503
O O12 0.553517 0.456443 0.139604
O O13 0.177277 0.469105 0.566582
O O14 0.420335 0.418747 0.454681
#
# Coordination Sequence:
#
# PCOD8126264 Si02
#       7
#     4   4   4   4   4   4   4
#     4  11  23  40  63  90 122 158 197 248 299 353
#     4  11  24  40  61  90 121 158 203 245 295 355
#     4  10  22  39  62  87 119 159 197 246 300 354
#     4  10  22  38  61  90 120 158 198 244 299 355
#     4  10  22  40  62  88 122 159 197 246 300 353
#     4  10  23  41  61  88 121 160 202 244 295 354
#     4  10  21  39  62  90 120 154 198 242 299 357
#
# _framework density 22.468157999999999
#
# number of rings (size 3 to 8) (size 9 to 14) (size 15 to 20)
#    0.000    1.714    0.000    3.857    0.000   15.429 
#    0.000    4.286    0.000    0.000    0.000    0.000 
#    0.000    0.000    0.000    0.000    0.000    0.000 
#
# Total GULP energy -347127.461902 kJ/mol
# GULP energy per Si atom -12397.409354 kJ/mol
# Density = 2.241702 g / cm^3
# Si number density = 22.468158 Si / 1000 Ang^3
#
#
#
# Elastic Constant Matrix: (Units=GPa)
#
#
# Indices 1 2 3 4 5 6 
#
# 1 72.1661 7.9997 27.3271 0.0000 -31.8318 0.0000
# 2 7.9997 62.3806 23.9796 0.0000 -14.2596 0.0000
# 3 27.3271 23.9796 87.4560 0.0000 -22.3248 0.0000
# 4 0.0000 0.0000 0.0000 40.7471 0.0000 0.4041
# 5 -31.8318 -14.2596 -22.3248 0.0000 40.7256 0.0000
# 6 0.0000 0.0000 0.0000 0.4041 0.0000 20.9784
#
#
#
# Elastic Compliance Matrix: (Units=1/GPa)
#
#
# Indices 1 2 3 4 5 6 
#
# 1 0.021991 0.002149 -0.003350 0.000000 0.016105 0.000000
# 2 0.002149 0.018758 -0.004313 0.000000 0.005883 0.000000
# 3 -0.003350 -0.004313 0.014661 0.000000 0.003909 0.000000
# 4 0.000000 0.000000 0.000000 0.024546 0.000000 -0.000473
# 5 0.016105 0.005883 0.003909 0.000000 0.041345 0.000000
# 6 0.000000 0.000000 0.000000 -0.000473 0.000000 0.047677
#
#
# Mechanical properties :
#
#
# Convention : Reuss Voigt Hill
#
# Bulk Modulus (GPa) = 22.53136 37.84617 30.18876
# Shear Modulus (GPa) = 25.66741 31.33662 28.50202
#
# Velocity S-wave (km/s) = 3.38359 3.73864 3.56554
# Velocity P-wave (km/s) = 5.03139 5.95965 5.51508
#
# Compressibility (1/GPa) = 0.04438259
#
# Stress axis : x y z
#
# Youngs Moduli (GPa) = 45.47384 53.31115 68.20682
#
# Poissons Ratio (x) = -0.11456 0.22846
# Poissons Ratio (y) = -0.09772 0.29417
# Poissons Ratio (z) = 0.15232 0.22992
#
# Static dielectric constant tensor:
#      x y z
#    x 3.797360 0.000000 -0.211800 
#    y 0.000000 4.417770 0.000000 
#    z -0.211800 0.000000 4.087570 
# 
# 
# High freq. dielectric constant tensor:
#      x y z
#    x 1.866690 0.000000 -0.014440 
#    y 0.000000 1.895790 0.000000 
#    z -0.014440 0.000000 1.891850 
# 
# From -- ./inp_files/13237.got.cif
#   From: 2010.03.12/outbox.cif.g09.slc.cpg/sg14_7_cif.got.tgz:13237.got - 2010.03.31 13:35:05.
