data_PCOD8126944
_publ_section_title
;
Structure prediction by ZEFSAII (Michael W. Deem and Ramdas Pophale) SiO2 
 PCOD8126944
Probable space group: P 21/C
;
_chemical_formula_sum "Si O2"
_cell_formula_units_Z 20
_cell_length_a 14.644487
_cell_length_b 9.336718
_cell_length_c 10.603549
_cell_angle_alpha 90.000000
_cell_angle_beta 149.502627
_cell_angle_gamma 90.000000
_cell_volume 735.791422
_symmetry_space_group_name_H-M "P 21/C"
_symmetry_group_IT_number 14
_symmetry_cell_setting 'monoclinic'
loop_
_space_group_symop_operation_xyz
x,y,z
-x,1/2+y,1/2-z
-x,-y,-z
x,1/2-y,1/2+z
loop_
_atom_site_type_symbol
_atom_site_label
_atom_site_fract_x
_atom_site_fract_y
_atom_site_fract_z
Si Si1 0.911281 0.345474 0.410179
Si Si2 0.970557 0.355571 0.208225
Si Si3 0.539611 0.278519 0.889460
Si Si4 0.708955 0.506141 0.517674
Si Si5 0.307142 0.059324 0.733212
O O1 0.960253 0.272707 0.331008
O O2 0.996695 0.261200 0.628854
O O3 0.000000 0.500000 0.500000
O O4 0.692278 0.344142 0.165809
O O5 0.140981 0.464915 0.410047
O O6 0.794232 0.456192 0.986114
O O7 0.472280 0.401749 0.717306
O O8 0.355132 0.217131 0.736190
O O9 0.642013 0.156974 0.930303
O O10 0.799213 0.552375 0.759953
O O11 0.500000 0.000000 0.000000
#
# Coordination Sequence:
#
# PCOD8126944 Si02
#       5
#     4   4   4   4   4
#     4  12  30  49  83 117 163 212 273 335 401 489
#     4  12  28  50  78 117 162 209 269 331 407 477
#     4  11  26  48  75 116 159 207 270 333 405 478
#     4  11  26  43  77 111 157 215 264 331 404 482
#     4  10  21  47  73 105 154 210 261 330 400 473
#
# _framework density 27.181616000000002
#
# number of rings (size 3 to 8) (size 9 to 14) (size 15 to 20)
#    0.000    0.800    4.000    3.000   11.200    0.000 
#    0.000    2.000    0.000    0.000    0.000    0.000 
#    0.000    0.000    0.000    0.000    0.000    0.000 
#
# Total GULP energy -247869.710527 kJ/mol
# GULP energy per Si atom -12393.485526 kJ/mol
# Density = 2.711975 g / cm^3
# Si number density = 27.181616 Si / 1000 Ang^3
#
#
#
# Elastic Constant Matrix: (Units=GPa)
#
#
# Indices 1 2 3 4 5 6 
#
# 1 87.5850 -0.5506 13.1869 0.0000 5.4155 0.0000
# 2 -0.5506 126.0052 51.1092 0.0000 9.2675 0.0000
# 3 13.1869 51.1092 82.4642 0.0000 -1.4812 0.0000
# 4 0.0000 0.0000 0.0000 53.6384 0.0000 6.2852
# 5 5.4155 9.2675 -1.4812 0.0000 46.6347 0.0000
# 6 0.0000 0.0000 0.0000 6.2852 0.0000 35.1262
#
#
#
# Elastic Compliance Matrix: (Units=1/GPa)
#
#
# Indices 1 2 3 4 5 6 
#
# 1 0.011945 0.001292 -0.002742 0.000000 -0.001731 0.000000
# 2 0.001292 0.010997 -0.007068 0.000000 -0.002560 0.000000
# 3 -0.002742 -0.007068 0.016986 0.000000 0.002263 0.000000
# 4 0.000000 0.000000 0.000000 0.019043 0.000000 -0.003407
# 5 -0.001731 -0.002560 0.002263 0.000000 0.022225 0.000000
# 6 0.000000 0.000000 0.000000 -0.003407 0.000000 0.029078
#
#
# Mechanical properties :
#
#
# Convention : Reuss Voigt Hill
#
# Bulk Modulus (GPa) = 43.68350 47.06059 45.37204
# Shear Modulus (GPa) = 37.05292 42.56711 39.81001
#
# Velocity S-wave (km/s) = 3.69611 3.96160 3.83115
# Velocity P-wave (km/s) = 5.85840 6.18681 6.02484
#
# Compressibility (1/GPa) = 0.02289194
#
# Stress axis : x y z
#
# Youngs Moduli (GPa) = 83.71399 90.93353 58.87113
#
# Poissons Ratio (x) = -0.11745 0.16141
# Poissons Ratio (y) = -0.10813 0.41611
# Poissons Ratio (z) = 0.22953 0.64274
#
# Static dielectric constant tensor:
#      x y z
#    x 11.915760 0.000000 -2.166730 
#    y 0.000000 5.217530 0.000000 
#    z -2.166730 0.000000 5.774940 
# 
# 
# High freq. dielectric constant tensor:
#      x y z
#    x 2.099520 0.000000 0.013040 
#    y 0.000000 2.089660 0.000000 
#    z 0.013040 0.000000 2.103440 
# 
# From -- ./inp_files/33691.got.cif
#   From: 2010.03.12/outbox.cif.g09.slc.cpg/sg14_17_cif.got.tgz:33691.got - 2010.03.31 13:35:05.
