data_PCOD8126171
_publ_section_title
;
Structure prediction by ZEFSAII (Michael W. Deem and Ramdas Pophale) SiO2 
 PCOD8126171
Probable space group: P 21/C
;
_chemical_formula_sum "Si O2"
_cell_formula_units_Z 32
_cell_length_a 17.258612
_cell_length_b 6.522909
_cell_length_c 13.217550
_cell_angle_alpha 90.000000
_cell_angle_beta 89.594945
_cell_angle_gamma 90.000000
_cell_volume 1487.946425
_symmetry_space_group_name_H-M "P 21/C"
_symmetry_group_IT_number 14
_symmetry_cell_setting 'monoclinic'
loop_
_space_group_symop_operation_xyz
x,y,z
-x,1/2+y,1/2-z
-x,-y,-z
x,1/2-y,1/2+z
loop_
_atom_site_type_symbol
_atom_site_label
_atom_site_fract_x
_atom_site_fract_y
_atom_site_fract_z
Si Si1 0.008878 0.198326 0.860027
Si Si2 0.350734 0.743203 0.017379
Si Si3 0.780283 0.987871 0.889008
Si Si4 0.111125 0.940359 0.295761
Si Si5 0.903092 0.148673 0.034096
Si Si6 0.448491 0.979597 0.154433
Si Si7 0.612406 0.355513 0.698230
Si Si8 0.662231 0.644092 0.866663
O O1 0.960608 0.172223 0.757667
O O2 0.081561 0.343330 0.838705
O O3 0.951755 0.278670 0.949947
O O4 0.039496 0.979075 0.895917
O O5 0.337595 0.794354 0.900341
O O6 0.352413 0.498401 0.034603
O O7 0.284043 0.841279 0.088129
O O8 0.432180 0.843160 0.054128
O O9 0.743060 0.761741 0.883662
O O10 0.816610 0.032747 0.779274
O O11 0.843859 0.996311 0.977253
O O12 0.140390 0.808579 0.391879
O O13 0.539479 0.006201 0.166797
O O14 0.408509 0.200558 0.146012
O O15 0.414351 0.855682 0.250294
O O16 0.666812 0.494153 0.769357
#
# Coordination Sequence:
#
# PCOD8126171 Si02
#       8
#     4   4   4   4   4   4   4   4
#     4  10  21  38  64  97 123 163 210 270 327 370
#     4  10  24  41  62  90 130 172 212 262 315 387
#     4  10  25  42  60  95 129 177 218 253 325 393
#     4  11  21  40  65  92 130 166 215 270 316 378
#     4  10  22  40  64  94 129 163 218 262 324 386
#     4  10  21  39  64 100 120 163 214 263 327 377
#     4  11  21  40  68  93 127 164 211 272 324 375
#     4  10  23  44  61  91 135 160 218 267 311 395
#
# _framework density 21.506152
#
# number of rings (size 3 to 8) (size 9 to 14) (size 15 to 20)
#    0.000    1.750    2.500    0.750    0.000    8.500 
#    0.000    0.000    0.000    0.000    0.000    0.000 
#    0.000    0.000    0.000    0.000    0.000    0.000 
#
# Total GULP energy -396794.225599 kJ/mol
# GULP energy per Si atom -12399.819550 kJ/mol
# Density = 2.145720 g / cm^3
# Si number density = 21.506152 Si / 1000 Ang^3
#
#
#
# Elastic Constant Matrix: (Units=GPa)
#
#
# Indices 1 2 3 4 5 6 
#
# 1 70.6405 30.4878 23.2396 0.0000 -3.9910 0.0000
# 2 30.4878 108.5727 44.0176 0.0000 -11.1687 0.0000
# 3 23.2396 44.0176 107.6023 0.0000 -13.5765 0.0000
# 4 0.0000 0.0000 0.0000 30.6386 0.0000 3.8128
# 5 -3.9910 -11.1687 -13.5765 0.0000 25.6549 0.0000
# 6 0.0000 0.0000 0.0000 3.8128 0.0000 33.2192
#
#
#
# Elastic Compliance Matrix: (Units=1/GPa)
#
#
# Indices 1 2 3 4 5 6 
#
# 1 0.016459 -0.003823 -0.002012 0.000000 -0.000169 0.000000
# 2 -0.003823 0.012093 -0.003785 0.000000 0.002667 0.000000
# 3 -0.002012 -0.003785 0.011818 0.000000 0.004293 0.000000
# 4 0.000000 0.000000 0.000000 0.033112 0.000000 -0.003800
# 5 -0.000169 0.002667 0.004293 0.000000 0.042386 0.000000
# 6 0.000000 0.000000 0.000000 -0.003800 0.000000 0.030539
#
#
# Mechanical properties :
#
#
# Convention : Reuss Voigt Hill
#
# Bulk Modulus (GPa) = 47.32715 53.58950 50.45833
# Shear Modulus (GPa) = 28.95381 30.50724 29.73053
#
# Velocity S-wave (km/s) = 3.67318 3.77043 3.72212
# Velocity P-wave (km/s) = 6.32802 6.62776 6.47962
#
# Compressibility (1/GPa) = 0.02112952
#
# Stress axis : x y z
#
# Youngs Moduli (GPa) = 60.75820 82.69433 84.61720
#
# Poissons Ratio (x) = 0.31617 0.17025
# Poissons Ratio (y) = 0.23230 0.32024
# Poissons Ratio (z) = 0.12224 0.31297
#
# Static dielectric constant tensor:
#      x y z
#    x 3.764850 0.000000 0.121250 
#    y 0.000000 3.762700 0.000000 
#    z 0.121250 0.000000 4.016730 
# 
# 
# High freq. dielectric constant tensor:
#      x y z
#    x 1.832160 0.000000 0.008300 
#    y 0.000000 1.840460 0.000000 
#    z 0.008300 0.000000 1.854670 
# 
# From -- ./inp_files/48182.got.cif
#   From: 2010.03.12/outbox.cif.g09.slc.cpg/sg14_25_cif.got.tgz:48182.got - 2010.03.31 13:35:05.
