data_PCOD8126997
_publ_section_title
;
Structure prediction by ZEFSAII (Michael W. Deem and Ramdas Pophale) SiO2 
 PCOD8126997
Probable space group: P 21/C
;
_chemical_formula_sum "Si O2"
_cell_formula_units_Z 28
_cell_length_a 9.609799
_cell_length_b 13.118776
_cell_length_c 19.657858
_cell_angle_alpha 90.000000
_cell_angle_beta 147.782751
_cell_angle_gamma 90.000000
_cell_volume 1321.227944
_symmetry_space_group_name_H-M "P 21/C"
_symmetry_group_IT_number 14
_symmetry_cell_setting 'monoclinic'
loop_
_space_group_symop_operation_xyz
x,y,z
-x,1/2+y,1/2-z
-x,-y,-z
x,1/2-y,1/2+z
loop_
_atom_site_type_symbol
_atom_site_label
_atom_site_fract_x
_atom_site_fract_y
_atom_site_fract_z
Si Si1 0.810935 0.670448 0.332940
Si Si2 0.523773 0.504780 0.292844
Si Si3 0.281650 0.714197 0.608014
Si Si4 0.644294 0.563162 0.919002
Si Si5 0.790989 0.205591 0.771279
Si Si6 0.129095 0.493028 0.747454
Si Si7 0.903240 0.420646 0.791691
O O1 0.717766 0.596433 0.354854
O O2 0.560384 0.735494 0.203239
O O3 0.946987 0.604327 0.329431
O O4 0.046447 0.743052 0.458310
O O5 0.694513 0.407404 0.382112
O O6 0.337353 0.481086 0.150306
O O7 0.371627 0.534636 0.298253
O O8 0.178289 0.748442 0.639304
O O9 0.517250 0.677364 0.864696
O O10 0.445828 0.492026 0.881117
O O11 0.917167 0.563927 0.068394
O O12 0.957790 0.102638 0.822354
O O13 0.877582 0.300951 0.760203
O O14 0.003459 0.484569 0.769378
#
# Coordination Sequence:
#
# PCOD8126997 Si02
#       7
#     4   4   4   4   4   4   4
#     4  11  23  44  64  94 129 169 209 272 318 371
#     4  10  22  37  63  97 117 162 223 264 312 375
#     4  11  23  40  69  93 126 169 220 266 315 376
#     4   8  20  40  56  91 125 166 213 267 310 364
#     4   9  22  36  60  93 120 166 213 257 324 369
#     4   9  23  42  57  95 133 164 208 267 331 370
#     4  12  20  38  68  88 130 173 214 260 318 395
#
# _framework density 21.192408
#
# number of rings (size 3 to 8) (size 9 to 14) (size 15 to 20)
#    0.857    1.143    2.857    1.286    4.000    3.429 
#    2.571    0.714    0.000    0.000    0.000    0.000 
#    0.000    0.000    0.000    0.000    0.000    0.000 
#
# Total GULP energy -346890.860767 kJ/mol
# GULP energy per Si atom -12388.959313 kJ/mol
# Density = 2.114417 g / cm^3
# Si number density = 21.192408 Si / 1000 Ang^3
#
#
#
# Elastic Constant Matrix: (Units=GPa)
#
#
# Indices 1 2 3 4 5 6 
#
# 1 108.4993 34.4094 24.6863 0.0000 -8.5606 0.0000
# 2 34.4094 59.2240 5.8359 0.0000 -0.8177 0.0000
# 3 24.6863 5.8359 74.3212 0.0000 7.1105 0.0000
# 4 0.0000 0.0000 0.0000 18.5674 0.0000 -2.2090
# 5 -8.5606 -0.8177 7.1105 0.0000 19.5880 0.0000
# 6 0.0000 0.0000 0.0000 -2.2090 0.0000 25.1454
#
#
#
# Elastic Compliance Matrix: (Units=1/GPa)
#
#
# Indices 1 2 3 4 5 6 
#
# 1 0.013006 -0.007023 -0.004439 0.000000 0.007002 0.000000
# 2 -0.007023 0.020838 0.000939 0.000000 -0.002540 0.000000
# 3 -0.004439 0.000939 0.015579 0.000000 -0.007556 0.000000
# 4 0.000000 0.000000 0.000000 0.054427 0.000000 0.004781
# 5 0.007002 -0.002540 -0.007556 0.000000 0.056748 0.000000
# 6 0.000000 0.000000 0.000000 0.004781 0.000000 0.040189
#
#
# Mechanical properties :
#
#
# Convention : Reuss Voigt Hill
#
# Bulk Modulus (GPa) = 35.23765 41.32309 38.28037
# Shear Modulus (GPa) = 21.61797 24.46770 23.04283
#
# Velocity S-wave (km/s) = 3.19734 3.40155 3.30102
# Velocity P-wave (km/s) = 5.50402 5.91344 5.71240
#
# Compressibility (1/GPa) = 0.02837874
#
# Stress axis : x y z
#
# Youngs Moduli (GPa) = 76.88669 47.99030 64.19099
#
# Poissons Ratio (x) = 0.33702 0.28492
# Poissons Ratio (y) = 0.53994 -0.06030
# Poissons Ratio (z) = 0.34127 -0.04508
#
# Static dielectric constant tensor:
#      x y z
#    x 3.489960 0.000000 0.037770 
#    y 0.000000 3.840480 0.000000 
#    z 0.037770 0.000000 3.467500 
# 
# 
# High freq. dielectric constant tensor:
#      x y z
#    x 1.811450 0.000000 0.007750 
#    y 0.000000 1.833060 0.000000 
#    z 0.007750 0.000000 1.801610 
# 
# From -- ./inp_files/67361.got.cif
#   From: 2010.03.12/outbox.cif.g09.slc.cpg/sg14_34_cif.got.tgz:67361.got - 2010.03.31 13:35:05.
