data_PCOD8126065
_publ_section_title
;
Structure prediction by ZEFSAII (Michael W. Deem and Ramdas Pophale) SiO2 
 PCOD8126065
Probable space group: P 21/C
;
_chemical_formula_sum "Si O2"
_cell_formula_units_Z 28
_cell_length_a 14.350692
_cell_length_b 17.679380
_cell_length_c 12.716593
_cell_angle_alpha 90.000000
_cell_angle_beta 29.155952
_cell_angle_gamma 90.000000
_cell_volume 1571.837370
_symmetry_space_group_name_H-M "P 21/C"
_symmetry_group_IT_number 14
_symmetry_cell_setting 'monoclinic'
loop_
_space_group_symop_operation_xyz
x,y,z
-x,1/2+y,1/2-z
-x,-y,-z
x,1/2-y,1/2+z
loop_
_atom_site_type_symbol
_atom_site_label
_atom_site_fract_x
_atom_site_fract_y
_atom_site_fract_z
Si Si1 0.780072 0.712273 0.289685
Si Si2 0.461843 0.005757 0.161556
Si Si3 0.447828 0.729273 0.981266
Si Si4 0.256656 0.869951 0.060586
Si Si5 0.187146 0.776760 0.929471
Si Si6 0.088510 0.427086 0.968213
Si Si7 0.466247 0.660159 0.747305
O O1 0.654842 0.757809 0.328165
O O2 0.656399 0.701753 0.517415
O O3 0.833743 0.628704 0.197906
O O4 0.963410 0.763251 0.132527
O O5 0.627683 0.052018 0.056112
O O6 0.258633 0.046758 0.377682
O O7 0.455734 0.925657 0.223112
O O8 0.500000 0.000000 0.000000
O O9 0.382610 0.808615 0.996952
O O10 0.466325 0.665640 0.873358
O O11 0.290905 0.699882 0.219049
O O12 0.212855 0.845573 0.985010
O O13 0.060087 0.880644 0.315972
O O14 0.278664 0.699915 0.884324
O O15 0.000000 0.500000 0.000000
#
# Coordination Sequence:
#
# PCOD8126065 Si02
#       7
#     4   4   4   4   4   4   4
#     4  11  20  34  57  84 113 148 190 233 283 341
#     4  12  20  37  57  85 118 145 184 240 293 343
#     4  10  21  38  57  82 114 153 193 233 281 341
#     4  11  22  36  57  86 115 151 189 235 290 338
#     4  10  22  37  57  83 117 150 195 236 280 338
#     4  12  21  31  58  85 115 143 180 235 294 336
#     4  10  22  36  58  86 115 149 190 238 291 336
#
# _framework density 17.813547
#
# number of rings (size 3 to 8) (size 9 to 14) (size 15 to 20)
#    0.000    1.143    5.714    1.714    2.000    1.143 
#    0.000    0.714    0.000    1.714    0.000    0.000 
#    0.000    0.000    0.000    0.000    0.000    0.000 
#
# Total GULP energy -347321.433872 kJ/mol
# GULP energy per Si atom -12404.336924 kJ/mol
# Density = 1.777300 g / cm^3
# Si number density = 17.813547 Si / 1000 Ang^3
#
#
#
# Elastic Constant Matrix: (Units=GPa)
#
#
# Indices 1 2 3 4 5 6 
#
# 1 118.3993 48.7338 68.6892 0.0000 -1.3262 0.0000
# 2 48.7338 83.1074 33.6014 0.0000 6.2042 0.0000
# 3 68.6892 33.6014 101.9083 0.0000 -4.2395 0.0000
# 4 0.0000 0.0000 0.0000 28.0413 0.0000 3.7628
# 5 -1.3262 6.2042 -4.2395 0.0000 40.0778 0.0000
# 6 0.0000 0.0000 0.0000 3.7628 0.0000 27.2449
#
#
#
# Elastic Compliance Matrix: (Units=1/GPa)
#
#
# Indices 1 2 3 4 5 6 
#
# 1 0.015970 -0.005836 -0.008819 0.000000 0.000499 0.000000
# 2 -0.005836 0.016301 -0.001561 0.000000 -0.002882 0.000000
# 3 -0.008819 -0.001561 0.016342 0.000000 0.001678 0.000000
# 4 0.000000 0.000000 0.000000 0.036335 0.000000 -0.005018
# 5 0.000499 -0.002882 0.001678 0.000000 0.025592 0.000000
# 6 0.000000 0.000000 0.000000 -0.005018 0.000000 0.037397
#
#
# Mechanical properties :
#
#
# Convention : Reuss Voigt Hill
#
# Bulk Modulus (GPa) = 61.80423 67.27376 64.53899
# Shear Modulus (GPa) = 26.91586 29.23218 28.07402
#
# Velocity S-wave (km/s) = 3.89135 4.05533 3.97418
# Velocity P-wave (km/s) = 7.41353 7.73144 7.57415
#
# Compressibility (1/GPa) = 0.01618012
#
# Stress axis : x y z
#
# Youngs Moduli (GPa) = 62.61564 61.34480 61.19310
#
# Poissons Ratio (x) = 0.35804 0.53968
# Poissons Ratio (y) = 0.36545 0.09551
# Poissons Ratio (z) = 0.55223 0.09575
#
# Static dielectric constant tensor:
#      x y z
#    x 3.477980 0.000000 -0.072410 
#    y 0.000000 3.149580 0.000000 
#    z -0.072410 0.000000 3.595290 
# 
# 
# High freq. dielectric constant tensor:
#      x y z
#    x 1.684860 0.000000 -0.013450 
#    y 0.000000 1.674920 0.000000 
#    z -0.013450 0.000000 1.703280 
# 
# From -- ./inp_files/32894.got.cif
#   From: 2010.03.12/outbox.cif.g09.slc.cpg/sg14_17_cif.got.tgz:32894.got - 2010.03.31 13:35:05.
