data_PCOD8126014
_publ_section_title
;
Structure prediction by ZEFSAII (Michael W. Deem and Ramdas Pophale) SiO2 
 PCOD8126014
Probable space group: P 21/C
;
_chemical_formula_sum "Si O2"
_cell_formula_units_Z 24
_cell_length_a 5.482927
_cell_length_b 9.283818
_cell_length_c 20.056836
_cell_angle_alpha 90.000000
_cell_angle_beta 89.528439
_cell_angle_gamma 90.000000
_cell_volume 1020.908444
_symmetry_space_group_name_H-M "P 21/C"
_symmetry_group_IT_number 14
_symmetry_cell_setting 'monoclinic'
loop_
_space_group_symop_operation_xyz
x,y,z
-x,1/2+y,1/2-z
-x,-y,-z
x,1/2-y,1/2+z
loop_
_atom_site_type_symbol
_atom_site_label
_atom_site_fract_x
_atom_site_fract_y
_atom_site_fract_z
Si Si1 0.490430 0.173811 0.844560
Si Si2 0.239246 0.326898 0.214235
Si Si3 0.253860 0.154882 0.451866
Si Si4 0.565302 0.359898 0.640548
Si Si5 0.154166 0.862185 0.722150
Si Si6 0.244847 0.823659 0.471064
O O1 0.446872 0.133580 0.767283
O O2 0.271885 0.263558 0.880713
O O3 0.731224 0.274606 0.840961
O O4 0.526614 0.019340 0.881824
O O5 0.340509 0.254130 0.146174
O O6 0.099979 0.474925 0.195594
O O7 0.092647 0.209001 0.255354
O O8 0.505193 0.201277 0.488331
O O9 0.004115 0.206140 0.487696
O O10 0.244513 0.983864 0.440626
O O11 0.676736 0.369420 0.713477
O O12 0.758545 0.294306 0.588053
#
# Coordination Sequence:
#
# PCOD8126014 Si02
#       6
#     4   4   4   4   4   4
#     4  10  22  39  59  88 121 157 204 254 308 366
#     4  10  21  37  60  89 121 158 199 250 310 368
#     4  10  23  42  63  90 123 165 210 254 309 370
#     4  10  22  39  59  88 121 157 204 254 308 366
#     4  10  21  37  60  89 121 158 199 250 310 368
#     4  10  23  42  63  90 123 165 210 254 309 370
#
# _framework density 23.508472999999999
#
# number of rings (size 3 to 8) (size 9 to 14) (size 15 to 20)
#    0.000    2.000    0.000    2.000    4.667    5.333 
#    0.000    0.000    0.000    0.000    0.000    0.000 
#    0.000    0.000    0.000    0.000    0.000    0.000 
#
# Total GULP energy -297381.500919 kJ/mol
# GULP energy per Si atom -12390.895872 kJ/mol
# Density = 2.345497 g / cm^3
# Si number density = 23.508473 Si / 1000 Ang^3
#
#
#
# Elastic Constant Matrix: (Units=GPa)
#
#
# Indices 1 2 3 4 5 6 
#
# 1 80.4520 6.6750 23.5161 0.0000 -23.1435 0.0000
# 2 6.6750 110.9604 32.8913 0.0000 -4.9605 0.0000
# 3 23.5161 32.8913 88.8546 0.0000 -29.4486 0.0000
# 4 0.0000 0.0000 0.0000 37.5180 0.0000 -13.3331
# 5 -23.1435 -4.9605 -29.4486 0.0000 27.4885 0.0000
# 6 0.0000 0.0000 0.0000 -13.3331 0.0000 26.7694
#
#
#
# Elastic Compliance Matrix: (Units=1/GPa)
#
#
# Indices 1 2 3 4 5 6 
#
# 1 0.016437 -0.000529 0.000621 0.000000 0.014409 0.000000
# 2 -0.000529 0.010348 -0.004992 0.000000 -0.003925 0.000000
# 3 0.000621 -0.004992 0.019866 0.000000 0.020905 0.000000
# 4 0.000000 0.000000 0.000000 0.032386 0.000000 0.016131
# 5 0.014409 -0.003925 0.020905 0.000000 0.070197 0.000000
# 6 0.000000 0.000000 0.000000 0.016131 0.000000 0.045390
#
#
# Mechanical properties :
#
#
# Convention : Reuss Voigt Hill
#
# Bulk Modulus (GPa) = 27.13516 45.15910 36.14713
# Shear Modulus (GPa) = 23.07251 32.83414 27.95333
#
# Velocity S-wave (km/s) = 3.13622 3.74129 3.45204
# Velocity P-wave (km/s) = 4.96812 6.15747 5.59449
#
# Compressibility (1/GPa) = 0.03685256
#
# Stress axis : x y z
#
# Youngs Moduli (GPa) = 60.83813 96.63544 50.33702
#
# Poissons Ratio (x) = 0.05109 -0.03125
# Poissons Ratio (y) = 0.03216 0.25126
# Poissons Ratio (z) = -0.03777 0.48236
#
# Static dielectric constant tensor:
#      x y z
#    x 4.027520 0.000000 -0.164590 
#    y 0.000000 4.740740 0.000000 
#    z -0.164590 0.000000 4.100320 
# 
# 
# High freq. dielectric constant tensor:
#      x y z
#    x 1.910190 0.000000 -0.020400 
#    y 0.000000 1.943610 0.000000 
#    z -0.020400 0.000000 1.921290 
# 
# From -- ./inp_files/70968.got.cif
#   From: 2010.03.12/outbox.cif.g09.slc.cpg/sg14_36_cif.got.tgz:70968.got - 2010.03.31 13:35:05.
