data_PCOD8126731
_publ_section_title
;
Structure prediction by ZEFSAII (Michael W. Deem and Ramdas Pophale) SiO2 
 PCOD8126731
Probable space group: P 21/C
;
_chemical_formula_sum "Si O2"
_cell_formula_units_Z 28
_cell_length_a 6.651628
_cell_length_b 14.261050
_cell_length_c 15.968098
_cell_angle_alpha 90.000000
_cell_angle_beta 59.416801
_cell_angle_gamma 90.000000
_cell_volume 1304.010061
_symmetry_space_group_name_H-M "P 21/C"
_symmetry_group_IT_number 14
_symmetry_cell_setting 'monoclinic'
loop_
_space_group_symop_operation_xyz
x,y,z
-x,1/2+y,1/2-z
-x,-y,-z
x,1/2-y,1/2+z
loop_
_atom_site_type_symbol
_atom_site_label
_atom_site_fract_x
_atom_site_fract_y
_atom_site_fract_z
Si Si1 0.840876 0.483351 0.854608
Si Si2 0.608342 0.092504 0.557809
Si Si3 0.932748 0.328008 0.702819
Si Si4 0.439135 0.281494 0.543653
Si Si5 0.252946 0.627680 0.789252
Si Si6 0.820546 0.391835 0.547164
Si Si7 0.329375 0.405241 0.412689
O O1 0.597999 0.522945 0.869330
O O2 0.896820 0.388005 0.793607
O O3 0.052601 0.556864 0.799962
O O4 0.804127 0.459095 0.960416
O O5 0.480637 0.170407 0.525886
O O6 0.738898 0.131602 0.611942
O O7 0.787227 0.231935 0.737420
O O8 0.864061 0.391230 0.637534
O O9 0.202041 0.300309 0.642439
O O10 0.649901 0.309790 0.558912
O O11 0.449276 0.335851 0.453928
O O12 0.504688 0.592827 0.703000
O O13 0.703273 0.489814 0.543559
O O14 0.065667 0.372117 0.446538
#
# Coordination Sequence:
#
# PCOD8126731 Si02
#       7
#     4   4   4   4   4   4   4
#     4  11  25  44  66  96 132 174 222 267 328 389
#     4  11  24  44  66  93 135 176 216 274 319 397
#     4  11  23  41  67  98 133 172 216 274 324 389
#     4  11  21  42  65  94 131 173 211 265 332 383
#     4  12  23  44  65  99 129 171 222 269 328 388
#     4  10  21  42  62  94 133 163 215 266 325 386
#     4  10  23  37  65  96 125 170 213 272 320 388
#
# _framework density 21.472228999999999
#
# number of rings (size 3 to 8) (size 9 to 14) (size 15 to 20)
#    0.000    1.143    2.857    3.429    0.000    3.429 
#    2.571    0.000    0.000    0.000    0.000    0.000 
#    0.000    0.000    0.000    0.000    0.000    0.000 
#
# Total GULP energy -347233.436635 kJ/mol
# GULP energy per Si atom -12401.194166 kJ/mol
# Density = 2.142336 g / cm^3
# Si number density = 21.472229 Si / 1000 Ang^3
#
#
#
# Elastic Constant Matrix: (Units=GPa)
#
#
# Indices 1 2 3 4 5 6 
#
# 1 69.2193 28.3393 30.6903 0.0000 -6.0499 0.0000
# 2 28.3393 105.6742 21.4086 0.0000 1.5188 0.0000
# 3 30.6903 21.4086 87.3858 0.0000 -13.0451 0.0000
# 4 0.0000 0.0000 0.0000 35.1747 0.0000 3.1530
# 5 -6.0499 1.5188 -13.0451 0.0000 29.7219 0.0000
# 6 0.0000 0.0000 0.0000 3.1530 0.0000 35.9851
#
#
#
# Elastic Compliance Matrix: (Units=1/GPa)
#
#
# Indices 1 2 3 4 5 6 
#
# 1 0.018550 -0.003923 -0.005308 0.000000 0.001647 0.000000
# 2 -0.003923 0.010867 -0.001591 0.000000 -0.002052 0.000000
# 3 -0.005308 -0.001591 0.014498 0.000000 0.005364 0.000000
# 4 0.000000 0.000000 0.000000 0.028655 0.000000 -0.002511
# 5 0.001647 -0.002052 0.005364 0.000000 0.036440 0.000000
# 6 0.000000 0.000000 0.000000 -0.002511 0.000000 0.028009
#
#
# Mechanical properties :
#
#
# Convention : Reuss Voigt Hill
#
# Bulk Modulus (GPa) = 44.90018 47.01732 45.95875
# Shear Modulus (GPa) = 30.10476 32.29908 31.20192
#
# Velocity S-wave (km/s) = 3.74843 3.88264 3.81613
# Velocity P-wave (km/s) = 6.30004 6.48415 6.39276
#
# Compressibility (1/GPa) = 0.02227163
#
# Stress axis : x y z
#
# Youngs Moduli (GPa) = 53.90724 92.02260 68.97400
#
# Poissons Ratio (x) = 0.36101 0.36612
# Poissons Ratio (y) = 0.21148 0.10972
# Poissons Ratio (z) = 0.28614 0.14639
#
# Static dielectric constant tensor:
#      x y z
#    x 3.748110 0.000000 -0.228150 
#    y 0.000000 3.923080 0.000000 
#    z -0.228150 0.000000 3.727310 
# 
# 
# High freq. dielectric constant tensor:
#      x y z
#    x 1.838810 0.000000 -0.016050 
#    y 0.000000 1.855370 0.000000 
#    z -0.016050 0.000000 1.839850 
# 
# From -- ./inp_files/53410.got.cif
#   From: 2010.03.12/outbox.cif.g09.slc.cpg/sg14_27_cif.got.tgz:53410.got - 2010.03.31 13:35:05.
