data_PCOD8126721
_publ_section_title
;
Structure prediction by ZEFSAII (Michael W. Deem and Ramdas Pophale) SiO2 
 PCOD8126721
Probable space group: P 21/C
;
_chemical_formula_sum "Si O2"
_cell_formula_units_Z 28
_cell_length_a 20.076527
_cell_length_b 5.068053
_cell_length_c 21.774187
_cell_angle_alpha 90.000000
_cell_angle_beta 36.087638
_cell_angle_gamma 90.000000
_cell_volume 1304.978058
_symmetry_space_group_name_H-M "P 21/C"
_symmetry_group_IT_number 14
_symmetry_cell_setting 'monoclinic'
loop_
_space_group_symop_operation_xyz
x,y,z
-x,1/2+y,1/2-z
-x,-y,-z
x,1/2-y,1/2+z
loop_
_atom_site_type_symbol
_atom_site_label
_atom_site_fract_x
_atom_site_fract_y
_atom_site_fract_z
Si Si1 0.579331 0.102836 0.619537
Si Si2 0.763350 0.972659 0.820095
Si Si3 0.108807 0.086666 0.030171
Si Si4 0.383598 0.544995 0.051870
Si Si5 0.018664 0.420777 0.916544
Si Si6 0.075324 0.510035 0.689665
Si Si7 0.646981 0.897285 0.142870
O O1 0.446424 0.097956 0.734298
O O2 0.641935 0.858114 0.603738
O O3 0.592142 0.105654 0.537119
O O4 0.636421 0.359589 0.604830
O O5 0.675535 0.205905 0.870720
O O6 0.832647 0.073825 0.827546
O O7 0.697434 0.705330 0.882651
O O8 0.848733 0.925088 0.699515
O O9 0.234415 0.098829 0.907504
O O10 0.047433 0.369393 0.076036
O O11 0.030073 0.872353 0.055934
O O12 0.137461 0.020205 0.078941
O O13 0.500000 0.500000 0.000000
O O14 0.000000 0.500000 0.000000
O O15 0.012671 0.243878 0.754965
#
# Coordination Sequence:
#
# PCOD8126721 Si02
#       7
#     4   4   4   4   4   4   4
#     4  10  21  42  61  97 125 164 210 269 323 372
#     4  12  25  45  66  96 131 168 213 281 323 378
#     4  12  22  42  65  98 126 169 213 260 329 392
#     4  12  26  43  68  92 129 174 223 262 320 386
#     4  12  27  44  63  91 133 173 215 259 319 398
#     4  12  21  38  67  98 131 161 207 267 325 388
#     4  10  22  38  68  92 129 161 207 269 327 379
#
# _framework density 21.456299999999999
#
# number of rings (size 3 to 8) (size 9 to 14) (size 15 to 20)
#    0.000    0.571    2.857    6.000    0.000    2.286 
#    0.000    0.000    0.000    0.000    0.000    0.000 
#    0.000    0.000    0.000    0.000    0.000    0.000 
#
# Total GULP energy -347330.073306 kJ/mol
# GULP energy per Si atom -12404.645475 kJ/mol
# Density = 2.140746 g / cm^3
# Si number density = 21.456300 Si / 1000 Ang^3
#
#
#
# Elastic Constant Matrix: (Units=GPa)
#
#
# Indices 1 2 3 4 5 6 
#
# 1 57.5596 4.7798 43.1014 0.0000 -4.1439 0.0000
# 2 4.7798 135.6714 30.4127 0.0000 -20.4388 0.0000
# 3 43.1014 30.4127 131.4020 0.0000 -14.3173 0.0000
# 4 0.0000 0.0000 0.0000 40.5183 0.0000 -9.3895
# 5 -4.1439 -20.4388 -14.3173 0.0000 39.7900 0.0000
# 6 0.0000 0.0000 0.0000 -9.3895 0.0000 21.4460
#
#
#
# Elastic Compliance Matrix: (Units=1/GPa)
#
#
# Indices 1 2 3 4 5 6 
#
# 1 0.023142 0.000947 -0.007800 0.000000 0.000090 0.000000
# 2 0.000947 0.008306 -0.001829 0.000000 0.003707 0.000000
# 3 -0.007800 -0.001829 0.010826 0.000000 0.002143 0.000000
# 4 0.000000 0.000000 0.000000 0.027467 0.000000 0.012025
# 5 0.000090 0.003707 0.002143 0.000000 0.027817 0.000000
# 6 0.000000 0.000000 0.000000 0.012025 0.000000 0.051894
#
#
# Mechanical properties :
#
#
# Convention : Reuss Voigt Hill
#
# Bulk Modulus (GPa) = 40.14683 53.46900 46.80791
# Shear Modulus (GPa) = 28.55210 36.77349 32.66280
#
# Velocity S-wave (km/s) = 3.65185 4.14439 3.90589
# Velocity P-wave (km/s) = 6.04425 6.91920 6.49647
#
# Compressibility (1/GPa) = 0.02490857
#
# Stress axis : x y z
#
# Youngs Moduli (GPa) = 43.21144 120.39728 92.37312
#
# Poissons Ratio (x) = -0.11398 0.72053
# Poissons Ratio (y) = -0.04091 0.16895
# Poissons Ratio (z) = 0.33706 0.22021
#
# Static dielectric constant tensor:
#      x y z
#    x 3.726250 0.000000 -0.149060 
#    y 0.000000 4.178150 0.000000 
#    z -0.149060 0.000000 4.269300 
# 
# 
# High freq. dielectric constant tensor:
#      x y z
#    x 1.826610 0.000000 -0.008410 
#    y 0.000000 1.862500 0.000000 
#    z -0.008410 0.000000 1.862980 
# 
# From -- ./inp_files/68941.got.cif
#   From: 2010.03.12/outbox.cif.g09.slc.cpg/sg14_35_cif.got.tgz:68941.got - 2010.03.31 13:35:05.
