data_PCOD8126548
_publ_section_title
;
Structure prediction by ZEFSAII (Michael W. Deem and Ramdas Pophale) SiO2 
 PCOD8126548
Probable space group: P 21/C
;
_chemical_formula_sum "Si O2"
_cell_formula_units_Z 32
_cell_length_a 15.356799
_cell_length_b 16.910514
_cell_length_c 12.211716
_cell_angle_alpha 90.000000
_cell_angle_beta 153.563878
_cell_angle_gamma 90.000000
_cell_volume 1411.851940
_symmetry_space_group_name_H-M "P 21/C"
_symmetry_group_IT_number 14
_symmetry_cell_setting 'monoclinic'
loop_
_space_group_symop_operation_xyz
x,y,z
-x,1/2+y,1/2-z
-x,-y,-z
x,1/2-y,1/2+z
loop_
_atom_site_type_symbol
_atom_site_label
_atom_site_fract_x
_atom_site_fract_y
_atom_site_fract_z
Si Si1 0.424498 0.171270 0.378882
Si Si2 0.984719 0.952735 0.250272
Si Si3 0.349549 0.936022 0.788180
Si Si4 0.442299 0.400562 0.125349
Si Si5 0.959562 0.325052 0.362367
Si Si6 0.344582 0.805657 0.953219
Si Si7 0.999883 0.432164 0.590187
Si Si8 0.567036 0.575273 0.324786
O O1 0.504848 0.120607 0.571710
O O2 0.523541 0.256265 0.482778
O O3 0.497571 0.125571 0.352761
O O4 0.192938 0.185583 0.124741
O O5 0.151729 0.978914 0.523239
O O6 0.089138 0.888306 0.287832
O O7 0.900690 0.028944 0.086438
O O8 0.800697 0.915545 0.106023
O O9 0.278300 0.879969 0.805933
O O10 0.457746 0.891327 0.809078
O O11 0.500000 0.000000 0.000000
O O12 0.526266 0.332015 0.297995
O O13 0.520043 0.484066 0.252618
O O14 0.209293 0.402896 0.868139
O O15 0.845370 0.242686 0.216779
O O16 0.894108 0.358513 0.409933
O O17 0.000000 0.500000 0.500000
#
# Coordination Sequence:
#
# PCOD8126548 Si02
#       8
#     4   4   4   4   4   4   4   4
#     4  10  25  43  72 100 134 175 231 296 344 410
#     4  10  21  40  70  98 130 175 226 293 350 404
#     4  12  25  46  64  97 143 188 230 280 346 431
#     4  11  23  45  68 104 136 178 236 290 355 417
#     4   9  22  43  63 101 133 172 230 286 349 408
#     4  12  26  43  68  98 143 191 222 283 360 428
#     4   9  18  39  71  99 130 168 229 298 337 407
#     4  11  23  44  72 100 133 175 238 289 346 415
#
# _framework density 22.665265000000002
#
# number of rings (size 3 to 8) (size 9 to 14) (size 15 to 20)
#    0.000    1.500    2.500    1.875    7.000    1.500 
#   11.250    0.000    0.000    0.000    0.000    0.000 
#    0.000    0.000    0.000    0.000    0.000    0.000 
#
# Total GULP energy -396621.904430 kJ/mol
# GULP energy per Si atom -12394.434513 kJ/mol
# Density = 2.261368 g / cm^3
# Si number density = 22.665265 Si / 1000 Ang^3
#
#
#
# Elastic Constant Matrix: (Units=GPa)
#
#
# Indices 1 2 3 4 5 6 
#
# 1 71.9077 -0.1207 13.3397 0.0000 -12.6530 0.0000
# 2 -0.1207 77.0054 22.9153 0.0000 -8.7161 0.0000
# 3 13.3397 22.9153 97.9483 0.0000 -24.9966 0.0000
# 4 0.0000 0.0000 0.0000 40.8974 0.0000 1.7450
# 5 -12.6530 -8.7161 -24.9966 0.0000 22.0102 0.0000
# 6 0.0000 0.0000 0.0000 1.7450 0.0000 31.9728
#
#
#
# Elastic Compliance Matrix: (Units=1/GPa)
#
#
# Indices 1 2 3 4 5 6 
#
# 1 0.015558 0.001080 0.000028 0.000000 0.009404 0.000000
# 2 0.001080 0.014136 -0.002629 0.000000 0.003233 0.000000
# 3 0.000028 -0.002629 0.014868 0.000000 0.015861 0.000000
# 4 0.000000 0.000000 0.000000 0.024508 0.000000 -0.001338
# 5 0.009404 0.003233 0.015861 0.000000 0.070132 0.000000
# 6 0.000000 0.000000 0.000000 -0.001338 0.000000 0.031350
#
#
# Mechanical properties :
#
#
# Convention : Reuss Voigt Hill
#
# Bulk Modulus (GPa) = 24.08406 35.45891 29.77149
# Shear Modulus (GPa) = 26.67594 33.02456 29.85025
#
# Velocity S-wave (km/s) = 3.43440 3.82128 3.63299
# Velocity P-wave (km/s) = 5.13574 5.92859 5.54635
#
# Compressibility (1/GPa) = 0.04152123
#
# Stress axis : x y z
#
# Youngs Moduli (GPa) = 64.27568 70.74057 67.25645
#
# Poissons Ratio (x) = -0.07643 -0.00190
# Poissons Ratio (y) = -0.06944 0.17684
# Poissons Ratio (z) = -0.00181 0.18600
#
# Static dielectric constant tensor:
#      x y z
#    x 4.095100 0.000000 0.064310 
#    y 0.000000 3.923250 0.000000 
#    z 0.064310 0.000000 3.826330 
# 
# 
# High freq. dielectric constant tensor:
#      x y z
#    x 1.889270 0.000000 -0.002510 
#    y 0.000000 1.872220 0.000000 
#    z -0.002510 0.000000 1.911690 
# 
# From -- ./inp_files/33076.got.cif
#   From: 2010.03.12/outbox.cif.g09.slc.cpg/sg14_17_cif.got.tgz:33076.got - 2010.03.31 13:35:05.
