data_PCOD8126088
_publ_section_title
;
Structure prediction by ZEFSAII (Michael W. Deem and Ramdas Pophale) SiO2 
 PCOD8126088
Probable space group: P 21/C
;
_chemical_formula_sum "Si O2"
_cell_formula_units_Z 32
_cell_length_a 9.044455
_cell_length_b 9.308153
_cell_length_c 23.482406
_cell_angle_alpha 90.000000
_cell_angle_beta 125.473955
_cell_angle_gamma 90.000000
_cell_volume 1609.960757
_symmetry_space_group_name_H-M "P 21/C"
_symmetry_group_IT_number 14
_symmetry_cell_setting 'monoclinic'
loop_
_space_group_symop_operation_xyz
x,y,z
-x,1/2+y,1/2-z
-x,-y,-z
x,1/2-y,1/2+z
loop_
_atom_site_type_symbol
_atom_site_label
_atom_site_fract_x
_atom_site_fract_y
_atom_site_fract_z
Si Si1 0.895723 0.570152 0.797049
Si Si2 0.613226 0.930065 0.475861
Si Si3 0.515549 0.057532 0.824035
Si Si4 0.990164 0.048095 0.432404
Si Si5 0.384398 0.646304 0.126216
Si Si6 0.309907 0.540073 0.751268
Si Si7 0.402337 0.709163 0.358280
Si Si8 0.016956 0.630207 0.279069
O O1 0.679799 0.560759 0.749405
O O2 0.963285 0.577778 0.878152
O O3 0.985357 0.428789 0.786905
O O4 0.950182 0.706935 0.771089
O O5 0.632314 0.054991 0.434205
O O6 0.500000 0.000000 0.500000
O O7 0.508047 0.790701 0.431111
O O8 0.815882 0.878944 0.539386
O O9 0.667533 0.077307 0.809659
O O10 0.540439 0.908257 0.863240
O O11 0.550921 0.192116 0.874099
O O12 0.813312 0.149898 0.386597
O O13 0.000000 0.000000 0.500000
O O14 0.538230 0.578430 0.200555
O O15 0.332402 0.681980 0.794227
O O16 0.108485 0.474888 0.711949
O O17 0.228176 0.626674 0.346375
#
# Coordination Sequence:
#
# PCOD8126088 Si02
#       8
#     4   4   4   4   4   4   4   4
#     4  11  22  37  61  93 128 155 204 262 321 375
#     4  10  22  41  66  85 118 170 216 248 289 371
#     4  11  22  36  62  92 127 151 190 272 323 362
#     4  10  22  39  61  87 121 171 216 248 287 375
#     4  10  21  38  59  93 119 156 205 248 314 365
#     4  11  20  35  58  89 123 158 192 239 321 390
#     4  10  23  39  55  92 124 155 207 252 313 372
#     4  11  22  35  58  92 128 155 195 259 329 375
#
# _framework density 19.876261
#
# number of rings (size 3 to 8) (size 9 to 14) (size 15 to 20)
#    0.000    1.500    3.750    1.500    3.500    0.000 
#    0.000    2.500    0.000    3.000    0.000    0.000 
#    0.000    0.000    0.000    0.000    0.000    0.000 
#
# Total GULP energy -396527.444748 kJ/mol
# GULP energy per Si atom -12391.482648 kJ/mol
# Density = 1.983102 g / cm^3
# Si number density = 19.876261 Si / 1000 Ang^3
#
#
#
# Elastic Constant Matrix: (Units=GPa)
#
#
# Indices 1 2 3 4 5 6 
#
# 1 119.3092 26.8481 27.9119 0.0000 14.0573 0.0000
# 2 26.8481 111.4627 31.3419 0.0000 3.6443 0.0000
# 3 27.9119 31.3419 56.9379 0.0000 1.7939 0.0000
# 4 0.0000 0.0000 0.0000 15.6738 0.0000 5.6497
# 5 14.0573 3.6443 1.7939 0.0000 27.2936 0.0000
# 6 0.0000 0.0000 0.0000 5.6497 0.0000 34.5652
#
#
#
# Elastic Compliance Matrix: (Units=1/GPa)
#
#
# Indices 1 2 3 4 5 6 
#
# 1 0.010189 -0.001106 -0.004234 0.000000 -0.004822 0.000000
# 2 -0.001106 0.010764 -0.005367 0.000000 -0.000515 0.000000
# 3 -0.004234 -0.005367 0.022548 0.000000 0.001415 0.000000
# 4 0.000000 0.000000 0.000000 0.067795 0.000000 -0.011081
# 5 -0.004822 -0.000515 0.001415 0.000000 0.039098 0.000000
# 6 0.000000 0.000000 0.000000 -0.011081 0.000000 0.030742
#
#
# Mechanical properties :
#
#
# Convention : Reuss Voigt Hill
#
# Bulk Modulus (GPa) = 45.27436 51.10151 48.18793
# Shear Modulus (GPa) = 23.81944 28.94703 26.38324
#
# Velocity S-wave (km/s) = 3.46553 3.82037 3.64727
# Velocity P-wave (km/s) = 6.23223 6.72502 6.48331
#
# Compressibility (1/GPa) = 0.02208756
#
# Stress axis : x y z
#
# Youngs Moduli (GPa) = 98.14359 92.90323 44.34947
#
# Poissons Ratio (x) = 0.10275 0.18778
# Poissons Ratio (y) = 0.10855 0.23801
# Poissons Ratio (z) = 0.41556 0.49858
#
# Static dielectric constant tensor:
#      x y z
#    x 3.341640 0.000000 0.209940 
#    y 0.000000 3.656410 0.000000 
#    z 0.209940 0.000000 3.444680 
# 
# 
# High freq. dielectric constant tensor:
#      x y z
#    x 1.801560 0.000000 0.007590 
#    y 0.000000 1.762380 0.000000 
#    z 0.007590 0.000000 1.744890 
# 
# From -- ./inp_files/72082.got.cif
#   From: 2010.03.12/outbox.cif.g09.slc.cpg/sg14_37_cif.got.tgz:72082.got - 2010.03.31 13:35:05.
