data_PCOD8126150
_publ_section_title
;
Structure prediction by ZEFSAII (Michael W. Deem and Ramdas Pophale) SiO2 
 PCOD8126150
Probable space group: P 21/C
;
_chemical_formula_sum "Si O2"
_cell_formula_units_Z 32
_cell_length_a 13.910790
_cell_length_b 7.633031
_cell_length_c 33.830652
_cell_angle_alpha 90.000000
_cell_angle_beta 155.438420
_cell_angle_gamma 90.000000
_cell_volume 1493.168847
_symmetry_space_group_name_H-M "P 21/C"
_symmetry_group_IT_number 14
_symmetry_cell_setting 'monoclinic'
loop_
_space_group_symop_operation_xyz
x,y,z
-x,1/2+y,1/2-z
-x,-y,-z
x,1/2-y,1/2+z
loop_
_atom_site_type_symbol
_atom_site_label
_atom_site_fract_x
_atom_site_fract_y
_atom_site_fract_z
Si Si1 0.263573 0.155437 0.130149
Si Si2 0.861474 0.173193 0.242012
Si Si3 0.573821 0.711744 0.951475
Si Si4 0.062406 0.974758 0.384082
Si Si5 0.237816 0.978609 0.657948
Si Si6 0.928769 0.859551 0.027367
Si Si7 0.254344 0.389775 0.360660
Si Si8 0.685719 0.189929 0.065208
O O1 0.512062 0.090009 0.236901
O O2 0.243247 0.364488 0.128515
O O3 0.078416 0.038220 0.085589
O O4 0.229499 0.127996 0.070798
O O5 0.645383 0.309703 0.160481
O O6 0.957975 0.143348 0.321880
O O7 0.068413 0.234190 0.290553
O O8 0.759120 0.993476 0.185462
O O9 0.474092 0.765137 0.956764
O O10 0.700313 0.526600 0.004868
O O11 0.760010 0.848990 0.002473
O O12 0.873497 0.923778 0.345605
O O13 0.113265 0.826076 0.370585
O O14 0.089975 0.814568 0.586315
O O15 0.192820 0.508398 0.376727
O O16 0.517204 0.321952 0.464193
#
# Coordination Sequence:
#
# PCOD8126150 Si02
#       8
#     4   4   4   4   4   4   4   4
#     4  11  22  43  71  93 131 167 209 274 332 375
#     4  11  21  37  58  86 123 164 213 259 303 370
#     4  10  21  38  63  90 125 169 206 256 316 377
#     4  11  23  40  62  90 129 164 210 258 314 378
#     4  11  23  42  67 100 124 167 217 262 325 399
#     4  10  23  42  68  96 129 168 211 268 326 387
#     4  10  22  34  59  84 118 173 218 249 305 358
#     4  10  21  40  59  86 127 171 206 258 307 371
#
# _framework density 21.430933
#
# number of rings (size 3 to 8) (size 9 to 14) (size 15 to 20)
#    0.000    1.500    2.500    3.000    1.750    3.000 
#    0.000    0.000    0.000    0.000    0.000    0.000 
#    0.000    0.000    0.000    0.000    0.000    0.000 
#
# Total GULP energy -396541.387723 kJ/mol
# GULP energy per Si atom -12391.918366 kJ/mol
# Density = 2.138215 g / cm^3
# Si number density = 21.430933 Si / 1000 Ang^3
#
#
#
# Elastic Constant Matrix: (Units=GPa)
#
#
# Indices 1 2 3 4 5 6 
#
# 1 60.2543 0.3586 -0.1575 0.0000 1.9631 0.0000
# 2 0.3586 65.6016 15.1073 0.0000 -2.2749 0.0001
# 3 -0.1575 15.1073 92.3357 0.0003 -2.6032 0.0004
# 4 0.0000 0.0000 0.0003 36.2602 0.0000 0.5163
# 5 1.9631 -2.2749 -2.6032 0.0000 16.5476 0.0000
# 6 0.0000 0.0001 0.0004 0.5163 0.0000 33.5903
#
#
#
# Elastic Compliance Matrix: (Units=1/GPa)
#
#
# Indices 1 2 3 4 5 6 
#
# 1 0.016662 -0.000160 -0.000002 0.000000 -0.001999 0.000000
# 2 -0.000160 0.015894 -0.002550 0.000000 0.001803 0.000000
# 3 -0.000002 -0.002550 0.011287 0.000000 0.001425 0.000000
# 4 0.000000 0.000000 0.000000 0.027584 0.000000 -0.000424
# 5 -0.001999 0.001803 0.001425 0.000000 0.061141 0.000000
# 6 0.000000 0.000000 0.000000 -0.000424 0.000000 0.029777
#
#
# Mechanical properties :
#
#
# Convention : Reuss Voigt Hill
#
# Bulk Modulus (GPa) = 26.02769 27.64537 26.83653
# Shear Modulus (GPa) = 27.68909 30.80517 29.24713
#
# Velocity S-wave (km/s) = 3.59836 3.79544 3.69821
# Velocity P-wave (km/s) = 5.42545 5.66877 5.54844
#
# Compressibility (1/GPa) = 0.03842061
#
# Stress axis : x y z
#
# Youngs Moduli (GPa) = 60.01531 62.91626 88.59412
#
# Poissons Ratio (x) = 0.01007 0.00016
# Poissons Ratio (y) = 0.00960 0.22591
# Poissons Ratio (z) = 0.00011 0.16043
#
# Static dielectric constant tensor:
#      x y z
#    x 3.608080 0.000000 0.044100 
#    y 0.000000 3.844530 0.000000 
#    z 0.044100 0.000000 4.261800 
# 
# 
# High freq. dielectric constant tensor:
#      x y z
#    x 1.817660 0.000000 -0.001220 
#    y 0.000000 1.828290 0.000000 
#    z -0.001220 0.000000 1.862740 
# 
# From -- ./inp_files/80034.got.cif
#   From: 2010.03.12/outbox.cif.g09.slc.cpg/sg14_41_cif.got.tgz:80034.got - 2010.03.31 13:35:05.
