data_PCOD8126316
_publ_section_title
;
Structure prediction by ZEFSAII (Michael W. Deem and Ramdas Pophale) SiO2 
 PCOD8126316
Probable space group: P 21/C
;
_chemical_formula_sum "Si O2"
_cell_formula_units_Z 28
_cell_length_a 12.987079
_cell_length_b 13.640833
_cell_length_c 8.913354
_cell_angle_alpha 90.000000
_cell_angle_beta 55.122445
_cell_angle_gamma 90.000000
_cell_volume 1295.407619
_symmetry_space_group_name_H-M "P 21/C"
_symmetry_group_IT_number 14
_symmetry_cell_setting 'monoclinic'
loop_
_space_group_symop_operation_xyz
x,y,z
-x,1/2+y,1/2-z
-x,-y,-z
x,1/2-y,1/2+z
loop_
_atom_site_type_symbol
_atom_site_label
_atom_site_fract_x
_atom_site_fract_y
_atom_site_fract_z
Si Si1 0.900868 0.867876 0.637912
Si Si2 0.612847 0.341929 0.468673
Si Si3 0.521340 0.703489 0.713147
Si Si4 0.304021 0.021448 0.571813
Si Si5 0.430202 0.987742 0.749935
Si Si6 0.820801 0.076604 0.601016
Si Si7 0.214136 0.215734 0.550056
O O1 0.832594 0.813123 0.830055
O O2 0.881844 0.805130 0.504086
O O3 0.048143 0.873736 0.550618
O O4 0.840663 0.975441 0.674526
O O5 0.598211 0.259833 0.611278
O O6 0.503401 0.319056 0.441030
O O7 0.600811 0.448026 0.558930
O O8 0.744815 0.346927 0.269832
O O9 0.542892 0.602557 0.779065
O O10 0.646562 0.767352 0.629971
O O11 0.441796 0.063337 0.412420
O O12 0.214630 0.117567 0.653789
O O13 0.316094 0.968871 0.725310
O O14 0.255664 0.943479 0.488626
#
# Coordination Sequence:
#
# PCOD8126316 Si02
#       7
#     4   4   4   4   4   4   4
#     4  10  23  42  68  90 124 176 228 267 313 389
#     4  12  25  39  63  96 136 169 211 270 339 391
#     4  12  24  37  64 101 129 170 217 266 336 399
#     4  10  21  39  64  94 134 166 214 267 322 394
#     4  11  22  39  63  97 136 171 200 270 337 388
#     4  10  23  44  63  93 131 175 217 269 330 384
#     4  11  21  40  66  94 124 167 226 268 311 396
#
# _framework density 21.614818
#
# number of rings (size 3 to 8) (size 9 to 14) (size 15 to 20)
#    0.000    1.143    2.857    3.857    4.000    1.143 
#    0.000    1.429    0.000    6.000    0.000    0.000 
#    0.000    0.000    0.000    0.000    0.000    0.000 
#
# Total GULP energy -347131.087917 kJ/mol
# GULP energy per Si atom -12397.538854 kJ/mol
# Density = 2.156562 g / cm^3
# Si number density = 21.614818 Si / 1000 Ang^3
#
#
#
# Elastic Constant Matrix: (Units=GPa)
#
#
# Indices 1 2 3 4 5 6 
#
# 1 119.0804 35.4082 48.0969 0.0000 7.3496 0.0000
# 2 35.4082 90.6511 46.3259 0.0000 2.0273 0.0000
# 3 48.0969 46.3259 91.8543 0.0000 5.9422 0.0000
# 4 0.0000 0.0000 0.0000 45.7866 0.0000 0.5616
# 5 7.3496 2.0273 5.9422 0.0000 27.3511 0.0000
# 6 0.0000 0.0000 0.0000 0.5616 0.0000 27.3006
#
#
#
# Elastic Compliance Matrix: (Units=1/GPa)
#
#
# Indices 1 2 3 4 5 6 
#
# 1 0.010949 -0.001840 -0.004690 0.000000 -0.001787 0.000000
# 2 -0.001840 0.015179 -0.006746 0.000000 0.000835 0.000000
# 3 -0.004690 -0.006746 0.016868 0.000000 -0.001904 0.000000
# 4 0.000000 0.000000 0.000000 0.021846 0.000000 -0.000449
# 5 -0.001787 0.000835 -0.001904 0.000000 0.037394 0.000000
# 6 0.000000 0.000000 0.000000 -0.000449 0.000000 0.036638
#
#
# Mechanical properties :
#
#
# Convention : Reuss Voigt Hill
#
# Bulk Modulus (GPa) = 60.80986 62.36085 61.58536
# Shear Modulus (GPa) = 29.25581 31.53800 30.39691
#
# Velocity S-wave (km/s) = 3.68300 3.82395 3.75413
# Velocity P-wave (km/s) = 6.80297 6.95776 6.88080
#
# Compressibility (1/GPa) = 0.01644470
#
# Stress axis : x y z
#
# Youngs Moduli (GPa) = 91.32994 65.88175 59.28510
#
# Poissons Ratio (x) = 0.12124 0.27802
# Poissons Ratio (y) = 0.16807 0.39992
# Poissons Ratio (z) = 0.42830 0.44441
#
# Static dielectric constant tensor:
#      x y z
#    x 3.984820 0.000000 0.165650 
#    y 0.000000 3.885150 0.000000 
#    z 0.165650 0.000000 3.632200 
# 
# 
# High freq. dielectric constant tensor:
#      x y z
#    x 1.846800 0.000000 0.018820 
#    y 0.000000 1.852560 0.000000 
#    z 0.018820 0.000000 1.828980 
# 
# From -- ./inp_files/13226.got.cif
#   From: 2010.03.12/outbox.cif.g09.slc.cpg/sg14_7_cif.got.tgz:13226.got - 2010.03.31 13:35:05.
