data_PCOD8126992
_publ_section_title
;
Structure prediction by ZEFSAII (Michael W. Deem and Ramdas Pophale) SiO2 
 PCOD8126992
Probable space group: P 21/C
;
_chemical_formula_sum "Si O2"
_cell_formula_units_Z 20
_cell_length_a 10.188737
_cell_length_b 8.449533
_cell_length_c 23.827415
_cell_angle_alpha 90.000000
_cell_angle_beta 155.390758
_cell_angle_gamma 90.000000
_cell_volume 854.219216
_symmetry_space_group_name_H-M "P 21/C"
_symmetry_group_IT_number 14
_symmetry_cell_setting 'monoclinic'
loop_
_space_group_symop_operation_xyz
x,y,z
-x,1/2+y,1/2-z
-x,-y,-z
x,1/2-y,1/2+z
loop_
_atom_site_type_symbol
_atom_site_label
_atom_site_fract_x
_atom_site_fract_y
_atom_site_fract_z
Si Si1 0.989692 0.123029 0.545778
Si Si2 0.433977 0.443038 0.037700
Si Si3 0.539322 0.904505 0.935112
Si Si4 0.996277 0.910964 0.808512
Si Si5 0.546570 0.847586 0.185450
O O1 0.807107 0.277518 0.452793
O O2 0.343279 0.156167 0.706241
O O3 0.821654 0.061273 0.536750
O O4 0.000000 0.000000 0.500000
O O5 0.296110 0.266758 0.995174
O O6 0.754091 0.450221 0.198618
O O7 0.500000 0.500000 0.000000
O O8 0.206785 0.876272 0.836254
O O9 0.467935 0.972949 0.845116
O O10 0.769577 0.036304 0.051080
O O11 0.794760 0.755960 0.745734
#
# Coordination Sequence:
#
# PCOD8126992 Si02
#       5
#     4   4   4   4   4
#     4  11  26  48  70  97 141 180 230 291 346 413
#     4  11  25  41  67 101 141 177 233 284 342 413
#     4  11  22  37  67 100 137 184 223 281 352 402
#     4  10  22  37  62 100 139 175 226 281 341 406
#     4  11  23  47  67  99 137 186 235 283 347 421
#
# _framework density 23.413195000000002
#
# number of rings (size 3 to 8) (size 9 to 14) (size 15 to 20)
#    0.000    1.200    2.000    3.600   14.000    1.600 
#    3.600    2.000    0.000    0.000    0.000    0.000 
#    0.000    0.000    0.000    0.000    0.000    0.000 
#
# Total GULP energy -247905.044298 kJ/mol
# GULP energy per Si atom -12395.252215 kJ/mol
# Density = 2.335991 g / cm^3
# Si number density = 23.413195 Si / 1000 Ang^3
#
#
#
# Elastic Constant Matrix: (Units=GPa)
#
#
# Indices 1 2 3 4 5 6 
#
# 1 69.6271 14.7438 25.7567 0.0000 -30.8277 0.0000
# 2 14.7438 114.1498 35.4722 0.0000 -23.2147 0.0000
# 3 25.7567 35.4722 99.6160 0.0000 -32.4971 0.0000
# 4 0.0000 0.0000 0.0000 32.9398 0.0000 -9.4210
# 5 -30.8277 -23.2147 -32.4971 0.0000 30.0775 0.0000
# 6 0.0000 0.0000 0.0000 -9.4210 0.0000 32.9979
#
#
#
# Elastic Compliance Matrix: (Units=1/GPa)
#
#
# Indices 1 2 3 4 5 6 
#
# 1 0.027399 0.002270 0.002842 0.000000 0.032904 0.000000
# 2 0.002270 0.010764 -0.001468 0.000000 0.009048 0.000000
# 3 0.002842 -0.001468 0.016072 0.000000 0.019144 0.000000
# 4 0.000000 0.000000 0.000000 0.033058 0.000000 0.009438
# 5 0.032904 0.009048 0.019144 0.000000 0.094640 0.000000
# 6 0.000000 0.000000 0.000000 0.009438 0.000000 0.033000
#
#
# Mechanical properties :
#
#
# Convention : Reuss Voigt Hill
#
# Bulk Modulus (GPa) = 16.25454 48.37092 32.31273
# Shear Modulus (GPa) = 21.91522 33.03106 27.47314
#
# Velocity S-wave (km/s) = 3.06276 3.76012 3.42921
# Velocity P-wave (km/s) = 4.41190 6.28935 5.43235
#
# Compressibility (1/GPa) = 0.06152128
#
# Stress axis : x y z
#
# Youngs Moduli (GPa) = 36.49775 92.90654 62.22058
#
# Poissons Ratio (x) = -0.21088 -0.17681
# Poissons Ratio (y) = -0.08284 0.09134
# Poissons Ratio (z) = -0.10372 0.13639
#
# Static dielectric constant tensor:
#      x y z
#    x 3.869550 0.000000 -0.080280 
#    y 0.000000 4.163790 0.000000 
#    z -0.080280 0.000000 4.636210 
# 
# 
# High freq. dielectric constant tensor:
#      x y z
#    x 1.895190 0.000000 -0.011700 
#    y 0.000000 1.924270 0.000000 
#    z -0.011700 0.000000 1.946710 
# 
# From -- ./inp_files/11849.got.cif
#   From: 2010.03.12/outbox.cif.g09.slc.cpg/sg14_6_cif.got.tgz:11849.got - 2010.03.31 13:35:05.
