data_PCOD8126278
_publ_section_title
;
Structure prediction by ZEFSAII (Michael W. Deem and Ramdas Pophale) SiO2 
 PCOD8126278
Probable space group: P 21/C
;
_chemical_formula_sum "Si O2"
_cell_formula_units_Z 20
_cell_length_a 15.197569
_cell_length_b 4.990746
_cell_length_c 12.597818
_cell_angle_alpha 90.000000
_cell_angle_beta 78.541454
_cell_angle_gamma 90.000000
_cell_volume 936.464756
_symmetry_space_group_name_H-M "P 21/C"
_symmetry_group_IT_number 14
_symmetry_cell_setting 'monoclinic'
loop_
_space_group_symop_operation_xyz
x,y,z
-x,1/2+y,1/2-z
-x,-y,-z
x,1/2-y,1/2+z
loop_
_atom_site_type_symbol
_atom_site_label
_atom_site_fract_x
_atom_site_fract_y
_atom_site_fract_z
Si Si1 0.094817 0.666385 0.279617
Si Si2 0.613404 0.901345 0.676684
Si Si3 0.937624 0.612799 0.923518
Si Si4 0.525352 0.406762 0.609524
Si Si5 0.819117 0.829660 0.639270
O O1 0.089691 0.614501 0.155154
O O2 0.165718 0.461679 0.313951
O O3 0.992631 0.643325 0.352729
O O4 0.124745 0.967862 0.299783
O O5 0.600793 0.603784 0.636349
O O6 0.565752 0.933696 0.801468
O O7 0.718494 0.939225 0.667897
O O8 0.569636 0.112033 0.603835
O O9 0.847883 0.698801 0.008287
O O10 0.000000 0.500000 0.000000
O O11 0.500000 0.500000 0.500000
#
# Coordination Sequence:
#
# PCOD8126278 Si02
#       5
#     4   4   4   4   4
#     4  11  23  39  59  85 116 156 197 240 294 348
#     4  10  22  39  59  90 119 151 198 239 286 353
#     4  10  22  40  60  83 116 155 195 242 291 342
#     4  10  21  39  63  86 120 158 189 236 296 348
#     4  11  24  39  60  88 119 152 197 247 288 341
#
# _framework density 21.356916999999999
#
# number of rings (size 3 to 8) (size 9 to 14) (size 15 to 20)
#    0.000    1.600    0.000    4.800    0.000    8.000 
#    0.000    0.000    0.000    0.000    0.000    0.000 
#    0.000    0.000    0.000    0.000    0.000    0.000 
#
# Total GULP energy -247923.521252 kJ/mol
# GULP energy per Si atom -12396.176063 kJ/mol
# Density = 2.130831 g / cm^3
# Si number density = 21.356917 Si / 1000 Ang^3
#
#
#
# Elastic Constant Matrix: (Units=GPa)
#
#
# Indices 1 2 3 4 5 6 
#
# 1 111.9896 8.6926 38.8151 0.0000 -14.3071 0.0000
# 2 8.6926 56.7565 3.8177 0.0000 -8.8301 0.0000
# 3 38.8151 3.8177 115.6642 0.0000 9.3691 0.0000
# 4 0.0000 0.0000 0.0000 21.5006 0.0000 -0.8301
# 5 -14.3071 -8.8301 9.3691 0.0000 20.9789 0.0000
# 6 0.0000 0.0000 0.0000 -0.8301 0.0000 27.6001
#
#
#
# Elastic Compliance Matrix: (Units=1/GPa)
#
#
# Indices 1 2 3 4 5 6 
#
# 1 0.011919 0.000108 -0.004841 0.000000 0.010336 0.000000
# 2 0.000108 0.019049 -0.001370 0.000000 0.008703 0.000000
# 3 -0.004841 -0.001370 0.011028 0.000000 -0.008803 0.000000
# 4 0.000000 0.000000 0.000000 0.046564 0.000000 0.001400
# 5 0.010336 0.008703 -0.008803 0.000000 0.062310 0.000000
# 6 0.000000 0.000000 0.000000 0.001400 0.000000 0.036274
#
#
# Mechanical properties :
#
#
# Convention : Reuss Voigt Hill
#
# Bulk Modulus (GPa) = 33.56682 43.00679 38.28681
# Shear Modulus (GPa) = 23.89137 29.55494 26.72315
#
# Velocity S-wave (km/s) = 3.34828 3.72406 3.54116
# Velocity P-wave (km/s) = 5.54069 6.21871 5.88946
#
# Compressibility (1/GPa) = 0.02979132
#
# Stress axis : x y z
#
# Youngs Moduli (GPa) = 83.89799 52.49686 90.67439
#
# Poissons Ratio (x) = -0.00568 0.43893
# Poissons Ratio (y) = -0.00907 0.12423
# Poissons Ratio (z) = 0.40613 0.07192
#
# Static dielectric constant tensor:
#      x y z
#    x 4.080490 0.000000 -1.862330 
#    y 0.000000 3.869690 0.000000 
#    z -1.862330 0.000000 11.039000 
# 
# 
# High freq. dielectric constant tensor:
#      x y z
#    x 1.827670 0.000000 0.001630 
#    y 0.000000 1.841980 0.000000 
#    z 0.001630 0.000000 1.844560 
# 
# From -- ./inp_files/30960.got.cif
#   From: 2010.03.12/outbox.cif.g09.slc.cpg/sg14_16_cif.got.tgz:30960.got - 2010.03.31 13:35:05.
