data_PCOD8126557
_publ_section_title
;
Structure prediction by ZEFSAII (Michael W. Deem and Ramdas Pophale) SiO2 
 PCOD8126557
Probable space group: P 21/C
;
_chemical_formula_sum "Si O2"
_cell_formula_units_Z 28
_cell_length_a 9.399110
_cell_length_b 14.796694
_cell_length_c 12.811174
_cell_angle_alpha 90.000000
_cell_angle_beta 128.248987
_cell_angle_gamma 90.000000
_cell_volume 1399.237282
_symmetry_space_group_name_H-M "P 21/C"
_symmetry_group_IT_number 14
_symmetry_cell_setting 'monoclinic'
loop_
_space_group_symop_operation_xyz
x,y,z
-x,1/2+y,1/2-z
-x,-y,-z
x,1/2-y,1/2+z
loop_
_atom_site_type_symbol
_atom_site_label
_atom_site_fract_x
_atom_site_fract_y
_atom_site_fract_z
Si Si1 0.107875 0.915446 0.009715
Si Si2 0.267564 0.291215 0.197324
Si Si3 0.499222 0.944799 0.248424
Si Si4 0.076172 0.327475 0.769003
Si Si5 0.451643 0.399442 0.002941
Si Si6 0.426277 0.650763 0.154633
Si Si7 0.931306 0.269719 0.910168
O O1 0.034943 0.886734 0.863960
O O2 0.317141 0.942457 0.098690
O O3 0.082217 0.837410 0.083343
O O4 0.000000 0.000000 0.000000
O O5 0.354478 0.390590 0.255536
O O6 0.164850 0.260699 0.255682
O O7 0.415613 0.215494 0.228734
O O8 0.123672 0.303359 0.039995
O O9 0.486245 0.883608 0.349207
O O10 0.549869 0.048212 0.294324
O O11 0.929444 0.295488 0.787559
O O12 0.235682 0.387116 0.891957
O O13 0.500000 0.500000 0.000000
O O14 0.560756 0.340235 0.966304
O O15 0.230637 0.683118 0.101072
#
# Coordination Sequence:
#
# PCOD8126557 Si02
#       7
#     4   4   4   4   4   4   4
#     4  11  23  42  66  93 131 173 216 262 332 392
#     4  10  21  41  60  91 126 164 210 265 318 383
#     4  11  20  39  66  93 125 169 213 263 324 390
#     4  10  22  41  63  91 130 165 217 266 323 385
#     4   9  18  37  65  91 121 167 210 257 320 394
#     4  10  22  40  64  95 130 164 213 271 323 384
#     4  11  22  42  64  92 127 168 213 273 316 384
#
# _framework density 20.010902000000002
#
# number of rings (size 3 to 8) (size 9 to 14) (size 15 to 20)
#    0.000    1.714    2.857    3.429    0.000    2.857 
#    5.143    0.714    0.000    0.000    0.000    0.000 
#    0.000    0.000    0.000    0.000    0.000    0.000 
#
# Total GULP energy -347065.952008 kJ/mol
# GULP energy per Si atom -12395.212572 kJ/mol
# Density = 1.996536 g / cm^3
# Si number density = 20.010902 Si / 1000 Ang^3
#
#
#
# Elastic Constant Matrix: (Units=GPa)
#
#
# Indices 1 2 3 4 5 6 
#
# 1 105.0290 59.5683 56.3309 0.0000 4.6206 0.0000
# 2 59.5683 103.4864 34.2394 0.0000 7.2606 0.0000
# 3 56.3309 34.2394 101.4994 0.0000 8.3342 0.0000
# 4 0.0000 0.0000 0.0000 30.1838 0.0000 8.4501
# 5 4.6206 7.2606 8.3342 0.0000 34.1473 0.0000
# 6 0.0000 0.0000 0.0000 8.4501 0.0000 23.1333
#
#
#
# Elastic Compliance Matrix: (Units=1/GPa)
#
#
# Indices 1 2 3 4 5 6 
#
# 1 0.017937 -0.007966 -0.007355 0.000000 0.001062 0.000000
# 2 -0.007966 0.014485 -0.000307 0.000000 -0.001927 0.000000
# 3 -0.007355 -0.000307 0.014236 0.000000 -0.002414 0.000000
# 4 0.000000 0.000000 0.000000 0.036904 0.000000 -0.013480
# 5 0.001062 -0.001927 -0.002414 0.000000 0.030140 0.000000
# 6 0.000000 0.000000 0.000000 -0.013480 0.000000 0.048152
#
#
# Mechanical properties :
#
#
# Convention : Reuss Voigt Hill
#
# Bulk Modulus (GPa) = 64.92490 67.81021 66.36756
# Shear Modulus (GPa) = 25.22135 28.15128 26.68632
#
# Velocity S-wave (km/s) = 3.55404 3.75480 3.65580
# Velocity P-wave (km/s) = 7.02544 7.26349 7.14545
#
# Compressibility (1/GPa) = 0.01540241
#
# Stress axis : x y z
#
# Youngs Moduli (GPa) = 55.75039 69.03580 70.24461
#
# Poissons Ratio (x) = 0.54993 0.51664
# Poissons Ratio (y) = 0.44410 0.02158
# Poissons Ratio (z) = 0.41004 0.02121
#
# Static dielectric constant tensor:
#      x y z
#    x 3.580260 0.000000 0.602870 
#    y 0.000000 3.661090 0.000000 
#    z 0.602870 0.000000 1.240650 
# 
# 
# High freq. dielectric constant tensor:
#      x y z
#    x 1.778390 0.000000 0.010810 
#    y 0.000000 1.779690 0.000000 
#    z 0.010810 0.000000 1.781990 
# 
# From -- ./inp_files/25592.got.cif
#   From: 2010.03.12/outbox.cif.g09.slc.cpg/sg14_13_cif.got.tgz:25592.got - 2010.03.31 13:35:05.
