data_PCOD8126102
_publ_section_title
;
Structure prediction by ZEFSAII (Michael W. Deem and Ramdas Pophale) SiO2 
 PCOD8126102
Probable space group: P 21/C
;
_chemical_formula_sum "Si O2"
_cell_formula_units_Z 32
_cell_length_a 8.535296
_cell_length_b 20.917182
_cell_length_c 14.212723
_cell_angle_alpha 90.000000
_cell_angle_beta 142.303001
_cell_angle_gamma 90.000000
_cell_volume 1551.619704
_symmetry_space_group_name_H-M "P 21/C"
_symmetry_group_IT_number 14
_symmetry_cell_setting 'monoclinic'
loop_
_space_group_symop_operation_xyz
x,y,z
-x,1/2+y,1/2-z
-x,-y,-z
x,1/2-y,1/2+z
loop_
_atom_site_type_symbol
_atom_site_label
_atom_site_fract_x
_atom_site_fract_y
_atom_site_fract_z
Si Si1 0.037587 0.103665 0.771886
Si Si2 0.295202 0.184796 0.038856
Si Si3 0.553236 0.884208 0.276742
Si Si4 0.601668 0.475398 0.148456
Si Si5 0.596323 0.981835 0.148083
Si Si6 0.519193 0.921082 0.750811
Si Si7 0.093494 0.659901 0.968223
Si Si8 0.758562 0.236515 0.826581
O O1 0.273944 0.137311 0.938908
O O2 0.124218 0.048780 0.738628
O O3 0.848978 0.069759 0.755328
O O4 0.906972 0.159306 0.646134
O O5 0.043181 0.230133 0.917473
O O6 0.304441 0.139239 0.135930
O O7 0.557198 0.227119 0.160812
O O8 0.600338 0.931476 0.389232
O O9 0.451881 0.925882 0.138955
O O10 0.332468 0.834293 0.194962
O O11 0.811301 0.845766 0.378376
O O12 0.676533 0.534935 0.251776
O O13 0.500000 0.500000 0.000000
O O14 0.587880 0.044933 0.206260
O O15 0.500000 0.000000 0.000000
O O16 0.260856 0.900495 0.577179
O O17 0.219933 0.725222 0.065098
#
# Coordination Sequence:
#
# PCOD8126102 Si02
#       8
#     4   4   4   4   4   4   4   4
#     4  11  22  39  62  94 128 162 216 266 320 382
#     4  11  23  42  66  92 127 169 216 266 320 376
#     4  10  22  38  65  88 126 169 208 255 322 373
#     4  11  22  37  62  98 133 162 208 265 325 384
#     4  10  21  38  60  92 127 161 205 254 322 384
#     4  10  22  39  65  92 128 171 205 260 325 384
#     4  10  22  41  62  88 126 170 214 259 316 379
#     4  11  22  44  64  89 125 172 217 263 319 374
#
# _framework density 20.623611
#
# number of rings (size 3 to 8) (size 9 to 14) (size 15 to 20)
#    0.000    1.500    5.000    0.000    1.750    3.000 
#    4.500    1.250    0.000    0.000    0.000    0.000 
#    0.000    0.000    0.000    0.000    0.000    0.000 
#
# Total GULP energy -396423.820399 kJ/mol
# GULP energy per Si atom -12388.244387 kJ/mol
# Density = 2.057667 g / cm^3
# Si number density = 20.623611 Si / 1000 Ang^3
#
#
#
# Elastic Constant Matrix: (Units=GPa)
#
#
# Indices 1 2 3 4 5 6 
#
# 1 76.7779 34.5737 35.2386 0.0000 -12.1972 0.0000
# 2 34.5737 95.7266 45.9876 0.0000 -8.4216 0.0000
# 3 35.2386 45.9876 116.6340 0.0000 -11.8082 0.0000
# 4 0.0000 0.0000 0.0000 32.8962 0.0000 0.4433
# 5 -12.1972 -8.4216 -11.8082 0.0000 38.5874 0.0000
# 6 0.0000 0.0000 0.0000 0.4433 0.0000 32.0732
#
#
#
# Elastic Compliance Matrix: (Units=1/GPa)
#
#
# Indices 1 2 3 4 5 6 
#
# 1 0.016933 -0.004344 -0.003052 0.000000 0.003470 0.000000
# 2 -0.004344 0.014065 -0.004191 0.000000 0.000414 0.000000
# 3 -0.003052 -0.004191 0.011309 0.000000 0.001581 0.000000
# 4 0.000000 0.000000 0.000000 0.030404 0.000000 -0.000420
# 5 0.003470 0.000414 0.001581 0.000000 0.027586 0.000000
# 6 0.000000 0.000000 0.000000 -0.000420 0.000000 0.031184
#
#
# Mechanical properties :
#
#
# Convention : Reuss Voigt Hill
#
# Bulk Modulus (GPa) = 52.26830 57.85981 55.06405
# Shear Modulus (GPa) = 31.04935 32.26726 31.65831
#
# Velocity S-wave (km/s) = 3.88432 3.95977 3.92222
# Velocity P-wave (km/s) = 6.74657 7.00160 6.87527
#
# Compressibility (1/GPa) = 0.01913206
#
# Stress axis : x y z
#
# Youngs Moduli (GPa) = 59.05706 71.09618 88.42883
#
# Poissons Ratio (x) = 0.30886 0.26985
# Poissons Ratio (y) = 0.25656 0.37064
# Poissons Ratio (z) = 0.18022 0.29799
#
# Static dielectric constant tensor:
#      x y z
#    x 3.738030 0.000000 -0.169120 
#    y 0.000000 4.075720 0.000000 
#    z -0.169120 0.000000 3.787370 
# 
# 
# High freq. dielectric constant tensor:
#      x y z
#    x 1.792640 0.000000 -0.012430 
#    y 0.000000 1.817690 0.000000 
#    z -0.012430 0.000000 1.801100 
# 
# From -- ./inp_files/42068.got.cif
#   From: 2010.03.12/outbox.cif.g09.slc.cpg/sg14_22_cif.got.tgz:42068.got - 2010.03.31 13:35:05.
