data_PCOD8126296
_publ_section_title
;
Structure prediction by ZEFSAII (Michael W. Deem and Ramdas Pophale) SiO2 
 PCOD8126296
Probable space group: P 21/C
;
_chemical_formula_sum "Si O2"
_cell_formula_units_Z 32
_cell_length_a 25.087418
_cell_length_b 8.950653
_cell_length_c 9.317066
_cell_angle_alpha 90.000000
_cell_angle_beta 49.768270
_cell_angle_gamma 90.000000
_cell_volume 1597.216891
_symmetry_space_group_name_H-M "P 21/C"
_symmetry_group_IT_number 14
_symmetry_cell_setting 'monoclinic'
loop_
_space_group_symop_operation_xyz
x,y,z
-x,1/2+y,1/2-z
-x,-y,-z
x,1/2-y,1/2+z
loop_
_atom_site_type_symbol
_atom_site_label
_atom_site_fract_x
_atom_site_fract_y
_atom_site_fract_z
Si Si1 0.031261 0.927225 0.582789
Si Si2 0.827705 0.597387 0.762344
Si Si3 0.953050 0.424554 0.464380
Si Si4 0.835906 0.889950 0.576253
Si Si5 0.437497 0.899430 0.434573
Si Si6 0.675704 0.910330 0.876146
Si Si7 0.429343 0.894946 0.778682
Si Si8 0.331922 0.394209 0.949078
O O1 0.031876 0.749351 0.576756
O O2 0.110073 0.981189 0.474882
O O3 0.000000 0.000000 0.500000
O O4 0.973061 0.983392 0.791557
O O5 0.871386 0.450549 0.642081
O O6 0.853670 0.736584 0.624114
O O7 0.843256 0.645378 0.896781
O O8 0.747065 0.556972 0.879663
O O9 0.000000 0.500000 0.500000
O O10 0.757800 0.944034 0.749085
O O11 0.410504 0.865040 0.643710
O O12 0.455427 0.752296 0.313614
O O13 0.509720 0.985546 0.316841
O O14 0.379755 0.986649 0.444687
O O15 0.653415 0.889239 0.747890
O O16 0.653195 0.766212 0.007074
O O17 0.638065 0.049723 0.016008
#
# Coordination Sequence:
#
# PCOD8126296 Si02
#       8
#     4   4   4   4   4   4   4   4
#     4  12  26  41  63  92 122 163 209 261 320 374
#     4  10  22  40  64  91 124 163 204 254 309 372
#     4  12  24  43  63  88 124 161 209 263 314 383
#     4  10  22  41  63  92 124 161 205 253 309 374
#     4  11  24  41  63  92 126 163 209 259 311 371
#     4  10  21  39  64  92 127 165 205 253 308 375
#     4  11  24  41  63  92 125 165 208 258 312 371
#     4  10  21  39  63  93 126 165 207 253 309 372
#
# _framework density 20.034849000000001
#
# number of rings (size 3 to 8) (size 9 to 14) (size 15 to 20)
#    0.000    1.250    1.250    4.500    1.750    6.000 
#    0.000    0.000    0.000    0.000    0.000    0.000 
#    0.000    0.000    0.000    0.000    0.000    0.000 
#
# Total GULP energy -396792.906596 kJ/mol
# GULP energy per Si atom -12399.778331 kJ/mol
# Density = 1.998925 g / cm^3
# Si number density = 20.034849 Si / 1000 Ang^3
#
#
#
# Elastic Constant Matrix: (Units=GPa)
#
#
# Indices 1 2 3 4 5 6 
#
# 1 103.9232 33.5258 44.7584 0.0000 14.1207 0.0000
# 2 33.5258 102.6193 39.1531 0.0000 3.1483 0.0000
# 3 44.7584 39.1531 118.7672 0.0000 14.3301 0.0000
# 4 0.0000 0.0000 0.0000 36.4164 0.0000 -0.8809
# 5 14.1207 3.1483 14.3301 0.0000 36.7210 0.0000
# 6 0.0000 0.0000 0.0000 -0.8809 0.0000 36.9383
#
#
#
# Elastic Compliance Matrix: (Units=1/GPa)
#
#
# Indices 1 2 3 4 5 6 
#
# 1 0.012378 -0.002646 -0.003406 0.000000 -0.003204 0.000000
# 2 -0.002646 0.011721 -0.003010 0.000000 0.001187 0.000000
# 3 -0.003406 -0.003010 0.011026 0.000000 -0.002735 0.000000
# 4 0.000000 0.000000 0.000000 0.027476 0.000000 0.000655
# 5 -0.003204 0.001187 -0.002735 0.000000 0.029430 0.000000
# 6 0.000000 0.000000 0.000000 0.000655 0.000000 0.027088
#
#
# Mechanical properties :
#
#
# Convention : Reuss Voigt Hill
#
# Bulk Modulus (GPa) = 58.82051 62.24269 60.53160
# Shear Modulus (GPa) = 34.98690 35.87331 35.43010
#
# Velocity S-wave (km/s) = 4.18341 4.23607 4.20983
# Velocity P-wave (km/s) = 7.26343 7.42027 7.34227
#
# Compressibility (1/GPa) = 0.01700087
#
# Stress axis : x y z
#
# Youngs Moduli (GPa) = 80.78577 85.31466 90.69728
#
# Poissons Ratio (x) = 0.22576 0.30891
# Poissons Ratio (y) = 0.21378 0.27301
# Poissons Ratio (z) = 0.27515 0.25680
#
# Static dielectric constant tensor:
#      x y z
#    x 3.830380 0.000000 0.150720 
#    y 0.000000 4.047240 0.000000 
#    z 0.150720 0.000000 3.944210 
# 
# 
# High freq. dielectric constant tensor:
#      x y z
#    x 1.796140 0.000000 0.005530 
#    y 0.000000 1.776500 0.000000 
#    z 0.005530 0.000000 1.802440 
# 
# From -- ./inp_files/18613.got.cif
#   From: 2010.03.12/outbox.cif.g09.slc.cpg/sg14_10_cif.got.tgz:18613.got - 2010.03.31 13:35:05.
