data_PCOD8126921
_publ_section_title
;
Structure prediction by ZEFSAII (Michael W. Deem and Ramdas Pophale) SiO2 
 PCOD8126921
Probable space group: P 21/C
;
_chemical_formula_sum "Si O2"
_cell_formula_units_Z 16
_cell_length_a 7.553650
_cell_length_b 8.713747
_cell_length_c 10.757587
_cell_angle_alpha 90.000000
_cell_angle_beta 107.417206
_cell_angle_gamma 90.000000
_cell_volume 675.606074
_symmetry_space_group_name_H-M "P 21/C"
_symmetry_group_IT_number 14
_symmetry_cell_setting 'monoclinic'
loop_
_space_group_symop_operation_xyz
x,y,z
-x,1/2+y,1/2-z
-x,-y,-z
x,1/2-y,1/2+z
loop_
_atom_site_type_symbol
_atom_site_label
_atom_site_fract_x
_atom_site_fract_y
_atom_site_fract_z
Si Si1 0.490903 0.319919 0.522843
Si Si2 0.784197 0.343079 0.226523
Si Si3 0.596863 0.669087 0.755867
Si Si4 0.062497 0.955217 0.648797
O O1 0.500000 0.500000 0.500000
O O2 0.696159 0.247361 0.588225
O O3 0.362814 0.280615 0.617408
O O4 0.401265 0.244254 0.378484
O O5 0.612395 0.401844 0.274869
O O6 0.917496 0.226751 0.330286
O O7 0.908704 0.486056 0.213318
O O8 0.736896 0.527695 0.781294
O O9 0.000000 0.000000 0.500000
#
# Coordination Sequence:
#
# PCOD8126921 Si02
#       4
#     4   4   4   4
#     4  10  21  45  68 100 136 188 233 285 351 423
#     4  10  26  42  74 102 144 182 241 287 360 415
#     4  10  23  45  70  98 144 183 236 288 355 415
#     4  12  26  45  70 110 144 184 239 295 360 420
#
# _framework density 23.68244
#
# number of rings (size 3 to 8) (size 9 to 14) (size 15 to 20)
#    1.500    0.000    2.500    1.500    3.500    5.000 
#    0.000    3.750    0.000    0.000    0.000    0.000 
#    0.000    0.000    0.000    0.000    0.000    0.000 
#
# Total GULP energy -198253.460475 kJ/mol
# GULP energy per Si atom -12390.841280 kJ/mol
# Density = 2.362854 g / cm^3
# Si number density = 23.682440 Si / 1000 Ang^3
#
#
#
# Elastic Constant Matrix: (Units=GPa)
#
#
# Indices 1 2 3 4 5 6 
#
# 1 77.8029 8.9764 20.6855 0.0000 10.5446 0.0000
# 2 8.9764 19.5610 -8.2796 0.0000 1.0120 0.0000
# 3 20.6855 -8.2796 153.2072 0.0000 -26.7075 0.0000
# 4 0.0000 0.0000 0.0000 34.8689 0.0000 -1.8781
# 5 10.5446 1.0120 -26.7075 0.0000 39.9005 0.0000
# 6 0.0000 0.0000 0.0000 -1.8781 0.0000 24.8628
#
#
#
# Elastic Compliance Matrix: (Units=1/GPa)
#
#
# Indices 1 2 3 4 5 6 
#
# 1 0.015671 -0.008421 -0.003686 0.000000 -0.006395 0.000000
# 2 -0.008421 0.056858 0.004920 0.000000 0.004077 0.000000
# 3 -0.003686 0.004920 0.008421 0.000000 0.006486 0.000000
# 4 0.000000 0.000000 0.000000 0.028796 0.000000 0.002175
# 5 -0.006395 0.004077 0.006486 0.000000 0.030990 0.000000
# 6 0.000000 0.000000 0.000000 0.002175 0.000000 0.040385
#
#
# Mechanical properties :
#
#
# Convention : Reuss Voigt Hill
#
# Bulk Modulus (GPa) = 15.01990 32.59288 23.80639
# Shear Modulus (GPa) = 22.96880 35.20570 29.08725
#
# Velocity S-wave (km/s) = 3.11765 3.85979 3.50840
# Velocity P-wave (km/s) = 4.39495 5.80141 5.14645
#
# Compressibility (1/GPa) = 0.06657833
#
# Stress axis : x y z
#
# Youngs Moduli (GPa) = 63.81162 17.58769 118.74638
#
# Poissons Ratio (x) = 0.14810 0.43766
# Poissons Ratio (y) = 0.53733 -0.58426
# Poissons Ratio (z) = 0.23519 -0.08654
#
# Static dielectric constant tensor:
#      x y z
#    x 4.202480 0.000000 -0.124080 
#    y 0.000000 3.854300 0.000000 
#    z -0.124080 0.000000 4.885140 
# 
# 
# High freq. dielectric constant tensor:
#      x y z
#    x 1.927350 0.000000 -0.003720 
#    y 0.000000 1.913500 0.000000 
#    z -0.003720 0.000000 1.951150 
# 
# From -- ./inp_files/12116.got.cif
#   From: 2010.03.12/outbox.cif.g09.slc.cpg/sg14_7_cif.got.tgz:12116.got - 2010.03.31 13:35:05.
