data_PCOD8126690
_publ_section_title
;
Structure prediction by ZEFSAII (Michael W. Deem and Ramdas Pophale) SiO2 
 PCOD8126690
Probable space group: P 21/C
;
_chemical_formula_sum "Si O2"
_cell_formula_units_Z 32
_cell_length_a 22.853107
_cell_length_b 5.385492
_cell_length_c 12.409202
_cell_angle_alpha 90.000000
_cell_angle_beta 106.079906
_cell_angle_gamma 90.000000
_cell_volume 1467.513135
_symmetry_space_group_name_H-M "P 21/C"
_symmetry_group_IT_number 14
_symmetry_cell_setting 'monoclinic'
loop_
_space_group_symop_operation_xyz
x,y,z
-x,1/2+y,1/2-z
-x,-y,-z
x,1/2-y,1/2+z
loop_
_atom_site_type_symbol
_atom_site_label
_atom_site_fract_x
_atom_site_fract_y
_atom_site_fract_z
Si Si1 0.784934 0.443799 0.668545
Si Si2 0.267648 0.457662 0.770699
Si Si3 0.075693 0.518729 0.240860
Si Si4 0.528077 0.595192 0.623359
Si Si5 0.974407 0.983968 0.869021
Si Si6 0.694115 0.011441 0.941532
Si Si7 0.381037 0.126344 0.458972
Si Si8 0.583061 0.313961 0.831751
O O1 0.764046 0.710099 0.702022
O O2 0.855972 0.471199 0.680444
O O3 0.751485 0.386976 0.538038
O O4 0.773260 0.208488 0.742463
O O5 0.281402 0.379127 0.653987
O O6 0.327272 0.526606 0.873204
O O7 0.065180 0.268040 0.165429
O O8 0.031780 0.516951 0.319982
O O9 0.065706 0.768790 0.167116
O O10 0.500000 0.500000 0.500000
O O11 0.571643 0.822496 0.613890
O O12 0.575548 0.415805 0.707655
O O13 0.473062 0.626365 0.679792
O O14 0.000000 0.000000 0.000000
O O15 0.652607 0.228847 0.872569
O O16 0.649672 0.859145 0.997051
O O17 0.422758 0.998587 0.570174
#
# Coordination Sequence:
#
# PCOD8126690 Si02
#       8
#     4   4   4   4   4   4   4   4
#     4  11  25  46  65 103 136 183 228 279 330 396
#     4  11  26  42  71  93 135 180 227 276 340 399
#     4  10  22  40  68 101 144 176 235 276 326 398
#     4  12  26  42  66  94 124 165 217 285 352 426
#     4  10  21  41  69 105 139 189 219 281 336 383
#     4  11  26  44  66  95 128 176 221 276 341 412
#     4  11  24  46  66  92 125 171 213 285 343 418
#     4  12  26  44  66  94 125 164 222 274 357 421
#
# _framework density 21.805596999999999
#
# number of rings (size 3 to 8) (size 9 to 14) (size 15 to 20)
#    0.000    1.000    2.500    3.000    8.750    2.000 
#    0.000    0.000    0.000    0.000    0.000    0.000 
#    0.000    0.000    0.000    0.000    0.000    0.000 
#
# Total GULP energy -396578.244996 kJ/mol
# GULP energy per Si atom -12393.070156 kJ/mol
# Density = 2.175597 g / cm^3
# Si number density = 21.805597 Si / 1000 Ang^3
#
#
#
# Elastic Constant Matrix: (Units=GPa)
#
#
# Indices 1 2 3 4 5 6 
#
# 1 103.5114 34.8050 43.5583 0.0000 31.9711 0.0000
# 2 34.8050 120.8797 34.1393 0.0000 15.0586 0.0000
# 3 43.5583 34.1393 125.7689 0.0000 15.0001 0.0000
# 4 0.0000 0.0000 0.0000 33.5191 0.0000 3.3592
# 5 31.9711 15.0586 15.0001 0.0000 32.5084 0.0000
# 6 0.0000 0.0000 0.0000 3.3592 0.0000 28.7462
#
#
#
# Elastic Compliance Matrix: (Units=1/GPa)
#
#
# Indices 1 2 3 4 5 6 
#
# 1 0.015768 -0.001963 -0.003373 0.000000 -0.013042 0.000000
# 2 -0.001963 0.009531 -0.001705 0.000000 -0.001698 0.000000
# 3 -0.003373 -0.001705 0.009622 0.000000 -0.000333 0.000000
# 4 0.000000 0.000000 0.000000 0.030187 0.000000 -0.003528
# 5 -0.013042 -0.001698 -0.000333 0.000000 0.044528 0.000000
# 6 0.000000 0.000000 0.000000 -0.003528 0.000000 0.035199
#
#
# Mechanical properties :
#
#
# Convention : Reuss Voigt Hill
#
# Bulk Modulus (GPa) = 47.98495 63.90724 55.94609
# Shear Modulus (GPa) = 30.14533 34.79857 32.47195
#
# Velocity S-wave (km/s) = 3.72218 3.99915 3.86315
# Velocity P-wave (km/s) = 6.36603 7.12008 6.75359
#
# Compressibility (1/GPa) = 0.02083987
#
# Stress axis : x y z
#
# Youngs Moduli (GPa) = 63.41804 104.92246 103.93201
#
# Poissons Ratio (x) = 0.20595 0.35054
# Poissons Ratio (y) = 0.12448 0.17718
# Poissons Ratio (z) = 0.21390 0.17887
#
# Static dielectric constant tensor:
#      x y z
#    x 6.444770 0.000000 -1.982210 
#    y 0.000000 4.119490 0.000000 
#    z -1.982210 0.000000 5.962720 
# 
# 
# High freq. dielectric constant tensor:
#      x y z
#    x 1.856270 0.000000 0.005490 
#    y 0.000000 1.855400 0.000000 
#    z 0.005490 0.000000 1.869180 
# 
# From -- ./inp_files/35608.got.cif
#   From: 2010.03.12/outbox.cif.g09.slc.cpg/sg14_18_cif.got.tgz:35608.got - 2010.03.31 13:35:05.
