data_PCOD8126253
_publ_section_title
;
Structure prediction by ZEFSAII (Michael W. Deem and Ramdas Pophale) SiO2 
 PCOD8126253
Probable space group: P 21/C
;
_chemical_formula_sum "Si O2"
_cell_formula_units_Z 28
_cell_length_a 11.353888
_cell_length_b 8.364221
_cell_length_c 25.415625
_cell_angle_alpha 90.000000
_cell_angle_beta 147.293522
_cell_angle_gamma 90.000000
_cell_volume 1304.170489
_symmetry_space_group_name_H-M "P 21/C"
_symmetry_group_IT_number 14
_symmetry_cell_setting 'monoclinic'
loop_
_space_group_symop_operation_xyz
x,y,z
-x,1/2+y,1/2-z
-x,-y,-z
x,1/2-y,1/2+z
loop_
_atom_site_type_symbol
_atom_site_label
_atom_site_fract_x
_atom_site_fract_y
_atom_site_fract_z
Si Si1 0.785664 0.736363 0.722687
Si Si2 0.723769 0.282282 0.847558
Si Si3 0.783014 0.711777 0.493118
Si Si4 0.708007 0.783099 0.577221
Si Si5 0.504000 0.499990 0.682707
Si Si6 0.400062 0.952913 0.596228
Si Si7 0.234726 0.859249 0.426302
O O1 0.793159 0.703896 0.662955
O O2 0.676563 0.585922 0.710235
O O3 0.653623 0.899082 0.686867
O O4 0.030992 0.753652 0.835988
O O5 0.623802 0.354894 0.756890
O O6 0.700628 0.409054 0.885718
O O7 0.594999 0.119580 0.811195
O O8 0.976997 0.249863 0.936194
O O9 0.785070 0.676463 0.556548
O O10 0.694015 0.560263 0.428033
O O11 0.618311 0.858920 0.420242
O O12 0.445917 0.788081 0.477126
O O13 0.807853 0.961052 0.610122
O O14 0.265704 0.857349 0.500990
#
# Coordination Sequence:
#
# PCOD8126253 Si02
#       7
#     4   4   4   4   4   4   4
#     4  10  21  39  61  91 122 157 204 254 300 354
#     4  11  23  41  63  89 123 159 200 254 306 360
#     4  11  22  40  62  88 124 162 199 250 307 361
#     4   9  20  37  59  88 119 159 205 240 295 366
#     4  11  24  40  61  91 120 155 209 253 303 373
#     4   9  20  38  63  91 118 159 205 243 302 370
#     4   9  18  37  61  86 122 161 198 245 298 354
#
# _framework density 21.469586
#
# number of rings (size 3 to 8) (size 9 to 14) (size 15 to 20)
#    0.000    2.000    0.000    4.286    0.000    5.143 
#    0.000   14.286    0.000    0.000    0.000    0.000 
#    0.000    0.000    0.000    0.000    0.000    0.000 
#
# Total GULP energy -347292.504638 kJ/mol
# GULP energy per Si atom -12403.303737 kJ/mol
# Density = 2.142072 g / cm^3
# Si number density = 21.469586 Si / 1000 Ang^3
#
#
#
# Elastic Constant Matrix: (Units=GPa)
#
#
# Indices 1 2 3 4 5 6 
#
# 1 97.8251 0.2823 23.2008 0.0000 -9.5755 0.0000
# 2 0.2823 40.2680 16.1164 0.0000 2.1525 0.0000
# 3 23.2008 16.1164 96.0303 0.0000 8.8248 0.0000
# 4 0.0000 0.0000 0.0000 34.7604 0.0000 -12.3117
# 5 -9.5755 2.1525 8.8248 0.0000 32.7088 0.0000
# 6 0.0000 0.0000 0.0000 -12.3117 0.0000 20.4869
#
#
#
# Elastic Compliance Matrix: (Units=1/GPa)
#
#
# Indices 1 2 3 4 5 6 
#
# 1 0.011413 0.001023 -0.003312 0.000000 0.004167 0.000000
# 2 0.001023 0.026723 -0.004715 0.000000 -0.000187 0.000000
# 3 -0.003312 -0.004715 0.012372 0.000000 -0.003997 0.000000
# 4 0.000000 0.000000 0.000000 0.036548 0.000000 0.021963
# 5 0.004167 -0.000187 -0.003997 0.000000 0.032884 0.000000
# 6 0.000000 0.000000 0.000000 0.021963 0.000000 0.062011
#
#
# Mechanical properties :
#
#
# Convention : Reuss Voigt Hill
#
# Bulk Modulus (GPa) = 27.39692 34.81358 31.10525
# Shear Modulus (GPa) = 24.02404 30.55947 27.29175
#
# Velocity S-wave (km/s) = 3.34875 3.77687 3.56923
# Velocity P-wave (km/s) = 5.26694 5.93887 5.61297
#
# Compressibility (1/GPa) = 0.03650045
#
# Stress axis : x y z
#
# Youngs Moduli (GPa) = 87.62121 37.42028 80.82678
#
# Poissons Ratio (x) = -0.03827 0.26769
# Poissons Ratio (y) = -0.08961 0.38108
# Poissons Ratio (z) = 0.29019 0.17643
#
# Static dielectric constant tensor:
#      x y z
#    x 4.057730 0.000000 -0.124880 
#    y 0.000000 3.661940 0.000000 
#    z -0.124880 0.000000 3.773490 
# 
# 
# High freq. dielectric constant tensor:
#      x y z
#    x 1.858930 0.000000 -0.006750 
#    y 0.000000 1.820190 0.000000 
#    z -0.006750 0.000000 1.841170 
# 
# From -- ./inp_files/48589.got.cif
#   From: 2010.03.12/outbox.cif.g09.slc.cpg/sg14_25_cif.got.tgz:48589.got - 2010.03.31 13:35:05.
