data_PCOD8126987
_publ_section_title
;
Structure prediction by ZEFSAII (Michael W. Deem and Ramdas Pophale) SiO2 
 PCOD8126987
Probable space group: P 21/C
;
_chemical_formula_sum "Si O2"
_cell_formula_units_Z 28
_cell_length_a 5.156527
_cell_length_b 13.191451
_cell_length_c 21.882937
_cell_angle_alpha 90.000000
_cell_angle_beta 73.376093
_cell_angle_gamma 90.000000
_cell_volume 1426.307384
_symmetry_space_group_name_H-M "P 21/C"
_symmetry_group_IT_number 14
_symmetry_cell_setting 'monoclinic'
loop_
_space_group_symop_operation_xyz
x,y,z
-x,1/2+y,1/2-z
-x,-y,-z
x,1/2-y,1/2+z
loop_
_atom_site_type_symbol
_atom_site_label
_atom_site_fract_x
_atom_site_fract_y
_atom_site_fract_z
Si Si1 0.757529 0.461584 0.397217
Si Si2 0.591402 0.703611 0.634444
Si Si3 0.620025 0.675757 0.440116
Si Si4 0.213643 0.249405 0.695859
Si Si5 0.357636 0.656003 0.242624
Si Si6 0.786829 0.937478 0.226031
Si Si7 0.038170 0.830545 0.020756
O O1 0.578039 0.359172 0.404419
O O2 0.575104 0.561927 0.416324
O O3 0.938929 0.475489 0.324812
O O4 0.929327 0.441291 0.448194
O O5 0.446102 0.804497 0.669322
O O6 0.617081 0.628277 0.689830
O O7 0.875201 0.735912 0.583150
O O8 0.710787 0.751948 0.380653
O O9 0.863987 0.667297 0.471271
O O10 0.334567 0.715614 0.485916
O O11 0.460892 0.297299 0.716425
O O12 0.151250 0.133634 0.719812
O O13 0.951792 0.316616 0.725201
O O14 0.385887 0.534299 0.240733
#
# Coordination Sequence:
#
# PCOD8126987 Si02
#       7
#     4   4   4   4   4   4   4
#     4  11  20  35  58  86 118 152 188 238 293 357
#     4  10  22  38  60  86 119 153 196 236 290 350
#     4  12  23  35  56  83 121 153 190 233 293 348
#     4  11  23  38  59  89 117 156 193 240 297 347
#     4  11  22  40  61  86 118 155 193 242 297 344
#     4  10  22  37  61  89 120 149 197 247 291 350
#     4  11  24  36  54  84 118 157 192 232 285 354
#
# _framework density 19.631112000000002
#
# number of rings (size 3 to 8) (size 9 to 14) (size 15 to 20)
#    0.000    1.143    4.286    2.571    4.000    0.000 
#    0.000    0.000    0.000    1.714    0.000    0.000 
#    0.000    0.000    0.000    0.000    0.000    0.000 
#
# Total GULP energy -347074.811944 kJ/mol
# GULP energy per Si atom -12395.528998 kJ/mol
# Density = 1.958643 g / cm^3
# Si number density = 19.631112 Si / 1000 Ang^3
#
#
#
# Elastic Constant Matrix: (Units=GPa)
#
#
# Indices 1 2 3 4 5 6 
#
# 1 -32.3534 10.5948 41.7199 0.0000 14.6687 0.0000
# 2 10.5948 74.1414 44.9861 0.0000 1.4935 0.0000
# 3 41.7199 44.9861 119.3740 0.0000 -10.4846 0.0000
# 4 0.0000 0.0000 0.0000 17.7033 0.0000 -6.5844
# 5 14.6687 1.4935 -10.4846 0.0000 31.6290 0.0000
# 6 0.0000 0.0000 0.0000 -6.5844 0.0000 16.1157
#
#
#
# Elastic Compliance Matrix: (Units=1/GPa)
#
#
# Indices 1 2 3 4 5 6 
#
# 1 -0.016913 -0.002520 0.007787 0.000000 0.010544 0.000000
# 2 -0.002520 0.017411 -0.005819 0.000000 -0.001582 0.000000
# 3 0.007787 -0.005819 0.007782 0.000000 -0.000757 0.000000
# 4 0.000000 0.000000 0.000000 0.066608 0.000000 0.027214
# 5 0.010544 -0.001582 -0.000757 0.000000 0.026551 0.000000
# 6 0.000000 0.000000 0.000000 0.027214 0.000000 0.073170
#
#
# Mechanical properties :
#
#
# Convention : Reuss Voigt Hill
#
# Bulk Modulus (GPa) = 139.38630 39.52932 89.45781
# Shear Modulus (GPa) = 28.07303 17.34702 22.71002
#
# Velocity S-wave (km/s) = 3.78567 2.97585 3.40492
# Velocity P-wave (km/s) = 9.50081 5.65574 7.81833
#
# Compressibility (1/GPa) = 0.00717431
#
# Stress axis : x y z
#
# Youngs Moduli (GPa) = -59.12729 57.43569 128.49649
#
# Poissons Ratio (x) = 0.14475 -1.00055
# Poissons Ratio (y) = -0.14901 0.74778
# Poissons Ratio (z) = 0.46040 0.33425
#
# Static dielectric constant tensor:
#      x y z
#    x 3.691300 0.000000 0.021530 
#    y 0.000000 3.440630 0.000000 
#    z 0.021530 0.000000 3.928820 
# 
# 
# High freq. dielectric constant tensor:
#      x y z
#    x 1.778030 0.000000 -0.004420 
#    y 0.000000 1.714380 0.000000 
#    z -0.004420 0.000000 1.774570 
# 
# From -- ./inp_files/71161.got.cif
#   From: 2010.03.12/outbox.cif.g09.slc.cpg/sg14_36_cif.got.tgz:71161.got - 2010.03.31 13:35:05.
