data_PCOD8126651
_publ_section_title
;
Structure prediction by ZEFSAII (Michael W. Deem and Ramdas Pophale) SiO2 
 PCOD8126651
Probable space group: P 21/C
;
_chemical_formula_sum "Si O2"
_cell_formula_units_Z 20
_cell_length_a 17.563720
_cell_length_b 4.900610
_cell_length_c 30.417105
_cell_angle_alpha 90.000000
_cell_angle_beta 19.533714
_cell_angle_gamma 90.000000
_cell_volume 875.388326
_symmetry_space_group_name_H-M "P 21/C"
_symmetry_group_IT_number 14
_symmetry_cell_setting 'monoclinic'
loop_
_space_group_symop_operation_xyz
x,y,z
-x,1/2+y,1/2-z
-x,-y,-z
x,1/2-y,1/2+z
loop_
_atom_site_type_symbol
_atom_site_label
_atom_site_fract_x
_atom_site_fract_y
_atom_site_fract_z
Si Si1 0.634285 0.703966 0.635988
Si Si2 0.917112 0.196830 0.453187
Si Si3 0.739554 0.358612 0.868527
Si Si4 0.036124 0.150540 0.289391
Si Si5 0.768182 0.550076 0.652613
O O1 0.721183 0.427211 0.565183
O O2 0.604915 0.700127 0.705635
O O3 0.833682 0.923185 0.521308
O O4 0.386716 0.785774 0.749864
O O5 0.956467 0.104547 0.382012
O O6 0.159778 0.286135 0.342914
O O7 0.891575 0.535904 0.752675
O O8 0.824287 0.392914 0.872290
O O9 0.757149 0.051980 0.839076
O O10 0.500000 0.500000 0.000000
O O11 0.000000 0.500000 0.500000
#
# Coordination Sequence:
#
# PCOD8126651 Si02
#       5
#     4   4   4   4   4
#     4  11  23  40  62  89 123 166 209 254 315 374
#     4  11  24  41  63  93 124 161 210 264 307 363
#     4  10  21  41  66  92 125 166 200 249 313 372
#     4  10  22  41  64  93 127 159 207 254 304 373
#     4  10  22  41  62  87 124 166 209 259 312 366
#
# _framework density 22.847004999999999
#
# number of rings (size 3 to 8) (size 9 to 14) (size 15 to 20)
#    0.000    1.600    0.000    4.800    0.000    6.400 
#    0.000    6.000    0.000    0.000    0.000    0.000 
#    0.000    0.000    0.000    0.000    0.000    0.000 
#
# Total GULP energy -247829.843702 kJ/mol
# GULP energy per Si atom -12391.492185 kJ/mol
# Density = 2.279500 g / cm^3
# Si number density = 22.847005 Si / 1000 Ang^3
#
#
#
# Elastic Constant Matrix: (Units=GPa)
#
#
# Indices 1 2 3 4 5 6 
#
# 1 104.9934 35.0651 50.7611 0.0001 19.2636 0.0001
# 2 35.0651 82.1345 6.1414 -0.0001 17.6460 0.0000
# 3 50.7611 6.1414 75.6305 0.0002 2.1907 0.0001
# 4 0.0001 -0.0001 0.0002 27.6859 -0.0001 -0.5625
# 5 19.2636 17.6460 2.1907 -0.0001 32.1920 -0.0001
# 6 0.0001 0.0000 0.0001 -0.5625 -0.0001 26.5913
#
#
#
# Elastic Compliance Matrix: (Units=1/GPa)
#
#
# Indices 1 2 3 4 5 6 
#
# 1 0.018249 -0.005380 -0.011603 0.000000 -0.007181 0.000000
# 2 -0.005380 0.015449 0.002514 0.000000 -0.005420 0.000000
# 3 -0.011603 0.002514 0.020685 0.000000 0.004158 0.000000
# 4 0.000000 0.000000 0.000000 0.036135 0.000000 0.000764
# 5 -0.007181 -0.005420 0.004158 0.000000 0.038048 0.000000
# 6 0.000000 0.000000 0.000000 0.000764 0.000000 0.037622
#
#
# Mechanical properties :
#
#
# Convention : Reuss Voigt Hill
#
# Bulk Modulus (GPa) = 39.30364 49.63263 44.46813
# Shear Modulus (GPa) = 24.55690 28.67989 26.61840
#
# Velocity S-wave (km/s) = 3.28203 3.54687 3.41702
# Velocity P-wave (km/s) = 5.62162 6.20844 5.92231
#
# Compressibility (1/GPa) = 0.02544294
#
# Stress axis : x y z
#
# Youngs Moduli (GPa) = 54.79885 64.73098 48.34354
#
# Poissons Ratio (x) = 0.34828 0.56093
# Poissons Ratio (y) = 0.29484 -0.12152
# Poissons Ratio (z) = 0.63583 -0.16271
#
# Static dielectric constant tensor:
#      x y z
#    x 4.199400 0.000000 -0.236780 
#    y 0.000000 4.428720 0.000000 
#    z -0.236780 0.000000 3.951120 
# 
# 
# High freq. dielectric constant tensor:
#      x y z
#    x 1.889220 0.000000 -0.010840 
#    y 0.000000 1.917980 0.000000 
#    z -0.010840 0.000000 1.898520 
# 
# From -- ./inp_files/80253.got.cif
#   From: 2010.03.12/outbox.cif.g09.slc.cpg/sg14_41_cif.got.tgz:80253.got - 2010.03.31 13:35:05.
