data_PCOD8126513
_publ_section_title
;
Structure prediction by ZEFSAII (Michael W. Deem and Ramdas Pophale) SiO2 
 PCOD8126513
Probable space group: P 21/C
;
_chemical_formula_sum "Si O2"
_cell_formula_units_Z 28
_cell_length_a 14.795841
_cell_length_b 14.680886
_cell_length_c 8.890013
_cell_angle_alpha 90.000000
_cell_angle_beta 138.462293
_cell_angle_gamma 90.000000
_cell_volume 1280.506330
_symmetry_space_group_name_H-M "P 21/C"
_symmetry_group_IT_number 14
_symmetry_cell_setting 'monoclinic'
loop_
_space_group_symop_operation_xyz
x,y,z
-x,1/2+y,1/2-z
-x,-y,-z
x,1/2-y,1/2+z
loop_
_atom_site_type_symbol
_atom_site_label
_atom_site_fract_x
_atom_site_fract_y
_atom_site_fract_z
Si Si1 0.043234 0.643035 0.530606
Si Si2 0.601617 0.490907 0.483146
Si Si3 0.033988 0.284141 0.277995
Si Si4 0.107354 0.546173 0.027007
Si Si5 0.645364 0.675915 0.353499
Si Si6 0.178982 0.015210 0.296613
Si Si7 0.432938 0.361445 0.081523
O O1 0.185316 0.586276 0.725234
O O2 0.005944 0.682355 0.322697
O O3 0.025410 0.723266 0.628531
O O4 0.922956 0.573848 0.433433
O O5 0.500000 0.500000 0.500000
O O6 0.744283 0.452022 0.716091
O O7 0.618913 0.590410 0.429336
O O8 0.563384 0.414832 0.309294
O O9 0.194291 0.306276 0.470164
O O10 0.944037 0.352223 0.067312
O O11 0.114861 0.490653 0.881896
O O12 0.000000 0.500000 0.000000
O O13 0.584033 0.766420 0.352519
O O14 0.568356 0.657859 0.098927
O O15 0.322448 0.062401 0.484736
#
# Coordination Sequence:
#
# PCOD8126513 Si02
#       7
#     4   4   4   4   4   4   4
#     4  10  22  36  63 100 140 176 223 293 351 410
#     4  12  26  47  71 101 147 186 235 299 356 425
#     4  11  21  40  65 101 133 178 237 283 343 423
#     4  11  24  41  70 103 136 180 233 293 354 413
#     4  12  24  44  75 102 136 192 243 284 355 438
#     4  10  21  40  66  98 139 180 228 289 359 412
#     4  12  25  46  73 103 142 190 242 289 358 431
#
# _framework density 21.866350000000001
#
# number of rings (size 3 to 8) (size 9 to 14) (size 15 to 20)
#    0.000    0.857    5.714    1.286    2.000    0.000 
#    2.571    1.429    0.000    0.000    0.000    0.000 
#    0.000    0.000    0.000    0.000    0.000    0.000 
#
# Total GULP energy -346888.285589 kJ/mol
# GULP energy per Si atom -12388.867342 kJ/mol
# Density = 2.181658 g / cm^3
# Si number density = 21.866350 Si / 1000 Ang^3
#
#
#
# Elastic Constant Matrix: (Units=GPa)
#
#
# Indices 1 2 3 4 5 6 
#
# 1 42.1421 13.8704 24.8683 0.0000 -10.1750 0.0000
# 2 13.8704 101.2426 38.9382 0.0000 -6.2949 0.0000
# 3 24.8683 38.9382 133.2622 0.0000 -5.0280 0.0000
# 4 0.0000 0.0000 0.0000 47.0719 0.0000 -6.5034
# 5 -10.1750 -6.2949 -5.0280 0.0000 36.1876 0.0000
# 6 0.0000 0.0000 0.0000 -6.5034 0.0000 32.1240
#
#
#
# Elastic Compliance Matrix: (Units=1/GPa)
#
#
# Indices 1 2 3 4 5 6 
#
# 1 0.028729 -0.001728 -0.004587 0.000000 0.007140 0.000000
# 2 -0.001728 0.011312 -0.002942 0.000000 0.001073 0.000000
# 3 -0.004587 -0.002942 0.009200 0.000000 -0.000523 0.000000
# 4 0.000000 0.000000 0.000000 0.021855 0.000000 0.004425
# 5 0.007140 0.001073 -0.000523 0.000000 0.029755 0.000000
# 6 0.000000 0.000000 0.000000 0.004425 0.000000 0.032025
#
#
# Mechanical properties :
#
#
# Convention : Reuss Voigt Hill
#
# Bulk Modulus (GPa) = 32.54504 48.00009 40.27257
# Shear Modulus (GPa) = 30.93426 36.34136 33.63781
#
# Velocity S-wave (km/s) = 3.76533 4.08116 3.92642
# Velocity P-wave (km/s) = 5.81545 6.64884 6.24606
#
# Compressibility (1/GPa) = 0.03072664
#
# Stress axis : x y z
#
# Youngs Moduli (GPa) = 34.80863 88.39866 108.69579
#
# Poissons Ratio (x) = 0.15273 0.49857
# Poissons Ratio (y) = 0.06014 0.31983
# Poissons Ratio (z) = 0.15966 0.26011
#
# Static dielectric constant tensor:
#      x y z
#    x 4.034760 0.000000 -0.236090 
#    y 0.000000 4.251370 0.000000 
#    z -0.236090 0.000000 4.276220 
# 
# 
# High freq. dielectric constant tensor:
#      x y z
#    x 1.842660 0.000000 -0.019610 
#    y 0.000000 1.876330 0.000000 
#    z -0.019610 0.000000 1.876970 
# 
# From -- ./inp_files/12998.got.cif
#   From: 2010.03.12/outbox.cif.g09.slc.cpg/sg14_7_cif.got.tgz:12998.got - 2010.03.31 13:35:05.
