data_PCOD8126340
_publ_section_title
;
Structure prediction by ZEFSAII (Michael W. Deem and Ramdas Pophale) SiO2 
 PCOD8126340
Probable space group: P 21/C
;
_chemical_formula_sum "Si O2"
_cell_formula_units_Z 24
_cell_length_a 7.519175
_cell_length_b 5.164656
_cell_length_c 26.730592
_cell_angle_alpha 90.000000
_cell_angle_beta 71.897047
_cell_angle_gamma 90.000000
_cell_volume 986.670542
_symmetry_space_group_name_H-M "P 21/C"
_symmetry_group_IT_number 14
_symmetry_cell_setting 'monoclinic'
loop_
_space_group_symop_operation_xyz
x,y,z
-x,1/2+y,1/2-z
-x,-y,-z
x,1/2-y,1/2+z
loop_
_atom_site_type_symbol
_atom_site_label
_atom_site_fract_x
_atom_site_fract_y
_atom_site_fract_z
Si Si1 0.850608 0.256665 0.653784
Si Si2 0.906469 0.093796 0.931091
Si Si3 0.873927 0.169409 0.259780
Si Si4 0.216979 0.239660 0.974226
Si Si5 0.233827 0.532010 0.128137
Si Si6 0.604192 0.271888 0.083707
O O1 0.939343 0.518952 0.623772
O O2 0.762258 0.299781 0.716763
O O3 0.690923 0.155699 0.630279
O O4 0.019237 0.053996 0.643942
O O5 0.013169 0.257890 0.965179
O O6 0.742322 0.255691 0.918184
O O7 0.815915 0.836588 0.964669
O O8 0.731957 0.152895 0.319334
O O9 0.009823 0.408226 0.256664
O O10 0.319345 0.515537 0.962605
O O11 0.344765 0.015693 0.937913
O O12 0.379983 0.298597 0.107307
#
# Coordination Sequence:
#
# PCOD8126340 Si02
#       6
#     4   4   4   4   4   4
#     4  10  22  43  63  91 128 168 203 275 310 384
#     4  10  21  40  68  86 131 170 212 255 325 368
#     4  10  21  39  66  92 118 163 213 252 319 383
#     4  10  24  41  62  96 125 172 212 258 311 389
#     4  11  23  40  66  95 123 170 211 268 312 389
#     4  11  25  41  63  94 131 160 215 259 319 371
#
# _framework density 24.324227
#
# number of rings (size 3 to 8) (size 9 to 14) (size 15 to 20)
#    0.000    1.667    3.333    0.000    4.667    3.333 
#    0.000   10.000    0.000    0.000    0.000    0.000 
#    0.000    0.000    0.000    0.000    0.000    0.000 
#
# Total GULP energy -297545.527326 kJ/mol
# GULP energy per Si atom -12397.730305 kJ/mol
# Density = 2.426886 g / cm^3
# Si number density = 24.324227 Si / 1000 Ang^3
#
#
#
# Elastic Constant Matrix: (Units=GPa)
#
#
# Indices 1 2 3 4 5 6 
#
# 1 72.4572 8.9073 35.1854 0.0000 9.3475 0.0000
# 2 8.9073 62.7100 -8.6638 0.0000 -3.0947 0.0000
# 3 35.1854 -8.6638 113.1048 0.0000 20.6236 0.0000
# 4 0.0000 0.0000 0.0000 32.2914 0.0000 -0.7727
# 5 9.3475 -3.0947 20.6236 0.0000 24.2980 0.0000
# 6 0.0000 0.0000 0.0000 -0.7727 0.0000 31.6986
#
#
#
# Elastic Compliance Matrix: (Units=1/GPa)
#
#
# Indices 1 2 3 4 5 6 
#
# 1 0.016996 -0.003243 -0.005050 0.000000 -0.002665 0.000000
# 2 -0.003243 0.016765 0.001983 0.000000 0.001700 0.000000
# 3 -0.005050 0.001983 0.012025 0.000000 -0.008011 0.000000
# 4 0.000000 0.000000 0.000000 0.030986 0.000000 0.000755
# 5 -0.002665 0.001700 -0.008011 0.000000 0.049197 0.000000
# 6 0.000000 0.000000 0.000000 0.000755 0.000000 0.031566
#
#
# Mechanical properties :
#
#
# Convention : Reuss Voigt Hill
#
# Bulk Modulus (GPa) = 30.15092 35.45885 32.80489
# Shear Modulus (GPa) = 27.59236 31.84714 29.71975
#
# Velocity S-wave (km/s) = 3.37168 3.62232 3.49924
# Velocity P-wave (km/s) = 5.25166 5.66605 5.46279
#
# Compressibility (1/GPa) = 0.03316648
#
# Stress axis : x y z
#
# Youngs Moduli (GPa) = 58.83767 59.64822 83.16065
#
# Poissons Ratio (x) = 0.19345 0.41993
# Poissons Ratio (y) = 0.19083 -0.16493
# Poissons Ratio (z) = 0.29711 -0.11830
#
# Static dielectric constant tensor:
#      x y z
#    x 4.071660 0.000000 0.391710 
#    y 0.000000 4.156780 0.000000 
#    z 0.391710 0.000000 4.946000 
# 
# 
# High freq. dielectric constant tensor:
#      x y z
#    x 1.932420 0.000000 0.025590 
#    y 0.000000 1.966660 0.000000 
#    z 0.025590 0.000000 1.977110 
# 
# From -- ./inp_files/78067.got.cif
#   From: 2010.03.12/outbox.cif.g09.slc.cpg/sg14_40_cif.got.tgz:78067.got - 2010.03.31 13:35:05.
