data_PCOD8126779
_publ_section_title
;
Structure prediction by ZEFSAII (Michael W. Deem and Ramdas Pophale) SiO2 
 PCOD8126779
Probable space group: P 21/C
;
_chemical_formula_sum "Si O2"
_cell_formula_units_Z 32
_cell_length_a 8.893624
_cell_length_b 19.808316
_cell_length_c 17.080821
_cell_angle_alpha 90.000000
_cell_angle_beta 150.013372
_cell_angle_gamma 90.000000
_cell_volume 1503.936368
_symmetry_space_group_name_H-M "P 21/C"
_symmetry_group_IT_number 14
_symmetry_cell_setting 'monoclinic'
loop_
_space_group_symop_operation_xyz
x,y,z
-x,1/2+y,1/2-z
-x,-y,-z
x,1/2-y,1/2+z
loop_
_atom_site_type_symbol
_atom_site_label
_atom_site_fract_x
_atom_site_fract_y
_atom_site_fract_z
Si Si1 0.339121 0.891865 0.088638
Si Si2 0.238338 0.997032 0.718259
Si Si3 0.109777 0.109479 0.360705
Si Si4 0.256356 0.349817 0.761178
Si Si5 0.687144 0.711922 0.640569
Si Si6 0.228716 0.751478 0.802315
Si Si7 0.424758 0.345249 0.145405
Si Si8 0.142849 0.604899 0.039247
O O1 0.575165 0.849524 0.142400
O O2 0.359128 0.876550 0.190770
O O3 0.434054 0.970116 0.116676
O O4 0.997303 0.879573 0.910263
O O5 0.107409 0.955877 0.733156
O O6 0.271582 0.943954 0.663593
O O7 0.018981 0.059128 0.598634
O O8 0.919915 0.178008 0.290406
O O9 0.256738 0.108110 0.341914
O O10 0.372186 0.105595 0.545841
O O11 0.195788 0.271152 0.749131
O O12 0.583396 0.353904 0.871982
O O13 0.421936 0.738843 0.466972
O O14 0.971492 0.696328 0.711138
O O15 0.430393 0.724461 0.820702
O O16 0.091674 0.338749 0.033736
#
# Coordination Sequence:
#
# PCOD8126779 Si02
#       8
#     4   4   4   4   4   4   4   4
#     4  11  24  41  64  98 129 168 211 261 322 375
#     4   9  21  41  62  89 130 172 215 257 309 381
#     4  10  21  42  67  92 129 169 212 262 314 374
#     4  11  23  41  65  96 130 165 212 269 319 368
#     4  11  23  42  64  96 131 161 206 273 319 377
#     4  11  21  43  66  92 133 163 207 267 322 375
#     4  10  22  40  64  93 125 167 210 252 319 375
#     4   9  21  42  66  90 130 169 212 264 308 381
#
# _framework density 21.277495999999999
#
# number of rings (size 3 to 8) (size 9 to 14) (size 15 to 20)
#    0.000    1.750    5.000    0.750    3.500    4.500 
#    4.500    3.750    0.000    0.000    0.000    0.000 
#    0.000    0.000    0.000    0.000    0.000    0.000 
#
# Total GULP energy -396549.197134 kJ/mol
# GULP energy per Si atom -12392.162410 kJ/mol
# Density = 2.122907 g / cm^3
# Si number density = 21.277496 Si / 1000 Ang^3
#
#
#
# Elastic Constant Matrix: (Units=GPa)
#
#
# Indices 1 2 3 4 5 6 
#
# 1 104.9537 30.3272 58.0593 0.0000 9.1715 0.0000
# 2 30.3272 49.1585 7.8286 0.0000 12.9972 0.0000
# 3 58.0593 7.8286 87.2825 0.0000 -7.3086 0.0000
# 4 0.0000 0.0000 0.0000 22.2118 0.0000 5.1209
# 5 9.1715 12.9972 -7.3086 0.0000 35.3144 0.0000
# 6 0.0000 0.0000 0.0000 5.1209 0.0000 21.8438
#
#
#
# Elastic Compliance Matrix: (Units=1/GPa)
#
#
# Indices 1 2 3 4 5 6 
#
# 1 0.019326 -0.008791 -0.012432 0.000000 -0.004357 0.000000
# 2 -0.008791 0.027209 0.002809 0.000000 -0.007150 0.000000
# 3 -0.012432 0.002809 0.020005 0.000000 0.006335 0.000000
# 4 0.000000 0.000000 0.000000 0.047593 0.000000 -0.011157
# 5 -0.004357 -0.007150 0.006335 0.000000 0.033391 0.000000
# 6 0.000000 0.000000 0.000000 -0.011157 0.000000 0.048395
#
#
# Mechanical properties :
#
#
# Convention : Reuss Voigt Hill
#
# Bulk Modulus (GPa) = 33.65700 48.20277 40.92989
# Shear Modulus (GPa) = 20.60561 25.55262 23.07912
#
# Velocity S-wave (km/s) = 3.11533 3.46919 3.29701
# Velocity P-wave (km/s) = 5.36589 6.22500 5.81134
#
# Compressibility (1/GPa) = 0.02971150
#
# Stress axis : x y z
#
# Youngs Moduli (GPa) = 51.74342 36.75272 49.98720
#
# Poissons Ratio (x) = 0.32310 0.62143
# Poissons Ratio (y) = 0.45488 -0.14040
# Poissons Ratio (z) = 0.64326 -0.10323
#
# Static dielectric constant tensor:
#      x y z
#    x 4.032930 0.000000 -0.029150 
#    y 0.000000 3.760380 0.000000 
#    z -0.029150 0.000000 3.975310 
# 
# 
# High freq. dielectric constant tensor:
#      x y z
#    x 1.837100 0.000000 -0.004940 
#    y 0.000000 1.807700 0.000000 
#    z -0.004940 0.000000 1.837830 
# 
# From -- ./inp_files/56270.got.cif
#   From: 2010.03.12/outbox.cif.g09.slc.cpg/sg14_29_cif.got.tgz:56270.got - 2010.03.31 13:35:05.
