data_PCOD8126405
_publ_section_title
;
Structure prediction by ZEFSAII (Michael W. Deem and Ramdas Pophale) SiO2 
 PCOD8126405
Probable space group: P 21/C
;
_chemical_formula_sum "Si O2"
_cell_formula_units_Z 32
_cell_length_a 13.061563
_cell_length_b 15.963568
_cell_length_c 13.963178
_cell_angle_alpha 90.000000
_cell_angle_beta 148.245133
_cell_angle_gamma 90.000000
_cell_volume 1532.256018
_symmetry_space_group_name_H-M "P 21/C"
_symmetry_group_IT_number 14
_symmetry_cell_setting 'monoclinic'
loop_
_space_group_symop_operation_xyz
x,y,z
-x,1/2+y,1/2-z
-x,-y,-z
x,1/2-y,1/2+z
loop_
_atom_site_type_symbol
_atom_site_label
_atom_site_fract_x
_atom_site_fract_y
_atom_site_fract_z
Si Si1 0.380047 0.954686 0.785820
Si Si2 0.753987 0.713435 0.205182
Si Si3 0.372507 0.893396 0.989781
Si Si4 0.350456 0.795802 0.452269
Si Si5 0.852942 0.429655 0.078544
Si Si6 0.956268 0.895384 0.714463
Si Si7 0.752000 0.644927 0.556038
Si Si8 0.051602 0.249523 0.943094
O O1 0.319041 0.913922 0.837256
O O2 0.198671 0.937861 0.573656
O O3 0.570232 0.913269 0.890792
O O4 0.432688 0.053849 0.831792
O O5 0.898408 0.650126 0.266667
O O6 0.686739 0.785267 0.079429
O O7 0.870724 0.753699 0.387159
O O8 0.550354 0.666325 0.068365
O O9 0.414520 0.795506 0.044298
O O10 0.184721 0.919097 0.903763
O O11 0.278432 0.858163 0.477490
O O12 0.174511 0.781032 0.236906
O O13 0.825230 0.520909 0.104837
O O14 0.077829 0.406964 0.258441
O O15 0.926665 0.836750 0.597189
O O16 0.819178 0.680312 0.507716
#
# Coordination Sequence:
#
# PCOD8126405 Si02
#       8
#     4   4   4   4   4   4   4   4
#     4  11  22  39  66  89 122 168 202 260 326 352
#     4  11  22  41  68  87 125 172 202 260 321 362
#     4  10  22  42  60  93 131 154 217 270 300 379
#     4  10  22  42  60  93 128 157 218 257 298 393
#     4  11  24  40  65  92 128 166 206 262 316 375
#     4  10  23  42  60  96 129 157 218 259 303 387
#     4  10  21  40  61  91 124 153 210 262 300 377
#     4   9  22  40  63  89 120 165 207 256 311 366
#
# _framework density 20.884239000000001
#
# number of rings (size 3 to 8) (size 9 to 14) (size 15 to 20)
#    0.000    1.750    2.500    1.500    5.250    1.000 
#    2.250    2.500    0.000    0.000    0.000    0.000 
#    0.000    0.000    0.000    0.000    0.000    0.000 
#
# Total GULP energy -396699.885928 kJ/mol
# GULP energy per Si atom -12396.871435 kJ/mol
# Density = 2.083671 g / cm^3
# Si number density = 20.884239 Si / 1000 Ang^3
#
#
#
# Elastic Constant Matrix: (Units=GPa)
#
#
# Indices 1 2 3 4 5 6 
#
# 1 75.7451 25.1655 14.2520 0.0000 10.5596 0.0000
# 2 25.1655 100.3371 13.4750 0.0000 -4.5858 0.0000
# 3 14.2520 13.4750 48.6074 0.0000 -5.4099 0.0000
# 4 0.0000 0.0000 0.0000 21.5144 0.0000 5.3120
# 5 10.5596 -4.5858 -5.4099 0.0000 27.9173 0.0000
# 6 0.0000 0.0000 0.0000 5.3120 0.0000 20.9632
#
#
#
# Elastic Compliance Matrix: (Units=1/GPa)
#
#
# Indices 1 2 3 4 5 6 
#
# 1 0.016430 -0.003855 -0.004610 0.000000 -0.007741 0.000000
# 2 -0.003855 0.011294 -0.001668 0.000000 0.002990 0.000000
# 3 -0.004610 -0.001668 0.023048 0.000000 0.005936 0.000000
# 4 0.000000 0.000000 0.000000 0.049583 0.000000 -0.012564
# 5 -0.007741 0.002990 0.005936 0.000000 0.040390 0.000000
# 6 0.000000 0.000000 0.000000 -0.012564 0.000000 0.050886
#
#
# Mechanical properties :
#
#
# Convention : Reuss Voigt Hill
#
# Bulk Modulus (GPa) = 32.78145 36.71941 34.75043
# Shear Modulus (GPa) = 22.51597 25.53213 24.02405
#
# Velocity S-wave (km/s) = 3.28705 3.50030 3.39535
# Velocity P-wave (km/s) = 5.48973 5.82723 5.66100
#
# Compressibility (1/GPa) = 0.03050505
#
# Stress axis : x y z
#
# Youngs Moduli (GPa) = 60.86539 88.54250 43.38833
#
# Poissons Ratio (x) = 0.34137 0.20002
# Poissons Ratio (y) = 0.23466 0.07236
# Poissons Ratio (z) = 0.28059 0.14766
#
# Static dielectric constant tensor:
#      x y z
#    x 3.734470 0.000000 0.212970 
#    y 0.000000 3.947720 0.000000 
#    z 0.212970 0.000000 3.615680 
# 
# 
# High freq. dielectric constant tensor:
#      x y z
#    x 1.815420 0.000000 0.019810 
#    y 0.000000 1.820720 0.000000 
#    z 0.019810 0.000000 1.805380 
# 
# From -- ./inp_files/30473.got.cif
#   From: 2010.03.12/outbox.cif.g09.slc.cpg/sg14_16_cif.got.tgz:30473.got - 2010.03.31 13:35:05.
