data_PCOD8126070
_publ_section_title
;
Structure prediction by ZEFSAII (Michael W. Deem and Ramdas Pophale) SiO2 
 PCOD8126070
Probable space group: P 21/C
;
_chemical_formula_sum "Si O2"
_cell_formula_units_Z 32
_cell_length_a 8.798396
_cell_length_b 27.625487
_cell_length_c 9.146316
_cell_angle_alpha 90.000000
_cell_angle_beta 47.183182
_cell_angle_gamma 90.000000
_cell_volume 1630.713869
_symmetry_space_group_name_H-M "P 21/C"
_symmetry_group_IT_number 14
_symmetry_cell_setting 'monoclinic'
loop_
_space_group_symop_operation_xyz
x,y,z
-x,1/2+y,1/2-z
-x,-y,-z
x,1/2-y,1/2+z
loop_
_atom_site_type_symbol
_atom_site_label
_atom_site_fract_x
_atom_site_fract_y
_atom_site_fract_z
Si Si1 0.723475 0.191352 0.518081
Si Si2 0.432421 0.994887 0.381504
Si Si3 0.839756 0.279300 0.622771
Si Si4 0.712748 0.720972 0.784905
Si Si5 0.758802 0.913563 0.637976
Si Si6 0.403429 0.191681 0.320575
Si Si7 0.792731 0.411255 0.095024
Si Si8 0.425611 0.451545 0.471742
O O1 0.473076 0.190424 0.668853
O O2 0.797297 0.136770 0.493484
O O3 0.801130 0.223022 0.605461
O O4 0.829769 0.214176 0.304066
O O5 0.371218 0.047826 0.367120
O O6 0.500000 0.000000 0.500000
O O7 0.236807 0.958169 0.492112
O O8 0.624297 0.970901 0.161111
O O9 0.063448 0.297490 0.418511
O O10 0.653542 0.309408 0.668750
O O11 0.674921 0.777108 0.766594
O O12 0.701218 0.715392 0.967081
O O13 0.667802 0.862440 0.654566
O O14 0.000095 0.915751 0.444310
O O15 0.749622 0.924897 0.819697
O O16 0.611349 0.411876 0.335641
O O17 0.500000 0.500000 0.500000
#
# Coordination Sequence:
#
# PCOD8126070 Si02
#       8
#     4   4   4   4   4   4   4   4
#     4  10  22  37  59  88 122 160 204 247 298 357
#     4   9  21  40  64  87 124 150 190 264 302 350
#     4  10  21  38  58  84 127 160 208 247 300 352
#     4  10  21  39  55  84 127 158 203 250 299 345
#     4  11  21  40  66  88 119 163 207 237 309 367
#     4  10  23  35  61  89 120 163 205 250 294 359
#     4  10  22  38  66  87 121 160 199 246 306 359
#     4   8  20  37  60  83 117 150 197 238 295 363
#
# _framework density 19.623308000000002
#
# number of rings (size 3 to 8) (size 9 to 14) (size 15 to 20)
#    0.750    1.500    0.000    1.875    3.500    6.000 
#    0.000    0.625    0.000    0.000    0.000    0.000 
#    0.000    0.000    0.000    0.000    0.000    0.000 
#
# Total GULP energy -396429.981452 kJ/mol
# GULP energy per Si atom -12388.436920 kJ/mol
# Density = 1.957864 g / cm^3
# Si number density = 19.623308 Si / 1000 Ang^3
#
#
#
# Elastic Constant Matrix: (Units=GPa)
#
#
# Indices 1 2 3 4 5 6 
#
# 1 66.5938 35.7232 41.3057 0.0000 2.2599 0.0000
# 2 35.7232 123.2530 36.7291 0.0000 18.3883 0.0000
# 3 41.3057 36.7291 103.5178 0.0000 2.0282 0.0000
# 4 0.0000 0.0000 0.0000 19.8720 0.0000 3.0622
# 5 2.2599 18.3883 2.0282 0.0000 40.6569 0.0000
# 6 0.0000 0.0000 0.0000 3.0622 0.0000 21.4191
#
#
#
# Elastic Compliance Matrix: (Units=1/GPa)
#
#
# Indices 1 2 3 4 5 6 
#
# 1 0.021745 -0.004334 -0.007161 0.000000 0.001109 0.000000
# 2 -0.004334 0.010617 -0.001950 0.000000 -0.004463 0.000000
# 3 -0.007161 -0.001950 0.013197 0.000000 0.000622 0.000000
# 4 0.000000 0.000000 0.000000 0.051456 0.000000 -0.007356
# 5 0.001109 -0.004463 0.000622 0.000000 0.026522 0.000000
# 6 0.000000 0.000000 0.000000 -0.007356 0.000000 0.047739
#
#
# Mechanical properties :
#
#
# Convention : Reuss Voigt Hill
#
# Bulk Modulus (GPa) = 53.56389 57.87563 55.71976
# Shear Modulus (GPa) = 24.46320 28.36338 26.41329
#
# Velocity S-wave (km/s) = 3.53461 3.80596 3.67279
# Velocity P-wave (km/s) = 6.63425 6.99078 6.81485
#
# Compressibility (1/GPa) = 0.01866929
#
# Stress axis : x y z
#
# Youngs Moduli (GPa) = 45.98695 94.19221 75.77388
#
# Poissons Ratio (x) = 0.40824 0.54260
# Poissons Ratio (y) = 0.19931 0.14776
# Poissons Ratio (z) = 0.32930 0.18368
#
# Static dielectric constant tensor:
#      x y z
#    x 3.434880 0.000000 -0.053920 
#    y 0.000000 3.648370 0.000000 
#    z -0.053920 0.000000 3.768350 
# 
# 
# High freq. dielectric constant tensor:
#      x y z
#    x 1.750750 0.000000 0.000420 
#    y 0.000000 1.762540 0.000000 
#    z 0.000420 0.000000 1.765030 
# 
# From -- ./inp_files/11047.got.cif
#   From: 2010.03.12/outbox.cif.g09.slc.cpg/sg14_6_cif.got.tgz:11047.got - 2010.03.31 13:35:05.
