data_PCOD8126197
_publ_section_title
;
Structure prediction by ZEFSAII (Michael W. Deem and Ramdas Pophale) SiO2 
 PCOD8126197
Probable space group: P 21/C
;
_chemical_formula_sum "Si O2"
_cell_formula_units_Z 32
_cell_length_a 8.154444
_cell_length_b 11.818130
_cell_length_c 14.941436
_cell_angle_alpha 90.000000
_cell_angle_beta 82.440597
_cell_angle_gamma 90.000000
_cell_volume 1427.396102
_symmetry_space_group_name_H-M "P 21/C"
_symmetry_group_IT_number 14
_symmetry_cell_setting 'monoclinic'
loop_
_space_group_symop_operation_xyz
x,y,z
-x,1/2+y,1/2-z
-x,-y,-z
x,1/2-y,1/2+z
loop_
_atom_site_type_symbol
_atom_site_label
_atom_site_fract_x
_atom_site_fract_y
_atom_site_fract_z
Si Si1 0.923564 0.045018 0.646993
Si Si2 0.675520 0.454907 0.317977
Si Si3 0.643302 0.088628 0.146200
Si Si4 0.484561 0.259859 0.789609
Si Si5 0.093556 0.843443 0.540483
Si Si6 0.240275 0.093238 0.734482
Si Si7 0.576605 0.439048 0.910728
Si Si8 0.877587 0.408213 0.469384
O O1 0.753045 0.032785 0.713334
O O2 0.903282 0.127795 0.564627
O O3 0.060101 0.101321 0.703106
O O4 0.969265 0.921143 0.606396
O O5 0.550320 0.556703 0.346965
O O6 0.567240 0.342933 0.336354
O O7 0.819797 0.459774 0.380085
O O8 0.628856 0.199706 0.209770
O O9 0.720398 0.117034 0.044745
O O10 0.761178 0.991630 0.180493
O O11 0.311755 0.217181 0.757183
O O12 0.448267 0.359626 0.864800
O O13 0.273671 0.859004 0.570031
O O14 0.034509 0.713030 0.554478
O O15 0.369780 0.042245 0.655289
O O16 0.500000 0.500000 0.000000
O O17 0.000000 0.500000 0.500000
#
# Coordination Sequence:
#
# PCOD8126197 Si02
#       8
#     4   4   4   4   4   4   4   4
#     4  10  22  44  68 100 134 180 230 282 352 408
#     4  11  23  43  67  95 133 178 225 284 337 412
#     4  10  23  41  64  96 132 171 231 273 339 416
#     4  10  21  40  67  96 133 179 220 292 346 396
#     4  10  23  44  69  96 141 180 229 287 340 420
#     4   9  21  40  61  98 132 171 227 280 341 416
#     4  10  21  38  68 100 132 178 235 289 347 416
#     4  12  25  44  66  97 139 187 221 280 351 416
#
# _framework density 22.418444999999998
#
# number of rings (size 3 to 8) (size 9 to 14) (size 15 to 20)
#    0.000    1.750    1.250    1.875    7.000    1.000 
#    9.000    0.000    0.000    0.000    0.000    0.000 
#    0.000    0.000    0.000    0.000    0.000    0.000 
#
# Total GULP energy -396773.040749 kJ/mol
# GULP energy per Si atom -12399.157523 kJ/mol
# Density = 2.236742 g / cm^3
# Si number density = 22.418445 Si / 1000 Ang^3
#
#
#
# Elastic Constant Matrix: (Units=GPa)
#
#
# Indices 1 2 3 4 5 6 
#
# 1 68.2229 29.9153 23.6151 0.0000 12.7879 0.0000
# 2 29.9153 93.3952 22.3761 0.0000 11.2569 0.0000
# 3 23.6151 22.3761 105.7219 0.0000 3.5178 0.0000
# 4 0.0000 0.0000 0.0000 31.3899 0.0000 9.5466
# 5 12.7879 11.2569 3.5178 0.0000 42.4686 0.0000
# 6 0.0000 0.0000 0.0000 9.5466 0.0000 28.4399
#
#
#
# Elastic Compliance Matrix: (Units=1/GPa)
#
#
# Indices 1 2 3 4 5 6 
#
# 1 0.018534 -0.004725 -0.003004 0.000000 -0.004080 0.000000
# 2 -0.004725 0.012826 -0.001598 0.000000 -0.001844 0.000000
# 3 -0.003004 -0.001598 0.010453 0.000000 0.000462 0.000000
# 4 0.000000 0.000000 0.000000 0.035479 0.000000 -0.011910
# 5 -0.004080 -0.001844 0.000462 0.000000 0.025226 0.000000
# 6 0.000000 0.000000 0.000000 -0.011910 0.000000 0.039160
#
#
# Mechanical properties :
#
#
# Convention : Reuss Voigt Hill
#
# Bulk Modulus (GPa) = 43.18071 46.57255 44.87663
# Shear Modulus (GPa) = 29.75276 33.22190 31.48733
#
# Velocity S-wave (km/s) = 3.64697 3.85372 3.75177
# Velocity P-wave (km/s) = 6.08579 6.37345 6.23128
#
# Compressibility (1/GPa) = 0.02315849
#
# Stress axis : x y z
#
# Youngs Moduli (GPa) = 53.95371 77.96759 95.66995
#
# Poissons Ratio (x) = 0.36842 0.28741
# Poissons Ratio (y) = 0.25495 0.15286
# Poissons Ratio (z) = 0.16209 0.12457
#
# Static dielectric constant tensor:
#      x y z
#    x 3.884490 0.000000 0.221550 
#    y 0.000000 4.017090 0.000000 
#    z 0.221550 0.000000 4.284820 
# 
# 
# High freq. dielectric constant tensor:
#      x y z
#    x 1.870280 0.000000 0.009270 
#    y 0.000000 1.883100 0.000000 
#    z 0.009270 0.000000 1.894400 
# 
# From -- ./inp_files/40340.got.cif
#   From: 2010.03.12/outbox.cif.g09.slc.cpg/sg14_21_cif.got.tgz:40340.got - 2010.03.31 13:35:05.
