data_PCOD8126046
_publ_section_title
;
Structure prediction by ZEFSAII (Michael W. Deem and Ramdas Pophale) SiO2 
 PCOD8126046
Probable space group: P 21/C
;
_chemical_formula_sum "Si O2"
_cell_formula_units_Z 24
_cell_length_a 14.443469
_cell_length_b 16.330395
_cell_length_c 14.418096
_cell_angle_alpha 90.000000
_cell_angle_beta 19.796484
_cell_angle_gamma 90.000000
_cell_volume 1151.770366
_symmetry_space_group_name_H-M "P 21/C"
_symmetry_group_IT_number 14
_symmetry_cell_setting 'monoclinic'
loop_
_space_group_symop_operation_xyz
x,y,z
-x,1/2+y,1/2-z
-x,-y,-z
x,1/2-y,1/2+z
loop_
_atom_site_type_symbol
_atom_site_label
_atom_site_fract_x
_atom_site_fract_y
_atom_site_fract_z
Si Si1 0.428976 0.532826 0.854096
Si Si2 0.022623 0.513358 0.586424
Si Si3 0.340918 0.133386 0.340235
Si Si4 0.116242 0.681377 0.591310
Si Si5 0.406745 0.407252 0.572558
Si Si6 0.856495 0.145679 0.512446
O O1 0.744553 0.543856 0.586137
O O2 0.396979 0.461801 0.808093
O O3 0.309185 0.614279 0.921150
O O4 0.268624 0.511024 0.098350
O O5 0.088122 0.607938 0.544640
O O6 0.000000 0.500000 0.500000
O O7 0.332180 0.140623 0.237484
O O8 0.062618 0.165543 0.648064
O O9 0.575984 0.189501 0.162360
O O10 0.041275 0.762722 0.605439
O O11 0.500000 0.500000 0.500000
O O12 0.653189 0.357703 0.291953
O O13 0.130185 0.408045 0.771584
#
# Coordination Sequence:
#
# PCOD8126046 Si02
#       6
#     4   4   4   4   4   4
#     4  10  21  37  65  86 119 164 201 257 314 375
#     4  10  21  41  64  87 118 165 221 253 302 375
#     4  10  21  41  63  88 123 170 206 242 326 383
#     4  10  23  42  62  87 131 170 201 265 320 368
#     4  12  24  39  69  97 129 165 213 263 316 391
#     4  12  24  41  62  98 134 159 214 269 323 374
#
# _framework density 20.837486999999999
#
# number of rings (size 3 to 8) (size 9 to 14) (size 15 to 20)
#    0.000    1.333    1.667    4.000    4.667    0.000 
#    9.000    0.000    0.000    0.000    0.000    0.000 
#    0.000    0.000    0.000    0.000    0.000    0.000 
#
# Total GULP energy -297704.718355 kJ/mol
# GULP energy per Si atom -12404.363265 kJ/mol
# Density = 2.079006 g / cm^3
# Si number density = 20.837487 Si / 1000 Ang^3
#
#
#
# Elastic Constant Matrix: (Units=GPa)
#
#
# Indices 1 2 3 4 5 6 
#
# 1 102.3845 48.4526 24.1929 0.0000 13.0815 0.0000
# 2 48.4526 88.2766 27.1597 0.0000 -0.7924 0.0000
# 3 24.1929 27.1597 84.2336 0.0000 -7.4699 0.0000
# 4 0.0000 0.0000 0.0000 26.2384 0.0000 -1.5759
# 5 13.0815 -0.7924 -7.4699 0.0000 33.8358 0.0000
# 6 0.0000 0.0000 0.0000 -1.5759 0.0000 22.1003
#
#
#
# Elastic Compliance Matrix: (Units=1/GPa)
#
#
# Indices 1 2 3 4 5 6 
#
# 1 0.014621 -0.007345 -0.002394 0.000000 -0.006353 0.000000
# 2 -0.007345 0.016278 -0.002910 0.000000 0.002579 0.000000
# 3 -0.002394 -0.002910 0.013845 0.000000 0.003914 0.000000
# 4 0.000000 0.000000 0.000000 0.038276 0.000000 0.002729
# 5 -0.006353 0.002579 0.003914 0.000000 0.032935 0.000000
# 6 0.000000 0.000000 0.000000 0.002729 0.000000 0.045443
#
#
# Mechanical properties :
#
#
# Convention : Reuss Voigt Hill
#
# Bulk Modulus (GPa) = 51.42968 52.72280 52.07624
# Shear Modulus (GPa) = 25.88273 28.10753 26.99513
#
# Velocity S-wave (km/s) = 3.52820 3.67671 3.60322
# Velocity P-wave (km/s) = 6.42904 6.58643 6.50821
#
# Compressibility (1/GPa) = 0.01944403
#
# Stress axis : x y z
#
# Youngs Moduli (GPa) = 68.39621 61.43183 72.22871
#
# Poissons Ratio (x) = 0.45123 0.17294
# Poissons Ratio (y) = 0.50239 0.21021
# Poissons Ratio (z) = 0.16376 0.17879
#
# Static dielectric constant tensor:
#      x y z
#    x 3.693610 0.000000 -0.003190 
#    y 0.000000 3.477200 0.000000 
#    z -0.003190 0.000000 4.056520 
# 
# 
# High freq. dielectric constant tensor:
#      x y z
#    x 1.815820 0.000000 0.002330 
#    y 0.000000 1.790410 0.000000 
#    z 0.002330 0.000000 1.839660 
# 
# From -- ./inp_files/47513.got.cif
#   From: 2010.03.12/outbox.cif.g09.slc.cpg/sg14_24_cif.got.tgz:47513.got - 2010.03.31 13:35:05.
