data_PCOD8126844
_publ_section_title
;
Structure prediction by ZEFSAII (Michael W. Deem and Ramdas Pophale) SiO2 
 PCOD8126844
Probable space group: P 21/C
;
_chemical_formula_sum "Si O2"
_cell_formula_units_Z 20
_cell_length_a 9.187368
_cell_length_b 15.468005
_cell_length_c 8.821325
_cell_angle_alpha 90.000000
_cell_angle_beta 51.451224
_cell_angle_gamma 90.000000
_cell_volume 980.413464
_symmetry_space_group_name_H-M "P 21/C"
_symmetry_group_IT_number 14
_symmetry_cell_setting 'monoclinic'
loop_
_space_group_symop_operation_xyz
x,y,z
-x,1/2+y,1/2-z
-x,-y,-z
x,1/2-y,1/2+z
loop_
_atom_site_type_symbol
_atom_site_label
_atom_site_fract_x
_atom_site_fract_y
_atom_site_fract_z
Si Si1 0.961519 0.492226 0.200905
Si Si2 0.305606 0.387719 0.479847
Si Si3 0.327021 0.059358 0.635885
Si Si4 0.512085 0.716062 0.138211
Si Si5 0.360349 0.856789 0.048666
O O1 0.876361 0.584703 0.306972
O O2 0.830177 0.410233 0.326543
O O3 0.153041 0.480061 0.162679
O O4 0.000000 0.500000 0.000000
O O5 0.289798 0.442981 0.338340
O O6 0.326377 0.286147 0.422525
O O7 0.482347 0.415016 0.469871
O O8 0.377682 0.153885 0.545150
O O9 0.500000 0.000000 0.500000
O O10 0.346885 0.766049 0.152312
O O11 0.423498 0.665551 0.336566
#
# Coordination Sequence:
#
# PCOD8126844 Si02
#       5
#     4   4   4   4   4
#     4  12  25  41  67 103 134 181 223 282 333 413
#     4  10  21  43  66  95 133 175 225 278 334 397
#     4  12  24  43  67  98 140 179 226 275 342 400
#     4  10  21  43  68  94 130 178 219 282 332 400
#     4  10  21  43  68  91 133 170 228 272 347 387
#
# _framework density 20.399554999999999
#
# number of rings (size 3 to 8) (size 9 to 14) (size 15 to 20)
#    1.200    0.000    2.000    4.800    0.000    0.000 
#   10.800    0.000    0.000    0.000    0.000    0.000 
#    0.000    0.000    0.000    0.000    0.000    0.000 
#
# Total GULP energy -247812.242247 kJ/mol
# GULP energy per Si atom -12390.612112 kJ/mol
# Density = 2.035313 g / cm^3
# Si number density = 20.399555 Si / 1000 Ang^3
#
#
#
# Elastic Constant Matrix: (Units=GPa)
#
#
# Indices 1 2 3 4 5 6 
#
# 1 121.3941 29.2183 53.7780 0.0000 -16.6519 0.0000
# 2 29.2183 84.2192 50.3522 0.0000 -17.6958 0.0000
# 3 53.7780 50.3522 155.4597 0.0000 10.5943 0.0000
# 4 0.0000 0.0000 0.0000 37.2380 0.0000 -2.8104
# 5 -16.6519 -17.6958 10.5943 0.0000 38.6921 0.0000
# 6 0.0000 0.0000 0.0000 -2.8104 0.0000 28.9607
#
#
#
# Elastic Compliance Matrix: (Units=1/GPa)
#
#
# Indices 1 2 3 4 5 6 
#
# 1 0.010880 -0.000096 -0.004126 0.000000 0.005768 0.000000
# 2 -0.000096 0.017809 -0.006407 0.000000 0.009858 0.000000
# 3 -0.004126 -0.006407 0.010450 0.000000 -0.007567 0.000000
# 4 0.000000 0.000000 0.000000 0.027052 0.000000 0.002625
# 5 0.005768 0.009858 -0.007567 0.000000 0.034908 0.000000
# 6 0.000000 0.000000 0.000000 0.002625 0.000000 0.034784
#
#
# Mechanical properties :
#
#
# Convention : Reuss Voigt Hill
#
# Bulk Modulus (GPa) = 55.92127 69.75224 62.83675
# Shear Modulus (GPa) = 30.65595 36.15977 33.40786
#
# Velocity S-wave (km/s) = 3.88077 4.21476 4.05121
# Velocity P-wave (km/s) = 6.89587 7.61268 7.26312
#
# Compressibility (1/GPa) = 0.01788228
#
# Stress axis : x y z
#
# Youngs Moduli (GPa) = 91.91533 56.15233 95.68976
#
# Poissons Ratio (x) = 0.00539 0.39477
# Poissons Ratio (y) = 0.00882 0.61305
# Poissons Ratio (z) = 0.37920 0.35975
#
# Static dielectric constant tensor:
#      x y z
#    x 3.704640 0.000000 0.272370 
#    y 0.000000 3.619280 0.000000 
#    z 0.272370 0.000000 3.870560 
# 
# 
# High freq. dielectric constant tensor:
#      x y z
#    x 1.792460 0.000000 0.022370 
#    y 0.000000 1.802430 0.000000 
#    z 0.022370 0.000000 1.803370 
# 
# From -- ./inp_files/8962.got.cif
#   From: 2010.03.12/outbox.cif.g09.slc.cpg/sg14_5_cif.got.tgz:8962.got - 2010.03.31 13:35:05.
