data_PCOD8126966
_publ_section_title
;
Structure prediction by ZEFSAII (Michael W. Deem and Ramdas Pophale) SiO2 
 PCOD8126966
Probable space group: P 21/C
;
_chemical_formula_sum "Si O2"
_cell_formula_units_Z 28
_cell_length_a 27.894543
_cell_length_b 8.497078
_cell_length_c 8.440812
_cell_angle_alpha 90.000000
_cell_angle_beta 43.516560
_cell_angle_gamma 90.000000
_cell_volume 1377.582197
_symmetry_space_group_name_H-M "P 21/C"
_symmetry_group_IT_number 14
_symmetry_cell_setting 'monoclinic'
loop_
_space_group_symop_operation_xyz
x,y,z
-x,1/2+y,1/2-z
-x,-y,-z
x,1/2-y,1/2+z
loop_
_atom_site_type_symbol
_atom_site_label
_atom_site_fract_x
_atom_site_fract_y
_atom_site_fract_z
Si Si1 0.021225 0.248417 0.418470
Si Si2 0.521225 0.748418 0.418470
Si Si3 0.449857 0.937026 0.340693
Si Si4 0.843031 0.885692 0.253036
Si Si5 0.250000 0.321872 0.750000
Si Si6 0.656969 0.614308 0.746964
Si Si7 0.949858 0.437026 0.340694
O O1 0.092348 0.279447 0.341677
O O2 0.999383 0.402588 0.372883
O O3 0.958560 0.199472 0.689327
O O4 0.029050 0.105654 0.277568
O O5 0.499383 0.902589 0.372883
O O6 0.529050 0.605654 0.277567
O O7 0.458560 0.699472 0.689326
O O8 0.592348 0.779448 0.341677
O O9 0.371186 0.954967 0.599842
O O10 0.792666 0.928701 0.521798
O O11 0.803530 0.786226 0.215933
O O12 0.871186 0.045034 0.099843
O O13 0.303531 0.213776 0.715932
O O14 0.292666 0.428701 0.521797
#
# Coordination Sequence:
#
# PCOD8126966 Si02
#       7
#     4   4   4   4   4   4   4
#     4  11  22  37  62  96 120 152 190 256 310 352
#     4  11  22  37  62  96 120 152 190 256 310 352
#     4  11  22  37  60  94 125 150 195 246 313 351
#     4  11  20  39  59  93 115 155 204 246 285 354
#     4  10  22  36  62  86 118 166 204 242 274 354
#     4  11  20  39  59  93 115 155 204 246 285 354
#     4  11  22  37  60  94 125 150 195 246 313 351
#
# _framework density 20.325465000000001
#
# number of rings (size 3 to 8) (size 9 to 14) (size 15 to 20)
#    0.000    1.143    5.714    0.857    0.000    0.000 
#    0.000    0.000    0.000    5.143    0.000    0.000 
#    0.000    0.000    0.000    0.000    0.000    0.000 
#
# Total GULP energy -346914.393242 kJ/mol
# GULP energy per Si atom -12389.799759 kJ/mol
# Density = 2.027920 g / cm^3
# Si number density = 20.325465 Si / 1000 Ang^3
#
#
#
# Elastic Constant Matrix: (Units=GPa)
#
#
# Indices 1 2 3 4 5 6 
#
# 1 128.9445 38.2840 49.5147 0.0000 0.7478 0.0000
# 2 38.2840 29.3286 30.1558 0.0000 -0.7783 0.0000
# 3 49.5147 30.1558 171.4437 0.0000 13.8902 0.0000
# 4 0.0000 0.0000 0.0000 40.9633 0.0000 6.9676
# 5 0.7478 -0.7783 13.8902 0.0000 30.4668 0.0000
# 6 0.0000 0.0000 0.0000 6.9676 0.0000 22.4755
#
#
#
# Elastic Compliance Matrix: (Units=1/GPa)
#
#
# Indices 1 2 3 4 5 6 
#
# 1 0.012784 -0.015780 -0.000892 0.000000 -0.000310 0.000000
# 2 -0.015780 0.061723 -0.006706 0.000000 0.005021 0.000000
# 3 -0.000892 -0.006706 0.007561 0.000000 -0.003597 0.000000
# 4 0.000000 0.000000 0.000000 0.025771 0.000000 -0.007989
# 5 -0.000310 0.005021 -0.003597 0.000000 0.034598 0.000000
# 6 0.000000 0.000000 0.000000 -0.007989 0.000000 0.046970
#
#
# Mechanical properties :
#
#
# Convention : Reuss Voigt Hill
#
# Bulk Modulus (GPa) = 28.31756 62.84730 45.58243
# Shear Modulus (GPa) = 20.16670 32.89860 26.53265
#
# Velocity S-wave (km/s) = 3.15332 4.02754 3.61694
# Velocity P-wave (km/s) = 5.21730 7.25367 6.31806
#
# Compressibility (1/GPa) = 0.03531378
#
# Stress axis : x y z
#
# Youngs Moduli (GPa) = 78.21984 16.20148 132.25260
#
# Poissons Ratio (x) = 0.25565 0.11792
# Poissons Ratio (y) = 1.23428 0.88690
# Poissons Ratio (z) = 0.06974 0.10865
#
# Static dielectric constant tensor:
#      x y z
#    x 3.797730 0.000000 0.378810 
#    y 0.000000 3.405470 0.000000 
#    z 0.378810 0.000000 4.520820 
# 
# 
# High freq. dielectric constant tensor:
#      x y z
#    x 1.803760 0.000000 0.033300 
#    y 0.000000 1.752160 0.000000 
#    z 0.033300 0.000000 1.816840 
# 
# From -- ./inp_files/19647.got.cif
#   From: 2010.03.12/outbox.cif.g09.slc.cpg/sg14_10_cif.got.tgz:19647.got - 2010.03.31 13:35:05.
