data_PCOD8126664
_publ_section_title
;
Structure prediction by ZEFSAII (Michael W. Deem and Ramdas Pophale) SiO2 
 PCOD8126664
Probable space group: P 21/C
;
_chemical_formula_sum "Si O2"
_cell_formula_units_Z 32
_cell_length_a 21.882151
_cell_length_b 8.069790
_cell_length_c 19.322308
_cell_angle_alpha 90.000000
_cell_angle_beta 153.663405
_cell_angle_gamma 90.000000
_cell_volume 1513.720012
_symmetry_space_group_name_H-M "P 21/C"
_symmetry_group_IT_number 14
_symmetry_cell_setting 'monoclinic'
loop_
_space_group_symop_operation_xyz
x,y,z
-x,1/2+y,1/2-z
-x,-y,-z
x,1/2-y,1/2+z
loop_
_atom_site_type_symbol
_atom_site_label
_atom_site_fract_x
_atom_site_fract_y
_atom_site_fract_z
Si Si1 0.138794 0.191088 0.825354
Si Si2 0.016922 0.850264 0.068535
Si Si3 0.046486 0.941849 0.247234
Si Si4 0.826323 0.878866 0.294087
Si Si5 0.302803 0.772246 0.857051
Si Si6 0.353049 0.657361 0.050529
Si Si7 0.530881 0.819016 0.997321
Si Si8 0.557119 0.718433 0.871835
O O1 0.068423 0.366374 0.759699
O O2 0.113946 0.129532 0.722309
O O3 0.059613 0.070795 0.797170
O O4 0.300908 0.194234 0.007857
O O5 0.969545 0.874218 0.099800
O O6 0.181805 0.858693 0.238708
O O7 0.945153 0.680540 0.967851
O O8 0.000000 0.000000 0.000000
O O9 0.193196 0.854378 0.411887
O O10 0.769324 0.063257 0.247153
O O11 0.690640 0.763547 0.169288
O O12 0.422900 0.702622 0.928331
O O13 0.365357 0.784334 0.997955
O O14 0.416285 0.478485 0.093842
O O15 0.438843 0.746230 0.196927
O O16 0.501890 0.803571 0.886265
O O17 0.500000 0.000000 0.000000
#
# Coordination Sequence:
#
# PCOD8126664 Si02
#       8
#     4   4   4   4   4   4   4   4
#     4  10  22  40  63  90 125 164 204 255 311 371
#     4  11  22  42  62  89 127 164 208 260 311 374
#     4  10  23  41  60  93 124 163 207 260 308 373
#     4  10  21  41  67  86 128 166 203 256 321 368
#     4  10  23  41  64  94 123 163 209 261 314 376
#     4  10  24  41  64  90 130 161 212 265 309 382
#     4   9  21  41  65  92 124 161 210 262 315 376
#     4  10  23  42  62  94 126 168 210 259 322 374
#
# _framework density 21.139973000000001
#
# number of rings (size 3 to 8) (size 9 to 14) (size 15 to 20)
#    0.000    2.000    1.250    0.375   10.500    2.500 
#    9.000    0.000    0.000    0.000    0.000    0.000 
#    0.000    0.000    0.000    0.000    0.000    0.000 
#
# Total GULP energy -396491.255905 kJ/mol
# GULP energy per Si atom -12390.351747 kJ/mol
# Density = 2.109186 g / cm^3
# Si number density = 21.139973 Si / 1000 Ang^3
#
#
#
# Elastic Constant Matrix: (Units=GPa)
#
#
# Indices 1 2 3 4 5 6 
#
# 1 161.4318 13.9544 52.1150 0.0000 8.9934 0.0000
# 2 13.9544 40.0874 7.2057 0.0000 -5.9596 0.0000
# 3 52.1150 7.2057 110.2222 0.0000 -18.1608 0.0000
# 4 0.0000 0.0000 0.0000 31.4478 0.0000 -3.4696
# 5 8.9934 -5.9596 -18.1608 0.0000 29.1905 0.0000
# 6 0.0000 0.0000 0.0000 -3.4696 0.0000 24.9098
#
#
#
# Elastic Compliance Matrix: (Units=1/GPa)
#
#
# Indices 1 2 3 4 5 6 
#
# 1 0.008325 -0.002954 -0.004752 0.000000 -0.006125 0.000000
# 2 -0.002954 0.026857 0.000774 0.000000 0.006875 0.000000
# 3 -0.004752 0.000774 0.012854 0.000000 0.009619 0.000000
# 4 0.000000 0.000000 0.000000 0.032295 0.000000 0.004498
# 5 -0.006125 0.006875 0.009619 0.000000 0.043533 0.000000
# 6 0.000000 0.000000 0.000000 0.004498 0.000000 0.040771
#
#
# Mechanical properties :
#
#
# Convention : Reuss Voigt Hill
#
# Bulk Modulus (GPa) = 29.26515 50.92131 40.09323
# Shear Modulus (GPa) = 26.33082 33.00737 29.66910
#
# Velocity S-wave (km/s) = 3.53306 3.95571 3.75034
# Velocity P-wave (km/s) = 5.52421 6.70846 6.14493
#
# Compressibility (1/GPa) = 0.03417033
#
# Stress axis : x y z
#
# Youngs Moduli (GPa) = 120.11443 37.23443 77.79714
#
# Poissons Ratio (x) = 0.11000 0.36973
# Poissons Ratio (y) = 0.35486 -0.06020
# Poissons Ratio (z) = 0.57083 -0.02881
#
# Static dielectric constant tensor:
#      x y z
#    x 4.535330 0.000000 0.572060 
#    y 0.000000 3.747630 0.000000 
#    z 0.572060 0.000000 4.310230 
# 
# 
# High freq. dielectric constant tensor:
#      x y z
#    x 1.834240 0.000000 0.006990 
#    y 0.000000 1.820420 0.000000 
#    z 0.006990 0.000000 1.833440 
# 
# From -- ./inp_files/61153.got.cif
#   From: 2010.03.12/outbox.cif.g09.slc.cpg/sg14_31_cif.got.tgz:61153.got - 2010.03.31 13:35:05.
