data_PCOD8126571
_publ_section_title
;
Structure prediction by ZEFSAII (Michael W. Deem and Ramdas Pophale) SiO2 
 PCOD8126571
Probable space group: P 21/C
;
_chemical_formula_sum "Si O2"
_cell_formula_units_Z 28
_cell_length_a 9.072459
_cell_length_b 17.795527
_cell_length_c 14.797798
_cell_angle_alpha 90.000000
_cell_angle_beta 32.023675
_cell_angle_gamma 90.000000
_cell_volume 1266.863209
_symmetry_space_group_name_H-M "P 21/C"
_symmetry_group_IT_number 14
_symmetry_cell_setting 'monoclinic'
loop_
_space_group_symop_operation_xyz
x,y,z
-x,1/2+y,1/2-z
-x,-y,-z
x,1/2-y,1/2+z
loop_
_atom_site_type_symbol
_atom_site_label
_atom_site_fract_x
_atom_site_fract_y
_atom_site_fract_z
Si Si1 0.019283 0.925331 0.929749
Si Si2 0.685051 0.159981 0.937967
Si Si3 0.398019 0.150125 0.393514
Si Si4 0.732839 0.781454 0.345943
Si Si5 0.184759 0.598416 0.826044
Si Si6 0.405798 0.991831 0.948371
Si Si7 0.594174 0.806342 0.217862
O O1 0.334580 0.902610 0.750202
O O2 0.865342 0.851448 0.045570
O O3 0.860904 0.953141 0.921952
O O4 0.000000 0.000000 0.000000
O O5 0.751750 0.127346 0.806608
O O6 0.931385 0.218230 0.836770
O O7 0.382364 0.197155 0.085388
O O8 0.673200 0.096257 0.023716
O O9 0.365988 0.171982 0.515331
O O10 0.403423 0.222410 0.324985
O O11 0.146583 0.096227 0.490675
O O12 0.592505 0.811005 0.326982
O O13 0.343128 0.517426 0.750368
O O14 0.308660 0.655011 0.835449
O O15 0.500000 0.000000 0.000000
#
# Coordination Sequence:
#
# PCOD8126571 Si02
#       7
#     4   4   4   4   4   4   4
#     4  11  25  45  70  98 139 182 229 286 353 404
#     4  10  21  41  61  99 130 172 224 279 339 409
#     4  11  24  44  69 102 139 181 233 290 337 415
#     4  11  25  38  68  99 134 174 229 276 342 410
#     4   9  20  41  66  95 131 175 225 275 341 403
#     4   9  20  41  66  89 132 176 217 275 343 403
#     4  11  23  42  67 101 137 182 227 286 343 415
#
# _framework density 22.101835999999999
#
# number of rings (size 3 to 8) (size 9 to 14) (size 15 to 20)
#    0.000    1.714    1.429    1.714    8.000    0.000 
#    0.000   18.571    0.000    0.000    0.000    0.000 
#    0.000    0.000    0.000    0.000    0.000    0.000 
#
# Total GULP energy -346916.012710 kJ/mol
# GULP energy per Si atom -12389.857597 kJ/mol
# Density = 2.205153 g / cm^3
# Si number density = 22.101836 Si / 1000 Ang^3
#
#
#
# Elastic Constant Matrix: (Units=GPa)
#
#
# Indices 1 2 3 4 5 6 
#
# 1 110.1424 27.1976 54.3337 0.0000 -13.8428 0.0000
# 2 27.1976 108.9413 67.9876 0.0000 -23.4967 0.0000
# 3 54.3337 67.9876 111.5018 0.0000 -38.8671 0.0000
# 4 0.0000 0.0000 0.0000 25.0918 0.0000 -2.9503
# 5 -13.8428 -23.4967 -38.8671 0.0000 40.5615 0.0000
# 6 0.0000 0.0000 0.0000 -2.9503 0.0000 34.4196
#
#
#
# Elastic Compliance Matrix: (Units=1/GPa)
#
#
# Indices 1 2 3 4 5 6 
#
# 1 0.012169 0.001077 -0.007389 0.000000 -0.002304 0.000000
# 2 0.001077 0.014913 -0.009728 0.000000 -0.000315 0.000000
# 3 -0.007389 -0.009728 0.023510 0.000000 0.014371 0.000000
# 4 0.000000 0.000000 0.000000 0.040259 0.000000 0.003451
# 5 -0.002304 -0.000315 0.014371 0.000000 0.037456 0.000000
# 6 0.000000 0.000000 0.000000 0.003451 0.000000 0.029349
#
#
# Mechanical properties :
#
#
# Convention : Reuss Voigt Hill
#
# Bulk Modulus (GPa) = 54.02079 69.95813 61.98946
# Shear Modulus (GPa) = 25.52215 32.08568 28.80392
#
# Velocity S-wave (km/s) = 3.40185 3.81428 3.61395
# Velocity P-wave (km/s) = 6.31862 7.14980 6.74702
#
# Compressibility (1/GPa) = 0.01851139
#
# Stress axis : x y z
#
# Youngs Moduli (GPa) = 82.17628 67.05374 42.53499
#
# Poissons Ratio (x) = -0.07219 0.31431
# Poissons Ratio (y) = -0.08847 0.41377
# Poissons Ratio (z) = 0.60723 0.65228
#
# Static dielectric constant tensor:
#      x y z
#    x 4.442290 0.000000 -0.325930 
#    y 0.000000 1.740010 0.000000 
#    z -0.325930 0.000000 4.192120 
# 
# 
# High freq. dielectric constant tensor:
#      x y z
#    x 1.894260 0.000000 -0.013900 
#    y 0.000000 1.865520 0.000000 
#    z -0.013900 0.000000 1.856290 
# 
# From -- ./inp_files/42093.got.cif
#   From: 2010.03.12/outbox.cif.g09.slc.cpg/sg14_22_cif.got.tgz:42093.got - 2010.03.31 13:35:05.
