data_PCOD8126551
_publ_section_title
;
Structure prediction by ZEFSAII (Michael W. Deem and Ramdas Pophale) SiO2 
 PCOD8126551
Probable space group: P 21/C
;
_chemical_formula_sum "Si O2"
_cell_formula_units_Z 28
_cell_length_a 10.116550
_cell_length_b 14.101199
_cell_length_c 7.890626
_cell_angle_alpha 90.000000
_cell_angle_beta 79.642942
_cell_angle_gamma 90.000000
_cell_volume 1107.300433
_symmetry_space_group_name_H-M "P 21/C"
_symmetry_group_IT_number 14
_symmetry_cell_setting 'monoclinic'
loop_
_space_group_symop_operation_xyz
x,y,z
-x,1/2+y,1/2-z
-x,-y,-z
x,1/2-y,1/2+z
loop_
_atom_site_type_symbol
_atom_site_label
_atom_site_fract_x
_atom_site_fract_y
_atom_site_fract_z
Si Si1 0.679556 0.160135 0.346557
Si Si2 0.274024 0.260896 0.824161
Si Si3 0.836338 0.501614 0.916553
Si Si4 0.262311 0.637739 0.541612
Si Si5 0.808648 0.549534 0.297662
Si Si6 0.954004 0.614840 0.591131
Si Si7 0.597693 0.629096 0.921420
O O1 0.689000 0.273532 0.358686
O O2 0.550123 0.118849 0.473998
O O3 0.815505 0.111821 0.393871
O O4 0.658759 0.135210 0.153996
O O5 0.272956 0.352369 0.696860
O O6 0.130448 0.209882 0.860098
O O7 0.394226 0.184428 0.759892
O O8 0.303570 0.299220 0.001663
O O9 0.939890 0.547269 0.759903
O O10 0.117977 0.470353 0.902172
O O11 0.681038 0.531673 0.905501
O O12 0.289907 0.539905 0.639622
O O13 0.105203 0.649074 0.538758
O O14 0.912237 0.556235 0.431684
#
# Coordination Sequence:
#
# PCOD8126551 Si02
#       7
#     4   4   4   4   4   4   4
#     4  12  25  46  64 101 144 184 228 279 349 411
#     4  10  21  40  72  98 127 175 234 285 338 405
#     4  10  24  44  74 101 132 181 231 287 344 403
#     4  12  28  42  67  99 146 186 224 286 344 417
#     4  11  23  45  68 104 136 175 230 283 347 403
#     4  11  24  46  69 103 134 176 235 284 341 413
#     4  10  21  41  69  98 133 180 223 289 337 404
#
# _framework density 25.286722999999999
#
# number of rings (size 3 to 8) (size 9 to 14) (size 15 to 20)
#    0.000    1.143    2.857    2.571    2.000    0.571 
#    0.000    7.857    0.000    0.000    0.000    0.000 
#    0.000    0.000    0.000    0.000    0.000    0.000 
#
# Total GULP energy -347098.529860 kJ/mol
# GULP energy per Si atom -12396.376066 kJ/mol
# Density = 2.522917 g / cm^3
# Si number density = 25.286723 Si / 1000 Ang^3
#
#
#
# Elastic Constant Matrix: (Units=GPa)
#
#
# Indices 1 2 3 4 5 6 
#
# 1 30.6817 -4.1389 2.5269 0.0000 -5.2603 0.0000
# 2 -4.1389 95.7621 26.6889 0.0000 8.7442 0.0000
# 3 2.5269 26.6889 112.8157 0.0000 -0.1666 0.0000
# 4 0.0000 0.0000 0.0000 45.3266 0.0000 4.8224
# 5 -5.2603 8.7442 -0.1666 0.0000 41.0563 0.0000
# 6 0.0000 0.0000 0.0000 4.8224 0.0000 25.6478
#
#
#
# Elastic Compliance Matrix: (Units=1/GPa)
#
#
# Indices 1 2 3 4 5 6 
#
# 1 0.033554 0.001384 -0.001073 0.000000 0.004000 0.000000
# 2 0.001384 0.011477 -0.002749 0.000000 -0.002278 0.000000
# 3 -0.001073 -0.002749 0.009539 0.000000 0.000487 0.000000
# 4 0.000000 0.000000 0.000000 0.022512 0.000000 -0.004233
# 5 0.004000 -0.002278 0.000487 0.000000 0.025356 0.000000
# 6 0.000000 0.000000 0.000000 -0.004233 0.000000 0.039786
#
#
# Mechanical properties :
#
#
# Convention : Reuss Voigt Hill
#
# Bulk Modulus (GPa) = 20.12373 32.15705 26.14039
# Shear Modulus (GPa) = 30.55020 36.68497 33.61759
#
# Velocity S-wave (km/s) = 3.47962 3.81302 3.65013
# Velocity P-wave (km/s) = 4.91113 5.66834 5.30326
#
# Compressibility (1/GPa) = 0.04969257
#
# Stress axis : x y z
#
# Youngs Moduli (GPa) = 29.80305 87.13351 104.83064
#
# Poissons Ratio (x) = -0.12060 0.11249
# Poissons Ratio (y) = -0.04125 0.28822
# Poissons Ratio (z) = 0.03198 0.23957
#
# Static dielectric constant tensor:
#      x y z
#    x 4.054050 0.000000 0.087210 
#    y 0.000000 4.922370 0.000000 
#    z 0.087210 0.000000 4.679460 
# 
# 
# High freq. dielectric constant tensor:
#      x y z
#    x 1.976760 0.000000 -0.003620 
#    y 0.000000 2.034270 0.000000 
#    z -0.003620 0.000000 2.023700 
# 
# From -- ./inp_files/13060.got.cif
#   From: 2010.03.12/outbox.cif.g09.slc.cpg/sg14_7_cif.got.tgz:13060.got - 2010.03.31 13:35:05.
