data_PCOD8126380
_publ_section_title
;
Structure prediction by ZEFSAII (Michael W. Deem and Ramdas Pophale) SiO2 
 PCOD8126380
Probable space group: P 21/C
;
_chemical_formula_sum "Si O2"
_cell_formula_units_Z 28
_cell_length_a 8.126496
_cell_length_b 36.237325
_cell_length_c 5.140781
_cell_angle_alpha 90.000000
_cell_angle_beta 120.034779
_cell_angle_gamma 90.000000
_cell_volume 1310.590102
_symmetry_space_group_name_H-M "P 21/C"
_symmetry_group_IT_number 14
_symmetry_cell_setting 'monoclinic'
loop_
_space_group_symop_operation_xyz
x,y,z
-x,1/2+y,1/2-z
-x,-y,-z
x,1/2-y,1/2+z
loop_
_atom_site_type_symbol
_atom_site_label
_atom_site_fract_x
_atom_site_fract_y
_atom_site_fract_z
Si Si1 0.393234 0.727317 0.050023
Si Si2 0.741875 0.516776 0.478070
Si Si3 0.839577 0.727324 0.396829
Si Si4 0.813154 0.943998 0.525074
Si Si5 0.876673 0.384604 0.784732
Si Si6 0.119441 0.663378 0.711677
Si Si7 0.575180 0.444550 0.503268
O O1 0.327057 0.745603 0.266936
O O2 0.616409 0.720273 0.224026
O O3 0.297421 0.687812 0.941318
O O4 0.840640 0.528467 0.289071
O O5 0.723286 0.472467 0.478974
O O6 0.526979 0.534177 0.335224
O O7 0.872680 0.532869 0.815288
O O8 0.905439 0.745432 0.178887
O O9 0.934858 0.687811 0.507401
O O10 0.591180 0.931537 0.327782
O O11 0.940955 0.908001 0.660056
O O12 0.930496 0.364046 0.093050
O O13 0.692427 0.409615 0.696738
O O14 0.824667 0.357508 0.507828
#
# Coordination Sequence:
#
# PCOD8126380 Si02
#       7
#     4   4   4   4   4   4   4
#     4  10  21  40  68  92 113 152 205 245 287 337
#     4   9  20  40  66  83 113 151 211 264 307 322
#     4  10  21  40  67  89 115 153 198 246 288 338
#     4  10  21  40  58  87 114 157 196 255 293 362
#     4  12  27  37  59  87 129 164 198 225 315 366
#     4  12  25  40  57  92 126 162 188 242 291 366
#     4   9  23  39  63  87 115 155 206 261 301 349
#
# _framework density 21.364424
#
# number of rings (size 3 to 8) (size 9 to 14) (size 15 to 20)
#    0.857    0.857    0.000    3.857    2.000    3.429 
#    0.000    0.000    0.000    0.000    0.000    0.000 
#    0.000    0.000    0.000    0.000    0.000    0.000 
#
# Total GULP energy -347233.242708 kJ/mol
# GULP energy per Si atom -12401.187240 kJ/mol
# Density = 2.131580 g / cm^3
# Si number density = 21.364424 Si / 1000 Ang^3
#
#
#
# Elastic Constant Matrix: (Units=GPa)
#
#
# Indices 1 2 3 4 5 6 
#
# 1 30.1429 18.9827 23.6415 0.0000 -11.1418 0.0000
# 2 18.9827 93.8404 36.1331 0.0000 10.4148 0.0000
# 3 23.6415 36.1331 115.1689 0.0000 -15.0725 0.0000
# 4 0.0000 0.0000 0.0000 33.9371 0.0000 -4.8455
# 5 -11.1418 10.4148 -15.0725 0.0000 28.5243 0.0000
# 6 0.0000 0.0000 0.0000 -4.8455 0.0000 29.3525
#
#
#
# Elastic Compliance Matrix: (Units=1/GPa)
#
#
# Indices 1 2 3 4 5 6 
#
# 1 0.051767 -0.011322 -0.004176 0.000000 0.022148 0.000000
# 2 -0.011322 0.016014 -0.004345 0.000000 -0.012565 0.000000
# 3 -0.004176 -0.004345 0.011707 0.000000 0.006141 0.000000
# 4 0.000000 0.000000 0.000000 0.030178 0.000000 0.004982
# 5 0.022148 -0.012565 0.006141 0.000000 0.051542 0.000000
# 6 0.000000 0.000000 0.000000 0.004982 0.000000 0.034891
#
#
# Mechanical properties :
#
#
# Convention : Reuss Voigt Hill
#
# Bulk Modulus (GPa) = 25.12349 44.07410 34.59880
# Shear Modulus (GPa) = 20.07614 29.05576 24.56595
#
# Velocity S-wave (km/s) = 3.06878 3.69183 3.39463
# Velocity P-wave (km/s) = 4.93372 6.23276 5.62089
#
# Compressibility (1/GPa) = 0.03980338
#
# Stress axis : x y z
#
# Youngs Moduli (GPa) = 19.31720 62.44486 85.41969
#
# Poissons Ratio (x) = 0.70700 0.35670
# Poissons Ratio (y) = 0.21871 0.37111
# Poissons Ratio (z) = 0.08067 0.27130
#
# Static dielectric constant tensor:
#      x y z
#    x 3.737180 0.000000 -0.011820 
#    y 0.000000 3.689450 0.000000 
#    z -0.011820 0.000000 3.926880 
# 
# 
# High freq. dielectric constant tensor:
#      x y z
#    x 1.835210 0.000000 0.002090 
#    y 0.000000 1.830390 0.000000 
#    z 0.002090 0.000000 1.849310 
# 
# From -- ./inp_files/2284.got.cif
#   From: 2010.03.12/outbox.cif.g09.slc.cpg/sg14_2_cif.got.tgz:2284.got - 2010.03.31 13:35:05.
