data_PCOD8126773
_publ_section_title
;
Structure prediction by ZEFSAII (Michael W. Deem and Ramdas Pophale) SiO2 
 PCOD8126773
Probable space group: P 21/C
;
_chemical_formula_sum "Si O2"
_cell_formula_units_Z 32
_cell_length_a 11.853045
_cell_length_b 21.268163
_cell_length_c 11.349362
_cell_angle_alpha 90.000000
_cell_angle_beta 27.630347
_cell_angle_gamma 90.000000
_cell_volume 1326.873930
_symmetry_space_group_name_H-M "P 21/C"
_symmetry_group_IT_number 14
_symmetry_cell_setting 'monoclinic'
loop_
_space_group_symop_operation_xyz
x,y,z
-x,1/2+y,1/2-z
-x,-y,-z
x,1/2-y,1/2+z
loop_
_atom_site_type_symbol
_atom_site_label
_atom_site_fract_x
_atom_site_fract_y
_atom_site_fract_z
Si Si1 0.387799 0.886319 0.660852
Si Si2 0.111656 0.734674 0.409618
Si Si3 0.947124 0.366042 0.942643
Si Si4 0.126454 0.074439 0.501713
Si Si5 0.674198 0.033240 0.063601
Si Si6 0.451737 0.587907 0.852506
Si Si7 0.751527 0.797337 0.034037
Si Si8 0.202807 0.175190 0.605818
O O1 0.331728 0.813060 0.685914
O O2 0.252060 0.919504 0.896992
O O3 0.347183 0.928103 0.580445
O O4 0.670191 0.880251 0.436453
O O5 0.181438 0.808129 0.366056
O O6 0.940497 0.726717 0.455671
O O7 0.003492 0.709399 0.631215
O O8 0.133464 0.338716 0.676416
O O9 0.750920 0.410372 0.060578
O O10 0.087031 0.414084 0.899569
O O11 0.402691 0.048415 0.263282
O O12 0.092215 0.142136 0.593511
O O13 0.898245 0.032843 0.763430
O O14 0.657803 0.962572 0.129191
O O15 0.555436 0.658039 0.775733
O O16 0.625986 0.733708 0.098290
#
# Coordination Sequence:
#
# PCOD8126773 Si02
#       8
#     4   4   4   4   4   4   4   4
#     4  11  22  43  68 102 135 185 233 300 357 418
#     4  11  20  41  67 100 138 176 229 300 358 423
#     4  11  26  42  69 102 140 183 240 286 365 423
#     4  11  25  49  70 103 138 194 232 292 349 427
#     4  11  28  47  76  99 146 190 247 287 350 419
#     4  12  26  44  67 105 136 192 237 299 343 424
#     4  11  23  42  67 103 141 179 232 295 360 424
#     4  10  21  42  66  98 138 176 233 282 366 414
#
# _framework density 24.116834000000001
#
# number of rings (size 3 to 8) (size 9 to 14) (size 15 to 20)
#    0.000    1.000    5.000    1.125    3.500    1.000 
#    4.500    2.500    0.000    0.000    0.000    0.000 
#    0.000    0.000    0.000    0.000    0.000    0.000 
#
# Total GULP energy -396449.550818 kJ/mol
# GULP energy per Si atom -12389.048463 kJ/mol
# Density = 2.406194 g / cm^3
# Si number density = 24.116834 Si / 1000 Ang^3
#
#
#
# Elastic Constant Matrix: (Units=GPa)
#
#
# Indices 1 2 3 4 5 6 
#
# 1 114.9330 21.8869 13.5919 0.0000 1.7101 0.0000
# 2 21.8869 62.0619 1.0542 0.0000 -2.9382 0.0000
# 3 13.5919 1.0542 66.6059 0.0000 -4.0870 0.0000
# 4 0.0000 0.0000 0.0000 36.2611 0.0000 -2.7802
# 5 1.7101 -2.9382 -4.0870 0.0000 24.6705 0.0000
# 6 0.0000 0.0000 0.0000 -2.7802 0.0000 25.1924
#
#
#
# Elastic Compliance Matrix: (Units=1/GPa)
#
#
# Indices 1 2 3 4 5 6 
#
# 1 0.009609 -0.003421 -0.001993 0.000000 -0.001404 0.000000
# 2 -0.003421 0.017424 0.000570 0.000000 0.002407 0.000000
# 3 -0.001993 0.000570 0.015582 0.000000 0.002787 0.000000
# 4 0.000000 0.000000 0.000000 0.027813 0.000000 0.003069
# 5 -0.001404 0.002407 0.002787 0.000000 0.041380 0.000000
# 6 0.000000 0.000000 0.000000 0.003069 0.000000 0.040033
#
#
# Mechanical properties :
#
#
# Convention : Reuss Voigt Hill
#
# Bulk Modulus (GPa) = 30.37028 35.18520 32.77774
# Shear Modulus (GPa) = 28.98472 31.02934 30.00703
#
# Velocity S-wave (km/s) = 3.47053 3.59085 3.53120
# Velocity P-wave (km/s) = 5.35535 5.64034 5.49969
#
# Compressibility (1/GPa) = 0.03292693
#
# Stress axis : x y z
#
# Youngs Moduli (GPa) = 104.07135 57.39294 64.17515
#
# Poissons Ratio (x) = 0.19636 0.12789
# Poissons Ratio (y) = 0.35606 -0.03658
# Poissons Ratio (z) = 0.20739 -0.03272
#
# Static dielectric constant tensor:
#      x y z
#    x 4.544200 0.000000 0.190860 
#    y 0.000000 4.658180 0.000000 
#    z 0.190860 0.000000 3.947450 
# 
# 
# High freq. dielectric constant tensor:
#      x y z
#    x 1.972680 0.000000 0.014220 
#    y 0.000000 1.967600 0.000000 
#    z 0.014220 0.000000 1.927180 
# 
# From -- ./inp_files/30813.got.cif
#   From: 2010.03.12/outbox.cif.g09.slc.cpg/sg14_16_cif.got.tgz:30813.got - 2010.03.31 13:35:05.
