data_PCOD8126830
_publ_section_title
;
Structure prediction by ZEFSAII (Michael W. Deem and Ramdas Pophale) SiO2 
 PCOD8126830
Probable space group: P 21/C
;
_chemical_formula_sum "Si O2"
_cell_formula_units_Z 32
_cell_length_a 11.683627
_cell_length_b 17.840252
_cell_length_c 14.914305
_cell_angle_alpha 90.000000
_cell_angle_beta 150.393794
_cell_angle_gamma 90.000000
_cell_volume 1535.820016
_symmetry_space_group_name_H-M "P 21/C"
_symmetry_group_IT_number 14
_symmetry_cell_setting 'monoclinic'
loop_
_space_group_symop_operation_xyz
x,y,z
-x,1/2+y,1/2-z
-x,-y,-z
x,1/2-y,1/2+z
loop_
_atom_site_type_symbol
_atom_site_label
_atom_site_fract_x
_atom_site_fract_y
_atom_site_fract_z
Si Si1 0.983729 0.170463 0.849656
Si Si2 0.857840 0.498147 0.255995
Si Si3 0.320867 0.705060 0.023459
Si Si4 0.643020 0.835050 0.193735
Si Si5 0.571187 0.631615 0.444102
Si Si6 0.378893 0.973364 0.093008
Si Si7 0.469170 0.963291 0.620402
Si Si8 0.878893 0.210641 0.425387
O O1 0.877671 0.088893 0.795781
O O2 0.860446 0.209458 0.681332
O O3 0.941879 0.216700 0.910806
O O4 0.258691 0.164028 0.017281
O O5 0.711689 0.540642 0.232392
O O6 0.104395 0.538219 0.417662
O O7 0.727180 0.504790 0.071744
O O8 0.543241 0.753332 0.148025
O O9 0.396792 0.620422 0.097221
O O10 0.205316 0.738732 0.034529
O O11 0.473865 0.897785 0.116125
O O12 0.895838 0.842099 0.410565
O O13 0.674028 0.843625 0.108861
O O14 0.569177 0.541584 0.439176
O O15 0.314119 0.662535 0.256965
O O16 0.503806 0.988237 0.272144
#
# Coordination Sequence:
#
# PCOD8126830 Si02
#       8
#     4   4   4   4   4   4   4   4
#     4  10  22  44  70  94 130 175 217 269 329 386
#     4   9  22  41  69  94 130 169 219 273 322 383
#     4  11  23  44  67  95 136 167 217 273 330 384
#     4  12  27  41  65 101 127 175 223 263 325 404
#     4  11  23  46  64  91 132 176 211 274 330 378
#     4  11  24  41  66  94 131 170 223 264 327 386
#     4  10  21  43  64  98 128 172 212 274 332 376
#     4  12  24  42  67  95 133 174 214 268 329 387
#
# _framework density 20.835775999999999
#
# number of rings (size 3 to 8) (size 9 to 14) (size 15 to 20)
#    0.000    1.250    3.750    1.500    3.500    2.500 
#    0.000    0.000    0.000    0.000    0.000    0.000 
#    0.000    0.000    0.000    0.000    0.000    0.000 
#
# Total GULP energy -397002.602358 kJ/mol
# GULP energy per Si atom -12406.331324 kJ/mol
# Density = 2.078835 g / cm^3
# Si number density = 20.835776 Si / 1000 Ang^3
#
#
#
# Elastic Constant Matrix: (Units=GPa)
#
#
# Indices 1 2 3 4 5 6 
#
# 1 104.5157 30.9230 30.9692 0.0000 -10.3845 0.0000
# 2 30.9230 41.0067 20.9347 0.0000 3.2392 0.0000
# 3 30.9692 20.9347 111.9041 0.0000 7.7431 0.0000
# 4 0.0000 0.0000 0.0000 23.1092 0.0000 2.8716
# 5 -10.3845 3.2392 7.7431 0.0000 32.8556 0.0000
# 6 0.0000 0.0000 0.0000 2.8716 0.0000 39.3346
#
#
#
# Elastic Compliance Matrix: (Units=1/GPa)
#
#
# Indices 1 2 3 4 5 6 
#
# 1 0.013687 -0.009555 -0.002404 0.000000 0.005835 0.000000
# 2 -0.009555 0.033704 -0.003275 0.000000 -0.005571 0.000000
# 3 -0.002404 -0.003275 0.010414 0.000000 -0.002891 0.000000
# 4 0.000000 0.000000 0.000000 0.043669 0.000000 -0.003188
# 5 0.005835 -0.005571 -0.002891 0.000000 0.033511 0.000000
# 6 0.000000 0.000000 0.000000 -0.003188 0.000000 0.025656
#
#
# Mechanical properties :
#
#
# Convention : Reuss Voigt Hill
#
# Bulk Modulus (GPa) = 36.58131 47.00894 41.79513
# Shear Modulus (GPa) = 24.97233 30.69985 27.83609
#
# Velocity S-wave (km/s) = 3.46574 3.84268 3.65907
# Velocity P-wave (km/s) = 5.79743 6.50376 6.16073
#
# Compressibility (1/GPa) = 0.02733636
#
# Stress axis : x y z
#
# Youngs Moduli (GPa) = 73.06209 29.67025 96.02118
#
# Poissons Ratio (x) = 0.28350 0.23084
# Poissons Ratio (y) = 0.69810 0.31451
# Poissons Ratio (z) = 0.17565 0.09718
#
# Static dielectric constant tensor:
#      x y z
#    x 3.790610 0.000000 -0.030440 
#    y 0.000000 3.517440 0.000000 
#    z -0.030440 0.000000 3.984940 
# 
# 
# High freq. dielectric constant tensor:
#      x y z
#    x 1.822410 0.000000 -0.003080 
#    y 0.000000 1.799540 0.000000 
#    z -0.003080 0.000000 1.836510 
# 
# From -- ./inp_files/45405.got.cif
#   From: 2010.03.12/outbox.cif.g09.slc.cpg/sg14_23_cif.got.tgz:45405.got - 2010.03.31 13:35:05.
