data_PCOD8126580
_publ_section_title
;
Structure prediction by ZEFSAII (Michael W. Deem and Ramdas Pophale) SiO2 
 PCOD8126580
Probable space group: P 21/C
;
_chemical_formula_sum "Si O2"
_cell_formula_units_Z 28
_cell_length_a 7.767782
_cell_length_b 14.728080
_cell_length_c 12.065063
_cell_angle_alpha 90.000000
_cell_angle_beta 117.298779
_cell_angle_gamma 90.000000
_cell_volume 1226.569793
_symmetry_space_group_name_H-M "P 21/C"
_symmetry_group_IT_number 14
_symmetry_cell_setting 'monoclinic'
loop_
_space_group_symop_operation_xyz
x,y,z
-x,1/2+y,1/2-z
-x,-y,-z
x,1/2-y,1/2+z
loop_
_atom_site_type_symbol
_atom_site_label
_atom_site_fract_x
_atom_site_fract_y
_atom_site_fract_z
Si Si1 0.527025 0.737881 0.155738
Si Si2 0.909700 0.442956 0.738531
Si Si3 0.164007 0.828660 0.977751
Si Si4 0.357674 0.419173 0.209294
Si Si5 0.221793 0.522301 0.667734
Si Si6 0.241679 0.167498 0.091635
Si Si7 0.789757 0.828424 0.556233
O O1 0.307167 0.744307 0.044343
O O2 0.605152 0.841663 0.186655
O O3 0.556167 0.695476 0.287523
O O4 0.635638 0.664640 0.110201
O O5 0.772198 0.391036 0.608213
O O6 0.780128 0.506683 0.776065
O O7 0.083038 0.499427 0.730467
O O8 0.002780 0.365303 0.844184
O O9 0.147153 0.888175 0.084700
O O10 0.943549 0.794758 0.889220
O O11 0.558387 0.463628 0.227363
O O12 0.262458 0.381192 0.070376
O O13 0.223327 0.440973 0.576516
O O14 0.218581 0.219077 0.968182
#
# Coordination Sequence:
#
# PCOD8126580 Si02
#       7
#     4   4   4   4   4   4   4
#     4  10  22  42  61  93 129 165 212 264 323 375
#     4  11  22  43  67  95 128 172 214 261 326 381
#     4  10  22  40  64  98 120 172 221 256 323 382
#     4  10  25  41  64  96 125 174 215 260 326 383
#     4  10  22  42  65  94 127 166 222 265 309 391
#     4  10  21  41  62  90 132 163 211 274 312 377
#     4  11  23  42  61  94 134 162 214 269 319 383
#
# _framework density 22.827888999999999
#
# number of rings (size 3 to 8) (size 9 to 14) (size 15 to 20)
#    0.000    1.714    2.857    2.143    6.000    2.857 
#   10.286    0.000    0.000    0.000    0.000    0.000 
#    0.000    0.000    0.000    0.000    0.000    0.000 
#
# Total GULP energy -346917.259364 kJ/mol
# GULP energy per Si atom -12389.902120 kJ/mol
# Density = 2.277593 g / cm^3
# Si number density = 22.827889 Si / 1000 Ang^3
#
#
#
# Elastic Constant Matrix: (Units=GPa)
#
#
# Indices 1 2 3 4 5 6 
#
# 1 64.8369 11.9625 29.6240 0.0000 13.9194 0.0000
# 2 11.9625 26.6994 1.0154 0.0000 1.9234 0.0000
# 3 29.6240 1.0154 78.0721 0.0000 3.2878 0.0000
# 4 0.0000 0.0000 0.0000 16.2595 0.0000 3.6166
# 5 13.9194 1.9234 3.2878 0.0000 32.1143 0.0000
# 6 0.0000 0.0000 0.0000 3.6166 0.0000 43.9326
#
#
#
# Elastic Compliance Matrix: (Units=1/GPa)
#
#
# Indices 1 2 3 4 5 6 
#
# 1 0.022645 -0.009230 -0.008117 0.000000 -0.008431 0.000000
# 2 -0.009230 0.041391 0.002912 0.000000 0.001223 0.000000
# 3 -0.008117 0.002912 0.015778 0.000000 0.001729 0.000000
# 4 0.000000 0.000000 0.000000 0.062650 0.000000 -0.005157
# 5 -0.008431 0.001223 0.001729 0.000000 0.034543 0.000000
# 6 0.000000 0.000000 0.000000 -0.005157 0.000000 0.023187
#
#
# Mechanical properties :
#
#
# Convention : Reuss Voigt Hill
#
# Bulk Modulus (GPa) = 19.62945 28.31247 23.97096
# Shear Modulus (GPa) = 20.32153 26.92838 23.62496
#
# Velocity S-wave (km/s) = 2.98687 3.43830 3.22050
# Velocity P-wave (km/s) = 4.52910 5.30961 4.93481
#
# Compressibility (1/GPa) = 0.05094387
#
# Stress axis : x y z
#
# Youngs Moduli (GPa) = 44.15955 24.16009 63.37890
#
# Poissons Ratio (x) = 0.22300 0.51448
# Poissons Ratio (y) = 0.40759 -0.18458
# Poissons Ratio (z) = 0.35846 -0.07036
#
# Static dielectric constant tensor:
#      x y z
#    x 4.042220 0.000000 0.237430 
#    y 0.000000 4.080840 0.000000 
#    z 0.237430 0.000000 4.250830 
# 
# 
# High freq. dielectric constant tensor:
#      x y z
#    x 1.884970 0.000000 0.013710 
#    y 0.000000 1.893510 0.000000 
#    z 0.013710 0.000000 1.905720 
# 
# From -- ./inp_files/25347.got.cif
#   From: 2010.03.12/outbox.cif.g09.slc.cpg/sg14_13_cif.got.tgz:25347.got - 2010.03.31 13:35:05.
