data_PCOD8126002
_publ_section_title
;
Structure prediction by ZEFSAII (Michael W. Deem and Ramdas Pophale) SiO2 
 PCOD8126002
Probable space group: P 21/C
;
_chemical_formula_sum "Si O2"
_cell_formula_units_Z 28
_cell_length_a 8.524935
_cell_length_b 12.422842
_cell_length_c 15.208229
_cell_angle_alpha 90.000000
_cell_angle_beta 57.771045
_cell_angle_gamma 90.000000
_cell_volume 1362.454183
_symmetry_space_group_name_H-M "P 21/C"
_symmetry_group_IT_number 14
_symmetry_cell_setting 'monoclinic'
loop_
_space_group_symop_operation_xyz
x,y,z
-x,1/2+y,1/2-z
-x,-y,-z
x,1/2-y,1/2+z
loop_
_atom_site_type_symbol
_atom_site_label
_atom_site_fract_x
_atom_site_fract_y
_atom_site_fract_z
Si Si1 0.429000 0.096872 0.404482
Si Si2 0.211434 0.008750 0.617705
Si Si3 0.350531 0.796094 0.193483
Si Si4 0.762909 0.649732 0.734694
Si Si5 0.893873 0.284470 0.886097
Si Si6 0.527576 0.002060 0.196805
Si Si7 0.618245 0.231960 0.123972
O O1 0.246062 0.074086 0.516656
O O2 0.466712 0.224824 0.384921
O O3 0.602192 0.044378 0.401567
O O4 0.404995 0.043820 0.315754
O O5 0.135696 0.090843 0.713649
O O6 0.068330 0.911095 0.643295
O O7 0.183752 0.774870 0.177088
O O8 0.403191 0.922329 0.174599
O O9 0.288197 0.760790 0.310396
O O10 0.707522 0.563251 0.677167
O O11 0.580690 0.710446 0.825164
O O12 0.908654 0.732640 0.648399
O O13 0.748840 0.275355 0.008589
O O14 0.595452 0.103261 0.119086
#
# Coordination Sequence:
#
# PCOD8126002 Si02
#       7
#     4   4   4   4   4   4   4
#     4   8  14  29  56  76  97 146 190 224 279 332
#     4   9  16  32  54  77 106 140 186 237 278 324
#     4   9  18  34  55  83 115 148 193 240 284 342
#     4  10  21  37  59  86 116 152 195 239 287 345
#     4  11  22  36  59  87 113 150 196 238 289 348
#     4   9  18  34  55  80 118 154 185 235 291 343
#     4  10  21  39  60  82 115 157 195 235 288 346
#
# _framework density 20.55115
#
# number of rings (size 3 to 8) (size 9 to 14) (size 15 to 20)
#    0.000    2.571    0.000    5.143    0.000    2.286 
#    0.000    8.571    0.000   12.857    0.000    0.000 
#    0.000    0.000    0.000    0.000    0.000    0.000 
#
# Total GULP energy -347124.626994 kJ/mol
# GULP energy per Si atom -12397.308107 kJ/mol
# Density = 2.050437 g / cm^3
# Si number density = 20.551150 Si / 1000 Ang^3
#
#
#
# Elastic Constant Matrix: (Units=GPa)
#
#
# Indices 1 2 3 4 5 6 
#
# 1 41.0714 12.4526 25.6705 0.0000 -3.2306 0.0000
# 2 12.4526 103.1631 21.8855 0.0000 -9.8633 0.0000
# 3 25.6705 21.8855 72.4352 0.0000 -0.5889 0.0000
# 4 0.0000 0.0000 0.0000 24.3896 0.0000 4.0417
# 5 -3.2306 -9.8633 -0.5889 0.0000 26.1077 0.0000
# 6 0.0000 0.0000 0.0000 4.0417 0.0000 32.7101
#
#
#
# Elastic Compliance Matrix: (Units=1/GPa)
#
#
# Indices 1 2 3 4 5 6 
#
# 1 0.031760 -0.001221 -0.010860 0.000000 0.003224 0.000000
# 2 -0.001221 0.010805 -0.002800 0.000000 0.003868 0.000000
# 3 -0.010860 -0.002800 0.018484 0.000000 -0.001985 0.000000
# 4 0.000000 0.000000 0.000000 0.041858 0.000000 -0.005172
# 5 0.003224 0.003868 -0.001985 0.000000 0.040118 0.000000
# 6 0.000000 0.000000 0.000000 -0.005172 0.000000 0.031211
#
#
# Mechanical properties :
#
#
# Convention : Reuss Voigt Hill
#
# Bulk Modulus (GPa) = 31.96444 37.40967 34.68706
# Shear Modulus (GPa) = 23.31796 27.08557 25.20177
#
# Velocity S-wave (km/s) = 3.37208 3.63431 3.50565
# Velocity P-wave (km/s) = 5.54514 5.98779 5.77071
#
# Compressibility (1/GPa) = 0.03128476
#
# Stress axis : x y z
#
# Youngs Moduli (GPa) = 31.48656 92.55275 54.10058
#
# Poissons Ratio (x) = 0.11305 0.58754
# Poissons Ratio (y) = 0.03846 0.15149
# Poissons Ratio (z) = 0.34195 0.25916
#
# Static dielectric constant tensor:
#      x y z
#    x 3.361400 0.000000 0.306910 
#    y 0.000000 4.097780 0.000000 
#    z 0.306910 0.000000 3.617240 
# 
# 
# High freq. dielectric constant tensor:
#      x y z
#    x 1.768540 0.000000 0.021970 
#    y 0.000000 1.822080 0.000000 
#    z 0.021970 0.000000 1.783140 
# 
# From -- ./inp_files/39957.got.cif
#   From: 2010.03.12/outbox.cif.g09.slc.cpg/sg14_20_cif.got.tgz:39957.got - 2010.03.31 13:35:05.
