data_PCOD8126514
_publ_section_title
;
Structure prediction by ZEFSAII (Michael W. Deem and Ramdas Pophale) SiO2 
 PCOD8126514
Probable space group: P 21/C
;
_chemical_formula_sum "Si O2"
_cell_formula_units_Z 28
_cell_length_a 11.711183
_cell_length_b 7.347207
_cell_length_c 24.300103
_cell_angle_alpha 90.000000
_cell_angle_beta 33.491451
_cell_angle_gamma 90.000000
_cell_volume 1153.779282
_symmetry_space_group_name_H-M "P 21/C"
_symmetry_group_IT_number 14
_symmetry_cell_setting 'monoclinic'
loop_
_space_group_symop_operation_xyz
x,y,z
-x,1/2+y,1/2-z
-x,-y,-z
x,1/2-y,1/2+z
loop_
_atom_site_type_symbol
_atom_site_label
_atom_site_fract_x
_atom_site_fract_y
_atom_site_fract_z
Si Si1 0.681118 0.796504 0.403762
Si Si2 0.415535 0.734203 0.112091
Si Si3 0.015978 0.176660 0.892732
Si Si4 0.054423 0.560282 0.699978
Si Si5 0.647122 0.114128 0.246551
Si Si6 0.565901 0.395637 0.591111
Si Si7 0.314667 0.471231 0.795511
O O1 0.546759 0.862900 0.510447
O O2 0.839697 0.632602 0.355111
O O3 0.520964 0.732116 0.422092
O O4 0.828522 0.961440 0.322013
O O5 0.199148 0.820940 0.180981
O O6 0.375600 0.593487 0.178143
O O7 0.562142 0.895240 0.074481
O O8 0.092670 0.373376 0.883233
O O9 0.981152 0.173788 0.841144
O O10 0.177013 0.020704 0.846345
O O11 0.801640 0.150122 0.010278
O O12 0.717105 0.317815 0.203933
O O13 0.428557 0.061339 0.307494
O O14 0.441794 0.364899 0.697025
#
# Coordination Sequence:
#
# PCOD8126514 Si02
#       7
#     4   4   4   4   4   4   4
#     4  11  20  40  67 100 146 176 233 281 353 428
#     4  10  21  40  66  99 141 178 230 283 353 420
#     4  12  22  44  74  98 136 184 235 286 355 411
#     4  11  21  38  68 101 134 188 222 282 351 414
#     4  11  25  46  72  99 138 191 232 294 346 413
#     4  10  21  40  69  99 136 188 223 292 358 409
#     4  11  24  47  71  99 139 182 242 289 348 413
#
# _framework density 24.268073999999999
#
# number of rings (size 3 to 8) (size 9 to 14) (size 15 to 20)
#    0.000    1.143    5.714    1.714    0.000    0.571 
#    0.000    7.857    3.143    0.000    0.000    0.000 
#    0.000    0.000    0.000    0.000    0.000    0.000 
#
# Total GULP energy -347327.947700 kJ/mol
# GULP energy per Si atom -12404.569561 kJ/mol
# Density = 2.421284 g / cm^3
# Si number density = 24.268074 Si / 1000 Ang^3
#
#
#
# Elastic Constant Matrix: (Units=GPa)
#
#
# Indices 1 2 3 4 5 6 
#
# 1 85.9995 9.6555 -10.7894 0.0000 -10.2131 0.0000
# 2 9.6555 79.4445 0.2181 0.0000 -6.4648 0.0000
# 3 -10.7894 0.2181 79.2926 0.0000 -22.4697 0.0000
# 4 0.0000 0.0000 0.0000 18.5887 0.0000 0.7417
# 5 -10.2131 -6.4648 -22.4697 0.0000 31.2092 0.0000
# 6 0.0000 0.0000 0.0000 0.7417 0.0000 34.7628
#
#
#
# Elastic Compliance Matrix: (Units=1/GPa)
#
#
# Indices 1 2 3 4 5 6 
#
# 1 0.012998 -0.001047 0.003663 0.000000 0.006674 0.000000
# 2 -0.001047 0.012939 0.000609 0.000000 0.002776 0.000000
# 3 0.003663 0.000609 0.016940 0.000000 0.013521 0.000000
# 4 0.000000 0.000000 0.000000 0.053842 0.000000 -0.001149
# 5 0.006674 0.002776 0.013521 0.000000 0.044535 0.000000
# 6 0.000000 0.000000 0.000000 -0.001149 0.000000 0.028791
#
#
# Mechanical properties :
#
#
# Convention : Reuss Voigt Hill
#
# Bulk Modulus (GPa) = 20.27366 26.98946 23.63156
# Shear Modulus (GPa) = 27.77206 33.28895 30.53050
#
# Velocity S-wave (km/s) = 3.38655 3.70769 3.55075
# Velocity P-wave (km/s) = 4.86454 5.42907 5.15454
#
# Compressibility (1/GPa) = 0.04932508
#
# Stress axis : x y z
#
# Youngs Moduli (GPa) = 76.93772 77.28674 59.03293
#
# Poissons Ratio (x) = 0.08089 -0.21621
# Poissons Ratio (y) = 0.08053 -0.03593
# Poissons Ratio (z) = -0.28179 -0.04704
#
# Static dielectric constant tensor:
#      x y z
#    x 4.462720 0.000000 -0.063060 
#    y 0.000000 4.355700 0.000000 
#    z -0.063060 0.000000 4.448280 
# 
# 
# High freq. dielectric constant tensor:
#      x y z
#    x 1.966410 0.000000 -0.012800 
#    y 0.000000 1.971390 0.000000 
#    z -0.012800 0.000000 1.960330 
# 
# From -- ./inp_files/77094.got.cif
#   From: 2010.03.12/outbox.cif.g09.slc.cpg/sg14_39_cif.got.tgz:77094.got - 2010.03.31 13:35:05.
