data_PCOD8126856
_publ_section_title
;
Structure prediction by ZEFSAII (Michael W. Deem and Ramdas Pophale) SiO2 
 PCOD8126856
Probable space group: P 21/C
;
_chemical_formula_sum "Si O2"
_cell_formula_units_Z 20
_cell_length_a 6.530266
_cell_length_b 24.509053
_cell_length_c 5.504078
_cell_angle_alpha 90.000000
_cell_angle_beta 111.192696
_cell_angle_gamma 90.000000
_cell_volume 821.353712
_symmetry_space_group_name_H-M "P 21/C"
_symmetry_group_IT_number 14
_symmetry_cell_setting 'monoclinic'
loop_
_space_group_symop_operation_xyz
x,y,z
-x,1/2+y,1/2-z
-x,-y,-z
x,1/2-y,1/2+z
loop_
_atom_site_type_symbol
_atom_site_label
_atom_site_fract_x
_atom_site_fract_y
_atom_site_fract_z
Si Si1 0.177800 0.429146 0.678770
Si Si2 0.113661 0.874824 0.600964
Si Si3 0.522805 0.872000 0.085339
Si Si4 0.149325 0.216537 0.695157
Si Si5 0.269590 0.952651 0.278452
O O1 0.305056 0.395274 0.533712
O O2 0.322119 0.482393 0.818069
O O3 0.124626 0.390269 0.885439
O O4 0.935918 0.446794 0.489242
O O5 0.291894 0.854131 0.869455
O O6 0.211269 0.928673 0.515778
O O7 0.057837 0.825497 0.393411
O O8 0.621980 0.816287 0.233838
O O9 0.478982 0.918612 0.269547
O O10 0.134862 0.253891 0.448817
#
# Coordination Sequence:
#
# PCOD8126856 Si02
#       5
#     4   4   4   4   4
#     4  10  21  43  68 108 153 189 226 285 364 435
#     4  11  25  44  72 104 145 186 241 297 356 439
#     4  11  25  44  73 104 144 186 242 294 360 436
#     4  12  29  51  75 101 142 192 248 315 371 418
#     4  10  22  40  72 107 147 190 233 284 357 444
#
# _framework density 24.350048999999999
#
# number of rings (size 3 to 8) (size 9 to 14) (size 15 to 20)
#    0.000    1.200    2.000    2.400    8.400    2.400 
#    0.000    0.000    0.000    0.000    0.000    0.000 
#    0.000    0.000    0.000    0.000    0.000    0.000 
#
# Total GULP energy -248035.222141 kJ/mol
# GULP energy per Si atom -12401.761107 kJ/mol
# Density = 2.429463 g / cm^3
# Si number density = 24.350049 Si / 1000 Ang^3
#
#
#
# Elastic Constant Matrix: (Units=GPa)
#
#
# Indices 1 2 3 4 5 6 
#
# 1 96.9099 36.1019 18.1886 0.0000 -28.9668 0.0000
# 2 36.1019 119.8576 42.9429 0.0000 -0.1287 0.0000
# 3 18.1886 42.9429 73.9749 0.0000 -22.9362 0.0000
# 4 0.0000 0.0000 0.0000 52.2692 0.0000 1.0888
# 5 -28.9668 -0.1287 -22.9362 0.0000 47.5318 0.0000
# 6 0.0000 0.0000 0.0000 1.0888 0.0000 37.7753
#
#
#
# Elastic Compliance Matrix: (Units=1/GPa)
#
#
# Indices 1 2 3 4 5 6 
#
# 1 0.014960 -0.005472 0.002729 0.000000 0.010419 0.000000
# 2 -0.005472 0.013036 -0.008520 0.000000 -0.007411 0.000000
# 3 0.002729 -0.008520 0.021521 0.000000 0.012025 0.000000
# 4 0.000000 0.000000 0.000000 0.019143 0.000000 -0.000552
# 5 0.010419 -0.007411 0.012025 0.000000 0.033170 0.000000
# 6 0.000000 0.000000 0.000000 -0.000552 0.000000 0.026488
#
#
# Mechanical properties :
#
#
# Convention : Reuss Voigt Hill
#
# Bulk Modulus (GPa) = 37.05027 53.91212 45.48120
# Shear Modulus (GPa) = 31.28088 40.41586 35.84837
#
# Velocity S-wave (km/s) = 3.58807 4.07847 3.84110
# Velocity P-wave (km/s) = 5.69336 6.66086 6.19602
#
# Compressibility (1/GPa) = 0.02699036
#
# Stress axis : x y z
#
# Youngs Moduli (GPa) = 66.84709 76.71012 46.46566
#
# Poissons Ratio (x) = 0.41979 -0.12680
# Poissons Ratio (y) = 0.36582 0.39588
# Poissons Ratio (z) = -0.18242 0.65355
#
# Static dielectric constant tensor:
#      x y z
#    x 4.357890 0.000000 0.219510 
#    y 0.000000 4.517340 0.000000 
#    z 0.219510 0.000000 4.458190 
# 
# 
# High freq. dielectric constant tensor:
#      x y z
#    x 1.972800 0.000000 0.018470 
#    y 0.000000 1.966350 0.000000 
#    z 0.018470 0.000000 1.984270 
# 
# From -- ./inp_files/609.got.cif
#   From: 2010.03.12/outbox.cif.g09.slc.cpg/sg14_1_cif.got.tgz:609.got - 2010.03.31 13:35:05.
