data_PCOD8126226
_publ_section_title
;
Structure prediction by ZEFSAII (Michael W. Deem and Ramdas Pophale) SiO2 
 PCOD8126226
Probable space group: P 21/C
;
_chemical_formula_sum "Si O2"
_cell_formula_units_Z 28
_cell_length_a 6.986096
_cell_length_b 14.059861
_cell_length_c 17.007083
_cell_angle_alpha 90.000000
_cell_angle_beta 55.618468
_cell_angle_gamma 90.000000
_cell_volume 1378.652828
_symmetry_space_group_name_H-M "P 21/C"
_symmetry_group_IT_number 14
_symmetry_cell_setting 'monoclinic'
loop_
_space_group_symop_operation_xyz
x,y,z
-x,1/2+y,1/2-z
-x,-y,-z
x,1/2-y,1/2+z
loop_
_atom_site_type_symbol
_atom_site_label
_atom_site_fract_x
_atom_site_fract_y
_atom_site_fract_z
Si Si1 0.210718 0.486493 0.347709
Si Si2 0.560434 0.674846 0.800817
Si Si3 0.714039 0.193152 0.236283
Si Si4 0.754726 0.046565 0.535711
Si Si5 0.222050 0.249869 0.095748
Si Si6 0.441769 0.881880 0.571459
Si Si7 0.706910 0.547976 0.495957
O O1 0.268619 0.407946 0.268608
O O2 0.295327 0.590794 0.303188
O O3 0.332306 0.455513 0.401099
O O4 0.934731 0.488114 0.421211
O O5 0.503240 0.746176 0.743378
O O6 0.315861 0.631196 0.888826
O O7 0.681018 0.739991 0.838740
O O8 0.689769 0.184560 0.335981
O O9 0.944668 0.252692 0.163337
O O10 0.753148 0.087555 0.446996
O O11 0.543380 0.972471 0.593491
O O12 0.000000 0.000000 0.500000
O O13 0.294600 0.154213 0.035635
O O14 0.330024 0.335480 0.020455
O O15 0.500000 0.500000 0.500000
#
# Coordination Sequence:
#
# PCOD8126226 Si02
#       7
#     4   4   4   4   4   4   4
#     4  10  22  39  61  92 124 161 209 261 300 369
#     4  11  22  39  61  91 126 159 212 255 303 370
#     4  11  22  40  61  93 128 164 209 259 309 366
#     4  10  21  39  61  88 118 164 202 253 312 365
#     4  10  23  39  60  92 122 166 207 257 309 376
#     4  10  21  39  60  86 129 156 204 259 306 364
#     4  10  21  41  63  86 124 167 205 252 315 363
#
# _framework density 20.309681999999999
#
# number of rings (size 3 to 8) (size 9 to 14) (size 15 to 20)
#    0.000    1.714    1.429    2.571    0.000    3.429 
#    5.143    4.286    0.000    0.000    0.000    0.000 
#    0.000    0.000    0.000    0.000    0.000    0.000 
#
# Total GULP energy -347169.857985 kJ/mol
# GULP energy per Si atom -12398.923499 kJ/mol
# Density = 2.026346 g / cm^3
# Si number density = 20.309682 Si / 1000 Ang^3
#
#
#
# Elastic Constant Matrix: (Units=GPa)
#
#
# Indices 1 2 3 4 5 6 
#
# 1 110.3228 56.5658 47.8978 0.0000 19.4600 0.0000
# 2 56.5658 74.2540 34.1260 0.0000 5.2981 0.0000
# 3 47.8978 34.1260 93.0908 0.0000 12.3028 0.0000
# 4 0.0000 0.0000 0.0000 27.9303 0.0000 5.6717
# 5 19.4600 5.2981 12.3028 0.0000 23.6435 0.0000
# 6 0.0000 0.0000 0.0000 5.6717 0.0000 42.4242
#
#
#
# Elastic Compliance Matrix: (Units=1/GPa)
#
#
# Indices 1 2 3 4 5 6 
#
# 1 0.018593 -0.011610 -0.003900 0.000000 -0.010672 0.000000
# 2 -0.011610 0.023453 -0.003428 0.000000 0.006084 0.000000
# 3 -0.003900 -0.003428 0.014475 0.000000 -0.003554 0.000000
# 4 0.000000 0.000000 0.000000 0.036802 0.000000 -0.004920
# 5 -0.010672 0.006084 -0.003554 0.000000 0.051565 0.000000
# 6 0.000000 0.000000 0.000000 -0.004920 0.000000 0.024229
#
#
# Mechanical properties :
#
#
# Convention : Reuss Voigt Hill
#
# Bulk Modulus (GPa) = 53.63356 61.64968 57.64162
# Shear Modulus (GPa) = 23.45127 28.07146 25.76137
#
# Velocity S-wave (km/s) = 3.40175 3.72179 3.56536
# Velocity P-wave (km/s) = 6.47259 6.99212 6.73736
#
# Compressibility (1/GPa) = 0.01864504
#
# Stress axis : x y z
#
# Youngs Moduli (GPa) = 53.78444 42.63863 69.08347
#
# Poissons Ratio (x) = 0.49503 0.26943
# Poissons Ratio (y) = 0.62443 0.23682
# Poissons Ratio (z) = 0.20976 0.14617
#
# Static dielectric constant tensor:
#      x y z
#    x 3.558260 0.000000 0.141710 
#    y 0.000000 3.588120 0.000000 
#    z 0.141710 0.000000 3.734690 
# 
# 
# High freq. dielectric constant tensor:
#      x y z
#    x 1.788650 0.000000 0.010730 
#    y 0.000000 1.801940 0.000000 
#    z 0.010730 0.000000 1.798380 
# 
# From -- ./inp_files/53396.got.cif
#   From: 2010.03.12/outbox.cif.g09.slc.cpg/sg14_27_cif.got.tgz:53396.got - 2010.03.31 13:35:05.
