data_PCOD8126959
_publ_section_title
;
Structure prediction by ZEFSAII (Michael W. Deem and Ramdas Pophale) SiO2 
 PCOD8126959
Probable space group: P 21/C
;
_chemical_formula_sum "Si O2"
_cell_formula_units_Z 28
_cell_length_a 23.215871
_cell_length_b 10.620809
_cell_length_c 8.677989
_cell_angle_alpha 90.000000
_cell_angle_beta 139.687265
_cell_angle_gamma 90.000000
_cell_volume 1384.326787
_symmetry_space_group_name_H-M "P 21/C"
_symmetry_group_IT_number 14
_symmetry_cell_setting 'monoclinic'
loop_
_space_group_symop_operation_xyz
x,y,z
-x,1/2+y,1/2-z
-x,-y,-z
x,1/2-y,1/2+z
loop_
_atom_site_type_symbol
_atom_site_label
_atom_site_fract_x
_atom_site_fract_y
_atom_site_fract_z
Si Si1 0.021182 0.252064 0.846058
Si Si2 0.931372 0.397491 0.904753
Si Si3 0.087135 0.077970 0.217989
Si Si4 0.439784 0.890575 0.808790
Si Si5 0.255580 0.630812 0.421427
Si Si6 0.440550 0.886566 0.444447
Si Si7 0.748333 0.108829 0.441958
O O1 0.073117 0.359614 0.857213
O O2 0.938788 0.297188 0.783103
O O3 0.965619 0.153418 0.635737
O O4 0.096264 0.185945 0.105998
O O5 0.831767 0.454438 0.723007
O O6 0.000000 0.500000 0.000000
O O7 0.176833 0.997592 0.396440
O O8 0.000000 0.000000 0.000000
O O9 0.450777 0.883541 0.648090
O O10 0.465345 0.751863 0.927841
O O11 0.340564 0.933761 0.650680
O O12 0.500000 0.000000 0.000000
O O13 0.339028 0.581961 0.689321
O O14 0.280323 0.636848 0.292388
O O15 0.219429 0.766475 0.404596
O O16 0.500000 0.000000 0.500000
#
# Coordination Sequence:
#
# PCOD8126959 Si02
#       7
#     4   4   4   4   4   4   4
#     4  10  22  36  53  81 117 156 201 246 295 354
#     4  11  21  35  55  80 114 153 192 239 289 341
#     4  11  22  38  58  82 119 161 204 255 307 361
#     4  11  23  43  67  95 126 161 206 258 314 383
#     4  11  21  36  60  90 117 152 204 249 297 365
#     4  11  23  42  68  96 126 161 202 259 320 377
#     4  11  22  38  61  88 118 156 199 250 302 361
#
# _framework density 20.226438999999999
#
# number of rings (size 3 to 8) (size 9 to 14) (size 15 to 20)
#    0.000    1.143    0.000   10.286    0.000    3.429 
#    0.000    7.143    0.000    0.000    0.000    0.000 
#    0.000    0.000    0.000    0.000    0.000    0.000 
#
# Total GULP energy -347042.964390 kJ/mol
# GULP energy per Si atom -12394.391585 kJ/mol
# Density = 2.018040 g / cm^3
# Si number density = 20.226439 Si / 1000 Ang^3
#
#
#
# Elastic Constant Matrix: (Units=GPa)
#
#
# Indices 1 2 3 4 5 6 
#
# 1 149.4546 57.2660 73.8409 0.0000 -13.9456 0.0000
# 2 57.2660 91.1016 58.2005 0.0000 8.2363 0.0000
# 3 73.8409 58.2005 110.1091 0.0000 -3.5519 0.0000
# 4 0.0000 0.0000 0.0000 2.1585 0.0000 45.2321
# 5 -13.9456 8.2363 -3.5519 0.0000 51.8531 0.0000
# 6 0.0000 0.0000 0.0000 45.2321 0.0000 -16.3481
#
#
#
# Elastic Compliance Matrix: (Units=1/GPa)
#
#
# Indices 1 2 3 4 5 6 
#
# 1 0.011092 -0.003896 -0.005275 0.000000 0.003241 0.000000
# 2 -0.003896 0.018503 -0.007312 0.000000 -0.004488 0.000000
# 3 -0.005275 -0.007312 0.016513 0.000000 0.000874 0.000000
# 4 0.000000 0.000000 0.000000 0.007855 0.000000 0.021733
# 5 0.003241 -0.004488 0.000874 0.000000 0.020929 0.000000
# 6 0.000000 0.000000 0.000000 0.021733 0.000000 -0.001037
#
#
# Mechanical properties :
#
#
# Convention : Reuss Voigt Hill
#
# Bulk Modulus (GPa) = 76.09295 81.03112 78.56203
# Shear Modulus (GPa) = 44.96347 18.28990 31.62668
#
# Velocity S-wave (km/s) = 4.71999 3.01035 3.95857
# Velocity P-wave (km/s) = 8.21015 7.22716 7.73429
#
# Compressibility (1/GPa) = 0.01314182
#
# Stress axis : x y z
#
# Youngs Moduli (GPa) = 90.15310 54.04615 60.55946
#
# Poissons Ratio (x) = 0.21054 0.31945
# Poissons Ratio (y) = 0.35120 0.44283
# Poissons Ratio (z) = 0.47556 0.39520
#
# Static dielectric constant tensor:
#      x y z
#    x 3.918370 0.000000 -0.209550 
#    y 0.000000 3.710170 0.000000 
#    z -0.209550 0.000000 3.743860 
# 
# 
# High freq. dielectric constant tensor:
#      x y z
#    x 1.813630 0.000000 -0.016850 
#    y 0.000000 1.784610 0.000000 
#    z -0.016850 0.000000 1.791330 
# 
# From -- ./inp_files/18972.got.cif
#   From: 2010.03.12/outbox.cif.g09.slc.cpg/sg14_10_cif.got.tgz:18972.got - 2010.03.31 13:35:05.
