data_PCOD8126676
_publ_section_title
;
Structure prediction by ZEFSAII (Michael W. Deem and Ramdas Pophale) SiO2 
 PCOD8126676
Probable space group: P 21/C
;
_chemical_formula_sum "Si O2"
_cell_formula_units_Z 32
_cell_length_a 5.303941
_cell_length_b 18.079364
_cell_length_c 15.284884
_cell_angle_alpha 90.000000
_cell_angle_beta 98.928198
_cell_angle_gamma 90.000000
_cell_volume 1447.937308
_symmetry_space_group_name_H-M "P 21/C"
_symmetry_group_IT_number 14
_symmetry_cell_setting 'monoclinic'
loop_
_space_group_symop_operation_xyz
x,y,z
-x,1/2+y,1/2-z
-x,-y,-z
x,1/2-y,1/2+z
loop_
_atom_site_type_symbol
_atom_site_label
_atom_site_fract_x
_atom_site_fract_y
_atom_site_fract_z
Si Si1 0.159066 0.747332 0.947041
Si Si2 0.805620 0.341157 0.882154
Si Si3 0.680814 0.282232 0.241623
Si Si4 0.777313 0.525422 0.602812
Si Si5 0.270284 0.317948 0.666718
Si Si6 0.676429 0.452708 0.288852
Si Si7 0.256125 0.086769 0.319883
Si Si8 0.462404 0.883910 0.965927
O O1 0.207313 0.720740 0.850302
O O2 0.357053 0.806550 0.997857
O O3 0.892838 0.790376 0.924519
O O4 0.149757 0.680545 0.014321
O O5 0.835204 0.270368 0.818429
O O6 0.527510 0.378013 0.860584
O O7 0.033485 0.401016 0.879262
O O8 0.391360 0.252373 0.223225
O O9 0.676815 0.366154 0.270687
O O10 0.584310 0.525585 0.675547
O O11 0.743052 0.450519 0.543991
O O12 0.705899 0.594952 0.537709
O O13 0.073249 0.530152 0.641116
O O14 0.133331 0.371216 0.728853
O O15 0.483348 0.370314 0.634010
O O16 0.698002 0.500331 0.200142
#
# Coordination Sequence:
#
# PCOD8126676 Si02
#       8
#     4   4   4   4   4   4   4   4
#     4  11  23  42  68  95 132 175 225 278 331 389
#     4  11  25  43  70  95 130 172 226 271 330 397
#     4  10  25  41  64  99 129 173 224 280 326 389
#     4  11  25  38  65 101 137 173 214 266 348 414
#     4  10  21  41  68  88 138 174 218 269 341 396
#     4  12  25  43  66  93 137 178 222 275 328 389
#     4  11  23  45  65  95 127 182 218 267 328 403
#     4  10  23  38  62 102 135 171 212 274 342 423
#
# _framework density 22.100404000000001
#
# number of rings (size 3 to 8) (size 9 to 14) (size 15 to 20)
#    0.000    1.250    2.500    2.250   10.500    1.000 
#    0.000    1.250    0.000    0.000    0.000    0.000 
#    0.000    0.000    0.000    0.000    0.000    0.000 
#
# Total GULP energy -396569.287246 kJ/mol
# GULP energy per Si atom -12392.790226 kJ/mol
# Density = 2.205010 g / cm^3
# Si number density = 22.100404 Si / 1000 Ang^3
#
#
#
# Elastic Constant Matrix: (Units=GPa)
#
#
# Indices 1 2 3 4 5 6 
#
# 1 73.6184 2.3586 3.1836 0.0000 -0.2403 0.0000
# 2 2.3586 48.7124 -13.4145 0.0000 -6.8410 0.0000
# 3 3.1836 -13.4145 50.4008 0.0000 -3.9291 0.0000
# 4 0.0000 0.0000 0.0000 23.8306 0.0000 5.0299
# 5 -0.2403 -6.8410 -3.9291 0.0000 25.8238 0.0000
# 6 0.0000 0.0000 0.0000 5.0299 0.0000 18.3058
#
#
#
# Elastic Compliance Matrix: (Units=1/GPa)
#
#
# Indices 1 2 3 4 5 6 
#
# 1 0.013666 -0.001027 -0.001162 0.000000 -0.000322 0.000000
# 2 -0.001027 0.023494 0.006884 0.000000 0.007262 0.000000
# 3 -0.001162 0.006884 0.022151 0.000000 0.005183 0.000000
# 4 0.000000 0.000000 0.000000 0.044546 0.000000 -0.012240
# 5 -0.000322 0.007262 0.005183 0.000000 0.041433 0.000000
# 6 0.000000 0.000000 0.000000 -0.012240 0.000000 0.057991
#
#
# Mechanical properties :
#
#
# Convention : Reuss Voigt Hill
#
# Bulk Modulus (GPa) = 14.55570 17.44300 15.99935
# Shear Modulus (GPa) = 23.06387 25.63232 24.34810
#
# Velocity S-wave (km/s) = 3.23398 3.40930 3.32279
# Velocity P-wave (km/s) = 4.53269 4.83813 4.68790
#
# Compressibility (1/GPa) = 0.06870161
#
# Stress axis : x y z
#
# Youngs Moduli (GPa) = 73.17623 42.56430 45.14551
#
# Poissons Ratio (x) = 0.04370 0.05244
# Poissons Ratio (y) = 0.07513 -0.31078
# Poissons Ratio (z) = 0.08500 -0.29301
#
# Static dielectric constant tensor:
#      x y z
#    x 3.998150 0.000000 -0.016930 
#    y 0.000000 4.030180 0.000000 
#    z -0.016930 0.000000 3.836150 
# 
# 
# High freq. dielectric constant tensor:
#      x y z
#    x 1.873260 0.000000 -0.000570 
#    y 0.000000 1.865380 0.000000 
#    z -0.000570 0.000000 1.853860 
# 
# From -- ./inp_files/37889.got.cif
#   From: 2010.03.12/outbox.cif.g09.slc.cpg/sg14_19_cif.got.tgz:37889.got - 2010.03.31 13:35:05.
