data_PCOD8126781
_publ_section_title
;
Structure prediction by ZEFSAII (Michael W. Deem and Ramdas Pophale) SiO2 
 PCOD8126781
Probable space group: P 21/C
;
_chemical_formula_sum "Si O2"
_cell_formula_units_Z 32
_cell_length_a 8.869245
_cell_length_b 12.202287
_cell_length_c 18.422136
_cell_angle_alpha 90.000000
_cell_angle_beta 134.841663
_cell_angle_gamma 90.000000
_cell_volume 1413.675517
_symmetry_space_group_name_H-M "P 21/C"
_symmetry_group_IT_number 14
_symmetry_cell_setting 'monoclinic'
loop_
_space_group_symop_operation_xyz
x,y,z
-x,1/2+y,1/2-z
-x,-y,-z
x,1/2-y,1/2+z
loop_
_atom_site_type_symbol
_atom_site_label
_atom_site_fract_x
_atom_site_fract_y
_atom_site_fract_z
Si Si1 0.868726 0.939069 0.312992
Si Si2 0.130048 0.019239 0.849620
Si Si3 0.465336 0.251885 0.294107
Si Si4 0.775799 0.834656 0.995223
Si Si5 0.319629 0.799627 0.865304
Si Si6 0.770668 0.288918 0.021241
Si Si7 0.856874 0.311054 0.838786
Si Si8 0.093429 0.396175 0.609185
O O1 0.645521 0.871618 0.236006
O O2 0.052129 0.884770 0.425465
O O3 0.824868 0.057793 0.333555
O O4 0.953093 0.944538 0.257993
O O5 0.941206 0.995767 0.845528
O O6 0.288115 0.917929 0.891845
O O7 0.252539 0.115651 0.933544
O O8 0.561144 0.199996 0.400928
O O9 0.662257 0.256821 0.306297
O O10 0.287636 0.170397 0.207067
O O11 0.929271 0.728408 0.048612
O O12 0.540385 0.793287 0.895746
O O13 0.852742 0.921598 0.958221
O O14 0.307705 0.707262 0.922244
O O15 0.132855 0.778567 0.742984
O O16 0.878613 0.174330 0.036945
#
# Coordination Sequence:
#
# PCOD8126781 Si02
#       8
#     4   4   4   4   4   4   4   4
#     4  10  24  44  67  95 136 171 222 277 330 400
#     4  10  22  40  64  97 126 171 215 274 332 389
#     4  11  22  43  65  94 129 177 214 271 335 388
#     4  12  21  39  64  95 130 174 220 272 327 392
#     4  10  22  40  65  94 130 167 219 268 330 392
#     4  10  21  42  67  93 129 174 215 270 333 389
#     4  11  24  41  65  98 134 173 221 274 331 387
#     4  10  22  39  63  93 130 165 221 269 324 392
#
# _framework density 22.636030999999999
#
# number of rings (size 3 to 8) (size 9 to 14) (size 15 to 20)
#    0.000    1.500    2.500    2.250    0.000    8.500 
#    0.000    3.750    0.000    0.000    0.000    0.000 
#    0.000    0.000    0.000    0.000    0.000    0.000 
#
# Total GULP energy -396490.310088 kJ/mol
# GULP energy per Si atom -12390.322190 kJ/mol
# Density = 2.258451 g / cm^3
# Si number density = 22.636031 Si / 1000 Ang^3
#
#
#
# Elastic Constant Matrix: (Units=GPa)
#
#
# Indices 1 2 3 4 5 6 
#
# 1 98.8960 27.2906 15.5986 0.0000 -2.1854 0.0000
# 2 27.2906 58.5471 26.2245 0.0000 -5.3507 0.0000
# 3 15.5986 26.2245 80.8677 0.0000 1.5229 0.0000
# 4 0.0000 0.0000 0.0000 20.6583 0.0000 -4.6861
# 5 -2.1854 -5.3507 1.5229 0.0000 36.7557 0.0000
# 6 0.0000 0.0000 0.0000 -4.6861 0.0000 32.9952
#
#
#
# Elastic Compliance Matrix: (Units=1/GPa)
#
#
# Indices 1 2 3 4 5 6 
#
# 1 0.011627 -0.005170 -0.000565 0.000000 -0.000038 0.000000
# 2 -0.005170 0.022660 -0.006413 0.000000 0.003257 0.000000
# 3 -0.000565 -0.006413 0.014584 0.000000 -0.001571 0.000000
# 4 0.000000 0.000000 0.000000 0.050018 0.000000 0.007104
# 5 -0.000038 0.003257 -0.001571 0.000000 0.027744 0.000000
# 6 0.000000 0.000000 0.000000 0.007104 0.000000 0.031316
#
#
# Mechanical properties :
#
#
# Convention : Reuss Voigt Hill
#
# Bulk Modulus (GPa) = 40.69136 41.83758 41.26447
# Shear Modulus (GPa) = 26.25558 29.36167 27.80863
#
# Velocity S-wave (km/s) = 3.40943 3.60546 3.50882
# Velocity P-wave (km/s) = 5.78916 5.98793 5.88938
#
# Compressibility (1/GPa) = 0.02457524
#
# Stress axis : x y z
#
# Youngs Moduli (GPa) = 86.00992 44.13067 68.56801
#
# Poissons Ratio (x) = 0.22814 0.03877
# Poissons Ratio (y) = 0.44464 0.43970
# Poissons Ratio (z) = 0.04864 0.28299
#
# Static dielectric constant tensor:
#      x y z
#    x 4.286940 0.000000 -0.157180 
#    y 0.000000 3.901590 0.000000 
#    z -0.157180 0.000000 4.131790 
# 
# 
# High freq. dielectric constant tensor:
#      x y z
#    x 1.901420 0.000000 -0.014430 
#    y 0.000000 1.864700 0.000000 
#    z -0.014430 0.000000 1.898860 
# 
# From -- ./inp_files/65843.got.cif
#   From: 2010.03.12/outbox.cif.g09.slc.cpg/sg14_33_cif.got.tgz:65843.got - 2010.03.31 13:35:05.
