data_PCOD8126605
_publ_section_title
;
Structure prediction by ZEFSAII (Michael W. Deem and Ramdas Pophale) SiO2 
 PCOD8126605
Probable space group: P 21/C
;
_chemical_formula_sum "Si O2"
_cell_formula_units_Z 32
_cell_length_a 24.776483
_cell_length_b 8.782341
_cell_length_c 14.879125
_cell_angle_alpha 90.000000
_cell_angle_beta 152.221565
_cell_angle_gamma 90.000000
_cell_volume 1508.909795
_symmetry_space_group_name_H-M "P 21/C"
_symmetry_group_IT_number 14
_symmetry_cell_setting 'monoclinic'
loop_
_space_group_symop_operation_xyz
x,y,z
-x,1/2+y,1/2-z
-x,-y,-z
x,1/2-y,1/2+z
loop_
_atom_site_type_symbol
_atom_site_label
_atom_site_fract_x
_atom_site_fract_y
_atom_site_fract_z
Si Si1 0.026275 0.194525 0.638299
Si Si2 0.385529 0.360360 0.793709
Si Si3 0.155315 0.693278 0.976013
Si Si4 0.129003 0.868417 0.753059
Si Si5 0.227415 0.101617 0.494313
Si Si6 0.384108 0.910223 0.128382
Si Si7 0.363507 0.867341 0.376060
Si Si8 0.408582 0.918850 0.644092
O O1 0.957597 0.214434 0.629973
O O2 0.946554 0.218624 0.433290
O O3 0.076119 0.025810 0.708116
O O4 0.126665 0.321438 0.786240
O O5 0.292224 0.228964 0.647760
O O6 0.372291 0.488065 0.698221
O O7 0.360595 0.451861 0.848665
O O8 0.515484 0.293351 0.980402
O O9 0.135727 0.760101 0.848660
O O10 0.178895 0.514362 0.997058
O O11 0.261672 0.772926 0.181792
O O12 0.255776 0.897139 0.896563
O O13 0.315377 0.022126 0.555960
O O14 0.430194 0.742186 0.226723
O O15 0.471613 0.987719 0.186211
O O16 0.355933 0.863249 0.471897
#
# Coordination Sequence:
#
# PCOD8126605 Si02
#       8
#     4   4   4   4   4   4   4   4
#     4  11  26  44  68  97 130 183 233 275 335 398
#     4  10  21  41  67  92 138 175 217 275 340 397
#     4  12  24  44  69  95 135 176 228 280 334 396
#     4  11  23  48  68  93 141 179 221 286 334 393
#     4  12  24  44  66 102 131 175 225 279 332 409
#     4  11  20  42  65  95 135 174 212 275 335 402
#     4  10  21  41  63  96 133 177 215 276 336 399
#     4  11  23  38  70 102 132 177 220 272 347 403
#
# _framework density 21.207364999999999
#
# number of rings (size 3 to 8) (size 9 to 14) (size 15 to 20)
#    0.000    1.000    3.750    3.000    0.000    1.000 
#    9.000    5.000    0.000    0.000    0.000    0.000 
#    0.000    0.000    0.000    0.000    0.000    0.000 
#
# Total GULP energy -396823.882405 kJ/mol
# GULP energy per Si atom -12400.746325 kJ/mol
# Density = 2.115910 g / cm^3
# Si number density = 21.207365 Si / 1000 Ang^3
#
#
#
# Elastic Constant Matrix: (Units=GPa)
#
#
# Indices 1 2 3 4 5 6 
#
# 1 61.9144 24.3276 26.0612 0.0000 3.4474 0.0000
# 2 24.3276 102.1995 42.0375 0.0000 7.4308 0.0000
# 3 26.0612 42.0375 110.3466 0.0000 15.9045 0.0000
# 4 0.0000 0.0000 0.0000 25.3151 0.0000 15.9243
# 5 3.4474 7.4308 15.9045 0.0000 29.4910 0.0000
# 6 0.0000 0.0000 0.0000 15.9243 0.0000 27.6450
#
#
#
# Elastic Compliance Matrix: (Units=1/GPa)
#
#
# Indices 1 2 3 4 5 6 
#
# 1 0.018747 -0.003138 -0.003286 0.000000 0.000371 0.000000
# 2 -0.003138 0.012138 -0.003789 0.000000 -0.000648 0.000000
# 3 -0.003286 -0.003789 0.012024 0.000000 -0.005145 0.000000
# 4 0.000000 0.000000 0.000000 0.061949 0.000000 -0.035684
# 5 0.000371 -0.000648 -0.005145 0.000000 0.036803 0.000000
# 6 0.000000 0.000000 0.000000 -0.035684 0.000000 0.056728
#
#
# Mechanical properties :
#
#
# Convention : Reuss Voigt Hill
#
# Bulk Modulus (GPa) = 44.48041 51.03478 47.75760
# Shear Modulus (GPa) = 22.09379 28.62583 25.35981
#
# Velocity S-wave (km/s) = 3.23119 3.67796 3.46179
# Velocity P-wave (km/s) = 5.91104 6.49256 6.20861
#
# Compressibility (1/GPa) = 0.02248181
#
# Stress axis : x y z
#
# Youngs Moduli (GPa) = 53.34295 82.38892 83.17014
#
# Poissons Ratio (x) = 0.25854 0.27326
# Poissons Ratio (y) = 0.16739 0.31517
# Poissons Ratio (z) = 0.17526 0.31221
#
# Static dielectric constant tensor:
#      x y z
#    x 3.880420 0.000000 0.172920 
#    y 0.000000 4.127590 0.000000 
#    z 0.172920 0.000000 4.135150 
# 
# 
# High freq. dielectric constant tensor:
#      x y z
#    x 1.830790 0.000000 0.009170 
#    y 0.000000 1.839450 0.000000 
#    z 0.009170 0.000000 1.838740 
# 
# From -- ./inp_files/51377.got.cif
#   From: 2010.03.12/outbox.cif.g09.slc.cpg/sg14_26_cif.got.tgz:51377.got - 2010.03.31 13:35:05.
