data_PCOD8126084
_publ_section_title
;
Structure prediction by ZEFSAII (Michael W. Deem and Ramdas Pophale) SiO2 
 PCOD8126084
Probable space group: P 21/C
;
_chemical_formula_sum "Si O2"
_cell_formula_units_Z 20
_cell_length_a 14.644730
_cell_length_b 8.215924
_cell_length_c 20.745992
_cell_angle_alpha 90.000000
_cell_angle_beta 23.006023
_cell_angle_gamma 90.000000
_cell_volume 975.567980
_symmetry_space_group_name_H-M "P 21/C"
_symmetry_group_IT_number 14
_symmetry_cell_setting 'monoclinic'
loop_
_space_group_symop_operation_xyz
x,y,z
-x,1/2+y,1/2-z
-x,-y,-z
x,1/2-y,1/2+z
loop_
_atom_site_type_symbol
_atom_site_label
_atom_site_fract_x
_atom_site_fract_y
_atom_site_fract_z
Si Si1 0.323197 0.213457 0.364001
Si Si2 0.200821 0.580798 0.474357
Si Si3 0.004677 0.976468 0.332230
Si Si4 0.241295 0.742800 0.579348
Si Si5 0.765201 0.721829 0.223424
O O1 0.249716 0.395752 0.426626
O O2 0.603857 0.196311 0.185816
O O3 0.237649 0.162117 0.348500
O O4 0.214497 0.092028 0.486303
O O5 0.207729 0.605323 0.546619
O O6 0.949050 0.631450 0.610788
O O7 0.905485 0.096485 0.342083
O O8 0.174825 0.068953 0.270668
O O9 0.148737 0.829844 0.206610
O O10 0.513347 0.790222 0.409144
#
# Coordination Sequence:
#
# PCOD8126084 Si02
#       5
#     4   4   4   4   4
#     4  11  21  37  60  86 116 151 189 235 283 335
#     4  10  21  38  59  86 117 151 189 233 282 336
#     4  11  22  39  59  84 115 152 191 235 284 337
#     4  10  22  40  59  84 116 152 191 234 283 338
#     4  10  21  38  59  86 115 148 191 235 281 338
#
# _framework density 20.500879000000001
#
# number of rings (size 3 to 8) (size 9 to 14) (size 15 to 20)
#    0.000    1.600    0.000    6.600    0.000    1.600 
#    0.000   15.000    0.000    0.000    0.000    0.000 
#    0.000    0.000    0.000    0.000    0.000    0.000 
#
# Total GULP energy -248078.711586 kJ/mol
# GULP energy per Si atom -12403.935579 kJ/mol
# Density = 2.045422 g / cm^3
# Si number density = 20.500879 Si / 1000 Ang^3
#
#
#
# Elastic Constant Matrix: (Units=GPa)
#
#
# Indices 1 2 3 4 5 6 
#
# 1 62.0195 27.9145 36.6780 0.0000 -17.5800 0.0000
# 2 27.9145 89.1642 23.1320 0.0000 -11.3902 0.0000
# 3 36.6780 23.1320 97.0774 0.0000 -20.3361 0.0000
# 4 0.0000 0.0000 0.0000 31.5121 0.0000 10.7009
# 5 -17.5800 -11.3902 -20.3361 0.0000 31.7917 0.0000
# 6 0.0000 0.0000 0.0000 10.7009 0.0000 26.0717
#
#
#
# Elastic Compliance Matrix: (Units=1/GPa)
#
#
# Indices 1 2 3 4 5 6 
#
# 1 0.024297 -0.004979 -0.006412 0.000000 0.007550 0.000000
# 2 -0.004979 0.013201 -0.000982 0.000000 0.001348 0.000000
# 3 -0.006412 -0.000982 0.014020 0.000000 0.005071 0.000000
# 4 0.000000 0.000000 0.000000 0.036873 0.000000 -0.015134
# 5 0.007550 0.001348 0.005071 0.000000 0.039356 0.000000
# 6 0.000000 0.000000 0.000000 -0.015134 0.000000 0.044568
#
#
# Mechanical properties :
#
#
# Convention : Reuss Voigt Hill
#
# Bulk Modulus (GPa) = 37.35181 47.07888 42.21534
# Shear Modulus (GPa) = 24.27368 28.57753 26.42561
#
# Velocity S-wave (km/s) = 3.44471 3.73764 3.59416
# Velocity P-wave (km/s) = 5.83785 6.45296 6.15310
#
# Compressibility (1/GPa) = 0.02677247
#
# Stress axis : x y z
#
# Youngs Moduli (GPa) = 41.15732 75.75216 71.32744
#
# Poissons Ratio (x) = 0.37714 0.45735
# Poissons Ratio (y) = 0.20491 0.07005
# Poissons Ratio (z) = 0.26390 0.07439
#
# Static dielectric constant tensor:
#      x y z
#    x 3.750420 0.000000 -0.021470 
#    y 0.000000 3.542610 0.000000 
#    z -0.021470 0.000000 3.946070 
# 
# 
# High freq. dielectric constant tensor:
#      x y z
#    x 1.798970 0.000000 0.001690 
#    y 0.000000 1.795270 0.000000 
#    z 0.001690 0.000000 1.818130 
# 
# From -- ./inp_files/22973.got.cif
#   From: 2010.03.12/outbox.cif.g09.slc.cpg/sg14_12_cif.got.tgz:22973.got - 2010.03.31 13:35:05.
