data_PCOD8126248
_publ_section_title
;
Structure prediction by ZEFSAII (Michael W. Deem and Ramdas Pophale) SiO2 
 PCOD8126248
Probable space group: P 21/C
;
_chemical_formula_sum "Si O2"
_cell_formula_units_Z 32
_cell_length_a 6.458210
_cell_length_b 23.693602
_cell_length_c 11.132138
_cell_angle_alpha 90.000000
_cell_angle_beta 104.957728
_cell_angle_gamma 90.000000
_cell_volume 1645.702542
_symmetry_space_group_name_H-M "P 21/C"
_symmetry_group_IT_number 14
_symmetry_cell_setting 'monoclinic'
loop_
_space_group_symop_operation_xyz
x,y,z
-x,1/2+y,1/2-z
-x,-y,-z
x,1/2-y,1/2+z
loop_
_atom_site_type_symbol
_atom_site_label
_atom_site_fract_x
_atom_site_fract_y
_atom_site_fract_z
Si Si1 0.638181 0.185604 0.488783
Si Si2 0.851454 0.948597 0.121281
Si Si3 0.740339 0.662823 0.232046
Si Si4 0.174359 0.639357 0.755631
Si Si5 0.024630 0.756253 0.630051
Si Si6 0.437388 0.888959 0.072809
Si Si7 0.612968 0.787986 0.957331
Si Si8 0.975426 0.429797 0.614308
O O1 0.434204 0.154156 0.399010
O O2 0.747822 0.140882 0.594868
O O3 0.802005 0.205117 0.410757
O O4 0.562757 0.238983 0.557326
O O5 0.595983 0.942536 0.097618
O O6 0.968768 0.901557 0.219983
O O7 0.922963 0.011155 0.172351
O O8 0.897327 0.939933 0.988442
O O9 0.603769 0.683372 0.326131
O O10 0.912631 0.709709 0.220499
O O11 0.871083 0.605506 0.274947
O O12 0.130239 0.702105 0.704542
O O13 0.357496 0.614570 0.697173
O O14 0.851340 0.736301 0.506627
O O15 0.568631 0.833349 0.055320
O O16 0.243955 0.896912 0.949288
#
# Coordination Sequence:
#
# PCOD8126248 Si02
#       8
#     4   4   4   4   4   4   4   4
#     4  11  25  37  57  87 126 165 194 231 292 362
#     4  10  21  39  61  89 118 151 194 259 296 343
#     4  11  24  38  58  89 122 158 194 243 291 358
#     4  11  22  37  60  86 121 156 200 238 294 359
#     4  11  22  37  58  89 119 159 193 244 298 349
#     4  11  20  36  63  89 114 153 187 251 305 340
#     4  11  21  36  58  90 120 148 195 241 296 353
#     4  10  22  38  61  90 118 149 203 245 302 348
#
# _framework density 19.444582
#
# number of rings (size 3 to 8) (size 9 to 14) (size 15 to 20)
#    0.000    1.250    3.750    2.625    5.250    2.000 
#    0.000    0.625    0.000    1.500    0.000    0.000 
#    0.000    0.000    0.000    0.000    0.000    0.000 
#
# Total GULP energy -396886.469533 kJ/mol
# GULP energy per Si atom -12402.702173 kJ/mol
# Density = 1.940033 g / cm^3
# Si number density = 19.444582 Si / 1000 Ang^3
#
#
#
# Elastic Constant Matrix: (Units=GPa)
#
#
# Indices 1 2 3 4 5 6 
#
# 1 84.2868 14.2441 10.8993 0.0000 -0.6379 0.0000
# 2 14.2441 71.7855 29.7659 0.0000 4.4927 0.0000
# 3 10.8993 29.7659 66.1416 0.0000 0.5092 0.0000
# 4 0.0000 0.0000 0.0000 21.4052 0.0000 1.2928
# 5 -0.6379 4.4927 0.5092 0.0000 15.2125 0.0000
# 6 0.0000 0.0000 0.0000 1.2928 0.0000 18.0627
#
#
#
# Elastic Compliance Matrix: (Units=1/GPa)
#
#
# Indices 1 2 3 4 5 6 
#
# 1 0.012366 -0.002063 -0.001118 0.000000 0.001165 0.000000
# 2 -0.002063 0.017828 -0.007644 0.000000 -0.005096 0.000000
# 3 -0.001118 -0.007644 0.018731 0.000000 0.001584 0.000000
# 4 0.000000 0.000000 0.000000 0.046920 0.000000 -0.003358
# 5 0.001165 -0.005096 0.001584 0.000000 0.067236 0.000000
# 6 0.000000 0.000000 0.000000 -0.003358 0.000000 0.055603
#
#
# Mechanical properties :
#
#
# Convention : Reuss Voigt Hill
#
# Bulk Modulus (GPa) = 36.66373 36.89252 36.77812
# Shear Modulus (GPa) = 20.04585 22.08972 21.06779
#
# Velocity S-wave (km/s) = 3.21428 3.37417 3.29519
# Velocity P-wave (km/s) = 5.71593 5.84759 5.78214
#
# Compressibility (1/GPa) = 0.02727491
#
# Stress axis : x y z
#
# Youngs Moduli (GPa) = 80.86475 56.09052 53.38652
#
# Poissons Ratio (x) = 0.11571 0.05971
# Poissons Ratio (y) = 0.16682 0.40810
# Poissons Ratio (z) = 0.09044 0.42876
#
# Static dielectric constant tensor:
#      x y z
#    x 3.701450 0.000000 0.072370 
#    y 0.000000 3.575300 0.000000 
#    z 0.072370 0.000000 3.410480 
# 
# 
# High freq. dielectric constant tensor:
#      x y z
#    x 1.774970 0.000000 0.008970 
#    y 0.000000 1.743180 0.000000 
#    z 0.008970 0.000000 1.737270 
# 
# From -- ./inp_files/22080.got.cif
#   From: 2010.03.12/outbox.cif.g09.slc.cpg/sg14_12_cif.got.tgz:22080.got - 2010.03.31 13:35:05.
