data_PCOD8126540
_publ_section_title
;
Structure prediction by ZEFSAII (Michael W. Deem and Ramdas Pophale) SiO2 
 PCOD8126540
Probable space group: P 21/C
;
_chemical_formula_sum "Si O2"
_cell_formula_units_Z 28
_cell_length_a 12.209590
_cell_length_b 13.508299
_cell_length_c 9.130316
_cell_angle_alpha 90.000000
_cell_angle_beta 62.782051
_cell_angle_gamma 90.000000
_cell_volume 1339.129960
_symmetry_space_group_name_H-M "P 21/C"
_symmetry_group_IT_number 14
_symmetry_cell_setting 'monoclinic'
loop_
_space_group_symop_operation_xyz
x,y,z
-x,1/2+y,1/2-z
-x,-y,-z
x,1/2-y,1/2+z
loop_
_atom_site_type_symbol
_atom_site_label
_atom_site_fract_x
_atom_site_fract_y
_atom_site_fract_z
Si Si1 0.339001 0.675525 0.261731
Si Si2 0.706288 0.819864 0.881667
Si Si3 0.512137 0.201053 0.610084
Si Si4 0.148343 0.184964 0.498797
Si Si5 0.673386 0.544861 0.659076
Si Si6 0.906396 0.955565 0.224428
Si Si7 0.938828 0.159440 0.085115
O O1 0.416869 0.759546 0.292455
O O2 0.358807 0.570318 0.328177
O O3 0.195865 0.706027 0.352019
O O4 0.385488 0.667575 0.067785
O O5 0.576298 0.788087 0.893857
O O6 0.742741 0.736261 0.976947
O O7 0.809041 0.833382 0.693186
O O8 0.695381 0.922249 0.977439
O O9 0.438832 0.103667 0.700765
O O10 0.120426 0.079953 0.593797
O O11 0.028275 0.253514 0.579606
O O12 0.793328 0.567232 0.683754
O O13 0.936327 0.072570 0.210666
O O14 0.020981 0.892247 0.091866
#
# Coordination Sequence:
#
# PCOD8126540 Si02
#       7
#     4   4   4   4   4   4   4
#     4  11  27  40  64  93 134 174 202 264 329 384
#     4  12  21  38  70  95 120 161 225 266 305 366
#     4  12  22  44  63  94 128 170 219 254 325 385
#     4  12  20  39  70  96 120 163 216 273 308 366
#     4  11  22  45  67  93 127 168 221 267 310 378
#     4  10  21  40  69  91 119 173 209 258 318 380
#     4  10  22  40  64  92 133 160 208 254 328 379
#
# _framework density 20.909098
#
# number of rings (size 3 to 8) (size 9 to 14) (size 15 to 20)
#    0.000    0.857    7.143    0.429    2.000    0.571 
#    0.000    0.714    0.000    0.000    0.000    0.000 
#    0.000    0.000    0.000    0.000    0.000    0.000 
#
# Total GULP energy -347305.944238 kJ/mol
# GULP energy per Si atom -12403.783723 kJ/mol
# Density = 2.086151 g / cm^3
# Si number density = 20.909098 Si / 1000 Ang^3
#
#
#
# Elastic Constant Matrix: (Units=GPa)
#
#
# Indices 1 2 3 4 5 6 
#
# 1 86.7480 7.9434 22.3645 0.0000 -19.1575 0.0000
# 2 7.9434 44.1307 12.1455 0.0000 -0.8048 0.0000
# 3 22.3645 12.1455 110.8904 0.0000 -2.1133 0.0000
# 4 0.0000 0.0000 0.0000 36.5666 0.0000 0.6238
# 5 -19.1575 -0.8048 -2.1133 0.0000 33.0962 0.0000
# 6 0.0000 0.0000 0.0000 0.6238 0.0000 25.2764
#
#
#
# Elastic Compliance Matrix: (Units=1/GPa)
#
#
# Indices 1 2 3 4 5 6 
#
# 1 0.014085 -0.001701 -0.002503 0.000000 0.007952 0.000000
# 2 -0.001701 0.023575 -0.002250 0.000000 -0.000555 0.000000
# 3 -0.002503 -0.002250 0.009752 0.000000 -0.000881 0.000000
# 4 0.000000 0.000000 0.000000 0.027359 0.000000 -0.000675
# 5 0.007952 -0.000555 -0.000881 0.000000 0.034748 0.000000
# 6 0.000000 0.000000 0.000000 -0.000675 0.000000 0.039579
#
#
# Mechanical properties :
#
#
# Convention : Reuss Voigt Hill
#
# Bulk Modulus (GPa) = 28.98147 36.29731 32.63939
# Shear Modulus (GPa) = 28.81723 32.27556 30.54640
#
# Velocity S-wave (km/s) = 3.71646 3.93315 3.82634
# Velocity P-wave (km/s) = 5.68391 6.16632 5.93002
#
# Compressibility (1/GPa) = 0.03450481
#
# Stress axis : x y z
#
# Youngs Moduli (GPa) = 70.99893 42.41744 102.54026
#
# Poissons Ratio (x) = 0.07217 0.25663
# Poissons Ratio (y) = 0.12080 0.23067
# Poissons Ratio (z) = 0.17769 0.09542
#
# Static dielectric constant tensor:
#      x y z
#    x 3.731120 0.000000 -0.159470 
#    y 0.000000 3.684310 0.000000 
#    z -0.159470 0.000000 3.996220 
# 
# 
# High freq. dielectric constant tensor:
#      x y z
#    x 1.813530 0.000000 -0.014850 
#    y 0.000000 1.805440 0.000000 
#    z -0.014850 0.000000 1.828420 
# 
# From -- ./inp_files/12783.got.cif
#   From: 2010.03.12/outbox.cif.g09.slc.cpg/sg14_7_cif.got.tgz:12783.got - 2010.03.31 13:35:05.
