data_PCOD8126818
_publ_section_title
;
Structure prediction by ZEFSAII (Michael W. Deem and Ramdas Pophale) SiO2 
 PCOD8126818
Probable space group: P 21/C
;
_chemical_formula_sum "Si O2"
_cell_formula_units_Z 32
_cell_length_a 31.475163
_cell_length_b 9.507452
_cell_length_c 11.564395
_cell_angle_alpha 90.000000
_cell_angle_beta 24.997872
_cell_angle_gamma 90.000000
_cell_volume 1462.408537
_symmetry_space_group_name_H-M "P 21/C"
_symmetry_group_IT_number 14
_symmetry_cell_setting 'monoclinic'
loop_
_space_group_symop_operation_xyz
x,y,z
-x,1/2+y,1/2-z
-x,-y,-z
x,1/2-y,1/2+z
loop_
_atom_site_type_symbol
_atom_site_label
_atom_site_fract_x
_atom_site_fract_y
_atom_site_fract_z
Si Si1 0.868789 0.576701 0.906973
Si Si2 0.315253 0.968516 0.732151
Si Si3 0.329498 0.515558 0.669939
Si Si4 0.634664 0.755318 0.769764
Si Si5 0.250377 0.776183 0.545981
Si Si6 0.208018 0.146681 0.811640
Si Si7 0.414220 0.745054 0.835273
Si Si8 0.924514 0.475289 0.519277
O O1 0.908413 0.548643 0.681753
O O2 0.955179 0.548975 0.789710
O O3 0.768830 0.482182 0.172691
O O4 0.833416 0.737376 0.999370
O O5 0.352281 0.095398 0.721014
O O6 0.253715 0.021876 0.773926
O O7 0.246386 0.865320 0.979702
O O8 0.406321 0.875433 0.454070
O O9 0.355255 0.355541 0.642192
O O10 0.304259 0.593425 0.851053
O O11 0.417504 0.599864 0.387619
O O12 0.710221 0.791535 0.480289
O O13 0.519551 0.772672 0.007567
O O14 0.315639 0.756069 0.499650
O O15 0.135443 0.827414 0.851092
O O16 0.110624 0.087033 0.987861
#
# Coordination Sequence:
#
# PCOD8126818 Si02
#       8
#     4   4   4   4   4   4   4   4
#     4  10  22  42  70  91 127 172 213 265 324 389
#     4  11  24  41  65  94 131 169 224 264 318 390
#     4  10  21  43  62  90 133 171 212 266 330 377
#     4  12  24  41  66  94 133 172 221 267 325 388
#     4  10  22  42  61  96 128 166 217 271 317 389
#     4  12  22  43  65  98 129 172 214 274 323 387
#     4  11  24  40  67  93 132 176 216 267 329 383
#     4  10  21  46  68  94 130 172 209 270 339 380
#
# _framework density 21.881709000000001
#
# number of rings (size 3 to 8) (size 9 to 14) (size 15 to 20)
#    0.000    1.250    5.000    0.750    1.750    5.500 
#    4.500    0.625    0.000    0.000    0.000    0.000 
#    0.000    0.000    0.000    0.000    0.000    0.000 
#
# Total GULP energy -396588.565181 kJ/mol
# GULP energy per Si atom -12393.392662 kJ/mol
# Density = 2.183191 g / cm^3
# Si number density = 21.881709 Si / 1000 Ang^3
#
#
#
# Elastic Constant Matrix: (Units=GPa)
#
#
# Indices 1 2 3 4 5 6 
#
# 1 80.7757 32.8835 23.9675 0.0000 -13.8444 0.0000
# 2 32.8835 128.9442 31.5624 0.0000 1.6423 0.0000
# 3 23.9675 31.5624 69.6454 0.0000 -18.9326 0.0000
# 4 0.0000 0.0000 0.0000 19.6897 0.0000 -1.1410
# 5 -13.8444 1.6423 -18.9326 0.0000 20.5858 0.0000
# 6 0.0000 0.0000 0.0000 -1.1410 0.0000 37.0063
#
#
#
# Elastic Compliance Matrix: (Units=1/GPa)
#
#
# Indices 1 2 3 4 5 6 
#
# 1 0.016038 -0.003995 -0.000920 0.000000 0.010259 0.000000
# 2 -0.003995 0.010266 -0.005641 0.000000 -0.008694 0.000000
# 3 -0.000920 -0.005641 0.022914 0.000000 0.020905 0.000000
# 4 0.000000 0.000000 0.000000 0.050879 0.000000 0.001569
# 5 0.010259 -0.008694 0.020905 0.000000 0.075396 0.000000
# 6 0.000000 0.000000 0.000000 0.001569 0.000000 0.027071
#
#
# Mechanical properties :
#
#
# Convention : Reuss Voigt Hill
#
# Bulk Modulus (GPa) = 35.57963 50.68803 43.13383
# Shear Modulus (GPa) = 21.45521 28.18650 24.82086
#
# Velocity S-wave (km/s) = 3.13471 3.59295 3.37162
# Velocity P-wave (km/s) = 5.42191 6.35824 5.90865
#
# Compressibility (1/GPa) = 0.02810597
#
# Stress axis : x y z
#
# Youngs Moduli (GPa) = 62.35329 97.41251 43.64108
#
# Poissons Ratio (x) = 0.38921 0.04014
# Poissons Ratio (y) = 0.24913 0.24616
# Poissons Ratio (z) = 0.05735 0.54946
#
# Static dielectric constant tensor:
#      x y z
#    x 3.908660 0.000000 -0.258590 
#    y 0.000000 4.162950 0.000000 
#    z -0.258590 0.000000 3.957350 
# 
# 
# High freq. dielectric constant tensor:
#      x y z
#    x 1.858200 0.000000 -0.012990 
#    y 0.000000 1.873710 0.000000 
#    z -0.012990 0.000000 1.841570 
# 
# From -- ./inp_files/36430.got.cif
#   From: 2010.03.12/outbox.cif.g09.slc.cpg/sg14_19_cif.got.tgz:36430.got - 2010.03.31 13:35:05.
