data_PCOD8126394
_publ_section_title
;
Structure prediction by ZEFSAII (Michael W. Deem and Ramdas Pophale) SiO2 
 PCOD8126394
Probable space group: P 21/C
;
_chemical_formula_sum "Si O2"
_cell_formula_units_Z 32
_cell_length_a 24.644098
_cell_length_b 12.810077
_cell_length_c 8.427471
_cell_angle_alpha 90.000000
_cell_angle_beta 143.705794
_cell_angle_gamma 90.000000
_cell_volume 1574.829406
_symmetry_space_group_name_H-M "P 21/C"
_symmetry_group_IT_number 14
_symmetry_cell_setting 'monoclinic'
loop_
_space_group_symop_operation_xyz
x,y,z
-x,1/2+y,1/2-z
-x,-y,-z
x,1/2-y,1/2+z
loop_
_atom_site_type_symbol
_atom_site_label
_atom_site_fract_x
_atom_site_fract_y
_atom_site_fract_z
Si Si1 0.947951 0.120599 0.024912
Si Si2 0.579734 0.972159 0.308156
Si Si3 0.693822 0.645468 0.862988
Si Si4 0.853138 0.289720 0.596700
Si Si5 0.436175 0.589377 0.916169
Si Si6 0.759514 0.119657 0.173045
Si Si7 0.861380 0.551944 0.112039
Si Si8 0.413793 0.240851 0.157721
O O1 0.910383 0.138234 0.112446
O O2 0.057907 0.109663 0.292923
O O3 0.925558 0.216919 0.857610
O O4 0.903518 0.015063 0.854163
O O5 0.670716 0.959818 0.410268
O O6 0.561286 0.857896 0.346032
O O7 0.595429 0.059058 0.479191
O O8 0.500000 0.000000 0.000000
O O9 0.619064 0.656330 0.546880
O O10 0.672231 0.747614 0.920727
O O11 0.796779 0.640026 0.040324
O O12 0.778272 0.220426 0.326788
O O13 0.802020 0.364704 0.599150
O O14 0.348970 0.603920 0.597091
O O15 0.500000 0.500000 0.000000
O O16 0.492613 0.697091 0.045762
O O17 0.802689 0.016761 0.352060
#
# Coordination Sequence:
#
# PCOD8126394 Si02
#       8
#     4   4   4   4   4   4   4   4
#     4   9  20  39  65  87 119 154 199 254 319 370
#     4  10  23  40  62  85 121 170 207 263 309 354
#     4  10  22  40  58  86 124 159 206 255 304 365
#     4   9  20  41  60  91 118 154 203 258 312 374
#     4  12  23  39  62  90 123 169 215 252 310 364
#     4  10  23  37  61  88 123 158 206 254 307 373
#     4  10  21  40  60  90 123 159 197 256 311 382
#     4  10  22  39  56  87 122 164 212 256 303 362
#
# _framework density 20.319662000000001
#
# number of rings (size 3 to 8) (size 9 to 14) (size 15 to 20)
#    0.750    1.250    1.250    1.500    1.750    4.500 
#    2.250    0.000    0.000    0.000    0.000    0.000 
#    0.000    0.000    0.000    0.000    0.000    0.000 
#
# Total GULP energy -396609.031835 kJ/mol
# GULP energy per Si atom -12394.032245 kJ/mol
# Density = 2.027341 g / cm^3
# Si number density = 20.319662 Si / 1000 Ang^3
#
#
#
# Elastic Constant Matrix: (Units=GPa)
#
#
# Indices 1 2 3 4 5 6 
#
# 1 114.7360 38.9401 40.1673 0.0000 3.2102 0.0000
# 2 38.9401 67.5207 26.0474 0.0000 12.0039 0.0000
# 3 40.1673 26.0474 86.1821 0.0000 12.5632 0.0000
# 4 0.0000 0.0000 0.0000 19.4850 0.0000 5.0674
# 5 3.2102 12.0039 12.5632 0.0000 32.7297 0.0000
# 6 0.0000 0.0000 0.0000 5.0674 0.0000 41.6326
#
#
#
# Elastic Compliance Matrix: (Units=1/GPa)
#
#
# Indices 1 2 3 4 5 6 
#
# 1 0.012103 -0.005792 -0.004265 0.000000 0.002574 0.000000
# 2 -0.005792 0.020173 -0.002544 0.000000 -0.005854 0.000000
# 3 -0.004265 -0.002544 0.015003 0.000000 -0.004407 0.000000
# 4 0.000000 0.000000 0.000000 0.052999 0.000000 -0.006451
# 5 0.002574 -0.005854 -0.004407 0.000000 0.034139 0.000000
# 6 0.000000 0.000000 0.000000 -0.006451 0.000000 0.024805
#
#
# Mechanical properties :
#
#
# Convention : Reuss Voigt Hill
#
# Bulk Modulus (GPa) = 45.30004 53.19426 49.24715
# Shear Modulus (GPa) = 26.07114 29.65507 27.86311
#
# Velocity S-wave (km/s) = 3.58585 3.82439 3.70704
# Velocity P-wave (km/s) = 6.28383 6.76290 6.52776
#
# Compressibility (1/GPa) = 0.02207504
#
# Stress axis : x y z
#
# Youngs Moduli (GPa) = 82.62664 49.57194 66.65437
#
# Poissons Ratio (x) = 0.28712 0.28431
# Poissons Ratio (y) = 0.47857 0.16958
# Poissons Ratio (z) = 0.35244 0.12612
#
# Static dielectric constant tensor:
#      x y z
#    x 3.864720 0.000000 -0.089730 
#    y 0.000000 3.559380 0.000000 
#    z -0.089730 0.000000 3.586500 
# 
# 
# High freq. dielectric constant tensor:
#      x y z
#    x 1.799490 0.000000 -0.006010 
#    y 0.000000 1.780350 0.000000 
#    z -0.006010 0.000000 1.787660 
# 
# From -- ./inp_files/19836.got.cif
#   From: 2010.03.12/outbox.cif.g09.slc.cpg/sg14_10_cif.got.tgz:19836.got - 2010.03.31 13:35:05.
