data_PCOD8126417
_publ_section_title
;
Structure prediction by ZEFSAII (Michael W. Deem and Ramdas Pophale) SiO2 
 PCOD8126417
Probable space group: P 21/C
;
_chemical_formula_sum "Si O2"
_cell_formula_units_Z 32
_cell_length_a 16.442338
_cell_length_b 6.992428
_cell_length_c 15.050479
_cell_angle_alpha 90.000000
_cell_angle_beta 66.497668
_cell_angle_gamma 90.000000
_cell_volume 1586.835825
_symmetry_space_group_name_H-M "P 21/C"
_symmetry_group_IT_number 14
_symmetry_cell_setting 'monoclinic'
loop_
_space_group_symop_operation_xyz
x,y,z
-x,1/2+y,1/2-z
-x,-y,-z
x,1/2-y,1/2+z
loop_
_atom_site_type_symbol
_atom_site_label
_atom_site_fract_x
_atom_site_fract_y
_atom_site_fract_z
Si Si1 0.222273 0.723445 0.645152
Si Si2 0.827796 0.881336 0.071603
Si Si3 0.913408 0.904854 0.848324
Si Si4 0.108043 0.049745 0.766335
Si Si5 0.427881 0.376578 0.431607
Si Si6 0.379437 0.483980 0.640376
Si Si7 0.303787 0.700290 0.424725
Si Si8 0.667256 0.891338 0.654714
O O1 0.138639 0.589216 0.662535
O O2 0.190260 0.911744 0.709701
O O3 0.293368 0.618593 0.676225
O O4 0.268073 0.783090 0.533086
O O5 0.763802 0.698052 0.098628
O O6 0.886755 0.879373 0.134436
O O7 0.771679 0.076450 0.090944
O O8 0.893447 0.860272 0.959865
O O9 0.882809 0.727786 0.802748
O O10 0.017158 0.937975 0.790155
O O11 0.385496 0.355361 0.548677
O O12 0.533587 0.383830 0.390314
O O13 0.390243 0.568950 0.402390
O O14 0.401370 0.190626 0.387342
O O15 0.369027 0.345602 0.730271
O O16 0.330052 0.879420 0.353241
#
# Coordination Sequence:
#
# PCOD8126417 Si02
#       8
#     4   4   4   4   4   4   4   4
#     4  10  21  40  62  87 122 159 196 249 298 364
#     4  10  23  39  60  91 123 155 198 254 298 352
#     4  11  23  41  61  89 122 153 200 255 299 361
#     4  12  22  40  63  87 118 162 203 241 315 358
#     4   9  22  41  58  92 128 156 195 256 290 345
#     4  10  21  40  63  87 126 159 200 247 299 353
#     4   9  20  39  61  89 126 156 198 244 297 352
#     4  11  21  38  64  90 118 164 204 237 299 365
#
# _framework density 20.165918000000001
#
# number of rings (size 3 to 8) (size 9 to 14) (size 15 to 20)
#    0.000    1.750    1.250    3.375    1.750    1.000 
#    0.000    8.750    0.000    0.000    0.000    0.000 
#    0.000    0.000    0.000    0.000    0.000    0.000 
#
# Total GULP energy -396950.799929 kJ/mol
# GULP energy per Si atom -12404.712498 kJ/mol
# Density = 2.012002 g / cm^3
# Si number density = 20.165918 Si / 1000 Ang^3
#
#
#
# Elastic Constant Matrix: (Units=GPa)
#
#
# Indices 1 2 3 4 5 6 
#
# 1 76.6075 4.2338 15.7704 0.0000 16.0708 0.0000
# 2 4.2338 65.0592 35.4746 0.0000 18.5887 0.0000
# 3 15.7704 35.4746 101.4759 0.0000 25.6753 0.0000
# 4 0.0000 0.0000 0.0000 28.6802 0.0000 2.1436
# 5 16.0708 18.5887 25.6753 0.0000 28.5941 0.0000
# 6 0.0000 0.0000 0.0000 2.1436 0.0000 19.3857
#
#
#
# Elastic Compliance Matrix: (Units=1/GPa)
#
#
# Indices 1 2 3 4 5 6 
#
# 1 0.014999 0.002022 -0.000741 0.000000 -0.009079 0.000000
# 2 0.002022 0.020901 -0.005041 0.000000 -0.010198 0.000000
# 3 -0.000741 -0.005041 0.013972 0.000000 -0.008852 0.000000
# 4 0.000000 0.000000 0.000000 0.035158 0.000000 -0.003888
# 5 -0.009079 -0.010198 -0.008852 0.000000 0.054653 0.000000
# 6 0.000000 0.000000 0.000000 -0.003888 0.000000 0.052014
#
#
# Mechanical properties :
#
#
# Convention : Reuss Voigt Hill
#
# Bulk Modulus (GPa) = 23.61117 39.34447 31.47782
# Shear Modulus (GPa) = 23.43742 27.84290 25.64016
#
# Velocity S-wave (km/s) = 3.41285 3.71980 3.56962
# Velocity P-wave (km/s) = 5.22149 6.16457 5.71252
#
# Compressibility (1/GPa) = 0.04235283
#
# Stress axis : x y z
#
# Youngs Moduli (GPa) = 66.67146 47.84382 71.57354
#
# Poissons Ratio (x) = -0.09673 0.05301
# Poissons Ratio (y) = -0.13480 0.36079
# Poissons Ratio (z) = 0.04938 0.24117
#
# Static dielectric constant tensor:
#      x y z
#    x 3.654530 0.000000 0.074220 
#    y 0.000000 3.376320 0.000000 
#    z 0.074220 0.000000 3.767240 
# 
# 
# High freq. dielectric constant tensor:
#      x y z
#    x 1.793970 0.000000 0.005120 
#    y 0.000000 1.770090 0.000000 
#    z 0.005120 0.000000 1.801380 
# 
# From -- ./inp_files/48142.got.cif
#   From: 2010.03.12/outbox.cif.g09.slc.cpg/sg14_25_cif.got.tgz:48142.got - 2010.03.31 13:35:05.
