data_PCOD8126725
_publ_section_title
;
Structure prediction by ZEFSAII (Michael W. Deem and Ramdas Pophale) SiO2 
 PCOD8126725
Probable space group: P 21/C
;
_chemical_formula_sum "Si O2"
_cell_formula_units_Z 28
_cell_length_a 16.333206
_cell_length_b 11.463397
_cell_length_c 18.984434
_cell_angle_alpha 90.000000
_cell_angle_beta 156.565493
_cell_angle_gamma 90.000000
_cell_volume 1413.639311
_symmetry_space_group_name_H-M "P 21/C"
_symmetry_group_IT_number 14
_symmetry_cell_setting 'monoclinic'
loop_
_space_group_symop_operation_xyz
x,y,z
-x,1/2+y,1/2-z
-x,-y,-z
x,1/2-y,1/2+z
loop_
_atom_site_type_symbol
_atom_site_label
_atom_site_fract_x
_atom_site_fract_y
_atom_site_fract_z
Si Si1 0.922892 0.238219 0.597330
Si Si2 0.892105 0.524451 0.092031
Si Si3 0.293435 0.662243 0.443452
Si Si4 0.903899 0.189579 0.428381
Si Si5 0.716596 0.951389 0.300057
Si Si6 0.701397 0.146504 0.663890
Si Si7 0.722992 0.585906 0.104903
O O1 0.967458 0.108092 0.659893
O O2 0.758212 0.299653 0.517880
O O3 0.830321 0.238455 0.445661
O O4 0.137222 0.305492 0.764753
O O5 0.742578 0.557864 0.037938
O O6 0.095562 0.604029 0.250614
O O7 0.759716 0.541976 0.917323
O O8 0.479392 0.571262 0.595892
O O9 0.364368 0.773302 0.453892
O O10 0.874822 0.288865 0.346867
O O11 0.143942 0.152512 0.622151
O O12 0.771911 0.073510 0.305379
O O13 0.510197 0.120659 0.563604
O O14 0.793239 0.025769 0.706709
#
# Coordination Sequence:
#
# PCOD8126725 Si02
#       7
#     4   4   4   4   4   4   4
#     4  10  22  41  61  90 127 161 208 259 301 369
#     4  10  21  42  62  91 128 158 209 265 298 366
#     4  11  22  39  66  92 121 170 207 250 317 362
#     4  10  22  40  60  93 129 156 208 259 306 364
#     4  10  22  39  62  96 123 159 206 262 304 367
#     4  11  22  40  62  92 124 169 204 249 313 372
#     4  10  23  39  62  88 127 169 204 249 311 369
#
# _framework density 19.807033000000001
#
# number of rings (size 3 to 8) (size 9 to 14) (size 15 to 20)
#    0.000    1.714    2.857    0.857    4.000    1.143 
#    0.000    5.714    0.000    0.000    0.000    0.000 
#    0.000    0.000    0.000    0.000    0.000    0.000 
#
# Total GULP energy -347280.131056 kJ/mol
# GULP energy per Si atom -12402.861823 kJ/mol
# Density = 1.976195 g / cm^3
# Si number density = 19.807033 Si / 1000 Ang^3
#
#
#
# Elastic Constant Matrix: (Units=GPa)
#
#
# Indices 1 2 3 4 5 6 
#
# 1 75.1968 8.6952 14.1446 0.0000 8.6402 0.0000
# 2 8.6952 67.7310 7.3876 0.0000 4.0864 0.0000
# 3 14.1446 7.3876 45.8021 0.0000 4.5392 0.0000
# 4 0.0000 0.0000 0.0000 22.7529 0.0000 -1.5346
# 5 8.6402 4.0864 4.5392 0.0000 26.4730 0.0000
# 6 0.0000 0.0000 0.0000 -1.5346 0.0000 34.3507
#
#
#
# Elastic Compliance Matrix: (Units=1/GPa)
#
#
# Indices 1 2 3 4 5 6 
#
# 1 0.014628 -0.001213 -0.003934 0.000000 -0.003913 0.000000
# 2 -0.001213 0.015228 -0.001920 0.000000 -0.001625 0.000000
# 3 -0.003934 -0.001920 0.023602 0.000000 -0.002466 0.000000
# 4 0.000000 0.000000 0.000000 0.044083 0.000000 0.001969
# 5 -0.003913 -0.001625 -0.002466 0.000000 0.039725 0.000000
# 6 0.000000 0.000000 0.000000 0.001969 0.000000 0.029199
#
#
# Mechanical properties :
#
#
# Convention : Reuss Voigt Hill
#
# Bulk Modulus (GPa) = 25.43031 27.68720 26.55876
# Shear Modulus (GPa) = 25.81199 27.28215 26.54707
#
# Velocity S-wave (km/s) = 3.61387 3.71536 3.66496
# Velocity P-wave (km/s) = 5.50275 5.69333 5.59885
#
# Compressibility (1/GPa) = 0.03932315
#
# Stress axis : x y z
#
# Youngs Moduli (GPa) = 68.36089 65.67061 42.36892
#
# Poissons Ratio (x) = 0.07964 0.16669
# Poissons Ratio (y) = 0.08291 0.08137
# Poissons Ratio (z) = 0.26894 0.12612
#
# Static dielectric constant tensor:
#      x y z
#    x 3.845230 0.000000 0.033860 
#    y 0.000000 3.759520 0.000000 
#    z 0.033860 0.000000 3.125240 
# 
# 
# High freq. dielectric constant tensor:
#      x y z
#    x 1.796680 0.000000 0.000790 
#    y 0.000000 1.781560 0.000000 
#    z 0.000790 0.000000 1.740850 
# 
# From -- ./inp_files/63442.got.cif
#   From: 2010.03.12/outbox.cif.g09.slc.cpg/sg14_32_cif.got.tgz:63442.got - 2010.03.31 13:35:05.
