data_PCOD8126152
_publ_section_title
;
Structure prediction by ZEFSAII (Michael W. Deem and Ramdas Pophale) SiO2 
 PCOD8126152
Probable space group: P 21/C
;
_chemical_formula_sum "Si O2"
_cell_formula_units_Z 28
_cell_length_a 8.849331
_cell_length_b 20.621616
_cell_length_c 15.308670
_cell_angle_alpha 90.000000
_cell_angle_beta 30.147845
_cell_angle_gamma 90.000000
_cell_volume 1403.058729
_symmetry_space_group_name_H-M "P 21/C"
_symmetry_group_IT_number 14
_symmetry_cell_setting 'monoclinic'
loop_
_space_group_symop_operation_xyz
x,y,z
-x,1/2+y,1/2-z
-x,-y,-z
x,1/2-y,1/2+z
loop_
_atom_site_type_symbol
_atom_site_label
_atom_site_fract_x
_atom_site_fract_y
_atom_site_fract_z
Si Si1 0.160500 0.548705 0.485799
Si Si2 0.627949 0.106251 0.404303
Si Si3 0.681780 0.744983 0.687222
Si Si4 0.924767 0.971931 0.295551
Si Si5 0.849528 0.965031 0.654277
Si Si6 0.155253 0.829042 0.540423
Si Si7 0.819190 0.166125 0.130858
O O1 0.512549 0.546232 0.293545
O O2 0.068030 0.621344 0.505644
O O3 0.000000 0.500000 0.500000
O O4 0.092665 0.538616 0.620807
O O5 0.266885 0.093210 0.583960
O O6 0.732943 0.164773 0.415254
O O7 0.774294 0.122521 0.238546
O O8 0.734274 0.037158 0.385387
O O9 0.499088 0.801030 0.730039
O O10 0.890802 0.775396 0.660505
O O11 0.904690 0.716831 0.500640
O O12 0.451385 0.691021 0.837948
O O13 0.155360 0.987197 0.258920
O O14 0.029603 0.898288 0.574861
O O15 0.000000 0.000000 0.500000
#
# Coordination Sequence:
#
# PCOD8126152 Si02
#       7
#     4   4   4   4   4   4   4
#     4  12  23  39  65  95 126 162 209 262 324 376
#     4  10  21  38  63  92 126 158 204 258 313 375
#     4  10  23  41  63  85 121 169 214 255 301 372
#     4  10  22  38  60  96 130 159 200 256 325 381
#     4  11  24  39  64  94 129 164 208 262 324 381
#     4  10  22  41  63  87 124 164 207 256 310 367
#     4  11  22  41  63  91 123 164 214 256 313 372
#
# _framework density 19.956398
#
# number of rings (size 3 to 8) (size 9 to 14) (size 15 to 20)
#    0.000    1.429    2.857    2.143    6.000    1.143 
#    0.000    0.000    0.000    0.000    0.000    0.000 
#    0.000    0.000    0.000    0.000    0.000    0.000 
#
# Total GULP energy -346995.947097 kJ/mol
# GULP energy per Si atom -12392.712396 kJ/mol
# Density = 1.991098 g / cm^3
# Si number density = 19.956398 Si / 1000 Ang^3
#
#
#
# Elastic Constant Matrix: (Units=GPa)
#
#
# Indices 1 2 3 4 5 6 
#
# 1 88.4595 39.3437 35.9505 0.0000 2.3529 0.0000
# 2 39.3437 80.0852 42.4196 0.0000 -4.3157 0.0000
# 3 35.9505 42.4196 101.4722 0.0000 0.7961 0.0000
# 4 0.0000 0.0000 0.0000 40.7206 0.0000 -1.5085
# 5 2.3529 -4.3157 0.7961 0.0000 41.0153 0.0000
# 6 0.0000 0.0000 0.0000 -1.5085 0.0000 26.7419
#
#
#
# Elastic Compliance Matrix: (Units=1/GPa)
#
#
# Indices 1 2 3 4 5 6 
#
# 1 0.015181 -0.006028 -0.002847 0.000000 -0.001450 0.000000
# 2 -0.006028 0.018568 -0.005645 0.000000 0.002409 0.000000
# 3 -0.002847 -0.005645 0.013229 0.000000 -0.000687 0.000000
# 4 0.000000 0.000000 0.000000 0.024609 0.000000 0.001388
# 5 -0.001450 0.002409 -0.000687 0.000000 0.024731 0.000000
# 6 0.000000 0.000000 0.000000 0.001388 0.000000 0.037473
#
#
# Mechanical properties :
#
#
# Convention : Reuss Voigt Hill
#
# Bulk Modulus (GPa) = 55.75068 56.16051 55.95560
# Shear Modulus (GPa) = 29.61859 31.84909 30.73384
#
# Velocity S-wave (km/s) = 3.85667 3.99925 3.92860
# Velocity P-wave (km/s) = 6.91583 7.03761 6.97699
#
# Compressibility (1/GPa) = 0.01793700
#
# Stress axis : x y z
#
# Youngs Moduli (GPa) = 65.86974 53.85497 75.59099
#
# Poissons Ratio (x) = 0.32465 0.21522
# Poissons Ratio (y) = 0.39708 0.42675
# Poissons Ratio (z) = 0.18754 0.30404
#
# Static dielectric constant tensor:
#      x y z
#    x 3.839550 0.000000 -0.199090 
#    y 0.000000 3.770240 0.000000 
#    z -0.199090 0.000000 3.538500 
# 
# 
# High freq. dielectric constant tensor:
#      x y z
#    x 1.779500 0.000000 -0.009420 
#    y 0.000000 1.780910 0.000000 
#    z -0.009420 0.000000 1.781380 
# 
# From -- ./inp_files/16824.got.cif
#   From: 2010.03.12/outbox.cif.g09.slc.cpg/sg14_9_cif.got.tgz:16824.got - 2010.03.31 13:35:05.
