data_PCOD8126644
_publ_section_title
;
Structure prediction by ZEFSAII (Michael W. Deem and Ramdas Pophale) SiO2 
 PCOD8126644
Probable space group: P 21/C
;
_chemical_formula_sum "Si O2"
_cell_formula_units_Z 32
_cell_length_a 12.654297
_cell_length_b 11.620209
_cell_length_c 24.419108
_cell_angle_alpha 90.000000
_cell_angle_beta 25.277994
_cell_angle_gamma 90.000000
_cell_volume 1533.276250
_symmetry_space_group_name_H-M "P 21/C"
_symmetry_group_IT_number 14
_symmetry_cell_setting 'monoclinic'
loop_
_space_group_symop_operation_xyz
x,y,z
-x,1/2+y,1/2-z
-x,-y,-z
x,1/2-y,1/2+z
loop_
_atom_site_type_symbol
_atom_site_label
_atom_site_fract_x
_atom_site_fract_y
_atom_site_fract_z
Si Si1 0.069689 0.285049 0.332108
Si Si2 0.661796 0.270702 0.726759
Si Si3 0.985905 0.963966 0.680941
Si Si4 0.584836 0.295063 0.636699
Si Si5 0.843744 0.493125 0.780260
Si Si6 0.481341 0.540214 0.651231
Si Si7 0.115418 0.324351 0.585233
Si Si8 0.624827 0.901356 0.551541
O O1 0.344634 0.282370 0.231758
O O2 0.053993 0.397854 0.301717
O O3 0.041430 0.173261 0.306902
O O4 0.833160 0.280868 0.483835
O O5 0.664319 0.270519 0.660856
O O6 0.566480 0.145729 0.786550
O O7 0.489375 0.370727 0.835232
O O8 0.939766 0.285953 0.617740
O O9 0.114362 0.012005 0.675342
O O10 0.140043 0.012425 0.555803
O O11 0.720918 0.025779 0.801839
O O12 0.491093 0.425436 0.682034
O O13 0.557326 0.473394 0.901926
O O14 0.967737 0.369735 0.706901
O O15 0.739838 0.561512 0.500616
O O16 0.296652 0.218609 0.515018
#
# Coordination Sequence:
#
# PCOD8126644 Si02
#       8
#     4   4   4   4   4   4   4   4
#     4  11  26  45  65 101 139 168 231 273 336 411
#     4  10  23  40  71  94 130 179 219 269 338 394
#     4  11  24  42  68  96 135 174 214 276 340 391
#     4  11  25  44  67  97 138 179 215 284 340 394
#     4  11  24  43  68  94 130 181 214 279 337 393
#     4  10  22  42  61  98 130 166 222 273 318 403
#     4  10  21  41  65  96 130 164 229 270 315 407
#     4  10  22  41  64 100 129 164 230 269 316 409
#
# _framework density 20.870342999999998
#
# number of rings (size 3 to 8) (size 9 to 14) (size 15 to 20)
#    0.000    1.500    2.500    1.125    5.250    4.000 
#    2.250    2.500    0.000    0.000    0.000    0.000 
#    0.000    0.000    0.000    0.000    0.000    0.000 
#
# Total GULP energy -396570.567821 kJ/mol
# GULP energy per Si atom -12392.830244 kJ/mol
# Density = 2.082284 g / cm^3
# Si number density = 20.870343 Si / 1000 Ang^3
#
#
#
# Elastic Constant Matrix: (Units=GPa)
#
#
# Indices 1 2 3 4 5 6 
#
# 1 87.4207 25.0195 39.9827 0.0000 13.9315 0.0000
# 2 25.0195 73.1262 21.3814 0.0000 2.1590 0.0000
# 3 39.9827 21.3814 112.0905 0.0000 -10.2753 0.0000
# 4 0.0000 0.0000 0.0000 39.7221 0.0000 -9.5804
# 5 13.9315 2.1590 -10.2753 0.0000 18.3844 0.0000
# 6 0.0000 0.0000 0.0000 -9.5804 0.0000 19.6025
#
#
#
# Elastic Compliance Matrix: (Units=1/GPa)
#
#
# Indices 1 2 3 4 5 6 
#
# 1 0.018928 -0.003681 -0.007720 0.000000 -0.018226 0.000000
# 2 -0.003681 0.015405 -0.001619 0.000000 0.000075 0.000000
# 3 -0.007720 -0.001619 0.013215 0.000000 0.013426 0.000000
# 4 0.000000 0.000000 0.000000 0.028539 0.000000 0.013948
# 5 -0.018226 0.000075 0.013426 0.000000 0.075701 0.000000
# 6 0.000000 0.000000 0.000000 0.013948 0.000000 0.057831
#
#
# Mechanical properties :
#
#
# Convention : Reuss Voigt Hill
#
# Bulk Modulus (GPa) = 46.49297 49.48940 47.99119
# Shear Modulus (GPa) = 20.59079 27.95873 24.27476
#
# Velocity S-wave (km/s) = 3.14443 3.66408 3.41416
# Velocity P-wave (km/s) = 5.95892 6.45484 6.21183
#
# Compressibility (1/GPa) = 0.02150863
#
# Stress axis : x y z
#
# Youngs Moduli (GPa) = 52.83254 64.91247 75.67299
#
# Poissons Ratio (x) = 0.23891 0.58421
# Poissons Ratio (y) = 0.19445 0.12250
# Poissons Ratio (z) = 0.40788 0.10508
#
# Static dielectric constant tensor:
#      x y z
#    x 3.458030 0.000000 -0.240000 
#    y 0.000000 3.873460 0.000000 
#    z -0.240000 0.000000 4.060580 
# 
# 
# High freq. dielectric constant tensor:
#      x y z
#    x 1.789880 0.000000 -0.016330 
#    y 0.000000 1.831960 0.000000 
#    z -0.016330 0.000000 1.835570 
# 
# From -- ./inp_files/73281.got.cif
#   From: 2010.03.12/outbox.cif.g09.slc.cpg/sg14_37_cif.got.tgz:73281.got - 2010.03.31 13:35:05.
