data_PCOD8126634
_publ_section_title
;
Structure prediction by ZEFSAII (Michael W. Deem and Ramdas Pophale) SiO2 
 PCOD8126634
Probable space group: P 21/C
;
_chemical_formula_sum "Si O2"
_cell_formula_units_Z 28
_cell_length_a 10.077432
_cell_length_b 9.504854
_cell_length_c 23.782036
_cell_angle_alpha 90.000000
_cell_angle_beta 145.276762
_cell_angle_gamma 90.000000
_cell_volume 1297.550267
_symmetry_space_group_name_H-M "P 21/C"
_symmetry_group_IT_number 14
_symmetry_cell_setting 'monoclinic'
loop_
_space_group_symop_operation_xyz
x,y,z
-x,1/2+y,1/2-z
-x,-y,-z
x,1/2-y,1/2+z
loop_
_atom_site_type_symbol
_atom_site_label
_atom_site_fract_x
_atom_site_fract_y
_atom_site_fract_z
Si Si1 0.191063 0.630518 0.708417
Si Si2 0.038789 0.724451 0.046666
Si Si3 0.304452 0.057441 0.639504
Si Si4 0.318420 0.896102 0.064165
Si Si5 0.651244 0.123238 0.163550
Si Si6 0.796701 0.633770 0.772333
Si Si7 0.138996 0.623478 0.380320
O O1 0.044574 0.722702 0.612799
O O2 0.415762 0.560356 0.756758
O O3 0.294930 0.722224 0.795419
O O4 0.021649 0.514274 0.674439
O O5 0.232211 0.603388 0.104365
O O6 0.098716 0.857882 0.026979
O O7 0.787646 0.657496 0.943469
O O8 0.185880 0.117922 0.654504
O O9 0.541078 0.809415 0.164922
O O10 0.389995 0.064434 0.089728
O O11 0.273001 0.850790 0.984723
O O12 0.672521 0.113562 0.103666
O O13 0.840308 0.017993 0.258144
O O14 0.983413 0.741109 0.813514
#
# Coordination Sequence:
#
# PCOD8126634 Si02
#       7
#     4   4   4   4   4   4   4
#     4  12  25  40  68  94 125 168 214 262 322 377
#     4  11  22  40  66  95 130 164 204 268 330 369
#     4  11  23  40  62  97 133 158 211 266 320 391
#     4  10  22  40  68  92 127 166 212 265 315 374
#     4  10  24  44  61  91 132 169 214 261 305 382
#     4  10  21  41  65  89 132 167 207 264 321 364
#     4  12  24  42  66  94 127 174 215 258 317 380
#
# _framework density 21.579125999999999
#
# number of rings (size 3 to 8) (size 9 to 14) (size 15 to 20)
#    0.857    0.286    4.286    2.143    2.000    0.571 
#    0.000    0.000    0.000    3.429    0.000    0.000 
#    0.000    0.000    0.000    0.000    0.000    0.000 
#
# Total GULP energy -347079.937572 kJ/mol
# GULP energy per Si atom -12395.712056 kJ/mol
# Density = 2.153001 g / cm^3
# Si number density = 21.579126 Si / 1000 Ang^3
#
#
#
# Elastic Constant Matrix: (Units=GPa)
#
#
# Indices 1 2 3 4 5 6 
#
# 1 74.2059 11.4976 0.6181 0.0000 -14.0088 0.0000
# 2 11.4976 69.8523 1.1991 0.0000 -0.0359 0.0000
# 3 0.6181 1.1991 72.3391 0.0000 -14.8087 0.0000
# 4 0.0000 0.0000 0.0000 27.2280 0.0000 -2.7647
# 5 -14.0088 -0.0359 -14.8087 0.0000 31.0395 0.0000
# 6 0.0000 0.0000 0.0000 -2.7647 0.0000 28.4517
#
#
#
# Elastic Compliance Matrix: (Units=1/GPa)
#
#
# Indices 1 2 3 4 5 6 
#
# 1 0.015292 -0.002538 0.001467 0.000000 0.007598 0.000000
# 2 -0.002538 0.014742 -0.000503 0.000000 -0.001368 0.000000
# 3 0.001467 -0.000503 0.015465 0.000000 0.008040 0.000000
# 4 0.000000 0.000000 0.000000 0.037093 0.000000 0.003604
# 5 0.007598 -0.001368 0.008040 0.000000 0.039480 0.000000
# 6 0.000000 0.000000 0.000000 0.003604 0.000000 0.035498
#
#
# Mechanical properties :
#
#
# Convention : Reuss Voigt Hill
#
# Bulk Modulus (GPa) = 23.61258 27.00298 25.30778
# Shear Modulus (GPa) = 28.59845 30.88267 29.74056
#
# Velocity S-wave (km/s) = 3.64439 3.78714 3.71645
# Velocity P-wave (km/s) = 5.35489 5.62707 5.49267
#
# Compressibility (1/GPa) = 0.04235031
#
# Stress axis : x y z
#
# Youngs Moduli (GPa) = 65.39574 67.83509 64.66023
#
# Poissons Ratio (x) = 0.17218 -0.09485
# Poissons Ratio (y) = 0.16599 0.03251
# Poissons Ratio (z) = -0.09593 0.03411
#
# Static dielectric constant tensor:
#      x y z
#    x 3.532250 0.000000 -0.110460 
#    y 0.000000 3.847340 0.000000 
#    z -0.110460 0.000000 3.895660 
# 
# 
# High freq. dielectric constant tensor:
#      x y z
#    x 1.823620 0.000000 -0.013350 
#    y 0.000000 1.847670 0.000000 
#    z -0.013350 0.000000 1.853320 
# 
# From -- ./inp_files/77155.got.cif
#   From: 2010.03.12/outbox.cif.g09.slc.cpg/sg14_39_cif.got.tgz:77155.got - 2010.03.31 13:35:05.
