data_PCOD8126594
_publ_section_title
;
Structure prediction by ZEFSAII (Michael W. Deem and Ramdas Pophale) SiO2 
 PCOD8126594
Probable space group: P 21/C
;
_chemical_formula_sum "Si O2"
_cell_formula_units_Z 32
_cell_length_a 9.515611
_cell_length_b 22.152725
_cell_length_c 16.549315
_cell_angle_alpha 90.000000
_cell_angle_beta 26.404596
_cell_angle_gamma 90.000000
_cell_volume 1551.378795
_symmetry_space_group_name_H-M "P 21/C"
_symmetry_group_IT_number 14
_symmetry_cell_setting 'monoclinic'
loop_
_space_group_symop_operation_xyz
x,y,z
-x,1/2+y,1/2-z
-x,-y,-z
x,1/2-y,1/2+z
loop_
_atom_site_type_symbol
_atom_site_label
_atom_site_fract_x
_atom_site_fract_y
_atom_site_fract_z
Si Si1 0.878898 0.558128 0.107166
Si Si2 0.267393 0.811945 0.904769
Si Si3 0.207279 0.572771 0.523896
Si Si4 0.804710 0.386986 0.913213
Si Si5 0.382211 0.128300 0.401316
Si Si6 0.150713 0.228821 0.292085
Si Si7 0.252915 0.969441 0.689193
Si Si8 0.849315 0.846583 0.311275
O O1 0.563805 0.549094 0.324568
O O2 0.831673 0.610778 0.065675
O O3 0.161721 0.576319 0.020979
O O4 0.000000 0.500000 0.000000
O O5 0.394805 0.817163 0.747365
O O6 0.524773 0.799059 0.843273
O O7 0.116820 0.878487 0.000410
O O8 0.016389 0.757834 0.042048
O O9 0.975256 0.515460 0.646172
O O10 0.162873 0.613796 0.628474
O O11 0.957098 0.423693 0.758647
O O12 0.953951 0.321722 0.847136
O O13 0.435922 0.383651 0.082266
O O14 0.568130 0.068556 0.333732
O O15 0.174833 0.156619 0.579541
O O16 0.172418 0.279671 0.212508
O O17 0.500000 0.000000 0.500000
#
# Coordination Sequence:
#
# PCOD8126594 Si02
#       8
#     4   4   4   4   4   4   4   4
#     4  11  24  39  61  94 132 158 200 267 322 367
#     4  10  22  39  64  88 126 162 210 262 322 377
#     4  10  21  41  63  91 122 176 203 250 324 382
#     4  11  21  40  64  88 123 166 211 255 322 375
#     4  10  21  42  60  95 123 157 213 262 311 364
#     4  11  20  42  61  89 119 171 208 256 318 384
#     4  11  21  39  65  92 126 166 215 260 303 392
#     4  10  22  40  70  84 119 174 216 249 308 388
#
# _framework density 20.626812000000001
#
# number of rings (size 3 to 8) (size 9 to 14) (size 15 to 20)
#    0.000    1.500    6.250    0.750    0.000    2.500 
#    6.750    0.000    0.000    0.000    0.000    0.000 
#    0.000    0.000    0.000    0.000    0.000    0.000 
#
# Total GULP energy -396427.318506 kJ/mol
# GULP energy per Si atom -12388.353703 kJ/mol
# Density = 2.057986 g / cm^3
# Si number density = 20.626812 Si / 1000 Ang^3
#
#
#
# Elastic Constant Matrix: (Units=GPa)
#
#
# Indices 1 2 3 4 5 6 
#
# 1 68.8448 12.7391 23.5127 0.0000 10.6999 0.0000
# 2 12.7391 108.5791 40.1521 0.0000 6.6380 0.0000
# 3 23.5127 40.1521 114.8475 0.0000 23.5875 0.0000
# 4 0.0000 0.0000 0.0000 38.3057 0.0000 10.7516
# 5 10.6999 6.6380 23.5875 0.0000 29.0966 0.0000
# 6 0.0000 0.0000 0.0000 10.7516 0.0000 30.7341
#
#
#
# Elastic Compliance Matrix: (Units=1/GPa)
#
#
# Indices 1 2 3 4 5 6 
#
# 1 0.016037 -0.000834 -0.002183 0.000000 -0.003937 0.000000
# 2 -0.000834 0.010633 -0.003733 0.000000 0.000907 0.000000
# 3 -0.002183 -0.003733 0.012141 0.000000 -0.008188 0.000000
# 4 0.000000 0.000000 0.000000 0.028948 0.000000 -0.010127
# 5 -0.003937 0.000907 -0.008188 0.000000 0.042247 0.000000
# 6 0.000000 0.000000 0.000000 -0.010127 0.000000 0.036080
#
#
# Mechanical properties :
#
#
# Convention : Reuss Voigt Hill
#
# Bulk Modulus (GPa) = 39.50783 49.45323 44.48053
# Shear Modulus (GPa) = 29.75803 34.01846 31.88824
#
# Velocity S-wave (km/s) = 3.80239 4.06548 3.93614
# Velocity P-wave (km/s) = 6.20264 6.78711 6.50145
#
# Compressibility (1/GPa) = 0.02531144
#
# Stress axis : x y z
#
# Youngs Moduli (GPa) = 62.35481 94.05003 82.36663
#
# Poissons Ratio (x) = 0.07839 0.17982
# Poissons Ratio (y) = 0.05197 0.30747
# Poissons Ratio (z) = 0.13613 0.35108
#
# Static dielectric constant tensor:
#      x y z
#    x 3.665050 0.000000 0.117940 
#    y 0.000000 4.169510 0.000000 
#    z 0.117940 0.000000 4.060150 
# 
# 
# High freq. dielectric constant tensor:
#      x y z
#    x 1.781940 0.000000 0.013420 
#    y 0.000000 1.825090 0.000000 
#    z 0.013420 0.000000 1.801860 
# 
# From -- ./inp_files/42214.got.cif
#   From: 2010.03.12/outbox.cif.g09.slc.cpg/sg14_22_cif.got.tgz:42214.got - 2010.03.31 13:35:05.
