data_PCOD8126566
_publ_section_title
;
Structure prediction by ZEFSAII (Michael W. Deem and Ramdas Pophale) SiO2 
 PCOD8126566
Probable space group: P 21/C
;
_chemical_formula_sum "Si O2"
_cell_formula_units_Z 16
_cell_length_a 6.795959
_cell_length_b 20.414052
_cell_length_c 5.257030
_cell_angle_alpha 90.000000
_cell_angle_beta 75.002838
_cell_angle_gamma 90.000000
_cell_volume 704.482102
_symmetry_space_group_name_H-M "P 21/C"
_symmetry_group_IT_number 14
_symmetry_cell_setting 'monoclinic'
loop_
_space_group_symop_operation_xyz
x,y,z
-x,1/2+y,1/2-z
-x,-y,-z
x,1/2-y,1/2+z
loop_
_atom_site_type_symbol
_atom_site_label
_atom_site_fract_x
_atom_site_fract_y
_atom_site_fract_z
Si Si1 0.049449 0.096358 0.916555
Si Si2 0.708471 0.025055 0.273722
Si Si3 0.653350 0.707287 0.635464
Si Si4 0.645647 0.090375 0.803396
O O1 0.136310 0.167080 0.963464
O O2 0.889913 0.103179 0.735809
O O3 0.245981 0.052368 0.774234
O O4 0.929344 0.062668 0.193853
O O5 0.598746 0.041129 0.580274
O O6 0.572014 0.053873 0.086544
O O7 0.643825 0.758771 0.412120
O O8 0.458711 0.660232 0.689140
#
# Coordination Sequence:
#
# PCOD8126566 Si02
#       4
#     4   4   4   4
#     4   9  23  40  67  91 123 150 205 254 307 354
#     4   9  20  40  68  95 115 151 199 258 323 346
#     4  12  28  41  58  89 124 170 210 233 290 372
#     4  10  21  41  61  90 123 153 196 255 302 357
#
# _framework density 22.711718999999999
#
# number of rings (size 3 to 8) (size 9 to 14) (size 15 to 20)
#    1.500    0.500    0.000    2.250    3.500    4.000 
#    0.000    0.000    0.000    0.000    0.000    0.000 
#    0.000    0.000    0.000    0.000    0.000    0.000 
#
# Total GULP energy -198362.120213 kJ/mol
# GULP energy per Si atom -12397.632513 kJ/mol
# Density = 2.266003 g / cm^3
# Si number density = 22.711719 Si / 1000 Ang^3
#
#
#
# Elastic Constant Matrix: (Units=GPa)
#
#
# Indices 1 2 3 4 5 6 
#
# 1 55.3666 38.5799 25.3360 0.0000 13.1797 0.0000
# 2 38.5799 108.0524 25.3689 0.0000 9.8476 0.0000
# 3 25.3360 25.3689 130.7887 0.0000 4.6013 0.0000
# 4 0.0000 0.0000 0.0000 40.7198 0.0000 3.4388
# 5 13.1797 9.8476 4.6013 0.0000 34.6895 0.0000
# 6 0.0000 0.0000 0.0000 3.4388 0.0000 61.4664
#
#
#
# Elastic Compliance Matrix: (Units=1/GPa)
#
#
# Indices 1 2 3 4 5 6 
#
# 1 0.027122 -0.008200 -0.003399 0.000000 -0.007526 0.000000
# 2 -0.008200 0.012399 -0.000806 0.000000 -0.000297 0.000000
# 3 -0.003399 -0.000806 0.008447 0.000000 0.000400 0.000000
# 4 0.000000 0.000000 0.000000 0.024675 0.000000 -0.001380
# 5 -0.007526 -0.000297 0.000400 0.000000 0.031718 0.000000
# 6 0.000000 0.000000 0.000000 -0.001380 0.000000 0.016346
#
#
# Mechanical properties :
#
#
# Convention : Reuss Voigt Hill
#
# Bulk Modulus (GPa) = 43.18157 52.53081 47.85619
# Shear Modulus (GPa) = 32.62959 41.03666 36.83313
#
# Velocity S-wave (km/s) = 3.79447 4.25532 4.03149
# Velocity P-wave (km/s) = 6.18478 6.87919 6.54121
#
# Compressibility (1/GPa) = 0.02315803
#
# Stress axis : x y z
#
# Youngs Moduli (GPa) = 36.87045 80.65219 118.39101
#
# Poissons Ratio (x) = 0.66135 0.40237
# Poissons Ratio (y) = 0.30234 0.09543
# Poissons Ratio (z) = 0.12531 0.06501
#
# Static dielectric constant tensor:
#      x y z
#    x 4.098760 0.000000 0.067230 
#    y 0.000000 3.906410 0.000000 
#    z 0.067230 0.000000 3.824440 
# 
# 
# High freq. dielectric constant tensor:
#      x y z
#    x 1.921340 0.000000 0.001990 
#    y 0.000000 1.893980 0.000000 
#    z 0.001990 0.000000 1.885800 
# 
# From -- ./inp_files/880.got.cif
#   From: 2010.03.12/outbox.cif.g09.slc.cpg/sg14_1_cif.got.tgz:880.got - 2010.03.31 13:35:05.
