data_PCOD8126526
_publ_section_title
;
Structure prediction by ZEFSAII (Michael W. Deem and Ramdas Pophale) SiO2 
 PCOD8126526
Probable space group: P 21/C
;
_chemical_formula_sum "Si O2"
_cell_formula_units_Z 12
_cell_length_a 26.997719
_cell_length_b 5.294022
_cell_length_c 17.845385
_cell_angle_alpha 90.000000
_cell_angle_beta 9.727032
_cell_angle_gamma 90.000000
_cell_volume 430.931535
_symmetry_space_group_name_H-M "P 21/C"
_symmetry_group_IT_number 14
_symmetry_cell_setting 'monoclinic'
loop_
_space_group_symop_operation_xyz
x,y,z
-x,1/2+y,1/2-z
-x,-y,-z
x,1/2-y,1/2+z
loop_
_atom_site_type_symbol
_atom_site_label
_atom_site_fract_x
_atom_site_fract_y
_atom_site_fract_z
Si Si1 0.166241 0.031527 0.526201
Si Si2 0.743929 0.967031 0.323908
Si Si3 0.472439 0.965514 0.878416
O O1 0.039625 0.304654 0.693412
O O2 0.205494 0.015472 0.559761
O O3 0.500000 0.000000 0.000000
O O4 0.729546 0.707459 0.296861
O O5 0.469588 0.945476 0.792197
O O6 0.688502 0.208669 0.352165
O O7 0.000000 0.000000 0.000000
#
# Coordination Sequence:
#
# PCOD8126526 Si02
#       3
#     4   4   4
#     4  12  28  41  63  98 143 182 213 262 337 376
#     4  10  21  40  67  96 123 164 223 280 322 378
#     4  10  23  39  59  94 135 171 219 276 324 388
#
# _framework density 27.846651000000001
#
# number of rings (size 3 to 8) (size 9 to 14) (size 15 to 20)
#    0.000    1.333    0.000    4.000   13.333    0.000 
#    0.000    0.000    0.000    8.000    0.000    0.000 
#    0.000    0.000    0.000    0.000    0.000    0.000 
#
# Total GULP energy -148677.101909 kJ/mol
# GULP energy per Si atom -12389.758492 kJ/mol
# Density = 2.778327 g / cm^3
# Si number density = 27.846651 Si / 1000 Ang^3
#
#
#
# Elastic Constant Matrix: (Units=GPa)
#
#
# Indices 1 2 3 4 5 6 
#
# 1 84.3757 -6.6925 -17.5347 0.0000 -21.5714 0.0000
# 2 -6.6925 309.3871 53.1593 0.0000 -58.9741 0.0000
# 3 -17.5347 53.1593 89.0533 0.0000 -43.2118 0.0000
# 4 0.0000 0.0000 0.0000 60.3035 0.0000 -29.6028
# 5 -21.5714 -58.9741 -43.2118 0.0000 63.7818 0.0000
# 6 0.0000 0.0000 0.0000 -29.6028 0.0000 20.6723
#
#
#
# Elastic Compliance Matrix: (Units=1/GPa)
#
#
# Indices 1 2 3 4 5 6 
#
# 1 0.017160 0.001331 0.008935 0.000000 0.013087 0.000000
# 2 0.001331 0.004072 -0.000184 0.000000 0.004091 0.000000
# 3 0.008935 -0.000184 0.021575 0.000000 0.017468 0.000000
# 4 0.000000 0.000000 0.000000 0.055828 0.000000 0.079946
# 5 0.013087 0.004091 0.017468 0.000000 0.035722 0.000000
# 6 0.000000 0.000000 0.000000 0.079946 0.000000 0.162856
#
#
# Mechanical properties :
#
#
# Convention : Reuss Voigt Hill
#
# Bulk Modulus (GPa) = 15.88051 60.07558 37.97804
# Shear Modulus (GPa) = 16.77626 59.21046 37.99336
#
# Velocity S-wave (km/s) = 2.45715 4.61619 3.69776
# Velocity P-wave (km/s) = 3.71017 7.07339 5.64793
#
# Compressibility (1/GPa) = 0.06297028
#
# Stress axis : x y z
#
# Youngs Moduli (GPa) = 58.27500 245.55807 46.35071
#
# Poissons Ratio (x) = -0.32675 -0.41414
# Poissons Ratio (y) = -0.07754 0.00853
# Poissons Ratio (z) = -0.52068 0.04517
#
# Static dielectric constant tensor:
#      x y z
#    x 10.157640 0.000000 1.411590 
#    y 0.000000 6.646980 0.000000 
#    z 1.411590 0.000000 5.181170 
# 
# 
# High freq. dielectric constant tensor:
#      x y z
#    x 2.139920 0.000000 0.004730 
#    y 0.000000 2.150700 0.000000 
#    z 0.004730 0.000000 2.128220 
# 
# From -- ./inp_files/70585.got.cif
#   From: 2010.03.12/outbox.cif.g09.slc.cpg/sg14_36_cif.got.tgz:70585.got - 2010.03.31 13:35:05.
