data_PCOD8126626
_publ_section_title
;
Structure prediction by ZEFSAII (Michael W. Deem and Ramdas Pophale) SiO2 
 PCOD8126626
Probable space group: P 21/C
;
_chemical_formula_sum "Si O2"
_cell_formula_units_Z 32
_cell_length_a 7.552765
_cell_length_b 25.667449
_cell_length_c 8.389602
_cell_angle_alpha 90.000000
_cell_angle_beta 110.897369
_cell_angle_gamma 90.000000
_cell_volume 1519.426149
_symmetry_space_group_name_H-M "P 21/C"
_symmetry_group_IT_number 14
_symmetry_cell_setting 'monoclinic'
loop_
_space_group_symop_operation_xyz
x,y,z
-x,1/2+y,1/2-z
-x,-y,-z
x,1/2-y,1/2+z
loop_
_atom_site_type_symbol
_atom_site_label
_atom_site_fract_x
_atom_site_fract_y
_atom_site_fract_z
Si Si1 0.595739 0.368073 0.262798
Si Si2 0.056138 0.252125 0.351663
Si Si3 0.194879 0.323991 0.148409
Si Si4 0.141205 0.898888 0.425209
Si Si5 0.665213 0.474907 0.452842
Si Si6 0.883886 0.316975 0.562209
Si Si7 0.956712 0.080988 0.261599
Si Si8 0.282594 0.493280 0.862784
O O1 0.388623 0.349361 0.162015
O O2 0.702808 0.366338 0.125703
O O3 0.587748 0.425507 0.331395
O O4 0.678162 0.330597 0.427666
O O5 0.003946 0.298804 0.449771
O O6 0.877918 0.230543 0.187885
O O7 0.212124 0.277367 0.283146
O O8 0.127297 0.200396 0.460602
O O9 0.057031 0.369529 0.168993
O O10 0.170844 0.901744 0.626296
O O11 0.149242 0.957851 0.364505
O O12 0.500000 0.500000 0.500000
O O13 0.841770 0.462266 0.623975
O O14 0.719455 0.514963 0.329264
O O15 0.987918 0.368312 0.662943
O O16 0.162060 0.057401 0.384720
O O17 0.500000 0.500000 0.000000
#
# Coordination Sequence:
#
# PCOD8126626 Si02
#       8
#     4   4   4   4   4   4   4   4
#     4  10  24  41  66  97 129 167 229 266 332 398
#     4  10  22  42  68  92 128 170 219 265 345 387
#     4  11  23  43  67  94 130 171 214 279 327 397
#     4  11  23  42  68  94 132 176 215 272 334 385
#     4  10  23  41  61  95 136 173 222 270 328 398
#     4  10  21  41  64  95 127 170 214 275 328 397
#     4  11  23  41  66  96 134 178 218 274 335 387
#     4  11  25  41  68 100 132 180 229 268 334 408
#
# _framework density 21.060580000000002
#
# number of rings (size 3 to 8) (size 9 to 14) (size 15 to 20)
#    0.000    1.500    2.500    1.500    5.250    2.000 
#    0.000    5.000    0.000    0.000    0.000    0.000 
#    0.000    0.000    0.000    0.000    0.000    0.000 
#
# Total GULP energy -396446.164444 kJ/mol
# GULP energy per Si atom -12388.942639 kJ/mol
# Density = 2.101265 g / cm^3
# Si number density = 21.060580 Si / 1000 Ang^3
#
#
#
# Elastic Constant Matrix: (Units=GPa)
#
#
# Indices 1 2 3 4 5 6 
#
# 1 132.3932 62.1010 65.4017 0.0000 -6.6962 0.0000
# 2 62.1010 83.4589 43.0657 0.0000 2.1503 0.0000
# 3 65.4017 43.0657 119.5206 0.0000 -16.0710 0.0000
# 4 0.0000 0.0000 0.0000 37.0801 0.0000 -4.8130
# 5 -6.6962 2.1503 -16.0710 0.0000 30.7175 0.0000
# 6 0.0000 0.0000 0.0000 -4.8130 0.0000 30.0512
#
#
#
# Elastic Compliance Matrix: (Units=1/GPa)
#
#
# Indices 1 2 3 4 5 6 
#
# 1 0.013416 -0.007746 -0.004393 0.000000 0.001168 0.000000
# 2 -0.007746 0.019685 -0.003514 0.000000 -0.004905 0.000000
# 3 -0.004393 -0.003514 0.012845 0.000000 0.006008 0.000000
# 4 0.000000 0.000000 0.000000 0.027541 0.000000 0.004411
# 5 0.001168 -0.004905 0.006008 0.000000 0.036296 0.000000
# 6 0.000000 0.000000 0.000000 0.004411 0.000000 0.033983
#
#
# Mechanical properties :
#
#
# Convention : Reuss Voigt Hill
#
# Bulk Modulus (GPa) = 68.30616 75.16774 71.73695
# Shear Modulus (GPa) = 27.78520 30.55670 29.17095
#
# Velocity S-wave (km/s) = 3.63616 3.81319 3.72573
# Velocity P-wave (km/s) = 7.08043 7.42671 7.25563
#
# Compressibility (1/GPa) = 0.01463997
#
# Stress axis : x y z
#
# Youngs Moduli (GPa) = 74.53908 50.79968 77.85309
#
# Poissons Ratio (x) = 0.39348 0.34201
# Poissons Ratio (y) = 0.57737 0.27358
# Poissons Ratio (z) = 0.32745 0.17851
#
# Static dielectric constant tensor:
#      x y z
#    x 3.658570 0.000000 -0.275980 
#    y 0.000000 3.978670 0.000000 
#    z -0.275980 0.000000 4.140800 
# 
# 
# High freq. dielectric constant tensor:
#      x y z
#    x 1.802470 0.000000 -0.022180 
#    y 0.000000 1.834280 0.000000 
#    z -0.022180 0.000000 1.837830 
# 
# From -- ./inp_files/6993.got.cif
#   From: 2010.03.12/outbox.cif.g09.slc.cpg/sg14_4_cif.got.tgz:6993.got - 2010.03.31 13:35:05.
