data_PCOD8126145
_publ_section_title
;
Structure prediction by ZEFSAII (Michael W. Deem and Ramdas Pophale) SiO2 
 PCOD8126145
Probable space group: P 21/C
;
_chemical_formula_sum "Si O2"
_cell_formula_units_Z 32
_cell_length_a 18.860705
_cell_length_b 9.225756
_cell_length_c 8.883277
_cell_angle_alpha 90.000000
_cell_angle_beta 105.381987
_cell_angle_gamma 90.000000
_cell_volume 1490.358295
_symmetry_space_group_name_H-M "P 21/C"
_symmetry_group_IT_number 14
_symmetry_cell_setting 'monoclinic'
loop_
_space_group_symop_operation_xyz
x,y,z
-x,1/2+y,1/2-z
-x,-y,-z
x,1/2-y,1/2+z
loop_
_atom_site_type_symbol
_atom_site_label
_atom_site_fract_x
_atom_site_fract_y
_atom_site_fract_z
Si Si1 0.239506 0.671534 0.402980
Si Si2 0.006808 0.345514 0.929062
Si Si3 0.367725 0.620071 0.008851
Si Si4 0.389438 0.160883 0.673805
Si Si5 0.441688 0.841353 0.231735
Si Si6 0.942021 0.907101 0.874134
Si Si7 0.641369 0.937918 0.012153
Si Si8 0.856833 0.173110 0.878445
O O1 0.296624 0.784318 0.504920
O O2 0.280566 0.516445 0.410524
O O3 0.166654 0.652042 0.462245
O O4 0.211210 0.741318 0.232567
O O5 0.929401 0.267684 0.907487
O O6 0.025720 0.364546 0.767367
O O7 0.000000 0.500000 0.000000
O O8 0.070015 0.245217 0.043562
O O9 0.347929 0.458352 0.049334
O O10 0.430416 0.679578 0.158606
O O11 0.390918 0.627660 0.847809
O O12 0.474299 0.150533 0.670792
O O13 0.351420 0.313323 0.610518
O O14 0.385416 0.135548 0.849315
O O15 0.419618 0.949611 0.083218
O O16 0.869781 0.009907 0.817587
O O17 0.000000 0.000000 0.000000
#
# Coordination Sequence:
#
# PCOD8126145 Si02
#       8
#     4   4   4   4   4   4   4   4
#     4  11  23  42  61  86 120 168 210 240 296 374
#     4  11  21  39  65  97 128 156 197 260 310 347
#     4  11  22  38  61  87 121 159 203 259 304 366
#     4  12  22  39  60  87 119 158 203 266 324 362
#     4  11  21  38  61  90 116 156 207 258 322 378
#     4  10  21  38  62  96 127 159 201 249 298 350
#     4  11  24  39  59  87 123 160 205 262 310 370
#     4  11  22  41  66  88 121 166 203 240 295 373
#
# _framework density 21.471349
#
# number of rings (size 3 to 8) (size 9 to 14) (size 15 to 20)
#    0.000    1.000    0.000   10.500    0.000    0.000 
#    0.000    6.250    0.000    0.000    0.000    0.000 
#    0.000    0.000    0.000    0.000    0.000    0.000 
#
# Total GULP energy -396746.185261 kJ/mol
# GULP energy per Si atom -12398.318289 kJ/mol
# Density = 2.142248 g / cm^3
# Si number density = 21.471349 Si / 1000 Ang^3
#
#
#
# Elastic Constant Matrix: (Units=GPa)
#
#
# Indices 1 2 3 4 5 6 
#
# 1 77.9709 34.8892 23.7537 0.0000 -10.9662 0.0000
# 2 34.8892 150.4340 43.4067 0.0000 9.2238 0.0000
# 3 23.7537 43.4067 107.5114 0.0000 -13.9945 0.0000
# 4 0.0000 0.0000 0.0000 49.6396 0.0000 5.2468
# 5 -10.9662 9.2238 -13.9945 0.0000 33.0995 0.0000
# 6 0.0000 0.0000 0.0000 5.2468 0.0000 27.9513
#
#
#
# Elastic Compliance Matrix: (Units=1/GPa)
#
#
# Indices 1 2 3 4 5 6 
#
# 1 0.015616 -0.003604 -0.001260 0.000000 0.005645 0.000000
# 2 -0.003604 0.008779 -0.003410 0.000000 -0.005082 0.000000
# 3 -0.001260 -0.003410 0.011668 0.000000 0.005466 0.000000
# 4 0.000000 0.000000 0.000000 0.020553 0.000000 -0.003858
# 5 0.005645 -0.005082 0.005466 0.000000 0.035809 0.000000
# 6 0.000000 0.000000 0.000000 -0.003858 0.000000 0.036501
#
#
# Mechanical properties :
#
#
# Convention : Reuss Voigt Hill
#
# Bulk Modulus (GPa) = 51.24372 60.00171 55.62271
# Shear Modulus (GPa) = 32.89942 37.72919 35.31431
#
# Velocity S-wave (km/s) = 3.91864 4.19643 4.05991
# Velocity P-wave (km/s) = 6.66275 7.17535 6.92380
#
# Compressibility (1/GPa) = 0.01951459
#
# Stress axis : x y z
#
# Youngs Moduli (GPa) = 64.03706 113.91160 85.70599
#
# Poissons Ratio (x) = 0.41056 0.10801
# Poissons Ratio (y) = 0.23080 0.29222
# Poissons Ratio (z) = 0.08070 0.38838
#
# Static dielectric constant tensor:
#      x y z
#    x 3.717790 0.000000 0.089530 
#    y 0.000000 4.575710 0.000000 
#    z 0.089530 0.000000 3.948280 
# 
# 
# High freq. dielectric constant tensor:
#      x y z
#    x 1.818520 0.000000 -0.009800 
#    y 0.000000 1.857790 0.000000 
#    z -0.009800 0.000000 1.854360 
# 
# From -- ./inp_files/18629.got.cif
#   From: 2010.03.12/outbox.cif.g09.slc.cpg/sg14_10_cif.got.tgz:18629.got - 2010.03.31 13:35:05.
