data_PCOD8126215
_publ_section_title
;
Structure prediction by ZEFSAII (Michael W. Deem and Ramdas Pophale) SiO2 
 PCOD8126215
Probable space group: P 21/C
;
_chemical_formula_sum "Si O2"
_cell_formula_units_Z 24
_cell_length_a 10.587608
_cell_length_b 15.148071
_cell_length_c 12.950291
_cell_angle_alpha 90.000000
_cell_angle_beta 32.827721
_cell_angle_gamma 90.000000
_cell_volume 1125.967882
_symmetry_space_group_name_H-M "P 21/C"
_symmetry_group_IT_number 14
_symmetry_cell_setting 'monoclinic'
loop_
_space_group_symop_operation_xyz
x,y,z
-x,1/2+y,1/2-z
-x,-y,-z
x,1/2-y,1/2+z
loop_
_atom_site_type_symbol
_atom_site_label
_atom_site_fract_x
_atom_site_fract_y
_atom_site_fract_z
Si Si1 0.219612 0.153689 0.539840
Si Si2 0.715571 0.845567 0.945878
Si Si3 0.812247 0.895461 0.667832
Si Si4 0.325834 0.572943 0.833164
Si Si5 0.364869 0.963037 0.740762
Si Si6 0.992825 0.486508 0.336831
O O1 0.165370 0.251471 0.616208
O O2 0.186129 0.157346 0.439803
O O3 0.036618 0.085313 0.717009
O O4 0.485923 0.125519 0.382289
O O5 0.657541 0.850385 0.863378
O O6 0.884928 0.924911 0.863826
O O7 0.474772 0.851283 0.174661
O O8 0.072331 0.892370 0.537433
O O9 0.708173 0.992678 0.723969
O O10 0.453990 0.539860 0.849121
O O11 0.238788 0.991920 0.722458
O O12 0.181195 0.944691 0.958941
#
# Coordination Sequence:
#
# PCOD8126215 Si02
#       6
#     4   4   4   4   4   4
#     4  11  24  38  59  90 119 157 203 243 294 353
#     4  11  23  37  60  88 117 158 201 241 295 353
#     4  10  21  39  59  84 119 151 193 249 295 349
#     4   9  19  38  63  86 111 152 196 242 300 350
#     4   9  20  39  62  85 117 154 196 245 295 352
#     4  10  21  40  61  86 122 159 194 244 300 348
#
# _framework density 21.314993999999999
#
# number of rings (size 3 to 8) (size 9 to 14) (size 15 to 20)
#    0.000    2.000    0.000    4.000    0.000    9.333 
#    0.000    0.000    0.000    0.000    0.000    0.000 
#    0.000    0.000    0.000    0.000    0.000    0.000 
#
# Total GULP energy -297590.961236 kJ/mol
# GULP energy per Si atom -12399.623385 kJ/mol
# Density = 2.126648 g / cm^3
# Si number density = 21.314994 Si / 1000 Ang^3
#
#
#
# Elastic Constant Matrix: (Units=GPa)
#
#
# Indices 1 2 3 4 5 6 
#
# 1 89.1498 13.5974 15.6612 0.0000 7.8024 0.0000
# 2 13.5974 116.3528 29.1299 0.0000 11.1573 0.0000
# 3 15.6612 29.1299 40.6412 0.0000 -0.2923 0.0000
# 4 0.0000 0.0000 0.0000 30.3312 0.0000 -0.5016
# 5 7.8024 11.1573 -0.2923 0.0000 41.7077 0.0000
# 6 0.0000 0.0000 0.0000 -0.5016 0.0000 16.6387
#
#
#
# Elastic Compliance Matrix: (Units=1/GPa)
#
#
# Indices 1 2 3 4 5 6 
#
# 1 0.012253 -0.000029 -0.004718 0.000000 -0.002318 0.000000
# 2 -0.000029 0.010825 -0.007769 0.000000 -0.002945 0.000000
# 3 -0.004718 -0.007769 0.032015 0.000000 0.003185 0.000000
# 4 0.000000 0.000000 0.000000 0.032986 0.000000 0.000994
# 5 -0.002318 -0.002945 0.003185 0.000000 0.025220 0.000000
# 6 0.000000 0.000000 0.000000 0.000994 0.000000 0.060131
#
#
# Mechanical properties :
#
#
# Convention : Reuss Voigt Hill
#
# Bulk Modulus (GPa) = 33.26454 40.32454 36.79454
# Shear Modulus (GPa) = 23.98278 30.25257 27.11767
#
# Velocity S-wave (km/s) = 3.35798 3.77146 3.57071
# Velocity P-wave (km/s) = 5.53848 6.15830 5.85660
#
# Compressibility (1/GPa) = 0.03006204
#
# Stress axis : x y z
#
# Youngs Moduli (GPa) = 81.61213 92.37518 31.23507
#
# Poissons Ratio (x) = 0.00263 0.14737
# Poissons Ratio (y) = 0.00233 0.24268
# Poissons Ratio (z) = 0.38504 0.71770
#
# Static dielectric constant tensor:
#      x y z
#    x 3.909320 0.000000 -0.044980 
#    y 0.000000 3.468090 0.000000 
#    z -0.044980 0.000000 4.043040 
# 
# 
# High freq. dielectric constant tensor:
#      x y z
#    x 1.842050 0.000000 0.006840 
#    y 0.000000 1.799770 0.000000 
#    z 0.006840 0.000000 1.850960 
# 
# From -- ./inp_files/45015.got.cif
#   From: 2010.03.12/outbox.cif.g09.slc.cpg/sg14_23_cif.got.tgz:45015.got - 2010.03.31 13:35:05.
