data_PCOD8126967
_publ_section_title
;
Structure prediction by ZEFSAII (Michael W. Deem and Ramdas Pophale) SiO2 
 PCOD8126967
Probable space group: P 21/C
;
_chemical_formula_sum "Si O2"
_cell_formula_units_Z 32
_cell_length_a 19.999861
_cell_length_b 13.923809
_cell_length_c 16.251506
_cell_angle_alpha 90.000000
_cell_angle_beta 22.098738
_cell_angle_gamma 90.000000
_cell_volume 1702.557895
_symmetry_space_group_name_H-M "P 21/C"
_symmetry_group_IT_number 14
_symmetry_cell_setting 'monoclinic'
loop_
_space_group_symop_operation_xyz
x,y,z
-x,1/2+y,1/2-z
-x,-y,-z
x,1/2-y,1/2+z
loop_
_atom_site_type_symbol
_atom_site_label
_atom_site_fract_x
_atom_site_fract_y
_atom_site_fract_z
Si Si1 0.426204 0.792419 0.035997
Si Si2 0.469700 0.847031 0.693039
Si Si3 0.127717 0.530152 0.158869
Si Si4 0.128385 0.647411 0.318691
Si Si5 0.539065 0.554481 0.274572
Si Si6 0.211655 0.537015 0.380777
Si Si7 0.357420 0.642907 0.792889
Si Si8 0.724426 0.658276 0.766957
O O1 0.492168 0.876422 0.902029
O O2 0.602446 0.734258 0.858375
O O3 0.275003 0.730361 0.162669
O O4 0.342993 0.840822 0.212013
O O5 0.432541 0.913029 0.814497
O O6 0.345349 0.883325 0.760767
O O7 0.420379 0.737348 0.770044
O O8 0.667874 0.849081 0.427844
O O9 0.187599 0.577167 0.177525
O O10 0.926472 0.493472 0.390099
O O11 0.253913 0.439553 0.990740
O O12 0.161386 0.612171 0.050200
O O13 0.105712 0.583169 0.425819
O O14 0.931300 0.689865 0.524719
O O15 0.502754 0.443659 0.343522
O O16 0.314293 0.442767 0.233539
#
# Coordination Sequence:
#
# PCOD8126967 Si02
#       8
#     4   4   4   4   4   4   4   4
#     4  11  22  41  62  90 119 169 205 245 302 376
#     4  11  20  37  62  91 117 162 208 249 302 370
#     4   9  21  37  56  85 120 159 196 250 304 358
#     4  11  20  38  63  91 125 156 199 255 310 354
#     4  10  22  38  62  83 124 160 204 247 303 361
#     4  11  20  36  61  91 126 153 198 261 312 355
#     4   9  21  40  59  83 125 162 200 250 306 363
#     4  10  22  36  62  94 120 154 200 255 309 365
#
# _framework density 18.795249999999999
#
# number of rings (size 3 to 8) (size 9 to 14) (size 15 to 20)
#    0.750    1.000    2.500    4.500    1.750    0.000 
#    6.750    2.500    0.000    4.500    0.000    0.000 
#    0.000    0.000    0.000    0.000    0.000    0.000 
#
# Total GULP energy -396497.950409 kJ/mol
# GULP energy per Si atom -12390.560950 kJ/mol
# Density = 1.875247 g / cm^3
# Si number density = 18.795250 Si / 1000 Ang^3
#
#
#
# Elastic Constant Matrix: (Units=GPa)
#
#
# Indices 1 2 3 4 5 6 
#
# 1 68.2384 32.0928 22.0071 0.0000 2.2173 0.0000
# 2 32.0928 109.5294 35.4076 0.0000 2.0006 0.0000
# 3 22.0071 35.4076 84.3842 0.0000 9.6562 0.0000
# 4 0.0000 0.0000 0.0000 26.7267 0.0000 13.8722
# 5 2.2173 2.0006 9.6562 0.0000 28.6147 0.0000
# 6 0.0000 0.0000 0.0000 13.8722 0.0000 25.1014
#
#
#
# Elastic Compliance Matrix: (Units=1/GPa)
#
#
# Indices 1 2 3 4 5 6 
#
# 1 0.017550 -0.004240 -0.002784 0.000000 -0.000124 0.000000
# 2 -0.004240 0.011604 -0.003857 0.000000 0.000819 0.000000
# 3 -0.002784 -0.003857 0.014707 0.000000 -0.004478 0.000000
# 4 0.000000 0.000000 0.000000 0.052465 0.000000 -0.028995
# 5 -0.000124 0.000819 -0.004478 0.000000 0.036411 0.000000
# 6 0.000000 0.000000 0.000000 -0.028995 0.000000 0.055862
#
#
# Mechanical properties :
#
#
# Convention : Reuss Voigt Hill
#
# Bulk Modulus (GPa) = 45.24846 49.01854 47.13350
# Shear Modulus (GPa) = 22.96438 27.59820 25.28129
#
# Velocity S-wave (km/s) = 3.49924 3.83608 3.67152
# Velocity P-wave (km/s) = 6.36026 6.76443 6.56546
#
# Compressibility (1/GPa) = 0.02210020
#
# Stress axis : x y z
#
# Youngs Moduli (GPa) = 56.97851 86.17504 67.99333
#
# Poissons Ratio (x) = 0.36540 0.18927
# Poissons Ratio (y) = 0.24160 0.26225
# Poissons Ratio (z) = 0.15861 0.33238
#
# Static dielectric constant tensor:
#      x y z
#    x 3.302060 0.000000 0.230540 
#    y 0.000000 3.431380 0.000000 
#    z 0.230540 0.000000 3.353890 
# 
# 
# High freq. dielectric constant tensor:
#      x y z
#    x 1.719460 0.000000 0.022200 
#    y 0.000000 1.730390 0.000000 
#    z 0.022200 0.000000 1.723750 
# 
# From -- ./inp_files/61451.got.cif
#   From: 2010.03.12/outbox.cif.g09.slc.cpg/sg14_31_cif.got.tgz:61451.got - 2010.03.31 13:35:05.
