data_PCOD8126213
_publ_section_title
;
Structure prediction by ZEFSAII (Michael W. Deem and Ramdas Pophale) SiO2 
 PCOD8126213
Probable space group: P 21/C
;
_chemical_formula_sum "Si O2"
_cell_formula_units_Z 28
_cell_length_a 22.398063
_cell_length_b 13.260065
_cell_length_c 4.997630
_cell_angle_alpha 90.000000
_cell_angle_beta 116.503497
_cell_angle_gamma 90.000000
_cell_volume 1328.306144
_symmetry_space_group_name_H-M "P 21/C"
_symmetry_group_IT_number 14
_symmetry_cell_setting 'monoclinic'
loop_
_space_group_symop_operation_xyz
x,y,z
-x,1/2+y,1/2-z
-x,-y,-z
x,1/2-y,1/2+z
loop_
_atom_site_type_symbol
_atom_site_label
_atom_site_fract_x
_atom_site_fract_y
_atom_site_fract_z
Si Si1 0.076039 0.315707 0.626839
Si Si2 0.923960 0.184292 0.822676
Si Si3 0.356844 0.319297 0.748700
Si Si4 0.643148 0.180703 0.821299
Si Si5 0.169839 0.999999 0.339653
Si Si6 0.499996 0.186316 0.640002
Si Si7 0.258966 0.500002 0.517910
O O1 0.090402 0.224562 0.452098
O O2 0.124176 0.407573 0.655674
O O3 1.000000 0.353700 0.443525
O O4 0.909596 0.275434 0.590476
O O5 0.875825 0.092422 0.658975
O O6 0.347557 0.272715 0.436628
O O7 0.303225 0.405352 0.695574
O O8 0.430747 0.370691 0.930026
O O9 0.652436 0.227285 0.546378
O O10 0.569245 0.129309 0.707018
O O11 0.696765 0.094647 0.982649
O O12 0.214537 0.033184 0.678660
O O13 0.214516 0.966807 0.179341
O O14 0.499996 0.287538 0.454762
#
# Coordination Sequence:
#
# PCOD8126213 Si02
#       7
#     4   4   4   4   4   4   4
#     4  10  22  41  65  89 113 148 192 237 285 331
#     4  10  22  41  65  89 113 148 192 237 285 331
#     4  10  21  39  59  82 115 149 192 244 284 334
#     4  10  21  39  59  82 115 149 192 244 284 334
#     4  12  25  40  58  87 122 152 190 232 278 343
#     4   8  16  33  58  81 104 144 190 239 292 325
#     4  12  26  37  57  88 116 160 194 218 288 352
#
# _framework density 21.079476
#
# number of rings (size 3 to 8) (size 9 to 14) (size 15 to 20)
#    0.000    1.714    0.000    3.857    0.000    7.429 
#    0.000    5.714    0.000   12.000    0.000    0.000 
#    0.000    0.000    0.000    0.000    0.000    0.000 
#
# Total GULP energy -347225.651061 kJ/mol
# GULP energy per Si atom -12400.916109 kJ/mol
# Density = 2.103150 g / cm^3
# Si number density = 21.079476 Si / 1000 Ang^3
#
#
#
# Elastic Constant Matrix: (Units=GPa)
#
#
# Indices 1 2 3 4 5 6 
#
# 1 99.6981 36.5778 37.4527 0.0000 14.0725 0.0000
# 2 36.5778 63.5190 14.5485 0.0000 22.6598 0.0000
# 3 37.4527 14.5485 86.7241 0.0000 -0.7312 0.0000
# 4 0.0000 0.0000 0.0000 22.1850 0.0000 0.2719
# 5 14.0725 22.6598 -0.7312 0.0000 39.5056 0.0000
# 6 0.0000 0.0000 0.0000 0.2719 0.0000 22.4582
#
#
#
# Elastic Compliance Matrix: (Units=1/GPa)
#
#
# Indices 1 2 3 4 5 6 
#
# 1 0.014665 -0.006729 -0.005217 0.000000 -0.001461 0.000000
# 2 -0.006729 0.023948 -0.001207 0.000000 -0.011362 0.000000
# 3 -0.005217 -0.001207 0.014010 0.000000 0.002810 0.000000
# 4 0.000000 0.000000 0.000000 0.045082 0.000000 -0.000546
# 5 -0.001461 -0.011362 0.002810 0.000000 0.032402 0.000000
# 6 0.000000 0.000000 0.000000 -0.000546 0.000000 0.044534
#
#
# Mechanical properties :
#
#
# Convention : Reuss Voigt Hill
#
# Bulk Modulus (GPa) = 37.99829 47.45546 42.72687
# Shear Modulus (GPa) = 23.84146 27.58724 25.71435
#
# Velocity S-wave (km/s) = 3.36672 3.62156 3.49646
# Velocity P-wave (km/s) = 5.76007 6.32843 6.05093
#
# Compressibility (1/GPa) = 0.02631698
#
# Stress axis : x y z
#
# Youngs Moduli (GPa) = 68.18992 41.75747 71.37800
#
# Poissons Ratio (x) = 0.28098 0.37236
# Poissons Ratio (y) = 0.45884 0.08617
# Poissons Ratio (z) = 0.35573 0.05041
#
# Static dielectric constant tensor:
#      x y z
#    x 4.078080 0.000000 0.122870 
#    y 0.000000 3.263860 0.000000 
#    z 0.122870 0.000000 3.958570 
# 
# 
# High freq. dielectric constant tensor:
#      x y z
#    x 1.846050 0.000000 0.002440 
#    y 0.000000 1.788420 0.000000 
#    z 0.002440 0.000000 1.843680 
# 
# From -- ./inp_files/4348.got.cif
#   From: 2010.03.12/outbox.cif.g09.slc.cpg/sg14_3_cif.got.tgz:4348.got - 2010.03.31 13:35:05.
