data_PCOD8126871
_publ_section_title
;
Structure prediction by ZEFSAII (Michael W. Deem and Ramdas Pophale) SiO2 
 PCOD8126871
Probable space group: P 21/C
;
_chemical_formula_sum "Si O2"
_cell_formula_units_Z 32
_cell_length_a 6.512503
_cell_length_b 8.248994
_cell_length_c 27.793659
_cell_angle_alpha 90.000000
_cell_angle_beta 98.416412
_cell_angle_gamma 90.000000
_cell_volume 1477.039549
_symmetry_space_group_name_H-M "P 21/C"
_symmetry_group_IT_number 14
_symmetry_cell_setting 'monoclinic'
loop_
_space_group_symop_operation_xyz
x,y,z
-x,1/2+y,1/2-z
-x,-y,-z
x,1/2-y,1/2+z
loop_
_atom_site_type_symbol
_atom_site_label
_atom_site_fract_x
_atom_site_fract_y
_atom_site_fract_z
Si Si1 0.519750 0.688554 0.509474
Si Si2 0.087021 0.121546 0.462644
Si Si3 0.350370 0.771660 0.275256
Si Si4 0.622398 0.555155 0.852703
Si Si5 0.657620 0.018669 0.813633
Si Si6 0.695317 0.153765 0.582691
Si Si7 0.001970 0.229491 0.167743
Si Si8 0.305777 0.730206 0.598276
O O1 0.500000 0.500000 0.500000
O O2 0.745931 0.761539 0.505660
O O3 0.345689 0.771720 0.470803
O O4 0.478510 0.732077 0.563237
O O5 0.918158 0.243829 0.434117
O O6 0.185880 0.016181 0.422402
O O7 0.000000 0.000000 0.500000
O O8 0.456731 0.925216 0.304641
O O9 0.351550 0.818105 0.219040
O O10 0.472822 0.605731 0.292993
O O11 0.114454 0.768329 0.286195
O O12 0.526509 0.630393 0.898476
O O13 0.659507 0.367749 0.861253
O O14 0.835742 0.635678 0.843488
O O15 0.656222 0.065393 0.870200
O O16 0.882868 0.937199 0.816196
O O17 0.832553 0.278985 0.619025
#
# Coordination Sequence:
#
# PCOD8126871 Si02
#       8
#     4   4   4   4   4   4   4   4
#     4  12  29  41  66 100 143 188 231 288 344 400
#     4  12  24  44  68  99 133 187 238 283 338 410
#     4  10  24  47  70 101 136 177 216 282 347 417
#     4  10  21  43  70  98 132 176 227 277 345 405
#     4  11  26  44  70 101 137 173 225 280 350 407
#     4  11  22  43  69  94 135 181 229 275 339 407
#     4  10  24  42  71 101 130 175 223 279 337 411
#     4  12  25  42  67 101 135 180 235 285 339 410
#
# _framework density 21.664957999999999
#
# number of rings (size 3 to 8) (size 9 to 14) (size 15 to 20)
#    0.000    1.000    3.750    1.875    7.000    3.500 
#    0.000    0.000    0.000    0.000    0.000    0.000 
#    0.000    0.000    0.000    0.000    0.000    0.000 
#
# Total GULP energy -396641.860540 kJ/mol
# GULP energy per Si atom -12395.058142 kJ/mol
# Density = 2.161565 g / cm^3
# Si number density = 21.664958 Si / 1000 Ang^3
#
#
#
# Elastic Constant Matrix: (Units=GPa)
#
#
# Indices 1 2 3 4 5 6 
#
# 1 122.0039 48.1102 36.2427 0.0000 -11.4281 0.0000
# 2 48.1102 92.8976 34.4003 0.0000 8.0884 0.0000
# 3 36.2427 34.4003 102.0085 0.0000 -6.2959 0.0000
# 4 0.0000 0.0000 0.0000 43.8325 0.0000 11.8315
# 5 -11.4281 8.0884 -6.2959 0.0000 32.9690 0.0000
# 6 0.0000 0.0000 0.0000 11.8315 0.0000 34.4713
#
#
#
# Elastic Compliance Matrix: (Units=1/GPa)
#
#
# Indices 1 2 3 4 5 6 
#
# 1 0.011456 -0.005687 -0.001843 0.000000 0.005014 0.000000
# 2 -0.005687 0.015628 -0.003651 0.000000 -0.006503 0.000000
# 3 -0.001843 -0.003651 0.011845 0.000000 0.002519 0.000000
# 4 0.000000 0.000000 0.000000 0.025144 0.000000 -0.008630
# 5 0.005014 -0.006503 0.002519 0.000000 0.034146 0.000000
# 6 0.000000 0.000000 0.000000 -0.008630 0.000000 0.031972
#
#
# Mechanical properties :
#
#
# Convention : Reuss Voigt Hill
#
# Bulk Modulus (GPa) = 60.36219 61.60182 60.98201
# Shear Modulus (GPa) = 31.63067 35.46500 33.54783
#
# Velocity S-wave (km/s) = 3.82513 4.05034 3.93935
# Velocity P-wave (km/s) = 6.88702 7.09713 6.99286
#
# Compressibility (1/GPa) = 0.01656666
#
# Stress axis : x y z
#
# Youngs Moduli (GPa) = 87.28847 63.98782 84.42700
#
# Poissons Ratio (x) = 0.36391 0.15559
# Poissons Ratio (y) = 0.49642 0.30824
# Poissons Ratio (z) = 0.16087 0.23362
#
# Static dielectric constant tensor:
#      x y z
#    x 3.870510 0.000000 -0.092840 
#    y 0.000000 -6.355240 0.000000 
#    z -0.092840 0.000000 3.921700 
# 
# 
# High freq. dielectric constant tensor:
#      x y z
#    x 1.857460 0.000000 -0.001570 
#    y 0.000000 1.840700 0.000000 
#    z -0.001570 0.000000 1.859010 
# 
# From -- ./inp_files/78820.got.cif
#   From: 2010.03.12/outbox.cif.g09.slc.cpg/sg14_40_cif.got.tgz:78820.got - 2010.03.31 13:35:05.
