data_PCOD8126934
_publ_section_title
;
Structure prediction by ZEFSAII (Michael W. Deem and Ramdas Pophale) SiO2 
 PCOD8126934
Probable space group: P 21/C
;
_chemical_formula_sum "Si O2"
_cell_formula_units_Z 28
_cell_length_a 6.519476
_cell_length_b 11.464642
_cell_length_c 19.435377
_cell_angle_alpha 90.000000
_cell_angle_beta 61.325338
_cell_angle_gamma 90.000000
_cell_volume 1274.509920
_symmetry_space_group_name_H-M "P 21/C"
_symmetry_group_IT_number 14
_symmetry_cell_setting 'monoclinic'
loop_
_space_group_symop_operation_xyz
x,y,z
-x,1/2+y,1/2-z
-x,-y,-z
x,1/2-y,1/2+z
loop_
_atom_site_type_symbol
_atom_site_label
_atom_site_fract_x
_atom_site_fract_y
_atom_site_fract_z
Si Si1 0.451092 0.194737 0.030120
Si Si2 0.185200 0.540392 0.873178
Si Si3 0.189677 0.337168 0.970590
Si Si4 0.054231 0.828929 0.096458
Si Si5 0.020922 0.581987 0.356812
Si Si6 0.922465 0.638733 0.217689
Si Si7 0.440662 0.761774 0.835064
O O1 0.231290 0.107792 0.068872
O O2 0.490527 0.255284 0.096856
O O3 0.406308 0.295300 0.981152
O O4 0.687133 0.130610 0.968467
O O5 0.287745 0.436914 0.904115
O O6 0.064730 0.483609 0.825552
O O7 0.384901 0.631101 0.816219
O O8 0.003174 0.614865 0.946313
O O9 0.083418 0.230081 0.944288
O O10 0.076118 0.737989 0.156064
O O11 0.922069 0.945522 0.142503
O O12 0.025107 0.617226 0.276296
O O13 0.217711 0.654218 0.364480
O O14 0.654098 0.682537 0.259041
#
# Coordination Sequence:
#
# PCOD8126934 Si02
#       7
#     4   4   4   4   4   4   4
#     4  11  22  43  67 100 126 170 222 265 335 386
#     4  10  21  46  66  93 138 163 223 272 323 396
#     4  10  22  42  69 101 127 168 216 285 325 384
#     4  11  24  44  65 102 131 168 229 270 329 393
#     4  11  25  43  66  93 137 178 214 275 326 395
#     4  10  27  42  64  99 128 181 218 264 334 391
#     4  11  24  44  66  96 131 175 217 267 334 389
#
# _framework density 21.96923
#
# number of rings (size 3 to 8) (size 9 to 14) (size 15 to 20)
#    0.000    1.429    2.857    0.429    4.000    7.429 
#    0.000    0.000    0.000    0.000    0.000    0.000 
#    0.000    0.000    0.000    0.000    0.000    0.000 
#
# Total GULP energy -347232.212911 kJ/mol
# GULP energy per Si atom -12401.150461 kJ/mol
# Density = 2.191923 g / cm^3
# Si number density = 21.969230 Si / 1000 Ang^3
#
#
#
# Elastic Constant Matrix: (Units=GPa)
#
#
# Indices 1 2 3 4 5 6 
#
# 1 80.5471 36.9933 27.5152 0.0000 15.9898 0.0000
# 2 36.9933 121.5419 30.0660 0.0000 14.9215 0.0000
# 3 27.5152 30.0660 89.0517 0.0000 10.2348 0.0000
# 4 0.0000 0.0000 0.0000 26.9940 0.0000 8.3372
# 5 15.9898 14.9215 10.2348 0.0000 27.1186 0.0000
# 6 0.0000 0.0000 0.0000 8.3372 0.0000 22.5591
#
#
#
# Elastic Compliance Matrix: (Units=1/GPa)
#
#
# Indices 1 2 3 4 5 6 
#
# 1 0.016357 -0.003390 -0.003152 0.000000 -0.006590 0.000000
# 2 -0.003390 0.010108 -0.002044 0.000000 -0.002791 0.000000
# 3 -0.003152 -0.002044 0.013120 0.000000 -0.001968 0.000000
# 4 0.000000 0.000000 0.000000 0.041819 0.000000 -0.015455
# 5 -0.006590 -0.002791 -0.001968 0.000000 0.043039 0.000000
# 6 0.000000 0.000000 0.000000 -0.015455 0.000000 0.050040
#
#
# Mechanical properties :
#
#
# Convention : Reuss Voigt Hill
#
# Bulk Modulus (GPa) = 44.61938 53.36555 48.99246
# Shear Modulus (GPa) = 25.10985 28.43875 26.77430
#
# Velocity S-wave (km/s) = 3.38443 3.60179 3.49480
# Velocity P-wave (km/s) = 5.96880 6.45298 6.21561
#
# Compressibility (1/GPa) = 0.02241179
#
# Stress axis : x y z
#
# Youngs Moduli (GPa) = 61.13657 98.93386 76.22046
#
# Poissons Ratio (x) = 0.33536 0.24026
# Poissons Ratio (y) = 0.20724 0.15583
# Poissons Ratio (z) = 0.19271 0.20227
#
# Static dielectric constant tensor:
#      x y z
#    x 3.827410 0.000000 0.024110 
#    y 0.000000 4.000230 0.000000 
#    z 0.024110 0.000000 4.064670 
# 
# 
# High freq. dielectric constant tensor:
#      x y z
#    x 1.852900 0.000000 0.007520 
#    y 0.000000 1.869670 0.000000 
#    z 0.007520 0.000000 1.871640 
# 
# From -- ./inp_files/63483.got.cif
#   From: 2010.03.12/outbox.cif.g09.slc.cpg/sg14_32_cif.got.tgz:63483.got - 2010.03.31 13:35:05.
