data_PCOD8126184
_publ_section_title
;
Structure prediction by ZEFSAII (Michael W. Deem and Ramdas Pophale) SiO2 
 PCOD8126184
Probable space group: P 21/C
;
_chemical_formula_sum "Si O2"
_cell_formula_units_Z 32
_cell_length_a 21.674583
_cell_length_b 9.294051
_cell_length_c 13.805474
_cell_angle_alpha 90.000000
_cell_angle_beta 31.578194
_cell_angle_gamma 90.000000
_cell_volume 1456.323796
_symmetry_space_group_name_H-M "P 21/C"
_symmetry_group_IT_number 14
_symmetry_cell_setting 'monoclinic'
loop_
_space_group_symop_operation_xyz
x,y,z
-x,1/2+y,1/2-z
-x,-y,-z
x,1/2-y,1/2+z
loop_
_atom_site_type_symbol
_atom_site_label
_atom_site_fract_x
_atom_site_fract_y
_atom_site_fract_z
Si Si1 0.640599 0.362750 0.886504
Si Si2 0.376372 0.391383 0.225679
Si Si3 0.202920 0.560063 0.137226
Si Si4 0.720448 0.693796 0.283919
Si Si5 0.988093 0.550681 0.190509
Si Si6 0.213516 0.278200 0.607354
Si Si7 0.746942 0.405477 0.148025
Si Si8 0.021298 0.276858 0.608425
O O1 0.659841 0.448665 0.759500
O O2 0.715933 0.412647 0.878335
O O3 0.670043 0.202153 0.814848
O O4 0.504746 0.378870 0.101778
O O5 0.374383 0.309066 0.125110
O O6 0.276413 0.318286 0.423450
O O7 0.180414 0.390165 0.153150
O O8 0.080127 0.645550 0.320145
O O9 0.260890 0.616733 0.958218
O O10 0.695275 0.669348 0.431209
O O11 0.699518 0.560997 0.241172
O O12 0.855261 0.755512 0.111335
O O13 0.904357 0.624802 0.222591
O O14 0.974790 0.377959 0.208823
O O15 0.948101 0.613537 0.346664
O O16 0.119534 0.603767 0.992915
#
# Coordination Sequence:
#
# PCOD8126184 Si02
#       8
#     4   4   4   4   4   4   4   4
#     4  11  27  46  71  96 132 182 231 278 340 401
#     4  11  25  49  66  96 135 173 230 285 329 402
#     4  11  24  44  65 103 134 175 224 276 333 408
#     4  11  23  42  68 100 133 181 214 275 350 397
#     4  10  21  38  66 100 138 176 211 277 338 397
#     4  12  24  42  69  97 136 178 225 273 338 402
#     4  10  24  43  66 100 139 166 226 281 330 409
#     4  10  22  39  66 101 143 169 222 273 334 408
#
# _framework density 21.973136
#
# number of rings (size 3 to 8) (size 9 to 14) (size 15 to 20)
#    0.000    1.250    3.750    1.500    7.000    4.000 
#    2.250    0.000    0.000    0.000    0.000    0.000 
#    0.000    0.000    0.000    0.000    0.000    0.000 
#
# Total GULP energy -396584.137094 kJ/mol
# GULP energy per Si atom -12393.254284 kJ/mol
# Density = 2.192312 g / cm^3
# Si number density = 21.973136 Si / 1000 Ang^3
#
#
#
# Elastic Constant Matrix: (Units=GPa)
#
#
# Indices 1 2 3 4 5 6 
#
# 1 112.8670 33.1621 24.0100 0.0000 -18.0968 0.0000
# 2 33.1621 105.4322 42.6678 0.0000 -14.6976 0.0000
# 3 24.0100 42.6678 35.2490 0.0000 -8.2763 0.0000
# 4 0.0000 0.0000 0.0000 27.8364 0.0000 3.6393
# 5 -18.0968 -14.6976 -8.2763 0.0000 26.8934 0.0000
# 6 0.0000 0.0000 0.0000 3.6393 0.0000 29.5237
#
#
#
# Elastic Compliance Matrix: (Units=1/GPa)
#
#
# Indices 1 2 3 4 5 6 
#
# 1 0.011083 -0.000369 -0.005819 0.000000 0.005465 0.000000
# 2 -0.000369 0.018914 -0.021853 0.000000 0.003363 0.000000
# 3 -0.005819 -0.021853 0.059351 0.000000 0.002406 0.000000
# 4 0.000000 0.000000 0.000000 0.036513 0.000000 -0.004501
# 5 0.005465 0.003363 0.002406 0.000000 0.043440 0.000000
# 6 0.000000 0.000000 0.000000 -0.004501 0.000000 0.034426
#
#
# Mechanical properties :
#
#
# Convention : Reuss Voigt Hill
#
# Bulk Modulus (GPa) = 30.06224 50.35867 40.21045
# Shear Modulus (GPa) = 18.45730 27.09793 22.77762
#
# Velocity S-wave (km/s) = 2.90141 3.51555 3.22314
# Velocity P-wave (km/s) = 4.99353 6.28067 5.67372
#
# Compressibility (1/GPa) = 0.03326432
#
# Stress axis : x y z
#
# Youngs Moduli (GPa) = 90.23204 52.87222 16.84899
#
# Poissons Ratio (x) = 0.01952 0.09804
# Poissons Ratio (y) = 0.03331 0.36820
# Poissons Ratio (z) = 0.52505 1.15543
#
# Static dielectric constant tensor:
#      x y z
#    x 4.120690 0.000000 0.001790 
#    y 0.000000 4.104520 0.000000 
#    z 0.001790 0.000000 3.744920 
# 
# 
# High freq. dielectric constant tensor:
#      x y z
#    x 1.876550 0.000000 0.000640 
#    y 0.000000 1.876150 0.000000 
#    z 0.000640 0.000000 1.838560 
# 
# From -- ./inp_files/51358.got.cif
#   From: 2010.03.12/outbox.cif.g09.slc.cpg/sg14_26_cif.got.tgz:51358.got - 2010.03.31 13:35:05.
