data_PCOD8126907
_publ_section_title
;
Structure prediction by ZEFSAII (Michael W. Deem and Ramdas Pophale) SiO2 
 PCOD8126907
Probable space group: P 21/C
;
_chemical_formula_sum "Si O2"
_cell_formula_units_Z 28
_cell_length_a 8.813874
_cell_length_b 8.836256
_cell_length_c 26.774663
_cell_angle_alpha 90.000000
_cell_angle_beta 38.016977
_cell_angle_gamma 90.000000
_cell_volume 1284.297911
_symmetry_space_group_name_H-M "P 21/C"
_symmetry_group_IT_number 14
_symmetry_cell_setting 'monoclinic'
loop_
_space_group_symop_operation_xyz
x,y,z
-x,1/2+y,1/2-z
-x,-y,-z
x,1/2-y,1/2+z
loop_
_atom_site_type_symbol
_atom_site_label
_atom_site_fract_x
_atom_site_fract_y
_atom_site_fract_z
Si Si1 0.200218 0.316910 0.072726
Si Si2 0.411581 0.110880 0.693611
Si Si3 0.638067 0.430615 0.619767
Si Si4 0.964652 0.252846 0.356976
Si Si5 0.155961 0.493017 0.536673
Si Si6 0.713992 0.477123 0.207853
Si Si7 0.573044 0.468506 0.912213
O O1 0.343444 0.370319 0.085575
O O2 0.907456 0.339623 0.155377
O O3 0.252413 0.141944 0.047303
O O4 0.299632 0.424211 0.001868
O O5 0.577615 0.253121 0.635075
O O6 0.124193 0.149940 0.776212
O O7 0.508614 0.036216 0.718992
O O8 0.429772 0.983849 0.646345
O O9 0.656394 0.488694 0.558224
O O10 0.420042 0.523668 0.703479
O O11 0.888544 0.454589 0.584926
O O12 0.841925 0.355061 0.431382
O O13 0.147358 0.135685 0.336932
O O14 0.755776 0.165537 0.380755
#
# Coordination Sequence:
#
# PCOD8126907 Si02
#       7
#     4   4   4   4   4   4   4
#     4  10  23  45  69  94 132 184 222 276 333 402
#     4  11  22  43  70  98 133 179 220 283 333 404
#     4  10  23  39  66 107 129 165 223 288 335 390
#     4  10  24  44  67  99 137 179 219 287 331 412
#     4  11  22  42  68 100 134 169 220 283 342 383
#     4  10  21  44  70  97 132 175 233 276 336 394
#     4  10  25  45  65  99 136 180 232 259 341 418
#
# _framework density 21.801794000000001
#
# number of rings (size 3 to 8) (size 9 to 14) (size 15 to 20)
#    0.000    1.714    2.857    0.000    6.000    4.571 
#   10.286    0.000    0.000    0.000    0.000    0.000 
#    0.000    0.000    0.000    0.000    0.000    0.000 
#
# Total GULP energy -347284.343045 kJ/mol
# GULP energy per Si atom -12403.012252 kJ/mol
# Density = 2.175217 g / cm^3
# Si number density = 21.801794 Si / 1000 Ang^3
#
#
#
# Elastic Constant Matrix: (Units=GPa)
#
#
# Indices 1 2 3 4 5 6 
#
# 1 57.9989 40.7007 48.1838 0.0000 5.8653 0.0000
# 2 40.7007 97.8335 57.7035 0.0000 12.6225 0.0000
# 3 48.1838 57.7035 153.6455 0.0000 10.5084 0.0000
# 4 0.0000 0.0000 0.0000 33.2620 0.0000 5.1286
# 5 5.8653 12.6225 10.5084 0.0000 29.0137 0.0000
# 6 0.0000 0.0000 0.0000 5.1286 0.0000 33.1149
#
#
#
# Elastic Compliance Matrix: (Units=1/GPa)
#
#
# Indices 1 2 3 4 5 6 
#
# 1 0.027640 -0.008204 -0.005587 0.000000 0.000005 0.000000
# 2 -0.008204 0.016040 -0.003166 0.000000 -0.004173 0.000000
# 3 -0.005587 -0.003166 0.009514 0.000000 -0.000939 0.000000
# 4 0.000000 0.000000 0.000000 0.030800 0.000000 -0.004770
# 5 0.000005 -0.004173 -0.000939 0.000000 0.036621 0.000000
# 6 0.000000 0.000000 0.000000 -0.004770 0.000000 0.030937
#
#
# Mechanical properties :
#
#
# Convention : Reuss Voigt Hill
#
# Bulk Modulus (GPa) = 51.86773 66.96155 59.41464
# Shear Modulus (GPa) = 26.05622 29.93744 27.99683
#
# Velocity S-wave (km/s) = 3.46083 3.70964 3.58740
# Velocity P-wave (km/s) = 6.30968 7.00921 6.66862
#
# Compressibility (1/GPa) = 0.01927981
#
# Stress axis : x y z
#
# Youngs Moduli (GPa) = 36.17928 62.34334 105.10974
#
# Poissons Ratio (x) = 0.51147 0.58728
# Poissons Ratio (y) = 0.29682 0.33276
# Poissons Ratio (z) = 0.20214 0.19737
#
# Static dielectric constant tensor:
#      x y z
#    x 3.686050 0.000000 -0.063310 
#    y 0.000000 3.853770 0.000000 
#    z -0.063310 0.000000 4.271480 
# 
# 
# High freq. dielectric constant tensor:
#      x y z
#    x 1.838750 0.000000 -0.005420 
#    y 0.000000 1.852890 0.000000 
#    z -0.005420 0.000000 1.875370 
# 
# From -- ./inp_files/76319.got.cif
#   From: 2010.03.12/outbox.cif.g09.slc.cpg/sg14_39_cif.got.tgz:76319.got - 2010.03.31 13:35:05.
