data_PCOD8126492
_publ_section_title
;
Structure prediction by ZEFSAII (Michael W. Deem and Ramdas Pophale) SiO2 
 PCOD8126492
Probable space group: P 21/C
;
_chemical_formula_sum "Si O2"
_cell_formula_units_Z 20
_cell_length_a 6.841600
_cell_length_b 26.244589
_cell_length_c 5.035385
_cell_angle_alpha 90.000000
_cell_angle_beta 107.895438
_cell_angle_gamma 90.000000
_cell_volume 860.385700
_symmetry_space_group_name_H-M "P 21/C"
_symmetry_group_IT_number 14
_symmetry_cell_setting 'monoclinic'
loop_
_space_group_symop_operation_xyz
x,y,z
-x,1/2+y,1/2-z
-x,-y,-z
x,1/2-y,1/2+z
loop_
_atom_site_type_symbol
_atom_site_label
_atom_site_fract_x
_atom_site_fract_y
_atom_site_fract_z
Si Si1 0.964939 0.846370 0.163391
Si Si2 0.136449 0.890579 0.734617
Si Si3 0.549217 0.644593 0.254215
Si Si4 0.643120 0.216938 0.701018
Si Si5 0.543602 0.034169 0.268124
O O1 0.964234 0.871067 0.455733
O O2 0.116125 0.798059 0.216125
O O3 0.041168 0.890076 0.987486
O O4 0.736197 0.828203 0.987563
O O5 0.331476 0.850780 0.823701
O O6 0.220580 0.945757 0.671822
O O7 0.505987 0.669408 0.944862
O O8 0.602118 0.583997 0.256319
O O9 0.591519 0.237949 0.969770
O O10 0.500000 0.000000 0.500000
O O11 0.500000 0.000000 0.000000
#
# Coordination Sequence:
#
# PCOD8126492 Si02
#       5
#     4   4   4   4   4
#     4  11  21  42  63  92 121 171 206 257 324 366
#     4   9  22  38  63  88 131 163 204 261 302 364
#     4   9  24  41  68  88 135 165 211 262 319 376
#     4  11  24  41  64  92 125 163 211 267 321 380
#     4  10  21  40  65  93 130 171 208 256 316 374
#
# _framework density 23.245387999999998
#
# number of rings (size 3 to 8) (size 9 to 14) (size 15 to 20)
#    1.200    0.800    0.000    3.600    0.000    8.000 
#    0.000    6.000    0.000    0.000    0.000    0.000 
#    0.000    0.000    0.000    0.000    0.000    0.000 
#
# Total GULP energy -247776.342832 kJ/mol
# GULP energy per Si atom -12388.817142 kJ/mol
# Density = 2.319248 g / cm^3
# Si number density = 23.245388 Si / 1000 Ang^3
#
#
#
# Elastic Constant Matrix: (Units=GPa)
#
#
# Indices 1 2 3 4 5 6 
#
# 1 51.6424 15.9528 37.5196 0.0000 28.8513 0.0000
# 2 15.9528 93.5029 29.3399 0.0000 -2.2375 0.0000
# 3 37.5196 29.3399 123.0881 0.0000 16.9884 0.0000
# 4 0.0000 0.0000 0.0000 43.9207 0.0000 -2.7839
# 5 28.8513 -2.2375 16.9884 0.0000 48.8792 0.0000
# 6 0.0000 0.0000 0.0000 -2.7839 0.0000 22.3035
#
#
#
# Elastic Compliance Matrix: (Units=1/GPa)
#
#
# Indices 1 2 3 4 5 6 
#
# 1 0.037111 -0.004422 -0.007570 0.000000 -0.019476 0.000000
# 2 -0.004422 0.012201 -0.002098 0.000000 0.003898 0.000000
# 3 -0.007570 -0.002098 0.010849 0.000000 0.000601 0.000000
# 4 0.000000 0.000000 0.000000 0.022950 0.000000 0.002865
# 5 -0.019476 0.003898 0.000601 0.000000 0.031924 0.000000
# 6 0.000000 0.000000 0.000000 0.002865 0.000000 0.045194
#
#
# Mechanical properties :
#
#
# Convention : Reuss Voigt Hill
#
# Bulk Modulus (GPa) = 31.26991 48.20643 39.73817
# Shear Modulus (GPa) = 25.11698 35.38210 30.24954
#
# Velocity S-wave (km/s) = 3.29068 3.90566 3.61129
# Velocity P-wave (km/s) = 5.28388 6.41264 5.87543
#
# Compressibility (1/GPa) = 0.03197963
#
# Stress axis : x y z
#
# Youngs Moduli (GPa) = 26.94651 81.96007 92.17584
#
# Poissons Ratio (x) = 0.36245 0.69775
# Poissons Ratio (y) = 0.11917 0.19341
# Poissons Ratio (z) = 0.20398 0.17198
#
# Static dielectric constant tensor:
#      x y z
#    x 3.872320 0.000000 0.151250 
#    y 0.000000 4.177160 0.000000 
#    z 0.151250 0.000000 4.138630 
# 
# 
# High freq. dielectric constant tensor:
#      x y z
#    x 1.895550 0.000000 -0.001220 
#    y 0.000000 1.905500 0.000000 
#    z -0.001220 0.000000 1.931830 
# 
# From -- ./inp_files/1754.got.cif
#   From: 2010.03.12/outbox.cif.g09.slc.cpg/sg14_1_cif.got.tgz:1754.got - 2010.03.31 13:35:05.
