data_PCOD8126511
_publ_section_title
;
Structure prediction by ZEFSAII (Michael W. Deem and Ramdas Pophale) SiO2 
 PCOD8126511
Probable space group: P 21/C
;
_chemical_formula_sum "Si O2"
_cell_formula_units_Z 16
_cell_length_a 15.138072
_cell_length_b 6.023925
_cell_length_c 12.960555
_cell_angle_alpha 90.000000
_cell_angle_beta 151.858455
_cell_angle_gamma 90.000000
_cell_volume 557.435773
_symmetry_space_group_name_H-M "P 21/C"
_symmetry_group_IT_number 14
_symmetry_cell_setting 'monoclinic'
loop_
_space_group_symop_operation_xyz
x,y,z
-x,1/2+y,1/2-z
-x,-y,-z
x,1/2-y,1/2+z
loop_
_atom_site_type_symbol
_atom_site_label
_atom_site_fract_x
_atom_site_fract_y
_atom_site_fract_z
Si Si1 0.113468 0.400018 0.725793
Si Si2 0.169127 0.878133 0.727991
Si Si3 0.219249 0.734765 0.993966
Si Si4 0.491071 0.240002 0.543341
O O1 0.098036 0.619596 0.637091
O O2 0.200032 0.489027 0.924230
O O3 0.923148 0.269848 0.556894
O O4 0.262885 0.220211 0.827292
O O5 0.186563 0.918112 0.870110
O O6 0.382035 0.906830 0.898011
O O7 0.000000 0.000000 0.500000
O O8 0.423415 0.764977 0.253920
O O9 0.500000 0.000000 0.500000
#
# Coordination Sequence:
#
# PCOD8126511 Si02
#       4
#     4   4   4   4
#     4   9  22  39  67  98 138 178 226 283 340 410
#     4   9  20  40  69  99 136 178 232 282 346 409
#     4  10  21  40  66  96 138 177 223 287 344 404
#     4  10  21  41  66  99 137 178 229 282 347 408
#
# _framework density 28.702857000000002
#
# number of rings (size 3 to 8) (size 9 to 14) (size 15 to 20)
#    1.500    1.000    0.000    1.500    0.000    6.000 
#    0.000    2.500    0.000    9.000    0.000    0.000 
#    0.000    0.000    0.000    0.000    0.000    0.000 
#
# Total GULP energy -198367.916303 kJ/mol
# GULP energy per Si atom -12397.994769 kJ/mol
# Density = 2.863753 g / cm^3
# Si number density = 28.702857 Si / 1000 Ang^3
#
#
#
# Elastic Constant Matrix: (Units=GPa)
#
#
# Indices 1 2 3 4 5 6 
#
# 1 175.4320 74.8876 83.4555 0.0000 19.8810 0.0000
# 2 74.8876 151.8019 83.4816 0.0000 27.3183 0.0000
# 3 83.4555 83.4816 215.0388 0.0000 36.8085 0.0000
# 4 0.0000 0.0000 0.0000 59.6704 0.0000 16.8858
# 5 19.8810 27.3183 36.8085 0.0000 70.3618 0.0000
# 6 0.0000 0.0000 0.0000 16.8858 0.0000 51.7046
#
#
#
# Elastic Compliance Matrix: (Units=1/GPa)
#
#
# Indices 1 2 3 4 5 6 
#
# 1 0.007818 -0.002769 -0.001939 0.000000 -0.000120 0.000000
# 2 -0.002769 0.009547 -0.002341 0.000000 -0.001700 0.000000
# 3 -0.001939 -0.002341 0.006658 0.000000 -0.002027 0.000000
# 4 0.000000 0.000000 0.000000 0.018465 0.000000 -0.006030
# 5 -0.000120 -0.001700 -0.002027 0.000000 0.015966 0.000000
# 6 0.000000 0.000000 0.000000 -0.006030 0.000000 0.021310
#
#
# Mechanical properties :
#
#
# Convention : Reuss Voigt Hill
#
# Bulk Modulus (GPa) = 100.74236 113.99135 107.36686
# Shear Modulus (GPa) = 51.45621 56.37722 53.91671
#
# Velocity S-wave (km/s) = 4.23865 4.43670 4.33880
# Velocity P-wave (km/s) = 7.68956 8.12688 7.91125
#
# Compressibility (1/GPa) = 0.00992631
#
# Stress axis : x y z
#
# Youngs Moduli (GPa) = 127.90800 104.74865 150.19005
#
# Poissons Ratio (x) = 0.29007 0.29116
# Poissons Ratio (y) = 0.35420 0.35152
# Poissons Ratio (z) = 0.24797 0.24517
#
# Static dielectric constant tensor:
#      x y z
#    x 5.498510 0.000000 0.156230 
#    y 0.000000 6.870500 0.000000 
#    z 0.156230 0.000000 5.432970 
# 
# 
# High freq. dielectric constant tensor:
#      x y z
#    x 2.190790 0.000000 0.002070 
#    y 0.000000 2.217790 0.000000 
#    z 0.002070 0.000000 2.189280 
# 
# From -- ./inp_files/46324.got.cif
#   From: 2010.03.12/outbox.cif.g09.slc.cpg/sg14_24_cif.got.tgz:46324.got - 2010.03.31 13:35:05.
