data_PCOD8126768
_publ_section_title
;
Structure prediction by ZEFSAII (Michael W. Deem and Ramdas Pophale) SiO2 
 PCOD8126768
Probable space group: P 21/C
;
_chemical_formula_sum "Si O2"
_cell_formula_units_Z 20
_cell_length_a 14.070703
_cell_length_b 9.037135
_cell_length_c 23.231807
_cell_angle_alpha 90.000000
_cell_angle_beta 19.486376
_cell_angle_gamma 90.000000
_cell_volume 985.446573
_symmetry_space_group_name_H-M "P 21/C"
_symmetry_group_IT_number 14
_symmetry_cell_setting 'monoclinic'
loop_
_space_group_symop_operation_xyz
x,y,z
-x,1/2+y,1/2-z
-x,-y,-z
x,1/2-y,1/2+z
loop_
_atom_site_type_symbol
_atom_site_label
_atom_site_fract_x
_atom_site_fract_y
_atom_site_fract_z
Si Si1 0.167418 0.002492 0.963482
Si Si2 0.513359 0.115592 0.043686
Si Si3 0.030460 0.329831 0.321797
Si Si4 0.281579 0.326131 0.872408
Si Si5 0.039254 0.418398 0.894985
O O1 0.303202 0.166381 0.890091
O O2 0.409736 0.878783 0.823141
O O3 0.000000 0.000000 0.000000
O O4 0.969080 0.968426 0.133137
O O5 0.844803 0.139913 0.870681
O O6 0.351353 0.272996 0.121154
O O7 0.354911 0.042746 0.189582
O O8 0.500000 0.000000 0.000000
O O9 0.881627 0.192912 0.440915
O O10 0.070871 0.332299 0.937647
O O11 0.151240 0.436062 0.994311
#
# Coordination Sequence:
#
# PCOD8126768 Si02
#       5
#     4   4   4   4   4
#     4  12  22  34  62  95 134 168 206 253 328 397
#     4  10  22  44  68  87 123 169 221 273 316 364
#     4  10  21  42  66  92 124 172 214 268 325 377
#     4  11  22  36  58  97 135 169 204 256 321 404
#     4   9  21  39  62  86 134 168 209 258 326 372
#
# _framework density 20.295368
#
# number of rings (size 3 to 8) (size 9 to 14) (size 15 to 20)
#    1.200    0.400    4.000    1.200    5.600    0.000 
#    3.600    1.000    0.000    0.000    0.000    0.000 
#    0.000    0.000    0.000    0.000    0.000    0.000 
#
# Total GULP energy -247762.361488 kJ/mol
# GULP energy per Si atom -12388.118074 kJ/mol
# Density = 2.024917 g / cm^3
# Si number density = 20.295368 Si / 1000 Ang^3
#
#
#
# Elastic Constant Matrix: (Units=GPa)
#
#
# Indices 1 2 3 4 5 6 
#
# 1 104.8643 33.0547 10.2328 0.0000 -14.1327 0.0000
# 2 33.0547 110.0613 14.8114 0.0000 6.1094 0.0000
# 3 10.2328 14.8114 38.6155 0.0000 -2.9006 0.0000
# 4 0.0000 0.0000 0.0000 40.1468 0.0000 6.4894
# 5 -14.1327 6.1094 -2.9006 0.0000 30.4687 0.0000
# 6 0.0000 0.0000 0.0000 6.4894 0.0000 40.4019
#
#
#
# Elastic Compliance Matrix: (Units=1/GPa)
#
#
# Indices 1 2 3 4 5 6 
#
# 1 0.011618 -0.003658 -0.001225 0.000000 0.006006 0.000000
# 2 -0.003658 0.010893 -0.003526 0.000000 -0.004216 0.000000
# 3 -0.001225 -0.003526 0.027782 0.000000 0.002784 0.000000
# 4 0.000000 0.000000 0.000000 0.025573 0.000000 -0.004107
# 5 0.006006 -0.004216 0.002784 0.000000 0.036717 0.000000
# 6 0.000000 0.000000 0.000000 -0.004107 0.000000 0.025411
#
#
# Mechanical properties :
#
#
# Convention : Reuss Voigt Hill
#
# Bulk Modulus (GPa) = 29.87098 41.08211 35.47654
# Shear Modulus (GPa) = 30.12620 35.23296 32.67958
#
# Velocity S-wave (km/s) = 3.85696 4.17107 4.01708
# Velocity P-wave (km/s) = 5.88089 6.59417 6.24772
#
# Compressibility (1/GPa) = 0.03347731
#
# Stress axis : x y z
#
# Youngs Moduli (GPa) = 86.07304 91.80295 35.99425
#
# Poissons Ratio (x) = 0.33580 0.04408
# Poissons Ratio (y) = 0.31484 0.12690
# Poissons Ratio (z) = 0.10540 0.32365
#
# Static dielectric constant tensor:
#      x y z
#    x 3.581160 0.000000 -0.071400 
#    y 0.000000 4.363390 0.000000 
#    z -0.071400 0.000000 3.490730 
# 
# 
# High freq. dielectric constant tensor:
#      x y z
#    x 1.779530 0.000000 -0.010960 
#    y 0.000000 1.785280 0.000000 
#    z -0.010960 0.000000 1.771540 
# 
# From -- ./inp_files/35628.got.cif
#   From: 2010.03.12/outbox.cif.g09.slc.cpg/sg14_18_cif.got.tgz:35628.got - 2010.03.31 13:35:05.
