data_PCOD8126236
_publ_section_title
;
Structure prediction by ZEFSAII (Michael W. Deem and Ramdas Pophale) SiO2 
 PCOD8126236
Probable space group: P 21/C
;
_chemical_formula_sum "Si O2"
_cell_formula_units_Z 24
_cell_length_a 9.210405
_cell_length_b 8.705461
_cell_length_c 31.438455
_cell_angle_alpha 90.000000
_cell_angle_beta 28.490275
_cell_angle_gamma 90.000000
_cell_volume 1202.427239
_symmetry_space_group_name_H-M "P 21/C"
_symmetry_group_IT_number 14
_symmetry_cell_setting 'monoclinic'
loop_
_space_group_symop_operation_xyz
x,y,z
-x,1/2+y,1/2-z
-x,-y,-z
x,1/2-y,1/2+z
loop_
_atom_site_type_symbol
_atom_site_label
_atom_site_fract_x
_atom_site_fract_y
_atom_site_fract_z
Si Si1 0.892828 0.146578 0.313744
Si Si2 0.402060 0.159147 0.642586
Si Si3 0.362813 0.327064 0.489962
Si Si4 0.742425 0.159146 0.642586
Si Si5 0.775294 0.853420 0.686255
Si Si6 0.302584 0.672935 0.510038
O O1 0.647336 0.277310 0.388040
O O2 0.133855 0.219300 0.219281
O O3 0.056289 0.087689 0.314571
O O4 0.736973 0.006418 0.330375
O O5 0.618633 0.144510 0.627122
O O6 0.604438 0.211728 0.551023
O O7 0.272854 0.499999 0.499999
O O8 0.439626 0.318273 0.520125
O O9 0.089424 0.211728 0.551023
O O10 0.550458 0.280697 0.719282
O O11 0.719226 0.993579 0.669624
O O12 0.975577 0.722688 0.611960
#
# Coordination Sequence:
#
# PCOD8126236 Si02
#       6
#     4   4   4   4   4   4
#     4  10  22  39  58  82 114 152 189 227 281 344
#     4  11  23  38  59  87 115 146 189 239 283 327
#     4  10  21  39  61  83 113 154 192 227 278 343
#     4  11  23  38  59  87 115 146 189 239 283 327
#     4  10  22  39  58  82 114 152 189 227 281 344
#     4  10  21  39  61  83 113 154 192 227 278 343
#
# _framework density 19.959627000000001
#
# number of rings (size 3 to 8) (size 9 to 14) (size 15 to 20)
#    0.000    1.667    0.000    4.000    0.000   11.333 
#    0.000    0.000    0.000    0.000    0.000    0.000 
#    0.000    0.000    0.000    0.000    0.000    0.000 
#
# Total GULP energy -297772.245139 kJ/mol
# GULP energy per Si atom -12407.176881 kJ/mol
# Density = 1.991420 g / cm^3
# Si number density = 19.959627 Si / 1000 Ang^3
#
#
#
# Elastic Constant Matrix: (Units=GPa)
#
#
# Indices 1 2 3 4 5 6 
#
# 1 69.9351 33.2038 21.6328 0.0000 -0.1140 0.0000
# 2 33.2038 76.7267 -11.0596 0.0000 1.5235 0.0000
# 3 21.6328 -11.0596 63.3052 0.0001 0.3418 0.0000
# 4 0.0000 0.0000 0.0001 30.9824 0.0000 0.0962
# 5 -0.1140 1.5235 0.3418 0.0000 25.7959 0.0000
# 6 0.0000 0.0000 0.0000 0.0962 0.0000 33.7744
#
#
#
# Elastic Compliance Matrix: (Units=1/GPa)
#
#
# Indices 1 2 3 4 5 6 
#
# 1 0.022616 -0.011202 -0.009690 0.000000 0.000890 0.000000
# 2 -0.011202 0.018935 0.007143 0.000000 -0.001263 0.000000
# 3 -0.009690 0.007143 0.020360 0.000000 -0.000734 0.000000
# 4 0.000000 0.000000 0.000000 0.032277 0.000000 -0.000092
# 5 0.000890 -0.001263 -0.000734 0.000000 0.038854 0.000000
# 6 0.000000 0.000000 0.000000 -0.000092 0.000000 0.029609
#
#
# Mechanical properties :
#
#
# Convention : Reuss Voigt Hill
#
# Bulk Modulus (GPa) = 29.05874 33.05788 31.05831
# Shear Modulus (GPa) = 24.79912 29.18986 26.99449
#
# Velocity S-wave (km/s) = 3.52868 3.82834 3.68156
# Velocity P-wave (km/s) = 5.58503 6.01165 5.80226
#
# Compressibility (1/GPa) = 0.03441305
#
# Stress axis : x y z
#
# Youngs Moduli (GPa) = 44.21605 52.81086 49.11669
#
# Poissons Ratio (x) = 0.59157 0.47595
# Poissons Ratio (y) = 0.49530 -0.35083
# Poissons Ratio (z) = 0.42846 -0.37722
#
# Static dielectric constant tensor:
#      x y z
#    x 3.598770 0.000000 -0.005700 
#    y 0.000000 3.634820 0.000000 
#    z -0.005700 0.000000 3.764200 
# 
# 
# High freq. dielectric constant tensor:
#      x y z
#    x 1.776210 0.000000 -0.000550 
#    y 0.000000 1.787740 0.000000 
#    z -0.000550 0.000000 1.792300 
# 
# From -- ./inp_files/41084.got.cif
#   From: 2010.03.12/outbox.cif.g09.slc.cpg/sg14_21_cif.got.tgz:41084.got - 2010.03.31 13:35:05.
