data_PCOD8126301
_publ_section_title
;
Structure prediction by ZEFSAII (Michael W. Deem and Ramdas Pophale) SiO2 
 PCOD8126301
Probable space group: P 21/C
;
_chemical_formula_sum "Si O2"
_cell_formula_units_Z 32
_cell_length_a 18.439333
_cell_length_b 11.382733
_cell_length_c 14.978367
_cell_angle_alpha 90.000000
_cell_angle_beta 29.575423
_cell_angle_gamma 90.000000
_cell_volume 1551.686451
_symmetry_space_group_name_H-M "P 21/C"
_symmetry_group_IT_number 14
_symmetry_cell_setting 'monoclinic'
loop_
_space_group_symop_operation_xyz
x,y,z
-x,1/2+y,1/2-z
-x,-y,-z
x,1/2-y,1/2+z
loop_
_atom_site_type_symbol
_atom_site_label
_atom_site_fract_x
_atom_site_fract_y
_atom_site_fract_z
Si Si1 0.850681 0.229218 0.945587
Si Si2 0.613328 0.096540 0.664208
Si Si3 0.946602 0.658539 0.133278
Si Si4 0.684777 0.846647 0.642775
Si Si5 0.999355 0.604150 0.879824
Si Si6 0.490079 0.652430 0.916091
Si Si7 0.597349 0.096411 0.308133
Si Si8 0.645594 0.752357 0.000702
O O1 0.914030 0.184217 0.783675
O O2 0.973995 0.244107 0.889591
O O3 0.773136 0.356177 0.021825
O O4 0.727956 0.134538 0.103898
O O5 0.602574 0.136951 0.573763
O O6 0.599213 0.958840 0.695554
O O7 0.482172 0.150527 0.862719
O O8 0.947146 0.530983 0.180759
O O9 0.779371 0.702429 0.296436
O O10 0.025226 0.653124 0.952399
O O11 0.579568 0.774753 0.822388
O O12 0.715953 0.764025 0.523999
O O13 0.827928 0.888496 0.540952
O O14 0.604190 0.544423 0.804862
O O15 0.378669 0.652540 0.119259
O O16 0.432904 0.134029 0.451094
#
# Coordination Sequence:
#
# PCOD8126301 Si02
#       8
#     4   4   4   4   4   4   4   4
#     4  11  24  41  64  90 130 166 205 265 319 379
#     4  10  22  39  62  93 123 163 211 257 316 372
#     4  11  24  43  63  95 127 169 215 261 320 386
#     4  11  20  40  64  93 127 168 206 263 317 374
#     4  11  25  41  65  91 132 168 215 263 320 385
#     4  10  22  38  65  90 127 165 210 264 310 379
#     4  10  22  41  61  96 125 159 218 256 317 382
#     4  10  21  39  64  88 126 167 206 260 314 377
#
# _framework density 20.622723000000001
#
# number of rings (size 3 to 8) (size 9 to 14) (size 15 to 20)
#    0.000    1.500    3.750    0.750    5.250    0.000 
#    2.250    1.875    0.000    4.500    0.000    0.000 
#    0.000    0.000    0.000    0.000    0.000    0.000 
#
# Total GULP energy -396769.240862 kJ/mol
# GULP energy per Si atom -12399.038777 kJ/mol
# Density = 2.057578 g / cm^3
# Si number density = 20.622723 Si / 1000 Ang^3
#
#
#
# Elastic Constant Matrix: (Units=GPa)
#
#
# Indices 1 2 3 4 5 6 
#
# 1 78.8283 25.0549 42.2618 0.0000 0.6176 0.0000
# 2 25.0549 97.5589 37.4187 0.0000 -0.8920 0.0000
# 3 42.2618 37.4187 96.8034 0.0000 4.0725 0.0000
# 4 0.0000 0.0000 0.0000 23.2110 0.0000 5.4677
# 5 0.6176 -0.8920 4.0725 0.0000 35.0155 0.0000
# 6 0.0000 0.0000 0.0000 5.4677 0.0000 32.8060
#
#
#
# Elastic Compliance Matrix: (Units=1/GPa)
#
#
# Indices 1 2 3 4 5 6 
#
# 1 0.016824 -0.001752 -0.006686 0.000000 0.000436 0.000000
# 2 -0.001752 0.012242 -0.004001 0.000000 0.000808 0.000000
# 3 -0.006686 -0.004001 0.014868 0.000000 -0.001713 0.000000
# 4 0.000000 0.000000 0.000000 0.044844 0.000000 -0.007474
# 5 0.000436 0.000808 -0.001713 0.000000 0.028771 0.000000
# 6 0.000000 0.000000 0.000000 -0.007474 0.000000 0.031728
#
#
# Mechanical properties :
#
#
# Convention : Reuss Voigt Hill
#
# Bulk Modulus (GPa) = 52.47904 53.62906 53.05405
# Shear Modulus (GPa) = 27.69983 29.43687 28.56835
#
# Velocity S-wave (km/s) = 3.66890 3.78219 3.72598
# Velocity P-wave (km/s) = 6.59168 6.71823 6.65526
#
# Compressibility (1/GPa) = 0.01905523
#
# Stress axis : x y z
#
# Youngs Moduli (GPa) = 59.43975 81.68419 67.25969
#
# Poissons Ratio (x) = 0.14314 0.44969
# Poissons Ratio (y) = 0.10416 0.26912
# Poissons Ratio (z) = 0.39740 0.32683
#
# Static dielectric constant tensor:
#      x y z
#    x 3.784950 0.000000 0.105740 
#    y 0.000000 3.668310 0.000000 
#    z 0.105740 0.000000 3.545920 
# 
# 
# High freq. dielectric constant tensor:
#      x y z
#    x 1.815170 0.000000 0.007930 
#    y 0.000000 1.806390 0.000000 
#    z 0.007930 0.000000 1.792670 
# 
# From -- ./inp_files/48902.got.cif
#   From: 2010.03.12/outbox.cif.g09.slc.cpg/sg14_25_cif.got.tgz:48902.got - 2010.03.31 13:35:05.
