data_PCOD8126509
_publ_section_title
;
Structure prediction by ZEFSAII (Michael W. Deem and Ramdas Pophale) SiO2 
 PCOD8126509
Probable space group: P 21/C
;
_chemical_formula_sum "Si O2"
_cell_formula_units_Z 32
_cell_length_a 11.880283
_cell_length_b 8.350648
_cell_length_c 18.703138
_cell_angle_alpha 90.000000
_cell_angle_beta 52.482753
_cell_angle_gamma 90.000000
_cell_volume 1471.728678
_symmetry_space_group_name_H-M "P 21/C"
_symmetry_group_IT_number 14
_symmetry_cell_setting 'monoclinic'
loop_
_space_group_symop_operation_xyz
x,y,z
-x,1/2+y,1/2-z
-x,-y,-z
x,1/2-y,1/2+z
loop_
_atom_site_type_symbol
_atom_site_label
_atom_site_fract_x
_atom_site_fract_y
_atom_site_fract_z
Si Si1 0.384396 0.079792 0.187853
Si Si2 0.417411 0.333096 0.525742
Si Si3 0.040761 0.680067 0.464744
Si Si4 0.368261 0.784017 0.661100
Si Si5 0.827703 0.787746 0.157639
Si Si6 0.659018 0.083716 0.176024
Si Si7 0.891816 0.504495 0.769084
Si Si8 0.891768 0.716530 0.374270
O O1 0.387986 0.210207 0.120734
O O2 0.261943 0.131730 0.288918
O O3 0.539107 0.082069 0.162805
O O4 0.338697 0.904406 0.180216
O O5 0.500000 0.500000 0.500000
O O6 0.505576 0.200537 0.446833
O O7 0.264975 0.348926 0.545763
O O8 0.957367 0.779671 0.558141
O O9 0.988123 0.727125 0.406826
O O10 0.000000 0.500000 0.500000
O O11 0.211741 0.701900 0.398487
O O12 0.409064 0.858646 0.722340
O O13 0.233324 0.874364 0.681743
O O14 0.720359 0.905062 0.157266
O O15 0.890005 0.881106 0.201094
O O16 0.882952 0.605533 0.844927
O O17 0.038495 0.405291 0.709962
#
# Coordination Sequence:
#
# PCOD8126509 Si02
#       8
#     4   4   4   4   4   4   4   4
#     4  11  22  40  65  97 135 178 233 274 352 412
#     4  10  25  38  66 100 138 177 230 275 343 418
#     4  10  21  40  69  95 136 177 235 270 343 411
#     4  10  23  45  63  96 139 179 225 292 341 410
#     4  10  21  42  63  97 129 178 223 283 337 406
#     4  10  21  40  66  95 130 183 223 282 344 407
#     4  11  25  44  71  95 141 179 231 289 345 410
#     4  12  24  44  71 103 132 190 232 282 350 415
#
# _framework density 21.743138999999999
#
# number of rings (size 3 to 8) (size 9 to 14) (size 15 to 20)
#    0.000    1.500    5.000    0.750   12.250    0.500 
#    0.000    1.875    0.000    0.000    0.000    0.000 
#    0.000    0.000    0.000    0.000    0.000    0.000 
#
# Total GULP energy -396660.826753 kJ/mol
# GULP energy per Si atom -12395.650836 kJ/mol
# Density = 2.169365 g / cm^3
# Si number density = 21.743139 Si / 1000 Ang^3
#
#
#
# Elastic Constant Matrix: (Units=GPa)
#
#
# Indices 1 2 3 4 5 6 
#
# 1 90.5330 44.9455 36.1909 0.0000 -7.2742 0.0000
# 2 44.9455 73.1005 46.3186 0.0000 -6.2415 0.0000
# 3 36.1909 46.3186 122.6885 0.0000 -6.2063 0.0000
# 4 0.0000 0.0000 0.0000 35.6839 0.0000 3.4045
# 5 -7.2742 -6.2415 -6.2063 0.0000 32.9523 0.0000
# 6 0.0000 0.0000 0.0000 3.4045 0.0000 28.4054
#
#
#
# Elastic Compliance Matrix: (Units=1/GPa)
#
#
# Indices 1 2 3 4 5 6 
#
# 1 0.016146 -0.008968 -0.001295 0.000000 0.001622 0.000000
# 2 -0.008968 0.023114 -0.006017 0.000000 0.001265 0.000000
# 3 -0.001295 -0.006017 0.010835 0.000000 0.000615 0.000000
# 4 0.000000 0.000000 0.000000 0.028348 0.000000 -0.003398
# 5 0.001622 0.001265 0.000615 0.000000 0.031060 0.000000
# 6 0.000000 0.000000 0.000000 -0.003398 0.000000 0.035612
#
#
# Mechanical properties :
#
#
# Convention : Reuss Voigt Hill
#
# Bulk Modulus (GPa) = 57.02719 60.13691 58.58205
# Shear Modulus (GPa) = 27.24475 29.99944 28.62209
#
# Velocity S-wave (km/s) = 3.54365 3.71849 3.63212
# Velocity P-wave (km/s) = 6.55957 6.79368 6.67765
#
# Compressibility (1/GPa) = 0.01753549
#
# Stress axis : x y z
#
# Youngs Moduli (GPa) = 61.93474 43.26299 92.29014
#
# Poissons Ratio (x) = 0.38800 0.11951
# Poissons Ratio (y) = 0.55545 0.55530
# Poissons Ratio (z) = 0.08020 0.26031
#
# Static dielectric constant tensor:
#      x y z
#    x 3.820490 0.000000 0.062110 
#    y 0.000000 3.780240 0.000000 
#    z 0.062110 0.000000 5.482000 
# 
# 
# High freq. dielectric constant tensor:
#      x y z
#    x 1.850340 0.000000 -0.004990 
#    y 0.000000 1.824950 0.000000 
#    z -0.004990 0.000000 1.876940 
# 
# From -- ./inp_files/67033.got.cif
#   From: 2010.03.12/outbox.cif.g09.slc.cpg/sg14_34_cif.got.tgz:67033.got - 2010.03.31 13:35:05.
