data_PCOD8126700
_publ_section_title
;
Structure prediction by ZEFSAII (Michael W. Deem and Ramdas Pophale) SiO2 
 PCOD8126700
Probable space group: P 21/C
;
_chemical_formula_sum "Si O2"
_cell_formula_units_Z 28
_cell_length_a 9.465960
_cell_length_b 8.876682
_cell_length_c 14.225781
_cell_angle_alpha 90.000000
_cell_angle_beta 111.433465
_cell_angle_gamma 90.000000
_cell_volume 1112.673306
_symmetry_space_group_name_H-M "P 21/C"
_symmetry_group_IT_number 14
_symmetry_cell_setting 'monoclinic'
loop_
_space_group_symop_operation_xyz
x,y,z
-x,1/2+y,1/2-z
-x,-y,-z
x,1/2-y,1/2+z
loop_
_atom_site_type_symbol
_atom_site_label
_atom_site_fract_x
_atom_site_fract_y
_atom_site_fract_z
Si Si1 0.644731 0.255984 0.901098
Si Si2 0.328723 0.543492 0.929837
Si Si3 0.133924 0.229809 0.433175
Si Si4 0.661376 0.601530 0.637544
Si Si5 0.113579 0.555067 0.606063
Si Si6 0.574544 0.208758 0.181932
Si Si7 0.233411 0.250967 0.157481
O O1 0.474706 0.221610 0.893842
O O2 0.732337 0.101047 0.908365
O O3 0.640106 0.339746 0.799096
O O4 0.732169 0.357096 0.998062
O O5 0.202576 0.410500 0.888965
O O6 0.337698 0.641924 0.835945
O O7 0.500000 0.500000 0.000000
O O8 0.245396 0.369852 0.434920
O O9 0.132260 0.191770 0.544251
O O10 0.966740 0.297966 0.362410
O O11 0.603415 0.430096 0.618559
O O12 0.767147 0.633234 0.755615
O O13 0.165169 0.409053 0.679963
O O14 0.000000 0.500000 0.500000
O O15 0.398523 0.242619 0.150144
#
# Coordination Sequence:
#
# PCOD8126700 Si02
#       7
#     4   4   4   4   4   4   4
#     4  11  24  42  70  98 139 179 235 291 353 413
#     4  12  24  41  69 105 140 179 234 299 345 417
#     4  11  24  44  67  98 140 184 230 283 354 417
#     4  11  23  40  72 101 130 181 238 294 346 411
#     4  10  24  44  68  97 141 187 226 284 357 432
#     4  11  24  38  71 106 135 176 240 295 355 404
#     4  10  21  41  70  95 139 178 234 291 351 413
#
# _framework density 25.164618999999998
#
# number of rings (size 3 to 8) (size 9 to 14) (size 15 to 20)
#    0.000    1.143    4.286    0.857    8.000    1.714 
#    2.571    0.000    0.000    0.000    0.000    0.000 
#    0.000    0.000    0.000    0.000    0.000    0.000 
#
# Total GULP energy -346869.881134 kJ/mol
# GULP energy per Si atom -12388.210041 kJ/mol
# Density = 2.510734 g / cm^3
# Si number density = 25.164619 Si / 1000 Ang^3
#
#
#
# Elastic Constant Matrix: (Units=GPa)
#
#
# Indices 1 2 3 4 5 6 
#
# 1 68.5481 15.9799 3.9605 0.0000 -3.2542 0.0000
# 2 15.9799 93.5255 -5.0927 0.0000 -4.1106 0.0000
# 3 3.9605 -5.0927 44.1112 0.0000 -13.1893 0.0000
# 4 0.0000 0.0000 0.0000 39.2509 0.0000 1.1742
# 5 -3.2542 -4.1106 -13.1893 0.0000 19.8844 0.0000
# 6 0.0000 0.0000 0.0000 1.1742 0.0000 54.4001
#
#
#
# Elastic Compliance Matrix: (Units=1/GPa)
#
#
# Indices 1 2 3 4 5 6 
#
# 1 0.015335 -0.002648 -0.001367 0.000000 0.001055 0.000000
# 2 -0.002648 0.011453 0.002667 0.000000 0.003703 0.000000
# 3 -0.001367 0.002667 0.028938 0.000000 0.019522 0.000000
# 4 0.000000 0.000000 0.000000 0.025494 0.000000 -0.000550
# 5 0.001055 0.003703 0.019522 0.000000 0.064178 0.000000
# 6 0.000000 0.000000 0.000000 -0.000550 0.000000 0.018394
#
#
# Mechanical properties :
#
#
# Convention : Reuss Voigt Hill
#
# Bulk Modulus (GPa) = 18.85736 26.20892 22.53314
# Shear Modulus (GPa) = 27.14983 35.46289 31.30636
#
# Velocity S-wave (km/s) = 3.28821 3.75805 3.53095
# Velocity P-wave (km/s) = 4.68255 5.41001 5.05937
#
# Compressibility (1/GPa) = 0.05302968
#
# Stress axis : x y z
#
# Youngs Moduli (GPa) = 65.21156 87.31529 34.55689
#
# Poissons Ratio (x) = 0.23122 0.04724
# Poissons Ratio (y) = 0.17269 -0.09217
# Poissons Ratio (z) = 0.08914 -0.23290
#
# Static dielectric constant tensor:
#      x y z
#    x 4.884160 0.000000 0.232350 
#    y 0.000000 4.748550 0.000000 
#    z 0.232350 0.000000 4.828210 
# 
# 
# High freq. dielectric constant tensor:
#      x y z
#    x 1.989280 0.000000 -0.009000 
#    y 0.000000 2.002470 0.000000 
#    z -0.009000 0.000000 1.991930 
# 
# From -- ./inp_files/43460.got.cif
#   From: 2010.03.12/outbox.cif.g09.slc.cpg/sg14_22_cif.got.tgz:43460.got - 2010.03.31 13:35:05.
