data_PCOD8126119
_publ_section_title
;
Structure prediction by ZEFSAII (Michael W. Deem and Ramdas Pophale) SiO2 
 PCOD8126119
Probable space group: P 21/C
;
_chemical_formula_sum "Si O2"
_cell_formula_units_Z 32
_cell_length_a 8.984301
_cell_length_b 29.078925
_cell_length_c 12.531807
_cell_angle_alpha 90.000000
_cell_angle_beta 30.350805
_cell_angle_gamma 90.000000
_cell_volume 1654.320417
_symmetry_space_group_name_H-M "P 21/C"
_symmetry_group_IT_number 14
_symmetry_cell_setting 'monoclinic'
loop_
_space_group_symop_operation_xyz
x,y,z
-x,1/2+y,1/2-z
-x,-y,-z
x,1/2-y,1/2+z
loop_
_atom_site_type_symbol
_atom_site_label
_atom_site_fract_x
_atom_site_fract_y
_atom_site_fract_z
Si Si1 0.218055 0.041572 0.869056
Si Si2 0.909635 0.316467 0.773073
Si Si3 0.051807 0.578001 0.260632
Si Si4 0.869969 0.493670 0.961037
Si Si5 0.313189 0.249961 0.902429
Si Si6 0.279038 0.425834 0.101788
Si Si7 0.243383 0.321328 0.113139
Si Si8 0.947305 0.252886 0.437706
O O1 0.542624 0.022901 0.679289
O O2 0.159817 0.069440 0.796168
O O3 0.169471 0.072750 0.003373
O O4 0.000000 0.000000 0.000000
O O5 0.967318 0.369607 0.765621
O O6 0.581121 0.310488 0.932654
O O7 0.927694 0.289139 0.870515
O O8 0.163966 0.297677 0.535993
O O9 0.964656 0.545171 0.213882
O O10 0.372133 0.564402 0.109592
O O11 0.875981 0.540738 0.888156
O O12 0.000000 0.500000 0.000000
O O13 0.171774 0.292661 0.051921
O O14 0.667365 0.251839 0.690129
O O15 0.238737 0.257006 0.825347
O O16 0.194913 0.374603 0.118161
O O17 0.007307 0.302723 0.346300
#
# Coordination Sequence:
#
# PCOD8126119 Si02
#       8
#     4   4   4   4   4   4   4   4
#     4  11  19  38  65  85 113 161 205 239 287 353
#     4  10  22  37  61  90 117 154 206 247 289 358
#     4  10  21  39  62  90 117 158 207 242 290 361
#     4  11  23  39  60  90 129 152 188 255 306 350
#     4  11  22  38  60  84 120 157 195 244 304 347
#     4  10  21  38  61  90 119 156 205 245 289 357
#     4  10  22  37  59  91 117 155 206 243 293 359
#     4  11  22  39  60  86 121 158 194 248 300 352
#
# _framework density 19.34329
#
# number of rings (size 3 to 8) (size 9 to 14) (size 15 to 20)
#    0.000    1.500    5.000    0.750    1.750    2.500 
#    0.000    1.250    0.000    0.000    0.000    0.000 
#    0.000    0.000    0.000    0.000    0.000    0.000 
#
# Total GULP energy -396644.834723 kJ/mol
# GULP energy per Si atom -12395.151085 kJ/mol
# Density = 1.929926 g / cm^3
# Si number density = 19.343290 Si / 1000 Ang^3
#
#
#
# Elastic Constant Matrix: (Units=GPa)
#
#
# Indices 1 2 3 4 5 6 
#
# 1 96.3728 56.1660 17.6863 0.0000 26.2111 0.0000
# 2 56.1660 140.4412 38.0995 0.0000 16.5647 0.0000
# 3 17.6863 38.0995 102.1030 0.0000 17.5201 0.0000
# 4 0.0000 0.0000 0.0000 20.9673 0.0000 -1.7866
# 5 26.2111 16.5647 17.5201 0.0000 26.8553 0.0000
# 6 0.0000 0.0000 0.0000 -1.7866 0.0000 22.3429
#
#
#
# Elastic Compliance Matrix: (Units=1/GPa)
#
#
# Indices 1 2 3 4 5 6 
#
# 1 0.017304 -0.005648 0.001588 0.000000 -0.014442 0.000000
# 2 -0.005648 0.010040 -0.002985 0.000000 0.001268 0.000000
# 3 0.001588 -0.002985 0.011917 0.000000 -0.007483 0.000000
# 4 0.000000 0.000000 0.000000 0.048021 0.000000 0.003840
# 5 -0.014442 0.001268 -0.007483 0.000000 0.055432 0.000000
# 6 0.000000 0.000000 0.000000 0.003840 0.000000 0.045064
#
#
# Mechanical properties :
#
#
# Convention : Reuss Voigt Hill
#
# Bulk Modulus (GPa) = 39.72920 62.53564 51.13242
# Shear Modulus (GPa) = 23.78035 29.16411 26.47223
#
# Velocity S-wave (km/s) = 3.51006 3.88714 3.70340
# Velocity P-wave (km/s) = 6.08367 7.24886 6.69167
#
# Compressibility (1/GPa) = 0.02517040
#
# Stress axis : x y z
#
# Youngs Moduli (GPa) = 57.78922 99.60607 83.91386
#
# Poissons Ratio (x) = 0.56257 -0.13326
# Poissons Ratio (y) = 0.32639 0.25052
# Poissons Ratio (z) = -0.09178 0.29737
#
# Static dielectric constant tensor:
#      x y z
#    x 3.454420 0.000000 0.301710 
#    y 0.000000 3.538850 0.000000 
#    z 0.301710 0.000000 4.417300 
# 
# 
# High freq. dielectric constant tensor:
#      x y z
#    x 1.741490 0.000000 0.016430 
#    y 0.000000 1.755110 0.000000 
#    z 0.016430 0.000000 1.760160 
# 
# From -- ./inp_files/22374.got.cif
#   From: 2010.03.12/outbox.cif.g09.slc.cpg/sg14_12_cif.got.tgz:22374.got - 2010.03.31 13:35:05.
