data_PCOD8126657
_publ_section_title
;
Structure prediction by ZEFSAII (Michael W. Deem and Ramdas Pophale) SiO2 
 PCOD8126657
Probable space group: P 21/C
;
_chemical_formula_sum "Si O2"
_cell_formula_units_Z 32
_cell_length_a 11.718625
_cell_length_b 14.496872
_cell_length_c 8.948985
_cell_angle_alpha 90.000000
_cell_angle_beta 73.729501
_cell_angle_gamma 90.000000
_cell_volume 1459.396190
_symmetry_space_group_name_H-M "P 21/C"
_symmetry_group_IT_number 14
_symmetry_cell_setting 'monoclinic'
loop_
_space_group_symop_operation_xyz
x,y,z
-x,1/2+y,1/2-z
-x,-y,-z
x,1/2-y,1/2+z
loop_
_atom_site_type_symbol
_atom_site_label
_atom_site_fract_x
_atom_site_fract_y
_atom_site_fract_z
Si Si1 0.988792 0.929633 0.792588
Si Si2 0.625150 0.308490 0.788929
Si Si3 0.000149 0.637470 0.603482
Si Si4 0.763839 0.661674 0.835951
Si Si5 0.356024 0.199826 0.322305
Si Si6 0.736371 0.152143 0.930663
Si Si7 0.762020 0.044450 0.413832
Si Si8 0.248926 0.025899 0.254302
O O1 0.110893 0.907106 0.661819
O O2 0.877697 0.922168 0.720825
O O3 0.973638 0.858484 0.935730
O O4 0.995852 0.032693 0.848549
O O5 0.484335 0.295637 0.849910
O O6 0.684615 0.212862 0.815803
O O7 0.663040 0.333853 0.608257
O O8 0.659002 0.388669 0.892724
O O9 0.127213 0.683136 0.593128
O O10 0.896474 0.690537 0.732716
O O11 0.665838 0.708692 0.765938
O O12 0.747988 0.551546 0.829749
O O13 0.744712 0.694197 0.012523
O O14 0.346442 0.107628 0.222898
O O15 0.724853 0.044058 0.891090
O O16 0.749274 0.032410 0.594706
#
# Coordination Sequence:
#
# PCOD8126657 Si02
#       8
#     4   4   4   4   4   4   4   4
#     4   9  17  36  65  95 127 157 202 262 318 387
#     4  12  25  42  66  89 131 173 222 262 317 375
#     4   9  19  37  64  96 124 159 204 258 327 378
#     4  10  24  41  65  92 130 164 213 266 326 377
#     4  11  26  43  61  95 126 177 218 266 310 384
#     4  11  24  42  64  97 124 169 213 271 323 384
#     4  10  21  41  66  96 127 172 207 267 325 382
#     4  10  23  39  66  96 131 165 215 261 329 383
#
# _framework density 21.926879
#
# number of rings (size 3 to 8) (size 9 to 14) (size 15 to 20)
#    0.000    1.750    1.250    1.875    3.500    6.500 
#    0.000    0.000    0.000    0.000    0.000    0.000 
#    0.000    0.000    0.000    0.000    0.000    0.000 
#
# Total GULP energy -396880.190474 kJ/mol
# GULP energy per Si atom -12402.505952 kJ/mol
# Density = 2.187697 g / cm^3
# Si number density = 21.926879 Si / 1000 Ang^3
#
#
#
# Elastic Constant Matrix: (Units=GPa)
#
#
# Indices 1 2 3 4 5 6 
#
# 1 128.4389 46.5702 38.3568 0.0000 9.5928 0.0000
# 2 46.5702 68.1795 24.9152 0.0000 8.1113 0.0000
# 3 38.3568 24.9152 97.4006 0.0000 0.6209 0.0000
# 4 0.0000 0.0000 0.0000 26.2593 0.0000 13.3978
# 5 9.5928 8.1113 0.6209 0.0000 31.7148 0.0000
# 6 0.0000 0.0000 0.0000 13.3978 0.0000 41.6813
#
#
#
# Elastic Compliance Matrix: (Units=1/GPa)
#
#
# Indices 1 2 3 4 5 6 
#
# 1 0.011016 -0.006338 -0.002706 0.000000 -0.001658 0.000000
# 2 -0.006338 0.020366 -0.002693 0.000000 -0.003239 0.000000
# 3 -0.002706 -0.002693 0.012013 0.000000 0.001272 0.000000
# 4 0.000000 0.000000 0.000000 0.045552 0.000000 -0.014642
# 5 -0.001658 -0.003239 0.001272 0.000000 0.032836 0.000000
# 6 0.000000 0.000000 0.000000 -0.014642 0.000000 0.028698
#
#
# Mechanical properties :
#
#
# Convention : Reuss Voigt Hill
#
# Bulk Modulus (GPa) = 50.19989 57.07816 53.63902
# Shear Modulus (GPa) = 27.68600 32.20953 29.94776
#
# Velocity S-wave (km/s) = 3.55724 3.83685 3.69968
# Velocity P-wave (km/s) = 6.30998 6.76138 6.53957
#
# Compressibility (1/GPa) = 0.01992036
#
# Stress axis : x y z
#
# Youngs Moduli (GPa) = 90.77696 49.10140 83.24073
#
# Poissons Ratio (x) = 0.31122 0.22527
# Poissons Ratio (y) = 0.57537 0.22416
# Poissons Ratio (z) = 0.24566 0.13223
#
# Static dielectric constant tensor:
#      x y z
#    x 4.079250 0.000000 0.023510 
#    y 0.000000 3.815820 0.000000 
#    z 0.023510 0.000000 3.916980 
# 
# 
# High freq. dielectric constant tensor:
#      x y z
#    x 1.861500 0.000000 0.007680 
#    y 0.000000 1.855340 0.000000 
#    z 0.007680 0.000000 1.862290 
# 
# From -- ./inp_files/13306.got.cif
#   From: 2010.03.12/outbox.cif.g09.slc.cpg/sg14_7_cif.got.tgz:13306.got - 2010.03.31 13:35:05.
