data_PCOD8126624
_publ_section_title
;
Structure prediction by ZEFSAII (Michael W. Deem and Ramdas Pophale) SiO2 
 PCOD8126624
Probable space group: P 21/C
;
_chemical_formula_sum "Si O2"
_cell_formula_units_Z 32
_cell_length_a 12.440465
_cell_length_b 13.382913
_cell_length_c 18.685308
_cell_angle_alpha 90.000000
_cell_angle_beta 30.373492
_cell_angle_gamma 90.000000
_cell_volume 1572.984239
_symmetry_space_group_name_H-M "P 21/C"
_symmetry_group_IT_number 14
_symmetry_cell_setting 'monoclinic'
loop_
_space_group_symop_operation_xyz
x,y,z
-x,1/2+y,1/2-z
-x,-y,-z
x,1/2-y,1/2+z
loop_
_atom_site_type_symbol
_atom_site_label
_atom_site_fract_x
_atom_site_fract_y
_atom_site_fract_z
Si Si1 0.725403 0.238275 0.865980
Si Si2 0.369236 0.221847 0.165080
Si Si3 0.684639 0.564791 0.859334
Si Si4 0.087001 0.638507 0.113187
Si Si5 0.907689 0.594308 0.870033
Si Si6 0.484595 0.681112 0.789654
Si Si7 0.478012 0.810383 0.662771
Si Si8 0.232496 0.505295 0.336267
O O1 0.848427 0.319671 0.845433
O O2 0.601287 0.293176 0.872727
O O3 0.884634 0.161043 0.736131
O O4 0.559793 0.170949 0.009444
O O5 0.419956 0.337019 0.113971
O O6 0.402074 0.226281 0.232104
O O7 0.140097 0.183711 0.276666
O O8 0.867714 0.596163 0.808347
O O9 0.792749 0.502763 0.734454
O O10 0.500000 0.500000 0.000000
O O11 0.059633 0.519719 0.125944
O O12 0.249870 0.668048 0.957220
O O13 0.712715 0.642658 0.024816
O O14 0.476576 0.709251 0.710366
O O15 0.618165 0.579266 0.715745
O O16 0.331506 0.885939 0.792651
O O17 0.000000 0.500000 0.500000
#
# Coordination Sequence:
#
# PCOD8126624 Si02
#       8
#     4   4   4   4   4   4   4   4
#     4  11  23  40  68 100 130 165 220 284 320 392
#     4  10  21  41  64  93 127 170 218 266 330 393
#     4  11  18  41  69  94 123 169 225 269 319 396
#     4  11  22  44  68  94 131 176 217 268 346 407
#     4  12  23  40  70  98 128 176 220 275 341 395
#     4  10  25  42  65  90 134 177 215 268 333 403
#     4  12  24  43  62  98 133 167 226 271 329 395
#     4  11  24  40  66  98 126 171 223 272 324 389
#
# _framework density 20.343498
#
# number of rings (size 3 to 8) (size 9 to 14) (size 15 to 20)
#    0.000    1.000    5.000    2.250    5.250    0.500 
#    4.500    1.250    0.000    0.000    0.000    0.000 
#    0.000    0.000    0.000    0.000    0.000    0.000 
#
# Total GULP energy -396682.853039 kJ/mol
# GULP energy per Si atom -12396.339157 kJ/mol
# Density = 2.029720 g / cm^3
# Si number density = 20.343498 Si / 1000 Ang^3
#
#
#
# Elastic Constant Matrix: (Units=GPa)
#
#
# Indices 1 2 3 4 5 6 
#
# 1 56.0376 17.4741 27.3763 0.0000 1.5794 0.0000
# 2 17.4741 82.6143 41.5336 0.0000 -2.4194 0.0000
# 3 27.3763 41.5336 140.8841 0.0000 -14.2102 0.0000
# 4 0.0000 0.0000 0.0000 30.5049 0.0000 -1.8116
# 5 1.5794 -2.4194 -14.2102 0.0000 37.2036 0.0000
# 6 0.0000 0.0000 0.0000 -1.8116 0.0000 25.0113
#
#
#
# Elastic Compliance Matrix: (Units=1/GPa)
#
#
# Indices 1 2 3 4 5 6 
#
# 1 0.020412 -0.002669 -0.003416 0.000000 -0.002345 0.000000
# 2 -0.002669 0.014577 -0.003819 0.000000 -0.000397 0.000000
# 3 -0.003416 -0.003819 0.009233 0.000000 0.003423 0.000000
# 4 0.000000 0.000000 0.000000 0.032923 0.000000 0.002385
# 5 -0.002345 -0.000397 0.003423 0.000000 0.028260 0.000000
# 6 0.000000 0.000000 0.000000 0.002385 0.000000 0.040155
#
#
# Mechanical properties :
#
#
# Convention : Reuss Voigt Hill
#
# Bulk Modulus (GPa) = 40.95880 50.25599 45.60739
# Shear Modulus (GPa) = 28.81728 31.42077 30.11903
#
# Velocity S-wave (km/s) = 3.76777 3.93429 3.85193
# Velocity P-wave (km/s) = 6.25344 6.73762 6.50004
#
# Compressibility (1/GPa) = 0.02441478
#
# Stress axis : x y z
#
# Youngs Moduli (GPa) = 48.98982 68.60020 108.30686
#
# Poissons Ratio (x) = 0.18307 0.37001
# Poissons Ratio (y) = 0.13074 0.41362
# Poissons Ratio (z) = 0.16736 0.26198
#
# Static dielectric constant tensor:
#      x y z
#    x 3.800930 0.000000 0.040350 
#    y 0.000000 3.699040 0.000000 
#    z 0.040350 0.000000 3.773720 
# 
# 
# High freq. dielectric constant tensor:
#      x y z
#    x 1.788670 0.000000 0.000430 
#    y 0.000000 1.786150 0.000000 
#    z 0.000430 0.000000 1.806910 
# 
# From -- ./inp_files/57923.got.cif
#   From: 2010.03.12/outbox.cif.g09.slc.cpg/sg14_29_cif.got.tgz:57923.got - 2010.03.31 13:35:05.
