data_PCOD8126713
_publ_section_title
;
Structure prediction by ZEFSAII (Michael W. Deem and Ramdas Pophale) SiO2 
 PCOD8126713
Probable space group: P 21/C
;
_chemical_formula_sum "Si O2"
_cell_formula_units_Z 24
_cell_length_a 15.141855
_cell_length_b 7.188594
_cell_length_c 13.564446
_cell_angle_alpha 90.000000
_cell_angle_beta 47.287535
_cell_angle_gamma 90.000000
_cell_volume 1084.862674
_symmetry_space_group_name_H-M "P 21/C"
_symmetry_group_IT_number 14
_symmetry_cell_setting 'monoclinic'
loop_
_space_group_symop_operation_xyz
x,y,z
-x,1/2+y,1/2-z
-x,-y,-z
x,1/2-y,1/2+z
loop_
_atom_site_type_symbol
_atom_site_label
_atom_site_fract_x
_atom_site_fract_y
_atom_site_fract_z
Si Si1 0.554028 0.673138 0.105924
Si Si2 0.901279 0.847355 0.813495
Si Si3 0.830654 0.256422 0.871117
Si Si4 0.739818 0.577513 0.816425
Si Si5 0.344287 0.615447 0.838895
Si Si6 0.256254 0.271691 0.394561
O O1 0.559302 0.471933 0.155867
O O2 0.419328 0.758562 0.203917
O O3 0.640510 0.814373 0.102122
O O4 0.609647 0.649646 0.954243
O O5 0.848227 0.700344 0.776827
O O6 0.044260 0.855003 0.695805
O O7 0.849760 0.047324 0.821615
O O8 0.868888 0.793650 0.951467
O O9 0.764291 0.366901 0.833117
O O10 0.749674 0.256314 0.031296
O O11 0.737916 0.584361 0.699880
O O12 0.273254 0.442076 0.841671
#
# Coordination Sequence:
#
# PCOD8126713 Si02
#       6
#     4   4   4   4   4   4
#     4   8  19  36  58  82 121 159 194 244 299 345
#     4  11  21  41  64  84 124 165 193 253 307 354
#     4  11  21  40  64  86 121 163 200 245 308 353
#     4  10  21  42  59  94 122 154 208 252 289 368
#     4   9  19  36  60  84 122 159 199 243 301 354
#     4   9  21  39  63  89 124 156 203 250 300 355
#
# _framework density 22.122613999999999
#
# number of rings (size 3 to 8) (size 9 to 14) (size 15 to 20)
#    1.000    1.333    3.333    0.000    4.667    1.333 
#    3.000    5.000    0.000    0.000    0.000    0.000 
#    0.000    0.000    0.000    0.000    0.000    0.000 
#
# Total GULP energy -297402.297147 kJ/mol
# GULP energy per Si atom -12391.762381 kJ/mol
# Density = 2.207226 g / cm^3
# Si number density = 22.122614 Si / 1000 Ang^3
#
#
#
# Elastic Constant Matrix: (Units=GPa)
#
#
# Indices 1 2 3 4 5 6 
#
# 1 35.7867 6.3708 31.1924 0.0000 4.9642 0.0000
# 2 6.3708 76.6374 25.5732 0.0000 -10.4307 0.0000
# 3 31.1924 25.5732 129.4956 0.0000 -14.1709 0.0000
# 4 0.0000 0.0000 0.0000 33.8317 0.0000 -8.9692
# 5 4.9642 -10.4307 -14.1709 0.0000 30.5638 0.0000
# 6 0.0000 0.0000 0.0000 -8.9692 0.0000 14.8543
#
#
#
# Elastic Compliance Matrix: (Units=1/GPa)
#
#
# Indices 1 2 3 4 5 6 
#
# 1 0.038804 -0.001347 -0.010346 0.000000 -0.011559 0.000000
# 2 -0.001347 0.014419 -0.002065 0.000000 0.004182 0.000000
# 3 -0.010346 -0.002065 0.011302 0.000000 0.006216 0.000000
# 4 0.000000 0.000000 0.000000 0.035191 0.000000 0.021249
# 5 -0.011559 0.004182 0.006216 0.000000 0.038905 0.000000
# 6 0.000000 0.000000 0.000000 0.021249 0.000000 0.080151
#
#
# Mechanical properties :
#
#
# Convention : Reuss Voigt Hill
#
# Bulk Modulus (GPa) = 27.02021 40.91027 33.96524
# Shear Modulus (GPa) = 19.33298 27.76885 23.55092
#
# Velocity S-wave (km/s) = 2.95939 3.54676 3.26630
# Velocity P-wave (km/s) = 4.89057 5.94183 5.44164
#
# Compressibility (1/GPa) = 0.03700934
#
# Stress axis : x y z
#
# Youngs Moduli (GPa) = 25.77029 69.35388 88.47604
#
# Poissons Ratio (x) = 0.09340 0.91538
# Poissons Ratio (y) = 0.03470 0.18274
# Poissons Ratio (z) = 0.26662 0.14325
#
# Static dielectric constant tensor:
#      x y z
#    x 3.344180 0.000000 -0.149340 
#    y 0.000000 3.863180 0.000000 
#    z -0.149340 0.000000 4.004460 
# 
# 
# High freq. dielectric constant tensor:
#      x y z
#    x 1.818750 0.000000 -0.013040 
#    y 0.000000 1.872540 0.000000 
#    z -0.013040 0.000000 1.878690 
# 
# From -- ./inp_files/46369.got.cif
#   From: 2010.03.12/outbox.cif.g09.slc.cpg/sg14_24_cif.got.tgz:46369.got - 2010.03.31 13:35:05.
