data_PCOD8126244
_publ_section_title
;
Structure prediction by ZEFSAII (Michael W. Deem and Ramdas Pophale) SiO2 
 PCOD8126244
Probable space group: P 21/C
;
_chemical_formula_sum "Si O2"
_cell_formula_units_Z 20
_cell_length_a 5.091346
_cell_length_b 14.702121
_cell_length_c 12.653553
_cell_angle_alpha 90.000000
_cell_angle_beta 86.665578
_cell_angle_gamma 90.000000
_cell_volume 945.560306
_symmetry_space_group_name_H-M "P 21/C"
_symmetry_group_IT_number 14
_symmetry_cell_setting 'monoclinic'
loop_
_space_group_symop_operation_xyz
x,y,z
-x,1/2+y,1/2-z
-x,-y,-z
x,1/2-y,1/2+z
loop_
_atom_site_type_symbol
_atom_site_label
_atom_site_fract_x
_atom_site_fract_y
_atom_site_fract_z
Si Si1 0.472069 0.962551 0.116123
Si Si2 0.102467 0.921548 0.419044
Si Si3 0.042656 0.131785 0.805701
Si Si4 0.902726 0.168774 0.377709
Si Si5 0.412702 0.062605 0.314468
O O1 0.681625 0.883605 0.140487
O O2 0.175595 0.928878 0.133341
O O3 0.515551 0.047602 0.193475
O O4 0.500000 0.000000 0.000000
O O5 0.100576 0.830928 0.492923
O O6 0.931177 0.895520 0.319101
O O7 0.386119 0.962081 0.372243
O O8 0.000000 0.000000 0.500000
O O9 0.950763 0.234824 0.823631
O O10 0.610460 0.132152 0.362714
O O11 0.117605 0.102036 0.321935
#
# Coordination Sequence:
#
# PCOD8126244 Si02
#       5
#     4   4   4   4   4
#     4  11  23  41  61  83 121 164 200 241 297 365
#     4   9  20  39  63  85 120 162 203 246 301 370
#     4  11  24  39  59  94 121 152 206 256 301 362
#     4  11  22  38  61  91 121 152 196 260 308 343
#     4  10  21  39  61  87 115 160 206 237 296 378
#
# _framework density 21.151478000000001
#
# number of rings (size 3 to 8) (size 9 to 14) (size 15 to 20)
#    0.000    1.600    0.000    6.000    0.000    8.000 
#    0.000    0.000    0.000    0.000    0.000    0.000 
#    0.000    0.000    0.000    0.000    0.000    0.000 
#
# Total GULP energy -247767.758641 kJ/mol
# GULP energy per Si atom -12388.387932 kJ/mol
# Density = 2.110334 g / cm^3
# Si number density = 21.151478 Si / 1000 Ang^3
#
#
#
# Elastic Constant Matrix: (Units=GPa)
#
#
# Indices 1 2 3 4 5 6 
#
# 1 73.5428 13.1155 31.4344 0.0000 -0.1647 0.0000
# 2 13.1155 80.5334 53.1931 0.0000 -0.6390 0.0000
# 3 31.4344 53.1931 177.2780 0.0000 -9.2716 0.0000
# 4 0.0000 0.0000 0.0000 34.9027 0.0000 -8.2660
# 5 -0.1647 -0.6390 -9.2716 0.0000 23.7087 0.0000
# 6 0.0000 0.0000 0.0000 -8.2660 0.0000 26.1222
#
#
#
# Elastic Compliance Matrix: (Units=1/GPa)
#
#
# Indices 1 2 3 4 5 6 
#
# 1 0.014776 -0.000814 -0.002421 0.000000 -0.000866 0.000000
# 2 -0.000814 0.015579 -0.004603 0.000000 -0.001386 0.000000
# 3 -0.002421 -0.004603 0.007599 0.000000 0.002831 0.000000
# 4 0.000000 0.000000 0.000000 0.030972 0.000000 0.009801
# 5 -0.000866 -0.001386 0.002831 0.000000 0.043242 0.000000
# 6 0.000000 0.000000 0.000000 0.009801 0.000000 0.041383
#
#
# Mechanical properties :
#
#
# Convention : Reuss Voigt Hill
#
# Bulk Modulus (GPa) = 44.88685 58.53781 51.71233
# Shear Modulus (GPa) = 28.30416 32.52080 30.41248
#
# Velocity S-wave (km/s) = 3.66206 3.92538 3.79600
# Velocity P-wave (km/s) = 6.25689 6.94841 6.61169
#
# Compressibility (1/GPa) = 0.02227824
#
# Stress axis : x y z
#
# Youngs Moduli (GPa) = 67.67929 64.18943 131.59211
#
# Poissons Ratio (x) = 0.05226 0.31858
# Poissons Ratio (y) = 0.05510 0.60567
# Poissons Ratio (z) = 0.16385 0.29544
#
# Static dielectric constant tensor:
#      x y z
#    x 3.838220 0.000000 -0.087350 
#    y 0.000000 3.915870 0.000000 
#    z -0.087350 0.000000 4.352700 
# 
# 
# High freq. dielectric constant tensor:
#      x y z
#    x 1.834630 0.000000 -0.011420 
#    y 0.000000 1.807280 0.000000 
#    z -0.011420 0.000000 1.840700 
# 
# From -- ./inp_files/20670.got.cif
#   From: 2010.03.12/outbox.cif.g09.slc.cpg/sg14_11_cif.got.tgz:20670.got - 2010.03.31 13:35:05.
