data_PCOD8126547
_publ_section_title
;
Structure prediction by ZEFSAII (Michael W. Deem and Ramdas Pophale) SiO2 
 PCOD8126547
Probable space group: P 21/C
;
_chemical_formula_sum "Si O2"
_cell_formula_units_Z 28
_cell_length_a 16.331306
_cell_length_b 12.643839
_cell_length_c 9.541529
_cell_angle_alpha 90.000000
_cell_angle_beta 140.622291
_cell_angle_gamma 90.000000
_cell_volume 1249.975337
_symmetry_space_group_name_H-M "P 21/C"
_symmetry_group_IT_number 14
_symmetry_cell_setting 'monoclinic'
loop_
_space_group_symop_operation_xyz
x,y,z
-x,1/2+y,1/2-z
-x,-y,-z
x,1/2-y,1/2+z
loop_
_atom_site_type_symbol
_atom_site_label
_atom_site_fract_x
_atom_site_fract_y
_atom_site_fract_z
Si Si1 0.745304 0.700364 0.542602
Si Si2 0.638161 0.582931 0.973299
Si Si3 0.425042 0.686484 0.875333
Si Si4 0.990853 0.257337 0.489069
Si Si5 0.867259 0.572789 0.464806
Si Si6 0.482524 0.874270 0.762794
Si Si7 0.861279 0.355265 0.574004
O O1 0.676454 0.815122 0.430750
O O2 0.792989 0.662039 0.455593
O O3 0.638851 0.620436 0.465621
O O4 0.866541 0.707167 0.807839
O O5 0.538568 0.614000 0.964008
O O6 0.574635 0.491876 0.793532
O O7 0.767017 0.534117 0.213422
O O8 0.436872 0.806877 0.836596
O O9 0.291539 0.639238 0.642990
O O10 0.430793 0.681617 0.051393
O O11 0.924237 0.271295 0.550927
O O12 0.900887 0.179075 0.281908
O O13 0.006410 0.372695 0.436741
O O14 0.915572 0.473605 0.619960
#
# Coordination Sequence:
#
# PCOD8126547 Si02
#       7
#     4   4   4   4   4   4   4
#     4  10  22  41  69  95 132 165 220 273 313 390
#     4  10  21  40  70  96 126 171 217 263 333 396
#     4  11  22  38  65  97 131 162 213 274 320 381
#     4  11  25  44  61  97 131 174 223 264 313 386
#     4  11  21  43  72  90 125 180 218 261 328 387
#     4  11  21  40  68 100 125 170 213 268 331 384
#     4  12  24  41  68  91 135 172 217 267 318 386
#
# _framework density 22.400442999999999
#
# number of rings (size 3 to 8) (size 9 to 14) (size 15 to 20)
#    0.000    1.143    4.286    2.571    0.000    0.571 
#    0.000    2.857    9.429    0.000    0.000    0.000 
#    0.000    0.000    0.000    0.000    0.000    0.000 
#
# Total GULP energy -347273.408944 kJ/mol
# GULP energy per Si atom -12402.621748 kJ/mol
# Density = 2.234946 g / cm^3
# Si number density = 22.400443 Si / 1000 Ang^3
#
#
#
# Elastic Constant Matrix: (Units=GPa)
#
#
# Indices 1 2 3 4 5 6 
#
# 1 56.5571 9.3237 7.7313 0.0000 -3.1588 0.0000
# 2 9.3237 82.8648 21.8439 0.0000 -5.9957 0.0000
# 3 7.7313 21.8439 91.2736 0.0000 8.2320 0.0000
# 4 0.0000 0.0000 0.0000 34.6673 0.0000 -1.9254
# 5 -3.1588 -5.9957 8.2320 0.0000 23.2067 0.0000
# 6 0.0000 0.0000 0.0000 -1.9254 0.0000 25.6029
#
#
#
# Elastic Compliance Matrix: (Units=1/GPa)
#
#
# Indices 1 2 3 4 5 6 
#
# 1 0.018268 -0.001491 -0.001426 0.000000 0.002607 0.000000
# 2 -0.001491 0.013488 -0.003510 0.000000 0.004527 0.000000
# 3 -0.001426 -0.003510 0.012413 0.000000 -0.005504 0.000000
# 4 0.000000 0.000000 0.000000 0.028967 0.000000 0.002178
# 5 0.002607 0.004527 -0.005504 0.000000 0.046568 0.000000
# 6 0.000000 0.000000 0.000000 0.002178 0.000000 0.039222
#
#
# Mechanical properties :
#
#
# Convention : Reuss Voigt Hill
#
# Bulk Modulus (GPa) = 31.93271 34.27703 33.10487
# Shear Modulus (GPa) = 27.43969 29.48183 28.46076
#
# Velocity S-wave (km/s) = 3.50374 3.63178 3.56834
# Velocity P-wave (km/s) = 5.53666 5.73774 5.63810
#
# Compressibility (1/GPa) = 0.03131585
#
# Stress axis : x y z
#
# Youngs Moduli (GPa) = 54.74196 74.13739 80.55859
#
# Poissons Ratio (x) = 0.11054 0.11485
# Poissons Ratio (y) = 0.08162 0.28277
# Poissons Ratio (z) = 0.07804 0.26023
#
# Static dielectric constant tensor:
#      x y z
#    x 3.955970 0.000000 0.188970 
#    y 0.000000 3.989710 0.000000 
#    z 0.188970 0.000000 4.004020 
# 
# 
# High freq. dielectric constant tensor:
#      x y z
#    x 1.876090 0.000000 0.014460 
#    y 0.000000 1.875310 0.000000 
#    z 0.014460 0.000000 1.879160 
# 
# From -- ./inp_files/16348.got.cif
#   From: 2010.03.12/outbox.cif.g09.slc.cpg/sg14_9_cif.got.tgz:16348.got - 2010.03.31 13:35:05.
