data_PCOD8126156
_publ_section_title
;
Structure prediction by ZEFSAII (Michael W. Deem and Ramdas Pophale) SiO2 
 PCOD8126156
Probable space group: P 21/C
;
_chemical_formula_sum "Si O2"
_cell_formula_units_Z 20
_cell_length_a 7.348225
_cell_length_b 9.340123
_cell_length_c 23.215641
_cell_angle_alpha 90.000000
_cell_angle_beta 142.021030
_cell_angle_gamma 90.000000
_cell_volume 980.513536
_symmetry_space_group_name_H-M "P 21/C"
_symmetry_group_IT_number 14
_symmetry_cell_setting 'monoclinic'
loop_
_space_group_symop_operation_xyz
x,y,z
-x,1/2+y,1/2-z
-x,-y,-z
x,1/2-y,1/2+z
loop_
_atom_site_type_symbol
_atom_site_label
_atom_site_fract_x
_atom_site_fract_y
_atom_site_fract_z
Si Si1 0.100064 0.338501 0.017451
Si Si2 0.260124 0.770319 0.293771
Si Si3 0.688471 0.939907 0.181351
Si Si4 0.132315 0.913168 0.978915
Si Si5 0.209294 0.852986 0.151634
O O1 0.453983 0.329379 0.101183
O O2 0.991394 0.248603 0.046920
O O3 0.000000 0.500000 0.000000
O O4 0.960110 0.274053 0.924270
O O5 0.216236 0.603260 0.292171
O O6 0.299290 0.800249 0.236336
O O7 0.977947 0.844660 0.250900
O O8 0.509265 0.894338 0.193468
O O9 0.488167 0.914196 0.073652
O O10 0.003346 0.004679 0.893142
O O11 0.000000 0.000000 0.000000
#
# Coordination Sequence:
#
# PCOD8126156 Si02
#       5
#     4   4   4   4   4
#     4  10  21  38  63  95 125 158 210 264 298 366
#     4  12  24  40  66  93 128 160 211 258 310 370
#     4  10  23  41  60  95 123 158 212 261 299 371
#     4   8  16  42  60  77 124 165 199 243 306 365
#     4  10  22  44  66  82 125 179 201 241 326 372
#
# _framework density 20.397475
#
# number of rings (size 3 to 8) (size 9 to 14) (size 15 to 20)
#    0.000    2.400    6.000    0.000    8.400    0.800 
#    0.000    3.000    0.000    0.000    0.000    0.000 
#    0.000    0.000    0.000    0.000    0.000    0.000 
#
# Total GULP energy -247894.665099 kJ/mol
# GULP energy per Si atom -12394.733255 kJ/mol
# Density = 2.035105 g / cm^3
# Si number density = 20.397475 Si / 1000 Ang^3
#
#
#
# Elastic Constant Matrix: (Units=GPa)
#
#
# Indices 1 2 3 4 5 6 
#
# 1 67.1408 45.1060 43.2692 0.0000 25.1992 0.0000
# 2 45.1060 170.0325 60.5138 0.0000 26.5846 0.0000
# 3 43.2692 60.5138 88.4662 0.0000 32.9913 0.0000
# 4 0.0000 0.0000 0.0000 31.1680 0.0000 15.3996
# 5 25.1992 26.5846 32.9913 0.0000 37.7678 0.0000
# 6 0.0000 0.0000 0.0000 15.3996 0.0000 22.1401
#
#
#
# Elastic Compliance Matrix: (Units=1/GPa)
#
#
# Indices 1 2 3 4 5 6 
#
# 1 0.024270 -0.002669 -0.006980 0.000000 -0.008217 0.000000
# 2 -0.002669 0.008106 -0.004116 0.000000 -0.000329 0.000000
# 3 -0.006980 -0.004116 0.021826 0.000000 -0.011511 0.000000
# 4 0.000000 0.000000 0.000000 0.048884 0.000000 -0.034001
# 5 -0.008217 -0.000329 -0.011511 0.000000 0.042247 0.000000
# 6 0.000000 0.000000 0.000000 -0.034001 0.000000 0.068816
#
#
# Mechanical properties :
#
#
# Convention : Reuss Voigt Hill
#
# Bulk Modulus (GPa) = 37.49555 69.26859 53.38207
# Shear Modulus (GPa) = 19.95444 29.99853 24.97649
#
# Velocity S-wave (km/s) = 3.13114 3.83913 3.50307
# Velocity P-wave (km/s) = 5.61199 7.32700 6.52608
#
# Compressibility (1/GPa) = 0.02666983
#
# Stress axis : x y z
#
# Youngs Moduli (GPa) = 41.20359 123.36904 45.81596
#
# Poissons Ratio (x) = 0.32931 0.31981
# Poissons Ratio (y) = 0.10998 0.18860
# Poissons Ratio (z) = 0.28762 0.50784
#
# Static dielectric constant tensor:
#      x y z
#    x 3.399450 0.000000 0.111110 
#    y 0.000000 4.040920 0.000000 
#    z 0.111110 0.000000 4.123930 
# 
# 
# High freq. dielectric constant tensor:
#      x y z
#    x 1.762650 0.000000 0.020440 
#    y 0.000000 1.807890 0.000000 
#    z 0.020440 0.000000 1.807770 
# 
# From -- ./inp_files/54351.got.cif
#   From: 2010.03.12/outbox.cif.g09.slc.cpg/sg14_28_cif.got.tgz:54351.got - 2010.03.31 13:35:05.
