data_PCOD8126384
_publ_section_title
;
Structure prediction by ZEFSAII (Michael W. Deem and Ramdas Pophale) SiO2 
 PCOD8126384
Probable space group: P 21/C
;
_chemical_formula_sum "Si O2"
_cell_formula_units_Z 32
_cell_length_a 11.349916
_cell_length_b 5.274611
_cell_length_c 29.188750
_cell_angle_alpha 90.000000
_cell_angle_beta 124.707061
_cell_angle_gamma 90.000000
_cell_volume 1436.512564
_symmetry_space_group_name_H-M "P 21/C"
_symmetry_group_IT_number 14
_symmetry_cell_setting 'monoclinic'
loop_
_space_group_symop_operation_xyz
x,y,z
-x,1/2+y,1/2-z
-x,-y,-z
x,1/2-y,1/2+z
loop_
_atom_site_type_symbol
_atom_site_label
_atom_site_fract_x
_atom_site_fract_y
_atom_site_fract_z
Si Si1 0.831175 0.612997 0.728186
Si Si2 0.753387 0.990966 0.940214
Si Si3 0.317374 0.183388 0.715557
Si Si4 0.650696 0.585501 0.512598
Si Si5 0.813391 0.412626 0.076589
Si Si6 0.626616 0.313925 0.324156
Si Si7 0.001034 0.303521 0.039600
Si Si8 0.155964 0.609988 0.810527
O O1 0.812795 0.630437 0.778757
O O2 0.761255 0.360046 0.689982
O O3 0.998955 0.609466 0.753101
O O4 0.759845 0.861073 0.688781
O O5 0.835878 0.801773 0.923202
O O6 0.661221 0.170631 0.886228
O O7 0.646352 0.879001 0.955698
O O8 0.879084 0.104385 0.999196
O O9 0.299701 0.456888 0.687926
O O10 0.457510 0.168177 0.778820
O O11 0.315244 0.959153 0.678036
O O12 0.500000 0.500000 0.500000
O O13 0.753215 0.360154 0.550261
O O14 0.702666 0.856437 0.543918
O O15 0.958761 0.441102 0.078180
O O16 0.857954 0.402023 0.138563
O O17 0.000000 0.500000 0.000000
#
# Coordination Sequence:
#
# PCOD8126384 Si02
#       8
#     4   4   4   4   4   4   4   4
#     4  10  21  40  59  85 124 154 198 248 298 356
#     4  10  23  39  61  94 124 165 207 254 320 365
#     4  10  22  42  59  90 122 156 203 251 296 367
#     4  11  24  43  62  89 127 161 206 255 301 377
#     4  11  23  40  63  91 123 160 210 251 310 370
#     4  10  23  38  62  90 120 157 205 247 301 364
#     4  10  21  40  61  91 129 157 205 264 302 375
#     4  10  22  37  59  90 116 157 200 245 298 360
#
# _framework density 22.276171999999999
#
# number of rings (size 3 to 8) (size 9 to 14) (size 15 to 20)
#    0.000    1.750    1.250    1.875    3.500    2.000 
#    0.000    0.000    0.000    0.000    0.000    0.000 
#    0.000    0.000    0.000    0.000    0.000    0.000 
#
# Total GULP energy -396512.877364 kJ/mol
# GULP energy per Si atom -12391.027418 kJ/mol
# Density = 2.222547 g / cm^3
# Si number density = 22.276172 Si / 1000 Ang^3
#
#
#
# Elastic Constant Matrix: (Units=GPa)
#
#
# Indices 1 2 3 4 5 6 
#
# 1 70.8420 1.7027 17.2608 0.0000 -18.9633 0.0000
# 2 1.7027 121.3299 24.4393 0.0000 -3.8736 0.0000
# 3 17.2608 24.4393 96.0473 0.0000 -20.5016 0.0000
# 4 0.0000 0.0000 0.0000 28.7424 0.0000 -10.5296
# 5 -18.9633 -3.8736 -20.5016 0.0000 26.3402 0.0000
# 6 0.0000 0.0000 0.0000 -10.5296 0.0000 23.3464
#
#
#
# Elastic Compliance Matrix: (Units=1/GPa)
#
#
# Indices 1 2 3 4 5 6 
#
# 1 0.017518 0.000267 -0.000619 0.000000 0.012170 0.000000
# 2 0.000267 0.008698 -0.002335 0.000000 -0.000346 0.000000
# 3 -0.000619 -0.002335 0.013130 0.000000 0.009431 0.000000
# 4 0.000000 0.000000 0.000000 0.041678 0.000000 0.018797
# 5 0.012170 -0.000346 0.009431 0.000000 0.054016 0.000000
# 6 0.000000 0.000000 0.000000 0.018797 0.000000 0.051311
#
#
# Mechanical properties :
#
#
# Convention : Reuss Voigt Hill
#
# Bulk Modulus (GPa) = 29.43529 41.66942 35.55235
# Shear Modulus (GPa) = 24.62488 32.00690 28.31589
#
# Velocity S-wave (km/s) = 3.32842 3.79466 3.56916
# Velocity P-wave (km/s) = 5.29279 6.16000 5.74279
#
# Compressibility (1/GPa) = 0.03397283
#
# Stress axis : x y z
#
# Youngs Moduli (GPa) = 57.08466 114.97524 76.16230
#
# Poissons Ratio (x) = -0.03073 0.04711
# Poissons Ratio (y) = -0.01526 0.17784
# Poissons Ratio (z) = 0.03531 0.26846
#
# Static dielectric constant tensor:
#      x y z
#    x 4.045200 0.000000 -0.427080 
#    y 0.000000 4.284700 0.000000 
#    z -0.427080 0.000000 3.827980 
# 
# 
# High freq. dielectric constant tensor:
#      x y z
#    x 1.865470 0.000000 -0.021650 
#    y 0.000000 1.888270 0.000000 
#    z -0.021650 0.000000 1.872970 
# 
# From -- ./inp_files/72850.got.cif
#   From: 2010.03.12/outbox.cif.g09.slc.cpg/sg14_37_cif.got.tgz:72850.got - 2010.03.31 13:35:05.
