data_PCOD8126484
_publ_section_title
;
Structure prediction by ZEFSAII (Michael W. Deem and Ramdas Pophale) SiO2 
 PCOD8126484
Probable space group: P 21/C
;
_chemical_formula_sum "Si O2"
_cell_formula_units_Z 28
_cell_length_a 10.747186
_cell_length_b 14.949173
_cell_length_c 8.832787
_cell_angle_alpha 90.000000
_cell_angle_beta 108.710772
_cell_angle_gamma 90.000000
_cell_volume 1344.090300
_symmetry_space_group_name_H-M "P 21/C"
_symmetry_group_IT_number 14
_symmetry_cell_setting 'monoclinic'
loop_
_space_group_symop_operation_xyz
x,y,z
-x,1/2+y,1/2-z
-x,-y,-z
x,1/2-y,1/2+z
loop_
_atom_site_type_symbol
_atom_site_label
_atom_site_fract_x
_atom_site_fract_y
_atom_site_fract_z
Si Si1 0.964968 0.625261 0.146468
Si Si2 0.436562 0.679541 0.338393
Si Si3 0.274281 0.143947 0.951630
Si Si4 0.874315 0.750089 0.854711
Si Si5 0.763566 0.031815 0.214876
Si Si6 0.551799 0.139558 0.508768
Si Si7 0.696801 0.534002 0.010251
O O1 0.976555 0.696213 0.288467
O O2 0.838485 0.563025 0.126607
O O3 0.089787 0.561674 0.187248
O O4 0.955057 0.677657 0.983369
O O5 0.570386 0.651262 0.471367
O O6 0.322971 0.617214 0.364239
O O7 0.443855 0.670938 0.161912
O O8 0.399468 0.781290 0.363863
O O9 0.233411 0.199556 0.787850
O O10 0.234700 0.039616 0.920598
O O11 0.201667 0.180207 0.070419
O O12 0.698109 0.982250 0.331810
O O13 0.402590 0.114962 0.494256
O O14 0.648506 0.055697 0.576753
#
# Coordination Sequence:
#
# PCOD8126484 Si02
#       7
#     4   4   4   4   4   4   4
#     4  11  22  43  64  94 127 168 208 257 307 383
#     4  11  23  41  62  94 126 164 206 265 309 377
#     4  11  21  41  63  93 119 166 208 265 305 375
#     4  10  23  39  69  90 120 165 217 253 311 369
#     4  11  25  39  64  93 132 163 207 254 324 367
#     4  10  23  41  65  93 126 163 215 257 322 359
#     4  10  21  40  65  92 121 170 208 254 311 379
#
# _framework density 20.831935999999999
#
# number of rings (size 3 to 8) (size 9 to 14) (size 15 to 20)
#    0.000    1.429    1.429    4.286    2.000    2.857 
#    7.714    0.000    0.000    0.000    0.000    0.000 
#    0.000    0.000    0.000    0.000    0.000    0.000 
#
# Total GULP energy -347352.672052 kJ/mol
# GULP energy per Si atom -12405.452573 kJ/mol
# Density = 2.078452 g / cm^3
# Si number density = 20.831936 Si / 1000 Ang^3
#
#
#
# Elastic Constant Matrix: (Units=GPa)
#
#
# Indices 1 2 3 4 5 6 
#
# 1 69.2413 41.3894 35.2847 0.0000 -3.4804 0.0000
# 2 41.3894 136.0040 49.8334 0.0000 -5.7198 0.0000
# 3 35.2847 49.8334 83.4188 0.0000 -8.2587 0.0000
# 4 0.0000 0.0000 0.0000 29.8281 0.0000 -2.8413
# 5 -3.4804 -5.7198 -8.2587 0.0000 21.2559 0.0000
# 6 0.0000 0.0000 0.0000 -2.8413 0.0000 20.3406
#
#
#
# Elastic Compliance Matrix: (Units=1/GPa)
#
#
# Indices 1 2 3 4 5 6 
#
# 1 0.019829 -0.003792 -0.006137 0.000000 -0.000158 0.000000
# 2 -0.003792 0.010141 -0.004415 0.000000 0.000392 0.000000
# 3 -0.006137 -0.004415 0.017685 0.000000 0.004678 0.000000
# 4 0.000000 0.000000 0.000000 0.033978 0.000000 0.004746
# 5 -0.000158 0.000392 0.004678 0.000000 0.048943 0.000000
# 6 0.000000 0.000000 0.000000 0.004746 0.000000 0.049826
#
#
# Mechanical properties :
#
#
# Convention : Reuss Voigt Hill
#
# Bulk Modulus (GPa) = 52.73028 60.18658 56.45843
# Shear Modulus (GPa) = 23.21133 25.09535 24.15334
#
# Velocity S-wave (km/s) = 3.34161 3.47458 3.40875
# Velocity P-wave (km/s) = 6.34474 6.71202 6.53096
#
# Compressibility (1/GPa) = 0.01896444
#
# Stress axis : x y z
#
# Youngs Moduli (GPa) = 50.43195 98.60863 56.54660
#
# Poissons Ratio (x) = 0.37394 0.34705
# Poissons Ratio (y) = 0.19125 0.24967
# Poissons Ratio (z) = 0.30952 0.43539
#
# Static dielectric constant tensor:
#      x y z
#    x 3.686200 0.000000 -0.123690 
#    y 0.000000 4.124660 0.000000 
#    z -0.123690 0.000000 3.708470 
# 
# 
# High freq. dielectric constant tensor:
#      x y z
#    x 1.809720 0.000000 -0.007370 
#    y 0.000000 1.834720 0.000000 
#    z -0.007370 0.000000 1.807130 
# 
# From -- ./inp_files/12987.got.cif
#   From: 2010.03.12/outbox.cif.g09.slc.cpg/sg14_7_cif.got.tgz:12987.got - 2010.03.31 13:35:05.
