data_PCOD8126978
_publ_section_title
;
Structure prediction by ZEFSAII (Michael W. Deem and Ramdas Pophale) SiO2 
 PCOD8126978
Probable space group: P 21/C
;
_chemical_formula_sum "Si O2"
_cell_formula_units_Z 32
_cell_length_a 28.763154
_cell_length_b 9.821309
_cell_length_c 17.446071
_cell_angle_alpha 90.000000
_cell_angle_beta 19.402096
_cell_angle_gamma 90.000000
_cell_volume 1637.183809
_symmetry_space_group_name_H-M "P 21/C"
_symmetry_group_IT_number 14
_symmetry_cell_setting 'monoclinic'
loop_
_space_group_symop_operation_xyz
x,y,z
-x,1/2+y,1/2-z
-x,-y,-z
x,1/2-y,1/2+z
loop_
_atom_site_type_symbol
_atom_site_label
_atom_site_fract_x
_atom_site_fract_y
_atom_site_fract_z
Si Si1 0.107386 0.137398 0.384900
Si Si2 0.112871 0.920287 0.075112
Si Si3 0.098659 0.193571 0.037242
Si Si4 0.471070 0.976583 0.719456
Si Si5 0.167558 0.006302 0.151295
Si Si6 0.402219 0.791631 0.574543
Si Si7 0.593837 0.756463 0.425039
Si Si8 0.630635 0.491894 0.456378
O O1 0.117024 0.276922 0.417551
O O2 0.946013 0.094071 0.634597
O O3 0.158374 0.147538 0.216185
O O4 0.210047 0.027182 0.266868
O O5 0.257694 0.864570 0.818943
O O6 0.135334 0.021732 0.112532
O O7 0.011577 0.795565 0.251486
O O8 0.049662 0.034827 0.115918
O O9 0.246276 0.219937 0.850325
O O10 0.570728 0.860031 0.531571
O O11 0.471864 0.979916 0.810632
O O12 0.516626 0.123410 0.616273
O O13 0.317572 0.937383 0.927819
O O14 0.494756 0.784487 0.507129
O O15 0.367632 0.645499 0.594462
O O16 0.567664 0.605537 0.497642
#
# Coordination Sequence:
#
# PCOD8126978 Si02
#       8
#     4   4   4   4   4   4   4   4
#     4   8  18  36  58  83 113 148 200 235 281 347
#     4  11  22  37  62  89 117 152 198 242 297 348
#     4  10  22  37  59  87 116 153 193 245 290 350
#     4  11  20  38  61  84 114 158 202 238 289 353
#     4   9  17  34  59  86 106 152 197 236 276 353
#     4  12  23  38  59  89 119 152 197 250 290 349
#     4  11  21  40  59  89 119 151 197 245 291 350
#     4  10  23  37  58  86 122 158 188 245 303 345
#
# _framework density 19.545757999999999
#
# number of rings (size 3 to 8) (size 9 to 14) (size 15 to 20)
#    0.000    1.750    2.500    2.250    5.250    0.000 
#    0.000    0.000    0.000    0.750    0.000    0.000 
#    0.000    0.000    0.000    0.000    0.000    0.000 
#
# Total GULP energy -396524.795280 kJ/mol
# GULP energy per Si atom -12391.399853 kJ/mol
# Density = 1.950127 g / cm^3
# Si number density = 19.545758 Si / 1000 Ang^3
#
#
#
# Elastic Constant Matrix: (Units=GPa)
#
#
# Indices 1 2 3 4 5 6 
#
# 1 54.3656 36.9127 35.0582 0.0000 11.4895 0.0000
# 2 36.9127 111.3553 37.2281 0.0000 5.2486 0.0000
# 3 35.0582 37.2281 94.0920 0.0000 2.8448 0.0000
# 4 0.0000 0.0000 0.0000 17.9123 0.0000 2.0936
# 5 11.4895 5.2486 2.8448 0.0000 28.4729 0.0000
# 6 0.0000 0.0000 0.0000 2.0936 0.0000 24.1989
#
#
#
# Elastic Compliance Matrix: (Units=1/GPa)
#
#
# Indices 1 2 3 4 5 6 
#
# 1 0.030632 -0.006867 -0.008386 0.000000 -0.010257 0.000000
# 2 -0.006867 0.011953 -0.002195 0.000000 0.000787 0.000000
# 3 -0.008386 -0.002195 0.014550 0.000000 0.002335 0.000000
# 4 0.000000 0.000000 0.000000 0.056398 0.000000 -0.004879
# 5 -0.010257 0.000787 0.002335 0.000000 0.038882 0.000000
# 6 0.000000 0.000000 0.000000 -0.004879 0.000000 0.041746
#
#
# Mechanical properties :
#
#
# Convention : Reuss Voigt Hill
#
# Bulk Modulus (GPa) = 44.96410 53.13455 49.04933
# Shear Modulus (GPa) = 21.14428 24.15774 22.65101
#
# Velocity S-wave (km/s) = 3.29262 3.51943 3.40791
# Velocity P-wave (km/s) = 6.12451 6.61505 6.37450
#
# Compressibility (1/GPa) = 0.02223996
#
# Stress axis : x y z
#
# Youngs Moduli (GPa) = 32.64542 83.65995 68.72719
#
# Poissons Ratio (x) = 0.57449 0.57637
# Poissons Ratio (y) = 0.22417 0.15082
# Poissons Ratio (z) = 0.27378 0.18359
#
# Static dielectric constant tensor:
#      x y z
#    x 3.725720 0.000000 0.183930 
#    y 0.000000 3.459760 0.000000 
#    z 0.183930 0.000000 3.782580 
# 
# 
# High freq. dielectric constant tensor:
#      x y z
#    x 1.755640 0.000000 0.010860 
#    y 0.000000 1.742640 0.000000 
#    z 0.010860 0.000000 1.780590 
# 
# From -- ./inp_files/62665.got.cif
#   From: 2010.03.12/outbox.cif.g09.slc.cpg/sg14_32_cif.got.tgz:62665.got - 2010.03.31 13:35:05.
