data_PCOD8126383
_publ_section_title
;
Structure prediction by ZEFSAII (Michael W. Deem and Ramdas Pophale) SiO2 
 PCOD8126383
Probable space group: P 21/C
;
_chemical_formula_sum "Si O2"
_cell_formula_units_Z 28
_cell_length_a 7.095279
_cell_length_b 12.021813
_cell_length_c 21.189414
_cell_angle_alpha 90.000000
_cell_angle_beta 131.061531
_cell_angle_gamma 90.000000
_cell_volume 1362.800808
_symmetry_space_group_name_H-M "P 21/C"
_symmetry_group_IT_number 14
_symmetry_cell_setting 'monoclinic'
loop_
_space_group_symop_operation_xyz
x,y,z
-x,1/2+y,1/2-z
-x,-y,-z
x,1/2-y,1/2+z
loop_
_atom_site_type_symbol
_atom_site_label
_atom_site_fract_x
_atom_site_fract_y
_atom_site_fract_z
Si Si1 0.496728 0.675723 0.114540
Si Si2 0.247349 0.134142 0.756531
Si Si3 0.003002 0.712554 0.534135
Si Si4 0.477897 0.788405 0.466678
Si Si5 0.733355 0.056488 0.684315
Si Si6 0.027672 0.187239 0.119809
Si Si7 0.260531 0.954426 0.178191
O O1 0.666928 0.783446 0.168015
O O2 0.221945 0.693725 0.085887
O O3 0.623638 0.566496 0.170001
O O4 0.470527 0.656672 0.034006
O O5 0.459523 0.044291 0.787354
O O6 0.019571 0.055446 0.725572
O O7 0.178061 0.207414 0.679994
O O8 0.948810 0.685599 0.450016
O O9 0.085226 0.601545 0.587892
O O10 0.753214 0.744559 0.515378
O O11 0.432856 0.877981 0.402276
O O12 0.260829 0.693526 0.418833
O O13 0.728991 0.112829 0.752914
O O14 0.155058 0.075462 0.172208
#
# Coordination Sequence:
#
# PCOD8126383 Si02
#       7
#     4   4   4   4   4   4   4
#     4  10  21  40  59  85 124 152 198 253 285 353
#     4  10  22  40  58  88 124 154 200 250 292 350
#     4  10  22  38  60  87 119 158 199 243 296 352
#     4  10  22  38  60  87 119 158 199 243 296 352
#     4  11  22  38  61  88 119 161 198 242 303 352
#     4  10  21  40  59  85 124 152 198 253 285 353
#     4  11  22  38  61  88 119 161 198 242 303 352
#
# _framework density 20.545921
#
# number of rings (size 3 to 8) (size 9 to 14) (size 15 to 20)
#    0.000    1.714    1.429    2.571    0.000    3.429 
#    2.571    0.000    0.000    0.000    0.000    0.000 
#    0.000    0.000    0.000    0.000    0.000    0.000 
#
# Total GULP energy -347115.993642 kJ/mol
# GULP energy per Si atom -12396.999773 kJ/mol
# Density = 2.049916 g / cm^3
# Si number density = 20.545921 Si / 1000 Ang^3
#
#
#
# Elastic Constant Matrix: (Units=GPa)
#
#
# Indices 1 2 3 4 5 6 
#
# 1 102.5065 37.9704 22.1746 0.0000 22.8507 0.0000
# 2 37.9704 70.2949 20.2943 0.0000 9.2408 0.0000
# 3 22.1746 20.2943 101.3950 0.0000 -5.5449 0.0000
# 4 0.0000 0.0000 0.0000 12.6101 0.0000 4.4481
# 5 22.8507 9.2408 -5.5449 0.0000 48.8461 0.0000
# 6 0.0000 0.0000 0.0000 4.4481 0.0000 26.0255
#
#
#
# Elastic Compliance Matrix: (Units=1/GPa)
#
#
# Indices 1 2 3 4 5 6 
#
# 1 0.013674 -0.006066 -0.002076 0.000000 -0.005485 0.000000
# 2 -0.006066 0.018309 -0.002387 0.000000 -0.000897 0.000000
# 3 -0.002076 -0.002387 0.010940 0.000000 0.002665 0.000000
# 4 0.000000 0.000000 0.000000 0.084390 0.000000 -0.014423
# 5 -0.005485 -0.000897 0.002665 0.000000 0.023511 0.000000
# 6 0.000000 0.000000 0.000000 -0.014423 0.000000 0.040889
#
#
# Mechanical properties :
#
#
# Convention : Reuss Voigt Hill
#
# Bulk Modulus (GPa) = 45.73502 48.34169 47.03835
# Shear Modulus (GPa) = 22.72109 30.41347 26.56728
#
# Velocity S-wave (km/s) = 3.32907 3.85160 3.59983
# Velocity P-wave (km/s) = 6.08976 6.58479 6.34211
#
# Compressibility (1/GPa) = 0.02186508
#
# Stress axis : x y z
#
# Youngs Moduli (GPa) = 73.13010 54.61683 91.40740
#
# Poissons Ratio (x) = 0.33129 0.18980
# Poissons Ratio (y) = 0.44359 0.21820
# Poissons Ratio (z) = 0.15185 0.13038
#
# Static dielectric constant tensor:
#      x y z
#    x 3.792750 0.000000 0.044060 
#    y 0.000000 3.369540 0.000000 
#    z 0.044060 0.000000 4.060840 
# 
# 
# High freq. dielectric constant tensor:
#      x y z
#    x 1.809440 0.000000 0.000260 
#    y 0.000000 1.773700 0.000000 
#    z 0.000260 0.000000 1.835190 
# 
# From -- ./inp_files/63598.got.cif
#   From: 2010.03.12/outbox.cif.g09.slc.cpg/sg14_32_cif.got.tgz:63598.got - 2010.03.31 13:35:05.
