data_PCOD8126928
_publ_section_title
;
Structure prediction by ZEFSAII (Michael W. Deem and Ramdas Pophale) SiO2 
 PCOD8126928
Probable space group: P 21/C
;
_chemical_formula_sum "Si O2"
_cell_formula_units_Z 24
_cell_length_a 22.603775
_cell_length_b 7.818910
_cell_length_c 11.381975
_cell_angle_alpha 90.000000
_cell_angle_beta 151.925527
_cell_angle_gamma 90.000000
_cell_volume 946.703773
_symmetry_space_group_name_H-M "P 21/C"
_symmetry_group_IT_number 14
_symmetry_cell_setting 'monoclinic'
loop_
_space_group_symop_operation_xyz
x,y,z
-x,1/2+y,1/2-z
-x,-y,-z
x,1/2-y,1/2+z
loop_
_atom_site_type_symbol
_atom_site_label
_atom_site_fract_x
_atom_site_fract_y
_atom_site_fract_z
Si Si1 0.094774 0.476345 0.864934
Si Si2 0.327044 0.055221 0.145874
Si Si3 0.544347 0.209318 0.043703
Si Si4 0.718363 0.018778 0.509634
Si Si5 0.728851 0.355168 0.663360
Si Si6 0.834247 0.625551 0.422104
O O1 0.172338 0.448267 0.881975
O O2 0.949164 0.505165 0.582273
O O3 0.154997 0.634768 0.042464
O O4 0.114176 0.315809 0.984072
O O5 0.394819 0.246056 0.269945
O O6 0.209064 0.064391 0.025549
O O7 0.409408 0.890709 0.324401
O O8 0.284914 0.029003 0.937089
O O9 0.582872 0.051134 0.202919
O O10 0.601889 0.176057 0.016183
O O11 0.758631 0.205304 0.625071
O O12 0.718774 0.896497 0.625816
#
# Coordination Sequence:
#
# PCOD8126928 Si02
#       6
#     4   4   4   4   4   4
#     4  11  27  43  69 105 143 192 236 292 354 423
#     4  10  22  42  71 105 134 186 238 292 354 421
#     4   9  20  45  70 100 135 184 235 291 359 415
#     4  10  22  46  72  98 140 189 233 295 354 415
#     4  10  21  45  73  97 144 184 236 293 358 416
#     4  12  25  45  70 104 147 185 244 289 355 420
#
# _framework density 25.351116999999999
#
# number of rings (size 3 to 8) (size 9 to 14) (size 15 to 20)
#    0.000    1.667    1.667    1.500    7.000    0.667 
#   12.000    1.667    0.000    0.000    0.000    0.000 
#    0.000    0.000    0.000    0.000    0.000    0.000 
#
# Total GULP energy -297528.107747 kJ/mol
# GULP energy per Si atom -12397.004489 kJ/mol
# Density = 2.529342 g / cm^3
# Si number density = 25.351117 Si / 1000 Ang^3
#
#
#
# Elastic Constant Matrix: (Units=GPa)
#
#
# Indices 1 2 3 4 5 6 
#
# 1 117.7466 23.7200 54.1925 0.0000 -6.5157 0.0000
# 2 23.7200 74.6505 18.4572 0.0000 -12.7336 0.0000
# 3 54.1925 18.4572 113.7978 0.0000 -6.2972 0.0000
# 4 0.0000 0.0000 0.0000 25.6868 0.0000 -5.5493
# 5 -6.5157 -12.7336 -6.2972 0.0000 41.1980 0.0000
# 6 0.0000 0.0000 0.0000 -5.5493 0.0000 37.4910
#
#
#
# Elastic Compliance Matrix: (Units=1/GPa)
#
#
# Indices 1 2 3 4 5 6 
#
# 1 0.011261 -0.002296 -0.004973 0.000000 0.000311 0.000000
# 2 -0.002296 0.015109 -0.001129 0.000000 0.004135 0.000000
# 3 -0.004973 -0.001129 0.011372 0.000000 0.000603 0.000000
# 4 0.000000 0.000000 0.000000 0.040216 0.000000 0.005953
# 5 0.000311 0.004135 0.000603 0.000000 0.025692 0.000000
# 6 0.000000 0.000000 0.000000 0.005953 0.000000 0.027554
#
#
# Mechanical properties :
#
#
# Convention : Reuss Voigt Hill
#
# Bulk Modulus (GPa) = 47.73697 55.43713 51.58705
# Shear Modulus (GPa) = 32.26138 34.86351 33.56244
#
# Velocity S-wave (km/s) = 3.57120 3.71243 3.64250
# Velocity P-wave (km/s) = 5.98964 6.34755 6.17119
#
# Compressibility (1/GPa) = 0.02094812
#
# Stress axis : x y z
#
# Youngs Moduli (GPa) = 88.79847 66.18369 87.93261
#
# Poissons Ratio (x) = 0.15193 0.43732
# Poissons Ratio (y) = 0.20384 0.09925
# Poissons Ratio (z) = 0.44163 0.07470
#
# Static dielectric constant tensor:
#      x y z
#    x 4.274650 0.000000 -0.313300 
#    y 0.000000 4.903600 0.000000 
#    z -0.313300 0.000000 4.935550 
# 
# 
# High freq. dielectric constant tensor:
#      x y z
#    x 1.998070 0.000000 -0.018470 
#    y 0.000000 2.042420 0.000000 
#    z -0.018470 0.000000 2.013200 
# 
# From -- ./inp_files/35779.got.cif
#   From: 2010.03.12/outbox.cif.g09.slc.cpg/sg14_18_cif.got.tgz:35779.got - 2010.03.31 13:35:05.
