data_PCOD8126775
_publ_section_title
;
Structure prediction by ZEFSAII (Michael W. Deem and Ramdas Pophale) SiO2 
 PCOD8126775
Probable space group: P 21/C
;
_chemical_formula_sum "Si O2"
_cell_formula_units_Z 32
_cell_length_a 11.654325
_cell_length_b 8.614876
_cell_length_c 14.630448
_cell_angle_alpha 90.000000
_cell_angle_beta 75.227811
_cell_angle_gamma 90.000000
_cell_volume 1420.353908
_symmetry_space_group_name_H-M "P 21/C"
_symmetry_group_IT_number 14
_symmetry_cell_setting 'monoclinic'
loop_
_space_group_symop_operation_xyz
x,y,z
-x,1/2+y,1/2-z
-x,-y,-z
x,1/2-y,1/2+z
loop_
_atom_site_type_symbol
_atom_site_label
_atom_site_fract_x
_atom_site_fract_y
_atom_site_fract_z
Si Si1 0.492991 0.267770 0.158682
Si Si2 0.698775 0.506006 0.065151
Si Si3 0.863868 0.513374 0.713523
Si Si4 0.127715 0.498370 0.631408
Si Si5 0.371927 0.023137 0.827144
Si Si6 0.121987 0.649011 0.098536
Si Si7 0.858778 0.866947 0.684093
Si Si8 0.655765 0.687546 0.481622
O O1 0.592087 0.389810 0.107356
O O2 0.399226 0.352312 0.242567
O O3 0.428204 0.176395 0.089399
O O4 0.551689 0.130617 0.205334
O O5 0.746068 0.605634 0.141907
O O6 0.808558 0.412853 0.002494
O O7 0.654924 0.629651 0.000565
O O8 0.765143 0.472530 0.657767
O O9 0.837238 0.430312 0.814986
O O10 0.860615 0.698189 0.731222
O O11 0.988750 0.456422 0.644546
O O12 0.156173 0.670733 0.593673
O O13 0.152639 0.494686 0.734659
O O14 0.211111 0.375884 0.562329
O O15 0.397971 0.092448 0.922179
O O16 0.983805 0.615744 0.106200
#
# Coordination Sequence:
#
# PCOD8126775 Si02
#       8
#     4   4   4   4   4   4   4   4
#     4  12  29  46  71 101 139 186 237 287 344 405
#     4  12  24  44  67 100 135 187 235 283 343 412
#     4  10  22  44  69 101 139 180 226 277 356 412
#     4  10  23  42  72 103 140 177 223 290 353 412
#     4  12  26  47  70 100 138 183 232 286 343 417
#     4  10  22  40  67 105 139 177 226 291 344 421
#     4  10  21  42  66  99 140 183 226 281 352 412
#     4  12  26  47  72  99 140 182 232 290 345 414
#
# _framework density 22.529596999999999
#
# number of rings (size 3 to 8) (size 9 to 14) (size 15 to 20)
#    0.000    1.000    1.250    4.875    3.500    2.500 
#    2.250    0.000    0.000    0.000    0.000    0.000 
#    0.000    0.000    0.000    0.000    0.000    0.000 
#
# Total GULP energy -396869.568361 kJ/mol
# GULP energy per Si atom -12402.174011 kJ/mol
# Density = 2.247832 g / cm^3
# Si number density = 22.529597 Si / 1000 Ang^3
#
#
#
# Elastic Constant Matrix: (Units=GPa)
#
#
# Indices 1 2 3 4 5 6 
#
# 1 118.1022 41.2861 37.2856 0.0000 4.5432 0.0000
# 2 41.2861 83.5831 30.7568 0.0000 -3.3547 0.0000
# 3 37.2856 30.7568 84.9112 0.0000 -8.1418 0.0000
# 4 0.0000 0.0000 0.0000 43.1296 0.0000 -3.4580
# 5 4.5432 -3.3547 -8.1418 0.0000 35.7923 0.0000
# 6 0.0000 0.0000 0.0000 -3.4580 0.0000 39.9166
#
#
#
# Elastic Compliance Matrix: (Units=1/GPa)
#
#
# Indices 1 2 3 4 5 6 
#
# 1 0.011221 -0.004318 -0.003617 0.000000 -0.002652 0.000000
# 2 -0.004318 0.015467 -0.003593 0.000000 0.001180 0.000000
# 3 -0.003617 -0.003593 0.015006 0.000000 0.003536 0.000000
# 4 0.000000 0.000000 0.000000 0.023348 0.000000 0.002023
# 5 -0.002652 0.001180 0.003536 0.000000 0.029191 0.000000
# 6 0.000000 0.000000 0.000000 0.002023 0.000000 0.025227
#
#
# Mechanical properties :
#
#
# Convention : Reuss Voigt Hill
#
# Bulk Modulus (GPa) = 53.65816 56.13930 54.89873
# Shear Modulus (GPa) = 33.61837 35.58557 34.60197
#
# Velocity S-wave (km/s) = 3.86707 3.97861 3.92324
# Velocity P-wave (km/s) = 6.61872 6.78807 6.70393
#
# Compressibility (1/GPa) = 0.01863650
#
# Stress axis : x y z
#
# Youngs Moduli (GPa) = 89.12090 64.65586 66.63986
#
# Poissons Ratio (x) = 0.27917 0.24106
# Poissons Ratio (y) = 0.38481 0.23945
# Poissons Ratio (z) = 0.32239 0.23232
#
# Static dielectric constant tensor:
#      x y z
#    x 4.124920 0.000000 -0.119470 
#    y 0.000000 4.062440 0.000000 
#    z -0.119470 0.000000 3.899790 
# 
# 
# High freq. dielectric constant tensor:
#      x y z
#    x 1.894850 0.000000 -0.007300 
#    y 0.000000 1.896960 0.000000 
#    z -0.007300 0.000000 1.884840 
# 
# From -- ./inp_files/43701.got.cif
#   From: 2010.03.12/outbox.cif.g09.slc.cpg/sg14_22_cif.got.tgz:43701.got - 2010.03.31 13:35:05.
