data_PCOD8126177
_publ_section_title
;
Structure prediction by ZEFSAII (Michael W. Deem and Ramdas Pophale) SiO2 
 PCOD8126177
Probable space group: P 21/C
;
_chemical_formula_sum "Si O2"
_cell_formula_units_Z 24
_cell_length_a 9.391977
_cell_length_b 10.092011
_cell_length_c 12.795662
_cell_angle_alpha 90.000000
_cell_angle_beta 81.963888
_cell_angle_gamma 90.000000
_cell_volume 1200.913462
_symmetry_space_group_name_H-M "P 21/C"
_symmetry_group_IT_number 14
_symmetry_cell_setting 'monoclinic'
loop_
_space_group_symop_operation_xyz
x,y,z
-x,1/2+y,1/2-z
-x,-y,-z
x,1/2-y,1/2+z
loop_
_atom_site_type_symbol
_atom_site_label
_atom_site_fract_x
_atom_site_fract_y
_atom_site_fract_z
Si Si1 0.629448 0.014231 0.338695
Si Si2 0.216938 0.174355 0.953597
Si Si3 0.663552 0.407385 0.604731
Si Si4 0.491498 0.302745 0.006452
Si Si5 0.964057 0.321008 0.639398
Si Si6 0.913413 0.905931 0.242435
O O1 0.593566 0.042849 0.221054
O O2 0.607036 0.147242 0.409220
O O3 0.520229 0.905289 0.396090
O O4 0.793129 0.962337 0.334761
O O5 0.170409 0.178269 0.837470
O O6 0.283677 0.030238 0.970699
O O7 0.337241 0.284426 0.966000
O O8 0.076069 0.200292 0.035726
O O9 0.544914 0.334245 0.549035
O O10 0.801209 0.314324 0.614468
O O11 0.977332 0.196354 0.716077
O O12 0.996002 0.465051 0.688335
#
# Coordination Sequence:
#
# PCOD8126177 Si02
#       6
#     4   4   4   4   4   4
#     4   9  22  38  59  84 126 152 195 255 294 364
#     4  10  21  38  65  85 118 159 198 247 308 360
#     4  10  23  38  61  89 119 157 205 246 302 365
#     4  11  21  40  60  89 120 155 199 253 305 356
#     4  10  21  41  61  86 123 159 202 256 299 362
#     4  10  21  41  60  92 120 165 204 254 300 361
#
# _framework density 19.984788000000002
#
# number of rings (size 3 to 8) (size 9 to 14) (size 15 to 20)
#    0.000    2.333    1.667    2.500    4.667    5.333 
#    9.000    1.667    0.000    0.000    0.000    0.000 
#    0.000    0.000    0.000    0.000    0.000    0.000 
#
# Total GULP energy -297519.558022 kJ/mol
# GULP energy per Si atom -12396.648251 kJ/mol
# Density = 1.993930 g / cm^3
# Si number density = 19.984788 Si / 1000 Ang^3
#
#
#
# Elastic Constant Matrix: (Units=GPa)
#
#
# Indices 1 2 3 4 5 6 
#
# 1 74.4397 16.6143 36.9970 0.0000 -9.2394 0.0000
# 2 16.6143 47.6107 13.0627 0.0000 3.3305 0.0000
# 3 36.9970 13.0627 59.0280 0.0000 -16.2480 0.0000
# 4 0.0000 0.0000 0.0000 38.2188 0.0000 3.3420
# 5 -9.2394 3.3305 -16.2480 0.0000 24.1050 0.0000
# 6 0.0000 0.0000 0.0000 3.3420 0.0000 37.9042
#
#
#
# Elastic Compliance Matrix: (Units=1/GPa)
#
#
# Indices 1 2 3 4 5 6 
#
# 1 0.020139 -0.003856 -0.011661 0.000000 0.000392 0.000000
# 2 -0.003856 0.024392 -0.005299 0.000000 -0.008420 0.000000
# 3 -0.011661 -0.005299 0.029951 0.000000 0.016451 0.000000
# 4 0.000000 0.000000 0.000000 0.026368 0.000000 -0.002325
# 5 0.000392 -0.008420 0.016451 0.000000 0.053887 0.000000
# 6 0.000000 0.000000 0.000000 -0.002325 0.000000 0.026587
#
#
# Mechanical properties :
#
#
# Convention : Reuss Voigt Hill
#
# Bulk Modulus (GPa) = 30.44144 34.93627 32.68885
# Shear Modulus (GPa) = 21.37615 27.67256 24.52435
#
# Velocity S-wave (km/s) = 3.27405 3.72517 3.50687
# Velocity P-wave (km/s) = 5.43672 6.00182 5.72625
#
# Compressibility (1/GPa) = 0.03284996
#
# Stress axis : x y z
#
# Youngs Moduli (GPa) = 49.65611 40.99718 33.38800
#
# Poissons Ratio (x) = 0.15807 0.38934
# Poissons Ratio (y) = 0.19145 0.17692
# Poissons Ratio (z) = 0.57905 0.21724
#
# Static dielectric constant tensor:
#      x y z
#    x 3.447940 0.000000 -0.146930 
#    y 0.000000 3.665520 0.000000 
#    z -0.146930 0.000000 3.613890 
# 
# 
# High freq. dielectric constant tensor:
#      x y z
#    x 1.767320 0.000000 -0.016170 
#    y 0.000000 1.777690 0.000000 
#    z -0.016170 0.000000 1.778540 
# 
# From -- ./inp_files/24170.got.cif
#   From: 2010.03.12/outbox.cif.g09.slc.cpg/sg14_13_cif.got.tgz:24170.got - 2010.03.31 13:35:05.
