data_PCOD8126765
_publ_section_title
;
Structure prediction by ZEFSAII (Michael W. Deem and Ramdas Pophale) SiO2 
 PCOD8126765
Probable space group: P 21/C
;
_chemical_formula_sum "Si O2"
_cell_formula_units_Z 28
_cell_length_a 8.511432
_cell_length_b 17.755898
_cell_length_c 16.748712
_cell_angle_alpha 90.000000
_cell_angle_beta 148.759199
_cell_angle_gamma 90.000000
_cell_volume 1312.772115
_symmetry_space_group_name_H-M "P 21/C"
_symmetry_group_IT_number 14
_symmetry_cell_setting 'monoclinic'
loop_
_space_group_symop_operation_xyz
x,y,z
-x,1/2+y,1/2-z
-x,-y,-z
x,1/2-y,1/2+z
loop_
_atom_site_type_symbol
_atom_site_label
_atom_site_fract_x
_atom_site_fract_y
_atom_site_fract_z
Si Si1 0.479412 0.175815 0.160850
Si Si2 0.388189 0.329092 0.199206
Si Si3 0.514637 0.759866 0.089447
Si Si4 0.666625 0.973273 0.651102
Si Si5 0.939285 0.168805 0.223422
Si Si6 0.942022 0.065107 0.908067
Si Si7 0.255983 0.873389 0.563230
O O1 0.387754 0.264428 0.129839
O O2 0.786239 0.167394 0.243574
O O3 0.529697 0.147492 0.271202
O O4 0.221763 0.121342 0.013798
O O5 0.369834 0.294549 0.278620
O O6 0.673545 0.382830 0.322035
O O7 0.089826 0.380350 0.058499
O O8 0.293303 0.689657 0.010802
O O9 0.809041 0.734539 0.166797
O O10 0.326202 0.819360 0.956346
O O11 0.387267 0.950955 0.586949
O O12 0.900998 0.908660 0.729648
O O13 0.500000 0.000000 0.500000
O O14 0.860805 0.034312 0.784625
O O15 0.000000 0.000000 0.000000
#
# Coordination Sequence:
#
# PCOD8126765 Si02
#       7
#     4   4   4   4   4   4   4
#     4  11  25  43  72 106 137 185 242 301 347 430
#     4  11  24  41  74 104 139 184 242 290 358 422
#     4  10  21  42  66 103 136 179 224 303 345 418
#     4  11  27  47  69 101 145 187 236 297 359 433
#     4  11  25  42  70 101 142 179 240 288 368 415
#     4  12  26  47  74 103 145 190 243 293 358 437
#     4  10  22  43  68  96 139 181 232 280 360 416
#
# _framework density 21.328911999999999
#
# number of rings (size 3 to 8) (size 9 to 14) (size 15 to 20)
#    0.000    1.143    2.857    2.571    8.000    4.571 
#    0.000    0.000    0.000    0.000    0.000    0.000 
#    0.000    0.000    0.000    0.000    0.000    0.000 
#
# Total GULP energy -347137.452130 kJ/mol
# GULP energy per Si atom -12397.766148 kJ/mol
# Density = 2.128037 g / cm^3
# Si number density = 21.328912 Si / 1000 Ang^3
#
#
#
# Elastic Constant Matrix: (Units=GPa)
#
#
# Indices 1 2 3 4 5 6 
#
# 1 124.7519 54.1563 49.3172 0.0000 19.0245 0.0000
# 2 54.1563 109.6064 60.9375 0.0000 10.4213 0.0000
# 3 49.3172 60.9375 124.4695 0.0000 10.7816 0.0000
# 4 0.0000 0.0000 0.0000 50.7608 0.0000 0.8049
# 5 19.0245 10.4213 10.7816 0.0000 46.5019 0.0000
# 6 0.0000 0.0000 0.0000 0.8049 0.0000 25.4440
#
#
#
# Elastic Compliance Matrix: (Units=1/GPa)
#
#
# Indices 1 2 3 4 5 6 
#
# 1 0.011076 -0.003964 -0.002176 0.000000 -0.003138 0.000000
# 2 -0.003964 0.014047 -0.005280 0.000000 -0.000302 0.000000
# 3 -0.002176 -0.005280 0.011533 0.000000 -0.000601 0.000000
# 4 0.000000 0.000000 0.000000 0.019710 0.000000 -0.000623
# 5 -0.003138 -0.000302 -0.000601 0.000000 0.022995 0.000000
# 6 0.000000 0.000000 0.000000 -0.000623 0.000000 0.039322
#
#
# Mechanical properties :
#
#
# Convention : Reuss Voigt Hill
#
# Bulk Modulus (GPa) = 72.38408 76.40553 74.39480
# Shear Modulus (GPa) = 34.21669 37.50246 35.85958
#
# Velocity S-wave (km/s) = 4.00964 4.19775 4.10477
# Velocity P-wave (km/s) = 7.44628 7.70682 7.57767
#
# Compressibility (1/GPa) = 0.01381519
#
# Stress axis : x y z
#
# Youngs Moduli (GPa) = 90.28873 71.19177 86.70712
#
# Poissons Ratio (x) = 0.28224 0.18864
# Poissons Ratio (y) = 0.35795 0.45781
# Poissons Ratio (z) = 0.19643 0.37589
#
# Static dielectric constant tensor:
#      x y z
#    x 3.861540 0.000000 0.065490 
#    y 0.000000 4.016050 0.000000 
#    z 0.065490 0.000000 4.040290 
# 
# 
# High freq. dielectric constant tensor:
#      x y z
#    x 1.842200 0.000000 0.005230 
#    y 0.000000 1.828860 0.000000 
#    z 0.005230 0.000000 1.850170 
# 
# From -- ./inp_files/18175.got.cif
#   From: 2010.03.12/outbox.cif.g09.slc.cpg/sg14_10_cif.got.tgz:18175.got - 2010.03.31 13:35:05.
