data_PCOD8126441
_publ_section_title
;
Structure prediction by ZEFSAII (Michael W. Deem and Ramdas Pophale) SiO2 
 PCOD8126441
Probable space group: P 21/C
;
_chemical_formula_sum "Si O2"
_cell_formula_units_Z 28
_cell_length_a 19.774767
_cell_length_b 5.261724
_cell_length_c 13.261327
_cell_angle_alpha 90.000000
_cell_angle_beta 56.834458
_cell_angle_gamma 90.000000
_cell_volume 1155.048916
_symmetry_space_group_name_H-M "P 21/C"
_symmetry_group_IT_number 14
_symmetry_cell_setting 'monoclinic'
loop_
_space_group_symop_operation_xyz
x,y,z
-x,1/2+y,1/2-z
-x,-y,-z
x,1/2-y,1/2+z
loop_
_atom_site_type_symbol
_atom_site_label
_atom_site_fract_x
_atom_site_fract_y
_atom_site_fract_z
Si Si1 0.952490 0.517891 0.261809
Si Si2 0.594386 0.944936 0.725265
Si Si3 0.584458 0.054492 0.106644
Si Si4 0.721112 0.199525 0.389625
Si Si5 0.856384 0.470770 0.151485
Si Si6 0.271791 0.338786 0.280940
Si Si7 0.811473 0.316831 0.502304
O O1 0.936940 0.485213 0.153795
O O2 0.868562 0.505095 0.391565
O O3 0.987786 0.796008 0.252314
O O4 0.508657 0.916343 0.853325
O O5 0.599172 0.729612 0.634696
O O6 0.669413 0.895471 0.738980
O O7 0.601852 0.228074 0.676319
O O8 0.645463 0.109095 0.964623
O O9 0.787897 0.314182 0.263024
O O10 0.763450 0.132463 0.462892
O O11 0.690778 0.952967 0.353054
O O12 0.820464 0.751297 0.164787
O O13 0.869541 0.342410 0.030748
O O14 0.261122 0.533041 0.382931
#
# Coordination Sequence:
#
# PCOD8126441 Si02
#       7
#     4   4   4   4   4   4   4
#     4  11  28  47  70 102 137 167 217 270 333 401
#     4  10  22  39  64  95 130 182 220 273 328 389
#     4  10  21  40  63  92 136 177 224 270 334 378
#     4  10  22  39  64  97 132 174 225 277 324 385
#     4  10  25  42  69 100 128 175 223 264 330 398
#     4  11  23  39  68  97 131 175 229 269 326 395
#     4  10  23  44  69  93 135 175 218 273 329 389
#
# _framework density 24.241399000000001
#
# number of rings (size 3 to 8) (size 9 to 14) (size 15 to 20)
#    0.000    1.714    1.429    0.857   12.000    2.857 
#    0.000    0.714    0.000    0.000    0.000    0.000 
#    0.000    0.000    0.000    0.000    0.000    0.000 
#
# Total GULP energy -347055.858805 kJ/mol
# GULP energy per Si atom -12394.852100 kJ/mol
# Density = 2.418622 g / cm^3
# Si number density = 24.241399 Si / 1000 Ang^3
#
#
#
# Elastic Constant Matrix: (Units=GPa)
#
#
# Indices 1 2 3 4 5 6 
#
# 1 92.6370 -1.6952 14.9515 0.0000 11.0323 0.0000
# 2 -1.6952 44.8496 -5.9553 0.0000 11.9441 0.0000
# 3 14.9515 -5.9553 58.7929 0.0000 23.7426 0.0000
# 4 0.0000 0.0000 0.0000 4.1046 0.0000 0.4897
# 5 11.0323 11.9441 23.7426 0.0000 30.2940 0.0000
# 6 0.0000 0.0000 0.0000 0.4897 0.0000 43.2623
#
#
#
# Elastic Compliance Matrix: (Units=1/GPa)
#
#
# Indices 1 2 3 4 5 6 
#
# 1 0.011462 0.001217 -0.001335 0.000000 -0.003608 0.000000
# 2 0.001217 0.029282 0.010970 0.000000 -0.020586 0.000000
# 3 -0.001335 0.010970 0.029275 0.000000 -0.026783 0.000000
# 4 0.000000 0.000000 0.000000 0.243961 0.000000 -0.002761
# 5 -0.003608 -0.020586 -0.026783 0.000000 0.063431 0.000000
# 6 0.000000 0.000000 0.000000 -0.002761 0.000000 0.023146
#
#
# Mechanical properties :
#
#
# Convention : Reuss Voigt Hill
#
# Bulk Modulus (GPa) = 10.90235 23.43125 17.16680
# Shear Modulus (GPa) = 12.21215 28.13073 20.17144
#
# Velocity S-wave (km/s) = 2.24692 3.41022 2.88776
# Velocity P-wave (km/s) = 3.35242 5.01926 4.26800
#
# Compressibility (1/GPa) = 0.09172335
#
# Stress axis : x y z
#
# Youngs Moduli (GPa) = 87.24337 34.15110 34.15833
#
# Poissons Ratio (x) = -0.04156 0.04559
# Poissons Ratio (y) = -0.10617 -0.37471
# Poissons Ratio (z) = 0.11643 -0.37463
#
# Static dielectric constant tensor:
#      x y z
#    x 4.571820 0.000000 0.033090 
#    y 0.000000 4.322880 0.000000 
#    z 0.033090 0.000000 4.468430 
# 
# 
# High freq. dielectric constant tensor:
#      x y z
#    x 1.965420 0.000000 -0.000010 
#    y 0.000000 1.955960 0.000000 
#    z -0.000010 0.000000 1.957610 
# 
# From -- ./inp_files/34673.got.cif
#   From: 2010.03.12/outbox.cif.g09.slc.cpg/sg14_18_cif.got.tgz:34673.got - 2010.03.31 13:35:05.
