data_PCOD8126604
_publ_section_title
;
Structure prediction by ZEFSAII (Michael W. Deem and Ramdas Pophale) SiO2 
 PCOD8126604
Probable space group: P 21/C
;
_chemical_formula_sum "Si O2"
_cell_formula_units_Z 28
_cell_length_a 8.597086
_cell_length_b 21.259785
_cell_length_c 12.567428
_cell_angle_alpha 90.000000
_cell_angle_beta 145.774718
_cell_angle_gamma 90.000000
_cell_volume 1291.930452
_symmetry_space_group_name_H-M "P 21/C"
_symmetry_group_IT_number 14
_symmetry_cell_setting 'monoclinic'
loop_
_space_group_symop_operation_xyz
x,y,z
-x,1/2+y,1/2-z
-x,-y,-z
x,1/2-y,1/2+z
loop_
_atom_site_type_symbol
_atom_site_label
_atom_site_fract_x
_atom_site_fract_y
_atom_site_fract_z
Si Si1 0.883323 0.557285 0.698555
Si Si2 0.977470 0.345512 0.521652
Si Si3 0.810646 0.973611 0.483322
Si Si4 0.121456 0.814627 0.266126
Si Si5 0.736808 0.962098 0.886834
Si Si6 0.687563 0.749366 0.659951
Si Si7 0.596117 0.874676 0.226923
O O1 0.106427 0.612211 0.795239
O O2 0.698890 0.538249 0.493136
O O3 0.677508 0.581072 0.674077
O O4 0.047015 0.492907 0.824683
O O5 0.862048 0.309585 0.351988
O O6 0.728519 0.384658 0.434876
O O7 0.229434 0.390325 0.631258
O O8 0.092622 0.298706 0.673875
O O9 0.760705 0.899225 0.427352
O O10 0.521858 0.009311 0.318150
O O11 0.000000 0.000000 0.500000
O O12 0.393463 0.780600 0.466477
O O13 0.834870 0.781597 0.140933
O O14 0.000000 0.000000 0.000000
O O15 0.653130 0.698089 0.734816
#
# Coordination Sequence:
#
# PCOD8126604 Si02
#       7
#     4   4   4   4   4   4   4
#     4   9  22  42  64  90 135 164 207 262 316 384
#     4  11  23  42  63  91 129 160 214 265 310 382
#     4  10  21  41  64  94 126 165 209 258 316 379
#     4  10  23  39  63  90 123 165 211 257 322 372
#     4  11  22  41  65  95 129 167 208 264 316 374
#     4  11  22  42  62  88 124 167 208 262 316 371
#     4  10  21  41  63  95 124 161 215 260 305 386
#
# _framework density 21.672993000000002
#
# number of rings (size 3 to 8) (size 9 to 14) (size 15 to 20)
#    0.000    1.714    2.857    0.857    2.000    2.857 
#    2.571    2.857    0.000    0.000    0.000    0.000 
#    0.000    0.000    0.000    0.000    0.000    0.000 
#
# Total GULP energy -347033.749731 kJ/mol
# GULP energy per Si atom -12394.062490 kJ/mol
# Density = 2.162366 g / cm^3
# Si number density = 21.672993 Si / 1000 Ang^3
#
#
#
# Elastic Constant Matrix: (Units=GPa)
#
#
# Indices 1 2 3 4 5 6 
#
# 1 84.5361 9.6935 22.9662 0.0000 3.9488 0.0000
# 2 9.6935 59.4139 12.7000 0.0000 -4.4224 0.0000
# 3 22.9662 12.7000 58.5197 0.0000 12.9357 0.0000
# 4 0.0000 0.0000 0.0000 28.8097 0.0000 1.4044
# 5 3.9488 -4.4224 12.9357 0.0000 32.7015 0.0000
# 6 0.0000 0.0000 0.0000 1.4044 0.0000 27.0227
#
#
#
# Elastic Compliance Matrix: (Units=1/GPa)
#
#
# Indices 1 2 3 4 5 6 
#
# 1 0.013312 -0.001076 -0.005044 0.000000 0.000243 0.000000
# 2 -0.001076 0.018300 -0.004520 0.000000 0.004393 0.000000
# 3 -0.005044 -0.004520 0.021971 0.000000 -0.008693 0.000000
# 4 0.000000 0.000000 0.000000 0.034799 0.000000 -0.001809
# 5 0.000243 0.004393 -0.008693 0.000000 0.034583 0.000000
# 6 0.000000 0.000000 0.000000 -0.001809 0.000000 0.037100
#
#
# Mechanical properties :
#
#
# Convention : Reuss Voigt Hill
#
# Bulk Modulus (GPa) = 30.95837 32.57657 31.76747
# Shear Modulus (GPa) = 26.02657 28.18079 27.10368
#
# Velocity S-wave (km/s) = 3.46912 3.60984 3.54018
# Velocity P-wave (km/s) = 5.51015 5.69545 5.60357
#
# Compressibility (1/GPa) = 0.03230145
#
# Stress axis : x y z
#
# Youngs Moduli (GPa) = 75.12192 54.64547 45.51544
#
# Poissons Ratio (x) = 0.05877 0.22960
# Poissons Ratio (y) = 0.08079 0.20575
# Poissons Ratio (z) = 0.37895 0.24702
#
# Static dielectric constant tensor:
#      x y z
#    x 4.048290 0.000000 0.003250 
#    y 0.000000 4.246850 0.000000 
#    z 0.003250 0.000000 3.843060 
# 
# 
# High freq. dielectric constant tensor:
#      x y z
#    x 1.861110 0.000000 0.012100 
#    y 0.000000 1.854380 0.000000 
#    z 0.012100 0.000000 1.837300 
# 
# From -- ./inp_files/42117.got.cif
#   From: 2010.03.12/outbox.cif.g09.slc.cpg/sg14_22_cif.got.tgz:42117.got - 2010.03.31 13:35:05.
