data_PCOD8126706
_publ_section_title
;
Structure prediction by ZEFSAII (Michael W. Deem and Ramdas Pophale) SiO2 
 PCOD8126706
Probable space group: P 21/C
;
_chemical_formula_sum "Si O2"
_cell_formula_units_Z 28
_cell_length_a 8.890468
_cell_length_b 9.049284
_cell_length_c 25.822666
_cell_angle_alpha 90.000000
_cell_angle_beta 39.506790
_cell_angle_gamma 90.000000
_cell_volume 1321.639080
_symmetry_space_group_name_H-M "P 21/C"
_symmetry_group_IT_number 14
_symmetry_cell_setting 'monoclinic'
loop_
_space_group_symop_operation_xyz
x,y,z
-x,1/2+y,1/2-z
-x,-y,-z
x,1/2-y,1/2+z
loop_
_atom_site_type_symbol
_atom_site_label
_atom_site_fract_x
_atom_site_fract_y
_atom_site_fract_z
Si Si1 0.547068 0.040723 0.900743
Si Si2 0.179514 0.228195 0.522890
Si Si3 0.343736 0.830730 0.324747
Si Si4 0.087784 0.793325 0.707393
Si Si5 0.675617 0.571029 0.256247
Si Si6 0.489060 0.998288 0.385580
Si Si7 0.697505 0.741960 0.894948
O O1 0.759478 0.156384 0.853943
O O2 0.544824 0.975700 0.843520
O O3 0.588925 0.906086 0.929186
O O4 0.293508 0.113970 0.978577
O O5 0.242392 0.181111 0.564577
O O6 0.899700 0.240029 0.590122
O O7 0.275582 0.104375 0.458348
O O8 0.523142 0.695601 0.266800
O O9 0.450151 0.941270 0.338387
O O10 0.297770 0.924375 0.285105
O O11 0.931189 0.858646 0.701950
O O12 0.929965 0.740389 0.797328
O O13 0.259612 0.920561 0.682073
O O14 0.497952 0.862483 0.423220
#
# Coordination Sequence:
#
# PCOD8126706 Si02
#       7
#     4   4   4   4   4   4   4
#     4  10  22  42  66  97 126 170 223 270 319 375
#     4  11  25  39  65  91 139 173 207 265 326 401
#     4  12  26  45  64  99 132 175 210 268 334 391
#     4  10  21  41  71  92 125 166 224 277 313 371
#     4  11  26  42  69  99 128 173 222 268 324 383
#     4  11  23  43  66  94 132 171 216 267 324 389
#     4  11  20  40  66  98 124 169 226 269 319 372
#
# _framework density 21.185813
#
# number of rings (size 3 to 8) (size 9 to 14) (size 15 to 20)
#    0.000    1.143    2.857    4.714    6.000    1.714 
#    0.000    0.000    0.000    0.000    0.000    0.000 
#    0.000    0.000    0.000    0.000    0.000    0.000 
#
# Total GULP energy -347335.011602 kJ/mol
# GULP energy per Si atom -12404.821843 kJ/mol
# Density = 2.113759 g / cm^3
# Si number density = 21.185813 Si / 1000 Ang^3
#
#
#
# Elastic Constant Matrix: (Units=GPa)
#
#
# Indices 1 2 3 4 5 6 
#
# 1 67.2086 12.6159 6.3800 0.0000 -8.1420 0.0000
# 2 12.6159 78.2652 13.6057 0.0000 -14.2131 0.0000
# 3 6.3800 13.6057 51.9268 0.0000 -21.8693 0.0000
# 4 0.0000 0.0000 0.0000 23.7506 0.0000 9.5724
# 5 -8.1420 -14.2131 -21.8693 0.0000 33.8089 0.0000
# 6 0.0000 0.0000 0.0000 9.5724 0.0000 35.9942
#
#
#
# Elastic Compliance Matrix: (Units=1/GPa)
#
#
# Indices 1 2 3 4 5 6 
#
# 1 0.015608 -0.001971 -0.000230 0.000000 0.002782 0.000000
# 2 -0.001971 0.014181 -0.001598 0.000000 0.004454 0.000000
# 3 -0.000230 -0.001598 0.026662 0.000000 0.016519 0.000000
# 4 0.000000 0.000000 0.000000 0.047159 0.000000 -0.012542
# 5 0.002782 0.004454 0.016519 0.000000 0.042806 0.000000
# 6 0.000000 0.000000 0.000000 -0.012542 0.000000 0.031118
#
#
# Mechanical properties :
#
#
# Convention : Reuss Voigt Hill
#
# Bulk Modulus (GPa) = 20.46916 29.17818 24.82367
# Shear Modulus (GPa) = 24.82437 29.69734 27.26086
#
# Velocity S-wave (km/s) = 3.42679 3.74806 3.59102
# Velocity P-wave (km/s) = 5.03387 5.70378 5.37926
#
# Compressibility (1/GPa) = 0.04885399
#
# Stress axis : x y z
#
# Youngs Moduli (GPa) = 64.07062 70.51536 37.50657
#
# Poissons Ratio (x) = 0.13897 0.00862
# Poissons Ratio (y) = 0.12627 0.05993
# Poissons Ratio (z) = 0.01472 0.11268
#
# Static dielectric constant tensor:
#      x y z
#    x 3.769550 0.000000 -0.102380 
#    y 0.000000 4.117000 0.000000 
#    z -0.102380 0.000000 3.721680 
# 
# 
# High freq. dielectric constant tensor:
#      x y z
#    x 1.828180 0.000000 -0.003290 
#    y 0.000000 1.847780 0.000000 
#    z -0.003290 0.000000 1.821910 
# 
# From -- ./inp_files/76439.got.cif
#   From: 2010.03.12/outbox.cif.g09.slc.cpg/sg14_39_cif.got.tgz:76439.got - 2010.03.31 13:35:05.
