data_PCOD8126140
_publ_section_title
;
Structure prediction by ZEFSAII (Michael W. Deem and Ramdas Pophale) SiO2 
 PCOD8126140
Probable space group: P 21/C
;
_chemical_formula_sum "Si O2"
_cell_formula_units_Z 28
_cell_length_a 11.356409
_cell_length_b 17.353471
_cell_length_c 14.779609
_cell_angle_alpha 90.000000
_cell_angle_beta 29.978332
_cell_angle_gamma 90.000000
_cell_volume 1455.377751
_symmetry_space_group_name_H-M "P 21/C"
_symmetry_group_IT_number 14
_symmetry_cell_setting 'monoclinic'
loop_
_space_group_symop_operation_xyz
x,y,z
-x,1/2+y,1/2-z
-x,-y,-z
x,1/2-y,1/2+z
loop_
_atom_site_type_symbol
_atom_site_label
_atom_site_fract_x
_atom_site_fract_y
_atom_site_fract_z
Si Si1 0.689760 0.848001 0.479653
Si Si2 0.572217 0.671533 0.550398
Si Si3 0.864069 0.405855 0.220941
Si Si4 0.701716 0.078221 0.640756
Si Si5 0.129383 0.043897 0.789939
Si Si6 0.642975 0.039625 0.200921
Si Si7 0.986332 0.940319 0.733195
O O1 0.618786 0.760904 0.509739
O O2 0.749593 0.885462 0.342894
O O3 0.465600 0.887887 0.675030
O O4 0.914633 0.854227 0.396199
O O5 0.376949 0.643715 0.606174
O O6 0.475889 0.648818 0.715136
O O7 0.813836 0.627666 0.373082
O O8 0.889892 0.429958 0.097918
O O9 0.849511 0.484073 0.288486
O O10 0.832857 0.094586 0.459909
O O11 0.553819 0.998895 0.732101
O O12 0.277924 0.025867 0.780404
O O13 0.129808 0.967457 0.726422
O O14 0.862634 0.067694 0.994432
#
# Coordination Sequence:
#
# PCOD8126140 Si02
#       7
#     4   4   4   4   4   4   4
#     4  11  23  41  59  91 125 158 195 260 308 356
#     4  10  24  38  57  93 125 151 198 257 308 345
#     4   9  21  40  62  86 117 158 203 244 299 362
#     4  10  21  38  62  92 113 162 198 253 292 357
#     4  10  22  38  65  92 114 167 206 245 296 370
#     4  11  21  39  65  87 122 157 212 248 293 370
#     4  11  19  38  68  87 118 155 212 238 300 364
#
# _framework density 19.238990999999999
#
# number of rings (size 3 to 8) (size 9 to 14) (size 15 to 20)
#    0.857    0.857    4.286    1.286    0.000    2.286 
#    0.000    0.000    0.000    0.000    0.000    0.000 
#    0.000    0.000    0.000    0.000    0.000    0.000 
#
# Total GULP energy -347071.090447 kJ/mol
# GULP energy per Si atom -12395.396087 kJ/mol
# Density = 1.919520 g / cm^3
# Si number density = 19.238991 Si / 1000 Ang^3
#
#
#
# Elastic Constant Matrix: (Units=GPa)
#
#
# Indices 1 2 3 4 5 6 
#
# 1 51.1000 8.6326 10.7799 0.0000 2.5348 0.0000
# 2 8.6326 120.4771 56.2869 0.0000 0.2513 0.0000
# 3 10.7799 56.2869 99.5069 0.0000 12.8307 0.0000
# 4 0.0000 0.0000 0.0000 31.1317 0.0000 -5.8310
# 5 2.5348 0.2513 12.8307 0.0000 25.1019 0.0000
# 6 0.0000 0.0000 0.0000 -5.8310 0.0000 12.8447
#
#
#
# Elastic Compliance Matrix: (Units=1/GPa)
#
#
# Indices 1 2 3 4 5 6 
#
# 1 0.020088 -0.000668 -0.001646 0.000000 -0.001180 0.000000
# 2 -0.000668 0.011577 -0.006927 0.000000 0.003492 0.000000
# 3 -0.001646 -0.006927 0.015112 0.000000 -0.007489 0.000000
# 4 0.000000 0.000000 0.000000 0.035107 0.000000 0.015937
# 5 -0.001180 0.003492 -0.007489 0.000000 0.043750 0.000000
# 6 0.000000 0.000000 0.000000 0.015937 0.000000 0.085088
#
#
# Mechanical properties :
#
#
# Convention : Reuss Voigt Hill
#
# Bulk Modulus (GPa) = 35.34134 46.94252 41.14193
# Shear Modulus (GPa) = 20.95264 26.84132 23.89698
#
# Velocity S-wave (km/s) = 3.30369 3.73923 3.52818
# Velocity P-wave (km/s) = 5.74125 6.56468 6.16673
#
# Compressibility (1/GPa) = 0.02829547
#
# Stress axis : x y z
#
# Youngs Moduli (GPa) = 49.78069 86.37835 66.17449
#
# Poissons Ratio (x) = 0.05768 0.10894
# Poissons Ratio (y) = 0.03324 0.45836
# Poissons Ratio (z) = 0.08195 0.59830
#
# Static dielectric constant tensor:
#      x y z
#    x 3.595440 0.000000 -0.006870 
#    y 0.000000 3.132610 0.000000 
#    z -0.006870 0.000000 3.662490 
# 
# 
# High freq. dielectric constant tensor:
#      x y z
#    x 1.750970 0.000000 -0.004140 
#    y 0.000000 1.717450 0.000000 
#    z -0.004140 0.000000 1.760580 
# 
# From -- ./inp_files/45276.got.cif
#   From: 2010.03.12/outbox.cif.g09.slc.cpg/sg14_23_cif.got.tgz:45276.got - 2010.03.31 13:35:05.
