data_PCOD8126550
_publ_section_title
;
Structure prediction by ZEFSAII (Michael W. Deem and Ramdas Pophale) SiO2 
 PCOD8126550
Probable space group: P 21/C
;
_chemical_formula_sum "Si O2"
_cell_formula_units_Z 32
_cell_length_a 11.685196
_cell_length_b 9.314967
_cell_length_c 13.806857
_cell_angle_alpha 90.000000
_cell_angle_beta 62.333091
_cell_angle_gamma 90.000000
_cell_volume 1331.006369
_symmetry_space_group_name_H-M "P 21/C"
_symmetry_group_IT_number 14
_symmetry_cell_setting 'monoclinic'
loop_
_space_group_symop_operation_xyz
x,y,z
-x,1/2+y,1/2-z
-x,-y,-z
x,1/2-y,1/2+z
loop_
_atom_site_type_symbol
_atom_site_label
_atom_site_fract_x
_atom_site_fract_y
_atom_site_fract_z
Si Si1 0.185775 0.742056 0.074194
Si Si2 0.662400 0.293890 0.661922
Si Si3 0.888471 0.299941 0.196873
Si Si4 0.846236 0.800961 0.858822
Si Si5 0.675859 0.544997 0.935190
Si Si6 0.461469 0.434146 0.209571
Si Si7 0.916313 0.894405 0.630072
Si Si8 0.295096 0.257676 0.913690
O O1 0.263345 0.836538 0.965696
O O2 0.055516 0.679670 0.077581
O O3 0.149563 0.846378 0.177805
O O4 0.281646 0.618040 0.073078
O O5 0.768096 0.289957 0.704460
O O6 0.554434 0.412392 0.731115
O O7 0.601964 0.134207 0.673431
O O8 0.928041 0.433135 0.112067
O O9 0.007560 0.190835 0.159309
O O10 0.803623 0.634918 0.853989
O O11 0.835116 0.883338 0.762215
O O12 0.749913 0.854820 0.983173
O O13 0.565259 0.561797 0.895746
O O14 0.624165 0.613627 0.060361
O O15 0.365693 0.321523 0.299800
O O16 0.835588 0.830216 0.574096
#
# Coordination Sequence:
#
# PCOD8126550 Si02
#       8
#     4   4   4   4   4   4   4   4
#     4  11  24  43  70 108 142 184 225 287 356 417
#     4  12  30  47  71  96 141 187 243 292 339 413
#     4  11  23  42  67 106 140 179 228 286 346 420
#     4   9  21  36  67 104 136 177 210 284 343 421
#     4  10  21  44  69  97 142 178 222 280 348 415
#     4  12  28  50  67 104 134 190 241 296 341 406
#     4  11  20  39  71 106 146 175 224 281 352 430
#     4  10  21  40  71  98 131 184 225 275 346 424
#
# _framework density 24.041961000000001
#
# number of rings (size 3 to 8) (size 9 to 14) (size 15 to 20)
#    0.750    0.500    3.750    1.500    5.250    3.000 
#    0.000    2.500    0.000    0.000    0.000    0.000 
#    0.000    0.000    0.000    0.000    0.000    0.000 
#
# Total GULP energy -396580.746228 kJ/mol
# GULP energy per Si atom -12393.148320 kJ/mol
# Density = 2.398724 g / cm^3
# Si number density = 24.041961 Si / 1000 Ang^3
#
#
#
# Elastic Constant Matrix: (Units=GPa)
#
#
# Indices 1 2 3 4 5 6 
#
# 1 75.4138 6.5261 -9.3774 0.0000 28.8193 0.0000
# 2 6.5261 62.1172 -3.6736 0.0000 9.8030 0.0000
# 3 -9.3774 -3.6736 82.4272 0.0000 15.6480 0.0000
# 4 0.0000 0.0000 0.0000 36.7347 0.0000 0.0682
# 5 28.8193 9.8030 15.6480 0.0000 32.2611 0.0000
# 6 0.0000 0.0000 0.0000 0.0682 0.0000 28.7321
#
#
#
# Elastic Compliance Matrix: (Units=1/GPa)
#
#
# Indices 1 2 3 4 5 6 
#
# 1 0.023824 0.001990 0.007660 0.000000 -0.025603 0.000000
# 2 0.001990 0.017352 0.002575 0.000000 -0.008300 0.000000
# 3 0.007660 0.002575 0.016043 0.000000 -0.015406 0.000000
# 4 0.000000 0.000000 0.000000 0.027222 0.000000 -0.000065
# 5 -0.025603 -0.008300 -0.015406 0.000000 0.063863 0.000000
# 6 0.000000 0.000000 0.000000 -0.000065 0.000000 0.034804
#
#
# Mechanical properties :
#
#
# Convention : Reuss Voigt Hill
#
# Bulk Modulus (GPa) = 12.24446 22.98984 17.61715
# Shear Modulus (GPa) = 26.89888 34.64445 30.77167
#
# Velocity S-wave (km/s) = 3.34852 3.80017 3.58147
# Velocity P-wave (km/s) = 4.47818 5.37012 4.94431
#
# Compressibility (1/GPa) = 0.08166962
#
# Stress axis : x y z
#
# Youngs Moduli (GPa) = 41.97375 57.63157 62.33305
#
# Poissons Ratio (x) = -0.11471 -0.47744
# Poissons Ratio (y) = -0.08355 -0.16053
# Poissons Ratio (z) = -0.32150 -0.14842
#
# Static dielectric constant tensor:
#      x y z
#    x 4.102330 0.000000 0.020070 
#    y 0.000000 3.950040 0.000000 
#    z 0.020070 0.000000 4.656600 
# 
# 
# High freq. dielectric constant tensor:
#      x y z
#    x 1.949960 0.000000 -0.000980 
#    y 0.000000 1.926330 0.000000 
#    z -0.000980 0.000000 1.983400 
# 
# From -- ./inp_files/29358.got.cif
#   From: 2010.03.12/outbox.cif.g09.slc.cpg/sg14_15_cif.got.tgz:29358.got - 2010.03.31 13:35:05.
