data_PCOD8126635
_publ_section_title
;
Structure prediction by ZEFSAII (Michael W. Deem and Ramdas Pophale) SiO2 
 PCOD8126635
Probable space group: P 21/C
;
_chemical_formula_sum "Si O2"
_cell_formula_units_Z 28
_cell_length_a 9.359153
_cell_length_b 23.527079
_cell_length_c 9.826916
_cell_angle_alpha 90.000000
_cell_angle_beta 140.455311
_cell_angle_gamma 90.000000
_cell_volume 1377.662767
_symmetry_space_group_name_H-M "P 21/C"
_symmetry_group_IT_number 14
_symmetry_cell_setting 'monoclinic'
loop_
_space_group_symop_operation_xyz
x,y,z
-x,1/2+y,1/2-z
-x,-y,-z
x,1/2-y,1/2+z
loop_
_atom_site_type_symbol
_atom_site_label
_atom_site_fract_x
_atom_site_fract_y
_atom_site_fract_z
Si Si1 0.758822 0.687701 0.039414
Si Si2 0.945888 0.569425 0.082451
Si Si3 0.000626 0.054574 0.089318
Si Si4 0.715565 0.356823 0.234770
Si Si5 0.634041 0.018843 0.230777
Si Si6 0.563079 0.896684 0.704945
Si Si7 0.158157 0.206617 0.085702
O O1 0.496842 0.673362 0.854233
O O2 0.787735 0.733626 0.942291
O O3 0.905143 0.634574 0.093155
O O4 0.838961 0.710007 0.246578
O O5 0.028159 0.535463 0.276743
O O6 0.155884 0.561843 0.135270
O O7 0.721002 0.539882 0.860674
O O8 0.238847 0.086602 0.254325
O O9 0.795994 0.094621 0.896601
O O10 0.000000 0.000000 0.000000
O O11 0.911002 0.311135 0.354095
O O12 0.659090 0.385657 0.047381
O O13 0.468483 0.053488 0.208686
O O14 0.500000 0.000000 0.000000
O O15 0.654460 0.837567 0.835957
#
# Coordination Sequence:
#
# PCOD8126635 Si02
#       7
#     4   4   4   4   4   4   4
#     4  11  24  43  66  95 131 172 226 275 329 402
#     4  11  24  42  59  98 130 168 222 261 327 407
#     4  11  21  37  68  94 123 166 216 265 318 394
#     4  10  21  41  65  90 127 163 217 272 323 383
#     4  11  26  40  62  94 137 172 208 269 339 385
#     4  10  22  42  62  97 124 168 223 259 325 399
#     4  10  24  43  64  98 125 171 229 272 328 388
#
# _framework density 20.324278
#
# number of rings (size 3 to 8) (size 9 to 14) (size 15 to 20)
#    0.000    1.429    4.286    1.714    4.000   10.286 
#    0.000    0.000    0.000    0.000    0.000    0.000 
#    0.000    0.000    0.000    0.000    0.000    0.000 
#
# Total GULP energy -347161.200075 kJ/mol
# GULP energy per Si atom -12398.614288 kJ/mol
# Density = 2.027802 g / cm^3
# Si number density = 20.324278 Si / 1000 Ang^3
#
#
#
# Elastic Constant Matrix: (Units=GPa)
#
#
# Indices 1 2 3 4 5 6 
#
# 1 64.8666 32.4990 39.0211 0.0000 -3.6334 0.0000
# 2 32.4990 100.0541 49.2883 0.0000 -11.9873 0.0000
# 3 39.0211 49.2883 141.6057 0.0000 -1.0444 0.0000
# 4 0.0000 0.0000 0.0000 29.5373 0.0000 -7.7076
# 5 -3.6334 -11.9873 -1.0444 0.0000 32.3214 0.0000
# 6 0.0000 0.0000 0.0000 -7.7076 0.0000 42.3239
#
#
#
# Elastic Compliance Matrix: (Units=1/GPa)
#
#
# Indices 1 2 3 4 5 6 
#
# 1 0.020088 -0.004520 -0.003959 0.000000 0.000454 0.000000
# 2 -0.004520 0.013721 -0.003497 0.000000 0.004468 0.000000
# 3 -0.003959 -0.003497 0.009359 0.000000 -0.001440 0.000000
# 4 0.000000 0.000000 0.000000 0.035545 0.000000 0.006473
# 5 0.000454 0.004468 -0.001440 0.000000 0.032601 0.000000
# 6 0.000000 0.000000 0.000000 0.006473 0.000000 0.024806
#
#
# Mechanical properties :
#
#
# Convention : Reuss Voigt Hill
#
# Bulk Modulus (GPa) = 52.04107 60.90481 56.47294
# Shear Modulus (GPa) = 30.03416 33.21772 31.62594
#
# Velocity S-wave (km/s) = 3.84832 4.04714 3.94898
# Velocity P-wave (km/s) = 6.73847 7.20213 6.97416
#
# Compressibility (1/GPa) = 0.01921559
#
# Stress axis : x y z
#
# Youngs Moduli (GPa) = 49.78150 72.88151 106.84473
#
# Poissons Ratio (x) = 0.32945 0.42297
# Poissons Ratio (y) = 0.22503 0.37366
# Poissons Ratio (z) = 0.19707 0.25488
#
# Static dielectric constant tensor:
#      x y z
#    x 3.741220 0.000000 0.018090 
#    y 0.000000 4.028880 0.000000 
#    z 0.018090 0.000000 3.788150 
# 
# 
# High freq. dielectric constant tensor:
#      x y z
#    x 1.788710 0.000000 0.004440 
#    y 0.000000 1.793230 0.000000 
#    z 0.004440 0.000000 1.809320 
# 
# From -- ./inp_files/11007.got.cif
#   From: 2010.03.12/outbox.cif.g09.slc.cpg/sg14_6_cif.got.tgz:11007.got - 2010.03.31 13:35:05.
