data_PCOD8126362
_publ_section_title
;
Structure prediction by ZEFSAII (Michael W. Deem and Ramdas Pophale) SiO2 
 PCOD8126362
Probable space group: P 21/C
;
_chemical_formula_sum "Si O2"
_cell_formula_units_Z 28
_cell_length_a 15.295348
_cell_length_b 6.666490
_cell_length_c 13.222686
_cell_angle_alpha 90.000000
_cell_angle_beta 69.153624
_cell_angle_gamma 90.000000
_cell_volume 1260.007753
_symmetry_space_group_name_H-M "P 21/C"
_symmetry_group_IT_number 14
_symmetry_cell_setting 'monoclinic'
loop_
_space_group_symop_operation_xyz
x,y,z
-x,1/2+y,1/2-z
-x,-y,-z
x,1/2-y,1/2+z
loop_
_atom_site_type_symbol
_atom_site_label
_atom_site_fract_x
_atom_site_fract_y
_atom_site_fract_z
Si Si1 0.400635 0.985837 0.820425
Si Si2 0.262033 0.722573 0.746883
Si Si3 0.029882 0.352269 0.120601
Si Si4 0.559430 0.874727 0.605690
Si Si5 0.138225 0.393630 0.886085
Si Si6 0.594264 0.253124 0.481030
Si Si7 0.095887 0.001795 0.801703
O O1 0.316697 0.866435 0.802567
O O2 0.491884 0.992089 0.711768
O O3 0.376024 0.219470 0.856547
O O4 0.426168 0.898923 0.918709
O O5 0.231421 0.518750 0.817896
O O6 0.322568 0.665256 0.624064
O O7 0.172697 0.837248 0.739761
O O8 0.063379 0.366855 0.220969
O O9 0.951183 0.518285 0.134865
O O10 0.119376 0.402049 0.013795
O O11 0.990644 0.126173 0.115576
O O12 0.498638 0.755804 0.547971
O O13 0.621310 0.035652 0.518594
O O14 0.144348 0.157670 0.858153
#
# Coordination Sequence:
#
# PCOD8126362 Si02
#       7
#     4   4   4   4   4   4   4
#     4  11  21  41  63  94 126 172 217 266 322 382
#     4  10  26  40  59  97 134 164 210 269 335 388
#     4  10  21  39  69  90 121 166 214 267 309 389
#     4  10  21  39  68  91 121 170 226 264 311 389
#     4  10  22  42  63  93 127 163 213 264 322 387
#     4  10  22  41  63  93 129 166 216 272 321 382
#     4  11  21  42  63  97 125 168 218 261 324 391
#
# _framework density 22.222086000000001
#
# number of rings (size 3 to 8) (size 9 to 14) (size 15 to 20)
#    0.000    1.714    2.857    0.857    2.000    2.286 
#    2.571    0.000    0.000    0.000    0.000    0.000 
#    0.000    0.000    0.000    0.000    0.000    0.000 
#
# Total GULP energy -347085.655728 kJ/mol
# GULP energy per Si atom -12395.916276 kJ/mol
# Density = 2.217151 g / cm^3
# Si number density = 22.222086 Si / 1000 Ang^3
#
#
#
# Elastic Constant Matrix: (Units=GPa)
#
#
# Indices 1 2 3 4 5 6 
#
# 1 26.3278 22.0470 29.6196 0.0000 -5.0398 0.0000
# 2 22.0470 105.2928 32.6668 0.0000 -5.0380 0.0000
# 3 29.6196 32.6668 126.1491 0.0000 -6.9138 0.0000
# 4 0.0000 0.0000 0.0000 35.6882 0.0000 0.7497
# 5 -5.0398 -5.0380 -6.9138 0.0000 29.3899 0.0000
# 6 0.0000 0.0000 0.0000 0.7497 0.0000 36.2495
#
#
#
# Elastic Compliance Matrix: (Units=1/GPa)
#
#
# Indices 1 2 3 4 5 6 
#
# 1 0.059029 -0.008563 -0.011314 0.000000 0.005993 0.000000
# 2 -0.008563 0.011608 -0.000979 0.000000 0.000291 0.000000
# 3 -0.011314 -0.000979 0.010862 0.000000 0.000447 0.000000
# 4 0.000000 0.000000 0.000000 0.028033 0.000000 -0.000580
# 5 0.005993 0.000291 0.000447 0.000000 0.035208 0.000000
# 6 0.000000 0.000000 0.000000 -0.000580 0.000000 0.027599
#
#
# Mechanical properties :
#
#
# Convention : Reuss Voigt Hill
#
# Bulk Modulus (GPa) = 25.13448 47.38185 36.25816
# Shear Modulus (GPa) = 21.99606 31.82795 26.91201
#
# Velocity S-wave (km/s) = 3.14957 3.78864 3.48379
# Velocity P-wave (km/s) = 4.95596 6.36448 5.70386
#
# Compressibility (1/GPa) = 0.03978598
#
# Stress axis : x y z
#
# Youngs Moduli (GPa) = 16.94077 86.14668 92.06591
#
# Poissons Ratio (x) = 0.73768 1.04164
# Poissons Ratio (y) = 0.14506 0.09017
# Poissons Ratio (z) = 0.19167 0.08437
#
# Static dielectric constant tensor:
#      x y z
#    x 3.654380 0.000000 0.054740 
#    y 0.000000 4.119340 0.000000 
#    z 0.054740 0.000000 4.028790 
# 
# 
# High freq. dielectric constant tensor:
#      x y z
#    x 1.850020 0.000000 0.011840 
#    y 0.000000 1.885290 0.000000 
#    z 0.011840 0.000000 1.877560 
# 
# From -- ./inp_files/47917.got.cif
#   From: 2010.03.12/outbox.cif.g09.slc.cpg/sg14_24_cif.got.tgz:47917.got - 2010.03.31 13:35:05.
