data_PCOD8126474
_publ_section_title
;
Structure prediction by ZEFSAII (Michael W. Deem and Ramdas Pophale) SiO2 
 PCOD8126474
Probable space group: P 21/C
;
_chemical_formula_sum "Si O2"
_cell_formula_units_Z 24
_cell_length_a 5.316648
_cell_length_b 15.706017
_cell_length_c 11.618791
_cell_angle_alpha 90.000000
_cell_angle_beta 106.631991
_cell_angle_gamma 90.000000
_cell_volume 929.617449
_symmetry_space_group_name_H-M "P 21/C"
_symmetry_group_IT_number 14
_symmetry_cell_setting 'monoclinic'
loop_
_space_group_symop_operation_xyz
x,y,z
-x,1/2+y,1/2-z
-x,-y,-z
x,1/2-y,1/2+z
loop_
_atom_site_type_symbol
_atom_site_label
_atom_site_fract_x
_atom_site_fract_y
_atom_site_fract_z
Si Si1 0.292704 0.977607 0.320776
Si Si2 0.076878 0.160574 0.695036
Si Si3 0.478435 0.106051 0.179728
Si Si4 0.903302 0.327856 0.581093
Si Si5 0.529504 0.250608 0.364591
Si Si6 0.281138 0.379606 0.985580
O O1 0.064902 0.912831 0.248761
O O2 0.458734 0.924549 0.433409
O O3 0.461785 0.011747 0.234295
O O4 0.165051 0.061169 0.367341
O O5 0.926505 0.251165 0.678067
O O6 0.372079 0.173905 0.779399
O O7 0.073758 0.130594 0.560812
O O8 0.687641 0.105290 0.102720
O O9 0.588701 0.172163 0.288320
O O10 0.186211 0.129943 0.097000
O O11 0.799843 0.291813 0.445281
O O12 0.359562 0.214243 0.450023
#
# Coordination Sequence:
#
# PCOD8126474 Si02
#       6
#     4   4   4   4   4   4
#     4  10  22  41  66  97 132 172 221 276 333 385
#     4  11  23  39  69  97 132 173 225 273 332 391
#     4  10  25  41  66  93 133 174 218 274 330 393
#     4  11  23  43  62  98 134 172 222 272 328 393
#     4  10  21  40  64  96 127 173 220 275 328 391
#     4  10  21  42  64 100 130 171 221 279 330 384
#
# _framework density 25.817069
#
# number of rings (size 3 to 8) (size 9 to 14) (size 15 to 20)
#    0.000    1.667    1.667    2.500    2.333    6.667 
#    0.000    1.667    0.000    0.000    0.000    0.000 
#    0.000    0.000    0.000    0.000    0.000    0.000 
#
# Total GULP energy -297613.505461 kJ/mol
# GULP energy per Si atom -12400.562728 kJ/mol
# Density = 2.575831 g / cm^3
# Si number density = 25.817069 Si / 1000 Ang^3
#
#
#
# Elastic Constant Matrix: (Units=GPa)
#
#
# Indices 1 2 3 4 5 6 
#
# 1 84.5217 0.8324 3.3283 0.0000 -6.3933 0.0000
# 2 0.8324 53.7120 -3.4136 0.0000 -3.4009 0.0000
# 3 3.3283 -3.4136 40.4697 0.0000 26.8480 0.0000
# 4 0.0000 0.0000 0.0000 21.8230 0.0000 -4.8687
# 5 -6.3933 -3.4009 26.8480 0.0000 27.9043 0.0000
# 6 0.0000 0.0000 0.0000 -4.8687 0.0000 28.5717
#
#
#
# Elastic Compliance Matrix: (Units=1/GPa)
#
#
# Indices 1 2 3 4 5 6 
#
# 1 0.013001 -0.000035 -0.008420 0.000000 0.011075 0.000000
# 2 -0.000035 0.018763 0.000204 0.000000 0.002082 0.000000
# 3 -0.008420 0.000204 0.073770 0.000000 -0.072881 0.000000
# 4 0.000000 0.000000 0.000000 0.047634 0.000000 0.008117
# 5 0.011075 0.002082 -0.072881 0.000000 0.108751 0.000000
# 6 0.000000 0.000000 0.000000 0.008117 0.000000 0.036383
#
#
# Mechanical properties :
#
#
# Convention : Reuss Voigt Hill
#
# Bulk Modulus (GPa) = 11.23190 20.02194 15.62692
# Shear Modulus (GPa) = 14.51462 27.52355 21.01909
#
# Velocity S-wave (km/s) = 2.37367 3.26866 2.85644
# Velocity P-wave (km/s) = 3.44564 4.69230 4.11644
#
# Compressibility (1/GPa) = 0.08903210
#
# Stress axis : x y z
#
# Youngs Moduli (GPa) = 76.91756 53.29584 13.55572
#
# Poissons Ratio (x) = 0.00188 0.11413
# Poissons Ratio (y) = 0.00272 -0.00277
# Poissons Ratio (z) = 0.64762 -0.01088
#
# Static dielectric constant tensor:
#      x y z
#    x 4.235790 0.000000 0.110810 
#    y 0.000000 4.789950 0.000000 
#    z 0.110810 0.000000 4.493750 
# 
# 
# High freq. dielectric constant tensor:
#      x y z
#    x 2.018870 0.000000 0.006550 
#    y 0.000000 2.024980 0.000000 
#    z 0.006550 0.000000 2.012830 
# 
# From -- ./inp_files/21300.got.cif
#   From: 2010.03.12/outbox.cif.g09.slc.cpg/sg14_11_cif.got.tgz:21300.got - 2010.03.31 13:35:05.
