data_PCOD8126946
_publ_section_title
;
Structure prediction by ZEFSAII (Michael W. Deem and Ramdas Pophale) SiO2 
 PCOD8126946
Probable space group: P 21/C
;
_chemical_formula_sum "Si O2"
_cell_formula_units_Z 20
_cell_length_a 7.513813
_cell_length_b 9.733538
_cell_length_c 11.292785
_cell_angle_alpha 90.000000
_cell_angle_beta 112.594908
_cell_angle_gamma 90.000000
_cell_volume 762.515783
_symmetry_space_group_name_H-M "P 21/C"
_symmetry_group_IT_number 14
_symmetry_cell_setting 'monoclinic'
loop_
_space_group_symop_operation_xyz
x,y,z
-x,1/2+y,1/2-z
-x,-y,-z
x,1/2-y,1/2+z
loop_
_atom_site_type_symbol
_atom_site_label
_atom_site_fract_x
_atom_site_fract_y
_atom_site_fract_z
Si Si1 0.043490 0.703646 0.989901
Si Si2 0.864019 0.006298 0.291112
Si Si3 0.392734 0.634932 0.928722
Si Si4 0.535124 0.588994 0.393661
Si Si5 0.127387 0.539860 0.653003
O O1 0.008804 0.607961 0.095512
O O2 0.026030 0.863154 0.026453
O O3 0.262919 0.686813 0.003329
O O4 0.894751 0.650423 0.849352
O O5 0.641312 0.049735 0.238752
O O6 0.950013 0.027631 0.180576
O O7 0.258600 0.621761 0.779122
O O8 0.547053 0.751798 0.935293
O O9 0.500000 0.500000 0.000000
O O10 0.500000 0.500000 0.500000
O O11 0.734954 0.568602 0.376853
#
# Coordination Sequence:
#
# PCOD8126946 Si02
#       5
#     4   4   4   4   4
#     4  10  21  49  73 106 157 195 258 319 376 458
#     4  10  24  47  72 109 154 203 249 316 382 452
#     4  11  24  46  76 111 157 201 254 319 387 457
#     4  12  25  48  75 112 153 200 256 313 380 459
#     4  11  24  47  77 112 152 198 263 317 377 461
#
# _framework density 26.228964999999999
#
# number of rings (size 3 to 8) (size 9 to 14) (size 15 to 20)
#    0.000    1.200    4.000    1.200    0.000    0.800 
#   21.600    0.000    0.000    0.000    0.000    0.000 
#    0.000    0.000    0.000    0.000    0.000    0.000 
#
# Total GULP energy -247989.499388 kJ/mol
# GULP energy per Si atom -12399.474969 kJ/mol
# Density = 2.616927 g / cm^3
# Si number density = 26.228965 Si / 1000 Ang^3
#
#
#
# Elastic Constant Matrix: (Units=GPa)
#
#
# Indices 1 2 3 4 5 6 
#
# 1 120.8399 71.8869 61.2384 0.0000 -13.8038 0.0000
# 2 71.8869 155.3399 30.5717 0.0000 -3.4521 0.0000
# 3 61.2384 30.5717 120.3526 0.0000 -7.4188 0.0000
# 4 0.0000 0.0000 0.0000 50.8547 0.0000 1.1888
# 5 -13.8038 -3.4521 -7.4188 0.0000 51.7996 0.0000
# 6 0.0000 0.0000 0.0000 1.1888 0.0000 40.6199
#
#
#
# Elastic Compliance Matrix: (Units=1/GPa)
#
#
# Indices 1 2 3 4 5 6 
#
# 1 0.015050 -0.005715 -0.006036 0.000000 0.002765 0.000000
# 2 -0.005715 0.008949 0.000583 0.000000 -0.000843 0.000000
# 3 -0.006036 0.000583 0.011234 0.000000 0.000039 0.000000
# 4 0.000000 0.000000 0.000000 0.019677 0.000000 -0.000576
# 5 0.002765 -0.000843 0.000039 0.000000 0.019992 0.000000
# 6 0.000000 0.000000 0.000000 -0.000576 0.000000 0.024635
#
#
# Mechanical properties :
#
#
# Convention : Reuss Voigt Hill
#
# Bulk Modulus (GPa) = 77.53570 80.43628 78.98599
# Shear Modulus (GPa) = 39.62826 44.17721 41.90274
#
# Velocity S-wave (km/s) = 3.89119 4.10846 4.00130
# Velocity P-wave (km/s) = 7.05789 7.29654 7.17821
#
# Compressibility (1/GPa) = 0.01289728
#
# Stress axis : x y z
#
# Youngs Moduli (GPa) = 66.44501 111.74465 89.01306
#
# Poissons Ratio (x) = 0.63867 0.53724
# Poissons Ratio (y) = 0.37976 -0.05189
# Poissons Ratio (z) = 0.40103 -0.06515
#
# Static dielectric constant tensor:
#      x y z
#    x 4.826740 0.000000 -0.093210 
#    y 0.000000 4.753380 0.000000 
#    z -0.093210 0.000000 5.212980 
# 
# 
# High freq. dielectric constant tensor:
#      x y z
#    x 2.055450 0.000000 -0.005620 
#    y 0.000000 2.049870 0.000000 
#    z -0.005620 0.000000 2.073360 
# 
# From -- ./inp_files/23122.got.cif
#   From: 2010.03.12/outbox.cif.g09.slc.cpg/sg14_12_cif.got.tgz:23122.got - 2010.03.31 13:35:05.
