data_PCOD8126652
_publ_section_title
;
Structure prediction by ZEFSAII (Michael W. Deem and Ramdas Pophale) SiO2 
 PCOD8126652
Probable space group: P 21/C
;
_chemical_formula_sum "Si O2"
_cell_formula_units_Z 24
_cell_length_a 9.282573
_cell_length_b 9.015124
_cell_length_c 13.704456
_cell_angle_alpha 90.000000
_cell_angle_beta 91.195561
_cell_angle_gamma 90.000000
_cell_volume 1146.587820
_symmetry_space_group_name_H-M "P 21/C"
_symmetry_group_IT_number 14
_symmetry_cell_setting 'monoclinic'
loop_
_space_group_symop_operation_xyz
x,y,z
-x,1/2+y,1/2-z
-x,-y,-z
x,1/2-y,1/2+z
loop_
_atom_site_type_symbol
_atom_site_label
_atom_site_fract_x
_atom_site_fract_y
_atom_site_fract_z
Si Si1 0.872977 0.680314 0.447310
Si Si2 0.634475 0.041981 0.258976
Si Si3 0.184694 0.902605 0.925806
Si Si4 0.337713 0.307106 0.727318
Si Si5 0.305986 0.115930 0.439047
Si Si6 0.376736 0.679399 0.033428
O O1 0.852656 0.563620 0.533960
O O2 0.776348 0.638332 0.353617
O O3 0.821968 0.837716 0.490171
O O4 0.039110 0.694961 0.418180
O O5 0.756611 0.081145 0.182604
O O6 0.482514 0.097871 0.214640
O O7 0.672170 0.126278 0.359962
O O8 0.625993 0.867020 0.280056
O O9 0.297816 0.829595 0.002045
O O10 0.262414 0.348094 0.828222
O O11 0.451712 0.208521 0.466795
O O12 0.336920 0.942052 0.450940
#
# Coordination Sequence:
#
# PCOD8126652 Si02
#       6
#     4   4   4   4   4   4
#     4  11  24  44  62  92 130 171 210 256 314 379
#     4  11  24  43  65  99 123 164 212 265 320 368
#     4  11  26  42  64  92 131 173 211 253 316 384
#     4  11  24  41  68  96 128 162 212 269 310 373
#     4  10  21  41  66  94 123 163 210 266 315 363
#     4  10  23  41  66  95 125 160 218 264 311 375
#
# _framework density 20.931671000000001
#
# number of rings (size 3 to 8) (size 9 to 14) (size 15 to 20)
#    0.000    1.333    3.333    1.000    9.333    3.333 
#    3.000    0.000    0.000    0.000    0.000    0.000 
#    0.000    0.000    0.000    0.000    0.000    0.000 
#
# Total GULP energy -297697.590822 kJ/mol
# GULP energy per Si atom -12404.066284 kJ/mol
# Density = 2.088403 g / cm^3
# Si number density = 20.931671 Si / 1000 Ang^3
#
#
#
# Elastic Constant Matrix: (Units=GPa)
#
#
# Indices 1 2 3 4 5 6 
#
# 1 100.4472 8.7505 36.1114 0.0000 -15.0909 0.0000
# 2 8.7505 31.7374 12.3151 0.0000 -2.4677 0.0000
# 3 36.1114 12.3151 87.8736 0.0000 -7.7025 0.0000
# 4 0.0000 0.0000 0.0000 31.9057 0.0000 -2.0553
# 5 -15.0909 -2.4677 -7.7025 0.0000 22.9229 0.0000
# 6 0.0000 0.0000 0.0000 -2.0553 0.0000 26.1841
#
#
#
# Elastic Compliance Matrix: (Units=1/GPa)
#
#
# Indices 1 2 3 4 5 6 
#
# 1 0.012670 -0.001247 -0.004444 0.000000 0.006714 0.000000
# 2 -0.001247 0.033540 -0.004063 0.000000 0.001424 0.000000
# 3 -0.004444 -0.004063 0.013890 0.000000 0.001305 0.000000
# 4 0.000000 0.000000 0.000000 0.031502 0.000000 0.002473
# 5 0.006714 0.001424 0.001305 0.000000 0.048636 0.000000
# 6 0.000000 0.000000 0.000000 0.002473 0.000000 0.038385
#
#
# Mechanical properties :
#
#
# Convention : Reuss Voigt Hill
#
# Bulk Modulus (GPa) = 24.63517 37.15691 30.89604
# Shear Modulus (GPa) = 23.62267 27.06131 25.34199
#
# Velocity S-wave (km/s) = 3.36305 3.59951 3.48329
# Velocity P-wave (km/s) = 5.18411 5.92160 5.56509
#
# Compressibility (1/GPa) = 0.04059238
#
# Stress axis : x y z
#
# Youngs Moduli (GPa) = 78.92489 29.81531 71.99522
#
# Poissons Ratio (x) = 0.03718 0.31991
# Poissons Ratio (y) = 0.09843 0.29252
# Poissons Ratio (z) = 0.35071 0.12114
#
# Static dielectric constant tensor:
#      x y z
#    x 3.809520 0.000000 -0.071060 
#    y 0.000000 3.665100 0.000000 
#    z -0.071060 0.000000 3.892300 
# 
# 
# High freq. dielectric constant tensor:
#      x y z
#    x 1.809650 0.000000 -0.006360 
#    y 0.000000 1.813580 0.000000 
#    z -0.006360 0.000000 1.834430 
# 
# From -- ./inp_files/38892.got.cif
#   From: 2010.03.12/outbox.cif.g09.slc.cpg/sg14_20_cif.got.tgz:38892.got - 2010.03.31 13:35:05.
