data_PCOD8126045
_publ_section_title
;
Structure prediction by ZEFSAII (Michael W. Deem and Ramdas Pophale) SiO2 
 PCOD8126045
Probable space group: P 21/C
;
_chemical_formula_sum "Si O2"
_cell_formula_units_Z 32
_cell_length_a 29.736795
_cell_length_b 9.268187
_cell_length_c 18.113661
_cell_angle_alpha 90.000000
_cell_angle_beta 161.858450
_cell_angle_gamma 90.000000
_cell_volume 1554.411059
_symmetry_space_group_name_H-M "P 21/C"
_symmetry_group_IT_number 14
_symmetry_cell_setting 'monoclinic'
loop_
_space_group_symop_operation_xyz
x,y,z
-x,1/2+y,1/2-z
-x,-y,-z
x,1/2-y,1/2+z
loop_
_atom_site_type_symbol
_atom_site_label
_atom_site_fract_x
_atom_site_fract_y
_atom_site_fract_z
Si Si1 0.946519 0.736759 0.753452
Si Si2 0.142180 0.044250 0.261497
Si Si3 0.729758 0.837406 0.302235
Si Si4 0.480450 0.152006 0.429787
Si Si5 0.751423 0.954644 0.038043
Si Si6 0.765348 0.175997 0.367450
Si Si7 0.845469 0.255795 0.155219
Si Si8 0.180145 0.284381 0.217379
O O1 0.904777 0.871085 0.738798
O O2 0.876178 0.770350 0.564220
O O3 0.885360 0.590876 0.694516
O O4 0.117227 0.711268 0.012572
O O5 0.233500 0.143405 0.347417
O O6 0.222707 0.897506 0.411161
O O7 0.000000 0.000000 0.000000
O O8 0.593729 0.765695 0.130527
O O9 0.727085 0.794789 0.211979
O O10 0.719399 0.009328 0.294537
O O11 0.631420 0.220449 0.641169
O O12 0.500000 0.000000 0.500000
O O13 0.389760 0.127703 0.213276
O O14 0.782256 0.920022 0.171713
O O15 0.738172 0.126751 0.010245
O O16 0.840971 0.217838 0.561533
O O17 0.008817 0.221717 0.435289
#
# Coordination Sequence:
#
# PCOD8126045 Si02
#       8
#     4   4   4   4   4   4   4   4
#     4  10  21  37  64  97 124 162 212 267 314 374
#     4   9  20  35  58  96 131 160 197 261 317 375
#     4  11  23  41  66  95 127 168 217 268 315 381
#     4  11  25  44  64  90 130 177 216 265 320 382
#     4  10  22  41  65  91 134 168 213 264 323 384
#     4  12  23  38  67  98 128 164 221 264 319 382
#     4  11  19  35  65  97 127 165 209 260 323 374
#     4  10  21  40  64  95 131 163 209 267 324 371
#
# _framework density 20.586575
#
# number of rings (size 3 to 8) (size 9 to 14) (size 15 to 20)
#    0.000    1.500    3.750    1.500    0.000    4.000 
#    0.000    1.250    8.250    0.000    0.000    0.000 
#    0.000    0.000    0.000    0.000    0.000    0.000 
#
# Total GULP energy -396726.499557 kJ/mol
# GULP energy per Si atom -12397.703111 kJ/mol
# Density = 2.053972 g / cm^3
# Si number density = 20.586575 Si / 1000 Ang^3
#
#
#
# Elastic Constant Matrix: (Units=GPa)
#
#
# Indices 1 2 3 4 5 6 
#
# 1 104.0323 51.0790 47.5274 0.0000 -18.6173 0.0000
# 2 51.0790 150.4545 33.4956 0.0000 0.8713 0.0000
# 3 47.5274 33.4956 94.4432 0.0000 3.9120 0.0000
# 4 0.0000 0.0000 0.0000 28.6197 0.0000 -6.6867
# 5 -18.6173 0.8713 3.9120 0.0000 34.1798 0.0000
# 6 0.0000 0.0000 0.0000 -6.6867 0.0000 17.4599
#
#
#
# Elastic Compliance Matrix: (Units=1/GPa)
#
#
# Indices 1 2 3 4 5 6 
#
# 1 0.016847 -0.004123 -0.007435 0.000000 0.010132 0.000000
# 2 -0.004123 0.008226 -0.000744 0.000000 -0.002370 0.000000
# 3 -0.007435 -0.000744 0.014831 0.000000 -0.005729 0.000000
# 4 0.000000 0.000000 0.000000 0.038375 0.000000 0.014696
# 5 0.010132 -0.002370 -0.005729 0.000000 0.035492 0.000000
# 6 0.000000 0.000000 0.000000 0.014696 0.000000 0.062902
#
#
# Mechanical properties :
#
#
# Convention : Reuss Voigt Hill
#
# Bulk Modulus (GPa) = 65.36536 68.12600 66.74568
# Shear Modulus (GPa) = 24.22741 30.50710 27.36726
#
# Velocity S-wave (km/s) = 3.43425 3.85371 3.65001
# Velocity P-wave (km/s) = 6.89535 7.27776 7.08913
#
# Compressibility (1/GPa) = 0.01529862
#
# Stress axis : x y z
#
# Youngs Moduli (GPa) = 59.35849 121.57083 67.42420
#
# Poissons Ratio (x) = 0.50121 0.50133
# Poissons Ratio (y) = 0.24472 0.05019
# Poissons Ratio (z) = 0.44136 0.09050
#
# Static dielectric constant tensor:
#      x y z
#    x 3.763680 0.000000 -0.329050 
#    y 0.000000 5.050180 0.000000 
#    z -0.329050 0.000000 3.634510 
# 
# 
# High freq. dielectric constant tensor:
#      x y z
#    x 1.794690 0.000000 -0.025980 
#    y 0.000000 1.823930 0.000000 
#    z -0.025980 0.000000 1.788220 
# 
# From -- ./inp_files/62675.got.cif
#   From: 2010.03.12/outbox.cif.g09.slc.cpg/sg14_32_cif.got.tgz:62675.got - 2010.03.31 13:35:05.
