data_PCOD8126756
_publ_section_title
;
Structure prediction by ZEFSAII (Michael W. Deem and Ramdas Pophale) SiO2 
 PCOD8126756
Probable space group: P 21/C
;
_chemical_formula_sum "Si O2"
_cell_formula_units_Z 24
_cell_length_a 14.132301
_cell_length_b 8.946336
_cell_length_c 15.027858
_cell_angle_alpha 90.000000
_cell_angle_beta 144.020615
_cell_angle_gamma 90.000000
_cell_volume 1116.242871
_symmetry_space_group_name_H-M "P 21/C"
_symmetry_group_IT_number 14
_symmetry_cell_setting 'monoclinic'
loop_
_space_group_symop_operation_xyz
x,y,z
-x,1/2+y,1/2-z
-x,-y,-z
x,1/2-y,1/2+z
loop_
_atom_site_type_symbol
_atom_site_label
_atom_site_fract_x
_atom_site_fract_y
_atom_site_fract_z
Si Si1 0.857891 0.056639 0.268433
Si Si2 0.802067 0.590613 0.549335
Si Si3 0.798140 0.434925 0.920310
Si Si4 0.709409 0.391877 0.326382
Si Si5 0.156859 0.592382 0.757357
Si Si6 0.347642 0.404930 0.042727
O O1 0.777659 0.015895 0.302165
O O2 0.833687 0.229680 0.228497
O O3 0.765373 0.970670 0.119927
O O4 0.042414 0.003159 0.412902
O O5 0.691222 0.514238 0.390191
O O6 0.771315 0.766074 0.531485
O O7 0.980900 0.543803 0.654850
O O8 0.801428 0.255497 0.931480
O O9 0.649767 0.500535 0.863465
O O10 0.807954 0.458362 0.317375
O O11 0.527822 0.349809 0.157652
O O12 0.287690 0.511556 0.918214
#
# Coordination Sequence:
#
# PCOD8126756 Si02
#       6
#     4   4   4   4   4   4
#     4  10  22  40  67  93 118 167 216 272 305 367
#     4  12  23  40  66  99 120 171 220 260 322 379
#     4  10  21  42  65  89 129 162 217 262 317 374
#     4  11  26  41  64  94 135 170 207 270 326 381
#     4  11  22  43  66  94 126 170 219 264 314 386
#     4  12  24  42  64  96 133 168 211 266 329 382
#
# _framework density 21.500698
#
# number of rings (size 3 to 8) (size 9 to 14) (size 15 to 20)
#    0.000    1.000    3.333    3.000    2.333    1.333 
#    0.000    9.167    0.000    0.000    0.000    0.000 
#    0.000    0.000    0.000    0.000    0.000    0.000 
#
# Total GULP energy -297622.047775 kJ/mol
# GULP energy per Si atom -12400.918657 kJ/mol
# Density = 2.145176 g / cm^3
# Si number density = 21.500698 Si / 1000 Ang^3
#
#
#
# Elastic Constant Matrix: (Units=GPa)
#
#
# Indices 1 2 3 4 5 6 
#
# 1 89.9701 38.0428 43.9064 0.0000 -25.6672 0.0000
# 2 38.0428 114.9954 54.8394 0.0000 -25.2995 0.0000
# 3 43.9064 54.8394 98.4237 0.0000 -19.3155 0.0000
# 4 0.0000 0.0000 0.0000 32.9505 0.0000 -7.6916
# 5 -25.6672 -25.2995 -19.3155 0.0000 37.1996 0.0000
# 6 0.0000 0.0000 0.0000 -7.6916 0.0000 28.4909
#
#
#
# Elastic Compliance Matrix: (Units=1/GPa)
#
#
# Indices 1 2 3 4 5 6 
#
# 1 0.016341 -0.001289 -0.005045 0.000000 0.007779 0.000000
# 2 -0.001289 0.012903 -0.005642 0.000000 0.004957 0.000000
# 3 -0.005045 -0.005642 0.015720 0.000000 0.000844 0.000000
# 4 0.000000 0.000000 0.000000 0.032390 0.000000 0.008744
# 5 0.007779 0.004957 0.000844 0.000000 0.036059 0.000000
# 6 0.000000 0.000000 0.000000 0.008744 0.000000 0.037460
#
#
# Mechanical properties :
#
#
# Convention : Reuss Voigt Hill
#
# Bulk Modulus (GPa) = 47.58876 64.10737 55.84807
# Shear Modulus (GPa) = 27.49853 30.83491 29.16672
#
# Velocity S-wave (km/s) = 3.58013 3.79111 3.68713
# Velocity P-wave (km/s) = 6.26669 7.00318 6.64515
#
# Compressibility (1/GPa) = 0.02101337
#
# Stress axis : x y z
#
# Youngs Moduli (GPa) = 61.19594 77.49928 63.61361
#
# Poissons Ratio (x) = 0.09986 0.32093
# Poissons Ratio (y) = 0.07886 0.35889
# Poissons Ratio (z) = 0.30874 0.43723
#
# Static dielectric constant tensor:
#      x y z
#    x 4.096150 0.000000 -0.194870 
#    y 0.000000 3.721150 0.000000 
#    z -0.194870 0.000000 3.659080 
# 
# 
# High freq. dielectric constant tensor:
#      x y z
#    x 1.858460 0.000000 -0.014090 
#    y 0.000000 1.844000 0.000000 
#    z -0.014090 0.000000 1.832630 
# 
# From -- ./inp_files/39033.got.cif
#   From: 2010.03.12/outbox.cif.g09.slc.cpg/sg14_20_cif.got.tgz:39033.got - 2010.03.31 13:35:05.
