data_PCOD8126638
_publ_section_title
;
Structure prediction by ZEFSAII (Michael W. Deem and Ramdas Pophale) SiO2 
 PCOD8126638
Probable space group: P 21/C
;
_chemical_formula_sum "Si O2"
_cell_formula_units_Z 24
_cell_length_a 5.343004
_cell_length_b 19.240583
_cell_length_c 12.233887
_cell_angle_alpha 90.000000
_cell_angle_beta 50.825316
_cell_angle_gamma 90.000000
_cell_volume 974.978902
_symmetry_space_group_name_H-M "P 21/C"
_symmetry_group_IT_number 14
_symmetry_cell_setting 'monoclinic'
loop_
_space_group_symop_operation_xyz
x,y,z
-x,1/2+y,1/2-z
-x,-y,-z
x,1/2-y,1/2+z
loop_
_atom_site_type_symbol
_atom_site_label
_atom_site_fract_x
_atom_site_fract_y
_atom_site_fract_z
Si Si1 0.774369 0.906002 0.913071
Si Si2 0.719838 0.884345 0.417530
Si Si3 0.518742 0.059122 0.306034
Si Si4 0.700517 0.809505 0.748242
Si Si5 0.809533 0.203531 0.557846
Si Si6 0.317507 0.962253 0.198593
O O1 0.774913 0.830179 0.854137
O O2 0.132712 0.928957 0.843029
O O3 0.614951 0.964438 0.879557
O O4 0.562035 0.903859 0.083114
O O5 0.494399 0.930979 0.559483
O O6 0.491481 0.843977 0.397131
O O7 0.964435 0.832474 0.413887
O O8 0.948370 0.937209 0.286514
O O9 0.290034 0.119301 0.322568
O O10 0.392316 0.981888 0.305550
O O11 0.359723 0.769517 0.836908
O O12 0.991220 0.769121 0.604502
#
# Coordination Sequence:
#
# PCOD8126638 Si02
#       6
#     4   4   4   4   4   4
#     4  10  21  41  65  92 135 165 219 267 324 382
#     4  11  25  43  65 100 129 170 219 268 322 389
#     4  10  21  42  64  92 132 168 214 272 324 380
#     4  10  24  43  63  94 126 173 215 272 319 381
#     4  11  26  43  67  94 131 170 222 264 324 384
#     4  10  23  38  65  99 126 174 214 263 330 386
#
# _framework density 24.615915999999999
#
# number of rings (size 3 to 8) (size 9 to 14) (size 15 to 20)
#    0.000    1.667    1.667    1.000    7.000    2.000 
#    0.000    0.000    0.000    0.000    0.000    0.000 
#    0.000    0.000    0.000    0.000    0.000    0.000 
#
# Total GULP energy -297462.605115 kJ/mol
# GULP energy per Si atom -12394.275213 kJ/mol
# Density = 2.455989 g / cm^3
# Si number density = 24.615916 Si / 1000 Ang^3
#
#
#
# Elastic Constant Matrix: (Units=GPa)
#
#
# Indices 1 2 3 4 5 6 
#
# 1 53.9734 0.8960 -17.3780 0.0000 -15.3178 0.0000
# 2 0.8960 44.2956 20.8004 0.0000 6.6144 0.0000
# 3 -17.3780 20.8004 131.4237 0.0000 -19.7007 0.0000
# 4 0.0000 0.0000 0.0000 35.7598 0.0000 -9.1639
# 5 -15.3178 6.6144 -19.7007 0.0000 34.7387 0.0000
# 6 0.0000 0.0000 0.0000 -9.1639 0.0000 26.6667
#
#
#
# Elastic Compliance Matrix: (Units=1/GPa)
#
#
# Indices 1 2 3 4 5 6 
#
# 1 0.025397 -0.006101 0.006750 0.000000 0.016188 0.000000
# 2 -0.006101 0.027765 -0.006991 0.000000 -0.011942 0.000000
# 3 0.006750 -0.006991 0.011206 0.000000 0.010663 0.000000
# 4 0.000000 0.000000 0.000000 0.030665 0.000000 0.010538
# 5 0.016188 -0.011942 0.010663 0.000000 0.044245 0.000000
# 6 0.000000 0.000000 0.000000 0.010538 0.000000 0.041121
#
#
# Mechanical properties :
#
#
# Convention : Reuss Voigt Hill
#
# Bulk Modulus (GPa) = 19.34798 26.48104 22.91451
# Shear Modulus (GPa) = 23.77429 34.45798 29.11613
#
# Velocity S-wave (km/s) = 3.11112 3.74548 3.44294
# Velocity P-wave (km/s) = 4.55877 5.43009 5.01340
#
# Compressibility (1/GPa) = 0.05168499
#
# Stress axis : x y z
#
# Youngs Moduli (GPa) = 39.37522 36.01643 89.23419
#
# Poissons Ratio (x) = 0.21973 -0.60237
# Poissons Ratio (y) = 0.24023 0.62385
# Poissons Ratio (z) = -0.26580 0.25180
#
# Static dielectric constant tensor:
#      x y z
#    x 4.180540 0.000000 0.167780 
#    y 0.000000 4.353400 0.000000 
#    z 0.167780 0.000000 4.727260 
# 
# 
# High freq. dielectric constant tensor:
#      x y z
#    x 1.967840 0.000000 -0.006270 
#    y 0.000000 1.958870 0.000000 
#    z -0.006270 0.000000 1.992850 
# 
# From -- ./inp_files/6273.got.cif
#   From: 2010.03.12/outbox.cif.g09.slc.cpg/sg14_4_cif.got.tgz:6273.got - 2010.03.31 13:35:05.
