data_PCOD8126250
_publ_section_title
;
Structure prediction by ZEFSAII (Michael W. Deem and Ramdas Pophale) SiO2 
 PCOD8126250
Probable space group: P 21/C
;
_chemical_formula_sum "Si O2"
_cell_formula_units_Z 28
_cell_length_a 7.398158
_cell_length_b 26.202566
_cell_length_c 8.409443
_cell_angle_alpha 90.000000
_cell_angle_beta 125.211662
_cell_angle_gamma 90.000000
_cell_volume 1331.899207
_symmetry_space_group_name_H-M "P 21/C"
_symmetry_group_IT_number 14
_symmetry_cell_setting 'monoclinic'
loop_
_space_group_symop_operation_xyz
x,y,z
-x,1/2+y,1/2-z
-x,-y,-z
x,1/2-y,1/2+z
loop_
_atom_site_type_symbol
_atom_site_label
_atom_site_fract_x
_atom_site_fract_y
_atom_site_fract_z
Si Si1 0.454208 0.909224 0.734755
Si Si2 0.658141 0.493213 0.226733
Si Si3 0.951083 0.075737 0.697840
Si Si4 0.701075 0.231452 0.005893
Si Si5 0.450749 0.054464 0.902256
Si Si6 0.440092 0.198861 0.164829
Si Si7 0.052702 0.812373 0.164229
O O1 0.224570 0.924781 0.536599
O O2 0.535408 0.853577 0.721217
O O3 0.654554 0.950782 0.808180
O O4 0.432610 0.905837 0.917046
O O5 0.896378 0.472676 0.286592
O O6 0.561244 0.446658 0.284833
O O7 0.500000 0.500000 0.000000
O O8 0.192028 0.067384 0.747226
O O9 0.931792 0.128210 0.784462
O O10 0.618647 0.198035 0.112041
O O11 0.846099 0.278813 0.142639
O O12 0.488313 0.254455 0.807279
O O13 0.834890 0.196160 0.950592
O O14 0.500000 0.000000 0.000000
O O15 0.198511 0.205847 0.972804
#
# Coordination Sequence:
#
# PCOD8126250 Si02
#       7
#     4   4   4   4   4   4   4
#     4  10  21  39  61  89 124 160 199 255 305 361
#     4   9  22  40  61  90 122 162 208 247 305 363
#     4  11  22  40  63  88 127 161 204 256 304 372
#     4  10  24  40  64  88 121 162 202 254 313 367
#     4  10  22  40  62  87 120 160 201 248 304 356
#     4  11  21  42  62  90 126 153 205 259 302 374
#     4  11  22  40  64  91 118 164 203 249 316 363
#
# _framework density 21.022613
#
# number of rings (size 3 to 8) (size 9 to 14) (size 15 to 20)
#    0.000    1.714    2.857    0.857    2.000    7.429 
#    0.000    4.286    0.000    0.000    0.000    0.000 
#    0.000    0.000    0.000    0.000    0.000    0.000 
#
# Total GULP energy -347000.807220 kJ/mol
# GULP energy per Si atom -12392.885972 kJ/mol
# Density = 2.097476 g / cm^3
# Si number density = 21.022613 Si / 1000 Ang^3
#
#
#
# Elastic Constant Matrix: (Units=GPa)
#
#
# Indices 1 2 3 4 5 6 
#
# 1 77.3185 23.0114 27.2190 0.0000 2.2882 0.0000
# 2 23.0114 88.4596 11.4287 0.0000 4.2074 0.0000
# 3 27.2190 11.4287 89.0343 0.0000 8.6504 0.0000
# 4 0.0000 0.0000 0.0000 24.8190 0.0000 0.7204
# 5 2.2882 4.2074 8.6504 0.0000 34.3806 0.0000
# 6 0.0000 0.0000 0.0000 0.7204 0.0000 23.0876
#
#
#
# Elastic Compliance Matrix: (Units=1/GPa)
#
#
# Indices 1 2 3 4 5 6 
#
# 1 0.015483 -0.003491 -0.004333 0.000000 0.000487 0.000000
# 2 -0.003491 0.012320 -0.000400 0.000000 -0.001175 0.000000
# 3 -0.004333 -0.000400 0.012890 0.000000 -0.002906 0.000000
# 4 0.000000 0.000000 0.000000 0.040328 0.000000 -0.001258
# 5 0.000487 -0.001175 -0.002906 0.000000 0.029929 0.000000
# 6 0.000000 0.000000 0.000000 -0.001258 0.000000 0.043352
#
#
# Mechanical properties :
#
#
# Convention : Reuss Voigt Hill
#
# Bulk Modulus (GPa) = 41.24413 42.01449 41.62931
# Shear Modulus (GPa) = 27.95912 29.33435 28.64673
#
# Velocity S-wave (km/s) = 3.65081 3.73952 3.69543
# Velocity P-wave (km/s) = 6.11823 6.21885 6.16875
#
# Compressibility (1/GPa) = 0.02424588
#
# Stress axis : x y z
#
# Youngs Moduli (GPa) = 64.58535 81.16672 77.58041
#
# Poissons Ratio (x) = 0.28337 0.33613
# Poissons Ratio (y) = 0.22548 0.03104
# Poissons Ratio (z) = 0.27983 0.03247
#
# Static dielectric constant tensor:
#      x y z
#    x 4.040260 0.000000 -0.395570 
#    y 0.000000 4.116270 0.000000 
#    z -0.395570 0.000000 4.201300 
# 
# 
# High freq. dielectric constant tensor:
#      x y z
#    x 1.805540 0.000000 -0.005940 
#    y 0.000000 1.825940 0.000000 
#    z -0.005940 0.000000 1.839620 
# 
# From -- ./inp_files/7010.got.cif
#   From: 2010.03.12/outbox.cif.g09.slc.cpg/sg14_4_cif.got.tgz:7010.got - 2010.03.31 13:35:05.
