data_PCOD8126488
_publ_section_title
;
Structure prediction by ZEFSAII (Michael W. Deem and Ramdas Pophale) SiO2 
 PCOD8126488
Probable space group: P 21/C
;
_chemical_formula_sum "Si O2"
_cell_formula_units_Z 28
_cell_length_a 11.795254
_cell_length_b 7.543411
_cell_length_c 23.539982
_cell_angle_alpha 90.000000
_cell_angle_beta 34.486456
_cell_angle_gamma 90.000000
_cell_volume 1185.932060
_symmetry_space_group_name_H-M "P 21/C"
_symmetry_group_IT_number 14
_symmetry_cell_setting 'monoclinic'
loop_
_space_group_symop_operation_xyz
x,y,z
-x,1/2+y,1/2-z
-x,-y,-z
x,1/2-y,1/2+z
loop_
_atom_site_type_symbol
_atom_site_label
_atom_site_fract_x
_atom_site_fract_y
_atom_site_fract_z
Si Si1 0.470913 0.433706 0.915118
Si Si2 0.452180 0.254792 0.037343
Si Si3 0.173634 0.565006 0.652945
Si Si4 0.697014 0.041506 0.635122
Si Si5 0.975011 0.328255 0.566513
Si Si6 0.889916 0.200162 0.220440
Si Si7 0.272298 0.157018 0.853969
O O1 0.571571 0.602817 0.903438
O O2 0.328945 0.488959 0.920987
O O3 0.651179 0.320977 0.813319
O O4 0.370661 0.320546 0.008547
O O5 0.324075 0.088858 0.111440
O O6 0.690158 0.210419 0.935445
O O7 0.059132 0.654662 0.753100
O O8 0.997704 0.487775 0.687177
O O9 0.862074 0.196975 0.568864
O O10 0.501909 0.115436 0.747551
O O11 0.762987 0.866531 0.643667
O O12 0.979302 0.226360 0.624427
O O13 0.863523 0.517020 0.624536
O O14 0.198434 0.369028 0.450566
#
# Coordination Sequence:
#
# PCOD8126488 Si02
#       7
#     4   4   4   4   4   4   4
#     4  10  21  40  65  92 133 165 224 279 337 405
#     4   9  21  41  62  98 125 176 218 272 346 407
#     4  10  22  40  65  92 132 168 222 270 343 403
#     4  12  23  46  69 100 135 187 228 288 348 412
#     4  11  26  46  67 102 142 178 237 285 345 418
#     4  11  22  43  63  97 131 173 219 286 331 410
#     4  11  24  44  67  98 137 179 230 282 342 410
#
# _framework density 23.610123000000002
#
# number of rings (size 3 to 8) (size 9 to 14) (size 15 to 20)
#    0.000    1.429    2.857    1.286    2.000    3.429 
#   10.286    0.000    0.000    0.000    0.000    0.000 
#    0.000    0.000    0.000    0.000    0.000    0.000 
#
# Total GULP energy -346946.895817 kJ/mol
# GULP energy per Si atom -12390.960565 kJ/mol
# Density = 2.355639 g / cm^3
# Si number density = 23.610123 Si / 1000 Ang^3
#
#
#
# Elastic Constant Matrix: (Units=GPa)
#
#
# Indices 1 2 3 4 5 6 
#
# 1 87.4693 25.9224 20.7519 0.0000 14.4157 0.0000
# 2 25.9224 100.7880 21.3434 0.0000 9.3705 0.0000
# 3 20.7519 21.3434 93.7920 0.0000 14.6896 0.0000
# 4 0.0000 0.0000 0.0000 25.8348 0.0000 -3.1957
# 5 14.4157 9.3705 14.6896 0.0000 25.9210 0.0000
# 6 0.0000 0.0000 0.0000 -3.1957 0.0000 29.7992
#
#
#
# Elastic Compliance Matrix: (Units=1/GPa)
#
#
# Indices 1 2 3 4 5 6 
#
# 1 0.013508 -0.002626 -0.001496 0.000000 -0.005715 0.000000
# 2 -0.002626 0.011105 -0.001697 0.000000 -0.001592 0.000000
# 3 -0.001496 -0.001697 0.012239 0.000000 -0.005491 0.000000
# 4 0.000000 0.000000 0.000000 0.039228 0.000000 0.004207
# 5 -0.005715 -0.001592 -0.005491 0.000000 0.045444 0.000000
# 6 0.000000 0.000000 0.000000 0.004207 0.000000 0.034009
#
#
# Mechanical properties :
#
#
# Convention : Reuss Voigt Hill
#
# Bulk Modulus (GPa) = 39.66042 46.45385 43.05714
# Shear Modulus (GPa) = 28.47802 30.57978 29.52890
#
# Velocity S-wave (km/s) = 3.47678 3.60279 3.54034
# Velocity P-wave (km/s) = 5.74037 6.08481 5.91510
#
# Compressibility (1/GPa) = 0.02521405
#
# Stress axis : x y z
#
# Youngs Moduli (GPa) = 74.03229 90.05324 81.70689
#
# Poissons Ratio (x) = 0.23648 0.12223
# Poissons Ratio (y) = 0.19441 0.13862
# Poissons Ratio (z) = 0.11075 0.15278
#
# Static dielectric constant tensor:
#      x y z
#    x 3.831140 0.000000 0.043550 
#    y 0.000000 4.487680 0.000000 
#    z 0.043550 0.000000 4.421360 
# 
# 
# High freq. dielectric constant tensor:
#      x y z
#    x 1.895790 0.000000 -0.001930 
#    y 0.000000 1.944300 0.000000 
#    z -0.001930 0.000000 1.957060 
# 
# From -- ./inp_files/72964.got.cif
#   From: 2010.03.12/outbox.cif.g09.slc.cpg/sg14_37_cif.got.tgz:72964.got - 2010.03.31 13:35:05.
