data_PCOD8126737
_publ_section_title
;
Structure prediction by ZEFSAII (Michael W. Deem and Ramdas Pophale) SiO2 
 PCOD8126737
Probable space group: P 21/C
;
_chemical_formula_sum "Si O2"
_cell_formula_units_Z 28
_cell_length_a 6.985810
_cell_length_b 19.186247
_cell_length_c 13.016581
_cell_angle_alpha 90.000000
_cell_angle_beta 129.472010
_cell_angle_gamma 90.000000
_cell_volume 1346.742563
_symmetry_space_group_name_H-M "P 21/C"
_symmetry_group_IT_number 14
_symmetry_cell_setting 'monoclinic'
loop_
_space_group_symop_operation_xyz
x,y,z
-x,1/2+y,1/2-z
-x,-y,-z
x,1/2-y,1/2+z
loop_
_atom_site_type_symbol
_atom_site_label
_atom_site_fract_x
_atom_site_fract_y
_atom_site_fract_z
Si Si1 0.020572 0.330589 0.917826
Si Si2 0.190100 0.931020 0.162740
Si Si3 0.758118 0.472558 0.546270
Si Si4 0.145244 0.814396 0.406298
Si Si5 0.529630 0.924189 0.461444
Si Si6 0.856528 0.683081 0.604744
Si Si7 0.692962 0.167036 0.117585
O O1 0.177512 0.262755 0.940384
O O2 0.769769 0.328446 0.763759
O O3 0.185009 0.398496 0.946057
O O4 0.960489 0.326856 0.016946
O O5 0.438924 0.927217 0.313403
O O6 0.072021 0.853570 0.109825
O O7 0.267268 0.967423 0.084618
O O8 0.980156 0.975356 0.151743
O O9 0.500000 0.500000 0.500000
O O10 0.838997 0.397644 0.618085
O O11 0.366276 0.869349 0.469203
O O12 0.248554 0.736440 0.426740
O O13 0.925217 0.826006 0.248641
O O14 0.500000 0.000000 0.500000
O O15 0.595465 0.647031 0.490998
#
# Coordination Sequence:
#
# PCOD8126737 Si02
#       7
#     4   4   4   4   4   4   4
#     4  11  24  41  64  93 122 165 206 253 320 367
#     4  10  23  40  62  92 127 167 208 254 315 367
#     4  11  22  38  63  94 124 164 209 256 308 369
#     4  10  24  42  64  90 123 165 207 252 314 373
#     4  11  24  43  62  90 128 161 208 260 313 376
#     4  10  21  42  63  92 126 162 207 259 306 370
#     4  11  22  41  63  93 125 157 211 261 300 371
#
# _framework density 20.790908000000002
#
# number of rings (size 3 to 8) (size 9 to 14) (size 15 to 20)
#    0.000    1.429    2.857    1.714    2.000    2.857 
#    2.571    0.000    0.000    0.000    0.000    0.000 
#    0.000    0.000    0.000    0.000    0.000    0.000 
#
# Total GULP energy -347216.774108 kJ/mol
# GULP energy per Si atom -12400.599075 kJ/mol
# Density = 2.074359 g / cm^3
# Si number density = 20.790908 Si / 1000 Ang^3
#
#
#
# Elastic Constant Matrix: (Units=GPa)
#
#
# Indices 1 2 3 4 5 6 
#
# 1 102.8707 34.6363 59.8649 0.0000 -12.5233 0.0000
# 2 34.6363 124.1600 27.5485 0.0000 -4.5745 0.0000
# 3 59.8649 27.5485 99.2903 0.0000 1.3307 0.0000
# 4 0.0000 0.0000 0.0000 32.0779 0.0000 -1.2308
# 5 -12.5233 -4.5745 1.3307 0.0000 33.0413 0.0000
# 6 0.0000 0.0000 0.0000 -1.2308 0.0000 24.5178
#
#
#
# Elastic Compliance Matrix: (Units=1/GPa)
#
#
# Indices 1 2 3 4 5 6 
#
# 1 0.016898 -0.002340 -0.009626 0.000000 0.006468 0.000000
# 2 -0.002340 0.008961 -0.001081 0.000000 0.000397 0.000000
# 3 -0.009626 -0.001081 0.016235 0.000000 -0.004452 0.000000
# 4 0.000000 0.000000 0.000000 0.031234 0.000000 0.001568
# 5 0.006468 0.000397 -0.004452 0.000000 0.032951 0.000000
# 6 0.000000 0.000000 0.000000 0.001568 0.000000 0.040865
#
#
# Mechanical properties :
#
#
# Convention : Reuss Voigt Hill
#
# Bulk Modulus (GPa) = 62.49644 63.38005 62.93825
# Shear Modulus (GPa) = 28.00007 31.54547 29.77277
#
# Velocity S-wave (km/s) = 3.67379 3.89944 3.78830
# Velocity P-wave (km/s) = 6.93688 7.12916 7.03368
#
# Compressibility (1/GPa) = 0.01600091
#
# Stress axis : x y z
#
# Youngs Moduli (GPa) = 59.17943 111.59055 61.59684
#
# Poissons Ratio (x) = 0.26111 0.59291
# Poissons Ratio (y) = 0.13847 0.06658
# Poissons Ratio (z) = 0.56964 0.12062
#
# Static dielectric constant tensor:
#      x y z
#    x 3.481080 0.000000 0.053330 
#    y 0.000000 4.042470 0.000000 
#    z 0.053330 0.000000 3.732160 
# 
# 
# High freq. dielectric constant tensor:
#      x y z
#    x 1.796780 0.000000 0.003930 
#    y 0.000000 1.834270 0.000000 
#    z 0.003930 0.000000 1.817390 
# 
# From -- ./inp_files/21868.got.cif
#   From: 2010.03.12/outbox.cif.g09.slc.cpg/sg14_11_cif.got.tgz:21868.got - 2010.03.31 13:35:05.
