data_PCOD8126745
_publ_section_title
;
Structure prediction by ZEFSAII (Michael W. Deem and Ramdas Pophale) SiO2 
 PCOD8126745
Probable space group: P 21/C
;
_chemical_formula_sum "Si O2"
_cell_formula_units_Z 32
_cell_length_a 9.230385
_cell_length_b 13.126025
_cell_length_c 14.499906
_cell_angle_alpha 90.000000
_cell_angle_beta 113.654060
_cell_angle_gamma 90.000000
_cell_volume 1609.186548
_symmetry_space_group_name_H-M "P 21/C"
_symmetry_group_IT_number 14
_symmetry_cell_setting 'monoclinic'
loop_
_space_group_symop_operation_xyz
x,y,z
-x,1/2+y,1/2-z
-x,-y,-z
x,1/2-y,1/2+z
loop_
_atom_site_type_symbol
_atom_site_label
_atom_site_fract_x
_atom_site_fract_y
_atom_site_fract_z
Si Si1 0.505950 0.598976 0.740471
Si Si2 0.947401 0.845888 0.757953
Si Si3 0.745736 0.763375 0.863288
Si Si4 0.826599 0.069697 0.760173
Si Si5 0.010691 0.768677 0.085057
Si Si6 0.254536 0.756800 0.867571
Si Si7 0.342991 0.765500 0.587672
Si Si8 0.544932 0.381641 0.724060
O O1 0.636035 0.661873 0.832491
O O2 0.359805 0.558631 0.764650
O O3 0.431150 0.662553 0.638903
O O4 0.590713 0.499027 0.717914
O O5 0.829490 0.774215 0.785636
O O6 0.964579 0.804086 0.658622
O O7 0.117946 0.840164 0.853234
O O8 0.893582 0.962810 0.742687
O O9 0.636929 0.863132 0.850085
O O10 0.863211 0.765695 0.978993
O O11 0.834791 0.152098 0.680313
O O12 0.938633 0.116671 0.870096
O O13 0.159684 0.724013 0.068114
O O14 0.352631 0.798165 0.805290
O O15 0.364476 0.733825 0.983138
O O16 0.431844 0.858755 0.660676
#
# Coordination Sequence:
#
# PCOD8126745 Si02
#       8
#     4   4   4   4   4   4   4   4
#     4  10  22  41  63  89 130 164 196 256 313 360
#     4  11  22  39  66  94 119 161 213 249 300 372
#     4  11  22  39  64  94 121 157 211 255 295 369
#     4  10  21  42  64  88 129 165 198 251 317 363
#     4  10  22  41  63  91 126 160 205 256 304 363
#     4  11  22  41  65  91 125 164 204 253 310 361
#     4  10  21  42  64  86 130 165 196 255 315 358
#     4  11  22  41  63  91 128 160 203 256 305 364
#
# _framework density 19.885822999999998
#
# number of rings (size 3 to 8) (size 9 to 14) (size 15 to 20)
#    0.000    1.500    7.500    0.000    0.000    7.000 
#    0.000    2.500    0.000    0.000    0.000    0.000 
#    0.000    0.000    0.000    0.000    0.000    0.000 
#
# Total GULP energy -396545.865916 kJ/mol
# GULP energy per Si atom -12392.058310 kJ/mol
# Density = 1.984056 g / cm^3
# Si number density = 19.885823 Si / 1000 Ang^3
#
#
#
# Elastic Constant Matrix: (Units=GPa)
#
#
# Indices 1 2 3 4 5 6 
#
# 1 53.7552 30.5116 35.5739 0.0000 11.2740 0.0000
# 2 30.5116 115.2391 56.2901 0.0000 4.7643 0.0000
# 3 35.5739 56.2901 144.2972 0.0000 15.7001 0.0000
# 4 0.0000 0.0000 0.0000 14.6552 0.0000 3.6218
# 5 11.2740 4.7643 15.7001 0.0000 33.5687 0.0000
# 6 0.0000 0.0000 0.0000 3.6218 0.0000 30.3687
#
#
#
# Elastic Compliance Matrix: (Units=1/GPa)
#
#
# Indices 1 2 3 4 5 6 
#
# 1 0.024886 -0.004525 -0.003720 0.000000 -0.005976 0.000000
# 2 -0.004525 0.011550 -0.003558 0.000000 0.001545 0.000000
# 3 -0.003720 -0.003558 0.009529 0.000000 -0.002703 0.000000
# 4 0.000000 0.000000 0.000000 0.070307 0.000000 -0.008385
# 5 -0.005976 0.001545 -0.002703 0.000000 0.032841 0.000000
# 6 0.000000 0.000000 0.000000 -0.008385 0.000000 0.033929
#
#
# Mechanical properties :
#
#
# Convention : Reuss Voigt Hill
#
# Bulk Modulus (GPa) = 44.72366 62.00474 53.36420
# Shear Modulus (GPa) = 23.35337 28.44624 25.89980
#
# Velocity S-wave (km/s) = 3.43063 3.78627 3.61283
# Velocity P-wave (km/s) = 6.18315 7.09665 6.65559
#
# Compressibility (1/GPa) = 0.02235953
#
# Stress axis : x y z
#
# Youngs Moduli (GPa) = 40.18271 86.58146 104.94006
#
# Poissons Ratio (x) = 0.39178 0.39036
# Poissons Ratio (y) = 0.18183 0.37338
# Poissons Ratio (z) = 0.14947 0.30806
#
# Static dielectric constant tensor:
#      x y z
#    x 3.775070 0.000000 0.168950 
#    y 0.000000 3.583470 0.000000 
#    z 0.168950 0.000000 3.544130 
# 
# 
# High freq. dielectric constant tensor:
#      x y z
#    x 1.779120 0.000000 0.012570 
#    y 0.000000 1.769030 0.000000 
#    z 0.012570 0.000000 1.770360 
# 
# From -- ./inp_files/41233.got.cif
#   From: 2010.03.12/outbox.cif.g09.slc.cpg/sg14_21_cif.got.tgz:41233.got - 2010.03.31 13:35:05.
