data_PCOD8126444
_publ_section_title
;
Structure prediction by ZEFSAII (Michael W. Deem and Ramdas Pophale) SiO2 
 PCOD8126444
Probable space group: P 21/C
;
_chemical_formula_sum "Si O2"
_cell_formula_units_Z 32
_cell_length_a 12.466183
_cell_length_b 14.444546
_cell_length_c 8.941655
_cell_angle_alpha 90.000000
_cell_angle_beta 111.849852
_cell_angle_gamma 90.000000
_cell_volume 1494.442651
_symmetry_space_group_name_H-M "P 21/C"
_symmetry_group_IT_number 14
_symmetry_cell_setting 'monoclinic'
loop_
_space_group_symop_operation_xyz
x,y,z
-x,1/2+y,1/2-z
-x,-y,-z
x,1/2-y,1/2+z
loop_
_atom_site_type_symbol
_atom_site_label
_atom_site_fract_x
_atom_site_fract_y
_atom_site_fract_z
Si Si1 0.108546 0.173055 0.771857
Si Si2 0.494275 0.030804 0.813974
Si Si3 0.711342 0.700257 0.259191
Si Si4 0.581349 0.354360 0.600141
Si Si5 0.244774 0.464317 0.518896
Si Si6 0.961026 0.224016 0.426460
Si Si7 0.567062 0.689916 0.909948
Si Si8 0.826037 0.343877 0.581831
O O1 0.187098 0.262629 0.790867
O O2 0.034727 0.160605 0.580365
O O3 0.033632 0.194055 0.882780
O O4 0.193346 0.085602 0.843095
O O5 0.475051 0.085563 0.650377
O O6 0.404719 0.944063 0.780652
O O7 0.621507 0.992676 0.919872
O O8 0.479940 0.112712 0.931289
O O9 0.765191 0.605109 0.348375
O O10 0.676198 0.772615 0.371242
O O11 0.599703 0.679396 0.100218
O O12 0.536562 0.264001 0.664153
O O13 0.697683 0.325604 0.576482
O O14 0.167299 0.556326 0.495884
O O15 0.858712 0.269474 0.472412
O O16 0.910570 0.159206 0.269329
#
# Coordination Sequence:
#
# PCOD8126444 Si02
#       8
#     4   4   4   4   4   4   4   4
#     4  11  21  43  71  90 131 165 221 278 328 386
#     4  10  22  40  62  98 135 171 212 264 322 399
#     4  12  22  40  66 101 126 179 214 267 330 391
#     4  10  21  40  63  94 135 176 207 266 324 390
#     4  11  23  42  67  98 132 166 219 269 325 387
#     4  10  23  46  66  96 123 174 222 272 335 388
#     4  12  23  38  68  94 137 176 219 258 330 395
#     4  10  25  41  69  94 133 170 221 267 329 390
#
# _framework density 21.412665000000001
#
# number of rings (size 3 to 8) (size 9 to 14) (size 15 to 20)
#    0.000    1.250    5.000    0.000    7.000    1.500 
#    0.000    2.500    0.000    0.000    0.000    0.000 
#    0.000    0.000    0.000    0.000    0.000    0.000 
#
# Total GULP energy -396460.233964 kJ/mol
# GULP energy per Si atom -12389.382311 kJ/mol
# Density = 2.136393 g / cm^3
# Si number density = 21.412665 Si / 1000 Ang^3
#
#
#
# Elastic Constant Matrix: (Units=GPa)
#
#
# Indices 1 2 3 4 5 6 
#
# 1 93.0251 33.5472 16.2059 0.0000 -2.4802 0.0000
# 2 33.5472 91.6004 21.4456 0.0000 9.8175 0.0000
# 3 16.2059 21.4456 85.1379 0.0000 12.2151 0.0000
# 4 0.0000 0.0000 0.0000 47.2377 0.0000 3.7529
# 5 -2.4802 9.8175 12.2151 0.0000 20.7915 0.0000
# 6 0.0000 0.0000 0.0000 3.7529 0.0000 26.8940
#
#
#
# Elastic Compliance Matrix: (Units=1/GPa)
#
#
# Indices 1 2 3 4 5 6 
#
# 1 0.012964 -0.004821 -0.001968 0.000000 0.004979 0.000000
# 2 -0.004821 0.013724 -0.001668 0.000000 -0.006076 0.000000
# 3 -0.001968 -0.001668 0.013608 0.000000 -0.007442 0.000000
# 4 0.000000 0.000000 0.000000 0.021407 0.000000 -0.002987
# 5 0.004979 -0.006076 -0.007442 0.000000 0.055932 0.000000
# 6 0.000000 0.000000 0.000000 -0.002987 0.000000 0.037600
#
#
# Mechanical properties :
#
#
# Convention : Reuss Voigt Hill
#
# Bulk Modulus (GPa) = 42.76468 45.79565 44.28017
# Shear Modulus (GPa) = 27.78691 32.22230 30.00461
#
# Velocity S-wave (km/s) = 3.60625 3.88341 3.74740
# Velocity P-wave (km/s) = 6.11188 6.44527 6.28079
#
# Compressibility (1/GPa) = 0.02338378
#
# Stress axis : x y z
#
# Youngs Moduli (GPa) = 77.13800 72.86451 73.48615
#
# Poissons Ratio (x) = 0.35126 0.14460
# Poissons Ratio (y) = 0.37186 0.12255
# Poissons Ratio (z) = 0.15178 0.12152
#
# Static dielectric constant tensor:
#      x y z
#    x 3.770020 0.000000 0.031500 
#    y 0.000000 4.005780 0.000000 
#    z 0.031500 0.000000 4.007670 
# 
# 
# High freq. dielectric constant tensor:
#      x y z
#    x 1.831800 0.000000 0.000030 
#    y 0.000000 1.830370 0.000000 
#    z 0.000030 0.000000 1.840290 
# 
# From -- ./inp_files/13364.got.cif
#   From: 2010.03.12/outbox.cif.g09.slc.cpg/sg14_7_cif.got.tgz:13364.got - 2010.03.31 13:35:05.
