data_PCOD8126524
_publ_section_title
;
Structure prediction by ZEFSAII (Michael W. Deem and Ramdas Pophale) SiO2 
 PCOD8126524
Probable space group: P 21/C
;
_chemical_formula_sum "Si O2"
_cell_formula_units_Z 20
_cell_length_a 8.181642
_cell_length_b 17.519097
_cell_length_c 9.996265
_cell_angle_alpha 90.000000
_cell_angle_beta 142.243907
_cell_angle_gamma 90.000000
_cell_volume 877.314233
_symmetry_space_group_name_H-M "P 21/C"
_symmetry_group_IT_number 14
_symmetry_cell_setting 'monoclinic'
loop_
_space_group_symop_operation_xyz
x,y,z
-x,1/2+y,1/2-z
-x,-y,-z
x,1/2-y,1/2+z
loop_
_atom_site_type_symbol
_atom_site_label
_atom_site_fract_x
_atom_site_fract_y
_atom_site_fract_z
Si Si1 0.857315 0.961367 0.108065
Si Si2 0.772162 0.593731 0.116632
Si Si3 0.777292 0.302317 0.515635
Si Si4 0.231122 0.666550 0.790930
Si Si5 0.618154 0.562782 0.730904
O O1 0.823310 0.955931 0.245903
O O2 0.949228 0.879203 0.110983
O O3 0.088899 0.022323 0.219736
O O4 0.576525 0.990022 0.864170
O O5 0.925245 0.670965 0.255249
O O6 0.464048 0.603340 0.958079
O O7 0.797339 0.581800 0.973930
O O8 0.733115 0.223014 0.562002
O O9 0.747683 0.289237 0.336612
O O10 0.565300 0.364997 0.429608
#
# Coordination Sequence:
#
# PCOD8126524 Si02
#       5
#     4   4   4   4   4
#     4  10  21  40  67  95 125 167 208 267 308 375
#     4  10  22  41  64  93 126 166 215 257 317 373
#     4  10  25  42  61  94 130 167 212 259 314 383
#     4  11  25  41  64  94 129 167 211 261 314 375
#     4   9  21  42  64  97 130 161 211 261 316 373
#
# _framework density 22.796848000000001
#
# number of rings (size 3 to 8) (size 9 to 14) (size 15 to 20)
#    0.000    2.000    0.000    1.200    5.600   10.400 
#    0.000    0.000    0.000    0.000    0.000    0.000 
#    0.000    0.000    0.000    0.000    0.000    0.000 
#
# Total GULP energy -248018.258623 kJ/mol
# GULP energy per Si atom -12400.912931 kJ/mol
# Density = 2.274496 g / cm^3
# Si number density = 22.796848 Si / 1000 Ang^3
#
#
#
# Elastic Constant Matrix: (Units=GPa)
#
#
# Indices 1 2 3 4 5 6 
#
# 1 91.0591 44.0640 23.5116 0.0000 2.4107 0.0000
# 2 44.0640 91.8841 12.7532 0.0000 1.7538 0.0000
# 3 23.5116 12.7532 67.6709 0.0000 -5.6643 0.0000
# 4 0.0000 0.0000 0.0000 25.9743 0.0000 -3.5216
# 5 2.4107 1.7538 -5.6643 0.0000 30.2136 0.0000
# 6 0.0000 0.0000 0.0000 -3.5216 0.0000 38.5225
#
#
#
# Elastic Compliance Matrix: (Units=1/GPa)
#
#
# Indices 1 2 3 4 5 6 
#
# 1 0.015383 -0.006762 -0.004206 0.000000 -0.001623 0.000000
# 2 -0.006762 0.014182 -0.000352 0.000000 -0.000350 0.000000
# 3 -0.004206 -0.000352 0.016595 0.000000 0.003467 0.000000
# 4 0.000000 0.000000 0.000000 0.038983 0.000000 0.003564
# 5 -0.001623 -0.000350 0.003467 0.000000 0.033898 0.000000
# 6 0.000000 0.000000 0.000000 0.003564 0.000000 0.026285
#
#
# Mechanical properties :
#
#
# Convention : Reuss Voigt Hill
#
# Bulk Modulus (GPa) = 42.51982 45.69686 44.10834
# Shear Modulus (GPa) = 28.44023 30.29442 29.36733
#
# Velocity S-wave (km/s) = 3.53590 3.64934 3.59307
# Velocity P-wave (km/s) = 5.94662 6.15189 6.05012
#
# Compressibility (1/GPa) = 0.02351844
#
# Stress axis : x y z
#
# Youngs Moduli (GPa) = 65.00559 70.51256 60.25740
#
# Poissons Ratio (x) = 0.47684 0.25346
# Poissons Ratio (y) = 0.43960 0.02124
# Poissons Ratio (z) = 0.27343 0.02485
#
# Static dielectric constant tensor:
#      x y z
#    x 3.973490 0.000000 0.113920 
#    y 0.000000 3.903810 0.000000 
#    z 0.113920 0.000000 4.037880 
# 
# 
# High freq. dielectric constant tensor:
#      x y z
#    x 1.896310 0.000000 0.002830 
#    y 0.000000 1.886870 0.000000 
#    z 0.002830 0.000000 1.900670 
# 
# From -- ./inp_files/21339.got.cif
#   From: 2010.03.12/outbox.cif.g09.slc.cpg/sg14_11_cif.got.tgz:21339.got - 2010.03.31 13:35:05.
