data_PCOD8126237
_publ_section_title
;
Structure prediction by ZEFSAII (Michael W. Deem and Ramdas Pophale) SiO2 
 PCOD8126237
Probable space group: P 21/C
;
_chemical_formula_sum "Si O2"
_cell_formula_units_Z 16
_cell_length_a 12.829570
_cell_length_b 4.944904
_cell_length_c 13.001384
_cell_angle_alpha 90.000000
_cell_angle_beta 61.584390
_cell_angle_gamma 90.000000
_cell_volume 725.445442
_symmetry_space_group_name_H-M "P 21/C"
_symmetry_group_IT_number 14
_symmetry_cell_setting 'monoclinic'
loop_
_space_group_symop_operation_xyz
x,y,z
-x,1/2+y,1/2-z
-x,-y,-z
x,1/2-y,1/2+z
loop_
_atom_site_type_symbol
_atom_site_label
_atom_site_fract_x
_atom_site_fract_y
_atom_site_fract_z
Si Si1 0.762577 0.054245 0.966555
Si Si2 0.737161 0.946011 0.338974
Si Si3 0.011910 0.557988 0.309865
Si Si4 0.422955 0.951030 0.770275
O O1 0.738397 0.354378 0.936275
O O2 0.901402 0.018423 0.936344
O O3 0.732527 0.855238 0.885971
O O4 0.682420 0.990440 0.101439
O O5 0.855514 0.990058 0.212086
O O6 0.621995 0.993862 0.323831
O O7 0.005259 0.874876 0.285395
O O8 0.466062 0.643392 0.757660
#
# Coordination Sequence:
#
# PCOD8126237 Si02
#       4
#     4   4   4   4
#     4  10  21  39  61  84 114 147 183 236 286 328
#     4  10  21  39  61  84 114 147 183 236 286 328
#     4   8  16  33  58  85 108 138 182 227 284 341
#     4  12  26  39  56  85 114 152 200 226 266 340
#
# _framework density 22.055413000000001
#
# number of rings (size 3 to 8) (size 9 to 14) (size 15 to 20)
#    0.000    2.000    0.000    3.000    0.000    7.000 
#    0.000    0.000    0.000   21.000    0.000    0.000 
#    0.000    0.000    0.000    0.000    0.000    0.000 
#
# Total GULP energy -198344.094978 kJ/mol
# GULP energy per Si atom -12396.505936 kJ/mol
# Density = 2.200521 g / cm^3
# Si number density = 22.055413 Si / 1000 Ang^3
#
#
#
# Elastic Constant Matrix: (Units=GPa)
#
#
# Indices 1 2 3 4 5 6 
#
# 1 49.9808 1.9690 13.0992 0.0000 -11.2370 0.0000
# 2 1.9690 80.7956 6.4753 0.0000 -5.5620 0.0000
# 3 13.0992 6.4753 72.2972 0.0000 -18.1022 0.0000
# 4 0.0000 0.0000 0.0000 23.7405 0.0000 -7.1321
# 5 -11.2370 -5.5620 -18.1022 0.0000 21.3681 0.0000
# 6 0.0000 0.0000 0.0000 -7.1321 0.0000 31.7701
#
#
#
# Elastic Compliance Matrix: (Units=1/GPa)
#
#
# Indices 1 2 3 4 5 6 
#
# 1 0.022814 0.000307 -0.001443 0.000000 0.010855 0.000000
# 2 0.000307 0.012616 -0.000410 0.000000 0.003098 0.000000
# 3 -0.001443 -0.000410 0.017659 0.000000 0.014094 0.000000
# 4 0.000000 0.000000 0.000000 0.045168 0.000000 0.010140
# 5 0.010855 0.003098 0.014094 0.000000 0.065253 0.000000
# 6 0.000000 0.000000 0.000000 0.010140 0.000000 0.033752
#
#
# Mechanical properties :
#
#
# Convention : Reuss Voigt Hill
#
# Bulk Modulus (GPa) = 20.00139 27.35117 23.67628
# Shear Modulus (GPa) = 23.03926 27.47775 25.25850
#
# Velocity S-wave (km/s) = 3.23555 3.53349 3.38779
# Velocity P-wave (km/s) = 4.80070 5.39216 5.10501
#
# Compressibility (1/GPa) = 0.04999654
#
# Stress axis : x y z
#
# Youngs Moduli (GPa) = 43.83220 79.26729 56.62826
#
# Poissons Ratio (x) = -0.02433 0.08173
# Poissons Ratio (y) = -0.01345 0.02321
# Poissons Ratio (z) = 0.06326 0.03249
#
# Static dielectric constant tensor:
#      x y z
#    x 3.952740 0.000000 -0.500170 
#    y 0.000000 3.964160 0.000000 
#    z -0.500170 0.000000 3.623660 
# 
# 
# High freq. dielectric constant tensor:
#      x y z
#    x 1.860600 0.000000 -0.039040 
#    y 0.000000 1.883290 0.000000 
#    z -0.039040 0.000000 1.839410 
# 
# From -- ./inp_files/247.got.cif
#   From: 2010.03.12/outbox.cif.g09.slc.cpg/sg14_1_cif.got.tgz:247.got - 2010.03.31 13:35:05.
