data_PCOD8126181
_publ_section_title
;
Structure prediction by ZEFSAII (Michael W. Deem and Ramdas Pophale) SiO2 
 PCOD8126181
Probable space group: P 21/C
;
_chemical_formula_sum "Si O2"
_cell_formula_units_Z 32
_cell_length_a 5.062523
_cell_length_b 10.631065
_cell_length_c 23.457942
_cell_angle_alpha 90.000000
_cell_angle_beta 90.639705
_cell_angle_gamma 90.000000
_cell_volume 1262.428009
_symmetry_space_group_name_H-M "P 21/C"
_symmetry_group_IT_number 14
_symmetry_cell_setting 'monoclinic'
loop_
_space_group_symop_operation_xyz
x,y,z
-x,1/2+y,1/2-z
-x,-y,-z
x,1/2-y,1/2+z
loop_
_atom_site_type_symbol
_atom_site_label
_atom_site_fract_x
_atom_site_fract_y
_atom_site_fract_z
Si Si1 0.841787 0.790871 0.488265
Si Si2 0.062752 0.003439 0.662673
Si Si3 0.772940 0.257731 0.342827
Si Si4 0.747668 0.030237 0.551993
Si Si5 0.740719 0.493255 0.270587
Si Si6 0.278151 0.347135 0.403470
Si Si7 0.413590 0.196381 0.623426
Si Si8 0.251082 0.914826 0.832080
O O1 0.812487 0.673741 0.531395
O O2 0.752529 0.732248 0.426755
O O3 0.136264 0.850392 0.484079
O O4 0.665386 0.910538 0.512067
O O5 0.253147 0.885715 0.678448
O O6 0.810517 0.004681 0.704257
O O7 0.223700 0.136189 0.671650
O O8 0.976538 0.986987 0.596793
O O9 0.567549 0.289752 0.392664
O O10 0.732684 0.348068 0.288842
O O11 0.074055 0.273744 0.363300
O O12 0.507738 0.072352 0.590335
O O13 0.950887 0.577569 0.308158
O O14 0.449585 0.546956 0.281586
O O15 0.279474 0.494798 0.387343
O O16 0.660910 0.275495 0.647785
#
# Coordination Sequence:
#
# PCOD8126181 Si02
#       8
#     4   4   4   4   4   4   4   4
#     4  10  21  38  65  93 133 172 219 273 336 386
#     4  11  24  39  67  97 126 176 217 275 333 397
#     4  10  22  41  64  94 126 162 225 268 318 392
#     4  10  22  39  61  99 133 164 225 272 335 394
#     4  10  25  44  67  95 126 179 215 276 333 386
#     4  10  21  42  67  91 127 175 218 267 319 394
#     4  11  25  39  64  98 139 172 214 280 335 395
#     4  10  25  46  64  94 138 169 226 273 325 403
#
# _framework density 25.347981999999998
#
# number of rings (size 3 to 8) (size 9 to 14) (size 15 to 20)
#    0.000    1.750    1.250    1.125    8.750    0.500 
#    2.250    0.625    0.000    0.000    0.000    0.000 
#    0.000    0.000    0.000    0.000    0.000    0.000 
#
# Total GULP energy -396640.885416 kJ/mol
# GULP energy per Si atom -12395.027669 kJ/mol
# Density = 2.529029 g / cm^3
# Si number density = 25.347982 Si / 1000 Ang^3
#
#
#
# Elastic Constant Matrix: (Units=GPa)
#
#
# Indices 1 2 3 4 5 6 
#
# 1 52.3387 -0.1969 -8.5885 0.0000 -6.4301 0.0000
# 2 -0.1969 68.6704 15.5162 0.0000 11.5509 0.0000
# 3 -8.5885 15.5162 82.7874 0.0000 -2.8656 0.0000
# 4 0.0000 0.0000 0.0000 18.2244 0.0000 -6.0626
# 5 -6.4301 11.5509 -2.8656 0.0000 21.1059 0.0000
# 6 0.0000 0.0000 0.0000 -6.0626 0.0000 20.6197
#
#
#
# Elastic Compliance Matrix: (Units=1/GPa)
#
#
# Indices 1 2 3 4 5 6 
#
# 1 0.020484 -0.001841 0.002734 0.000000 0.007619 0.000000
# 2 -0.001841 0.017170 -0.003771 0.000000 -0.010470 0.000000
# 3 0.002734 -0.003771 0.013232 0.000000 0.004693 0.000000
# 4 0.000000 0.000000 0.000000 0.060820 0.000000 0.017882
# 5 0.007619 -0.010470 0.004693 0.000000 0.056069 0.000000
# 6 0.000000 0.000000 0.000000 0.017882 0.000000 0.053755
#
#
# Mechanical properties :
#
#
# Convention : Reuss Voigt Hill
#
# Bulk Modulus (GPa) = 22.15825 24.13977 23.14901
# Shear Modulus (GPa) = 20.63300 25.12771 22.88036
#
# Velocity S-wave (km/s) = 2.85615 3.15192 3.00767
# Velocity P-wave (km/s) = 4.43141 4.77391 4.60584
#
# Compressibility (1/GPa) = 0.04512991
#
# Stress axis : x y z
#
# Youngs Moduli (GPa) = 48.81843 58.24013 75.57411
#
# Poissons Ratio (x) = 0.10719 -0.20660
# Poissons Ratio (y) = 0.08985 0.28502
# Poissons Ratio (z) = -0.13346 0.21965
#
# Static dielectric constant tensor:
#      x y z
#    x 4.558710 0.000000 -0.096270 
#    y 0.000000 4.443300 0.000000 
#    z -0.096270 0.000000 4.581920 
# 
# 
# High freq. dielectric constant tensor:
#      x y z
#    x 2.015760 0.000000 -0.010390 
#    y 0.000000 1.991740 0.000000 
#    z -0.010390 0.000000 2.010120 
# 
# From -- ./inp_files/71306.got.cif
#   From: 2010.03.12/outbox.cif.g09.slc.cpg/sg14_36_cif.got.tgz:71306.got - 2010.03.31 13:35:05.
