data_PCOD8126691
_publ_section_title
;
Structure prediction by ZEFSAII (Michael W. Deem and Ramdas Pophale) SiO2 
 PCOD8126691
Probable space group: P 21/C
;
_chemical_formula_sum "Si O2"
_cell_formula_units_Z 28
_cell_length_a 21.087817
_cell_length_b 6.449853
_cell_length_c 13.623764
_cell_angle_alpha 90.000000
_cell_angle_beta 46.538494
_cell_angle_gamma 90.000000
_cell_volume 1344.985065
_symmetry_space_group_name_H-M "P 21/C"
_symmetry_group_IT_number 14
_symmetry_cell_setting 'monoclinic'
loop_
_space_group_symop_operation_xyz
x,y,z
-x,1/2+y,1/2-z
-x,-y,-z
x,1/2-y,1/2+z
loop_
_atom_site_type_symbol
_atom_site_label
_atom_site_fract_x
_atom_site_fract_y
_atom_site_fract_z
Si Si1 0.666157 0.217832 0.102199
Si Si2 0.315503 0.108492 0.308248
Si Si3 0.957903 0.813358 0.986090
Si Si4 0.293555 0.796689 0.159153
Si Si5 0.116923 0.972130 0.294147
Si Si6 0.409715 0.498167 0.152084
Si Si7 0.179124 0.073851 0.019937
O O1 0.665453 0.464247 0.118041
O O2 0.584876 0.130755 0.252673
O O3 0.657704 0.162910 0.996854
O O4 0.755050 0.122613 0.057411
O O5 0.393432 0.266875 0.206092
O O6 0.226239 0.218884 0.433055
O O7 0.313365 0.985376 0.209268
O O8 0.897294 0.658864 0.114120
O O9 0.905093 0.940162 0.959636
O O10 0.031635 0.663978 0.860962
O O11 0.000000 0.000000 0.000000
O O12 0.189037 0.802138 0.253528
O O13 0.330645 0.583103 0.166138
O O14 0.147694 0.093237 0.164833
O O15 0.500000 0.500000 0.000000
#
# Coordination Sequence:
#
# PCOD8126691 Si02
#       7
#     4   4   4   4   4   4   4
#     4   9  22  40  64  94 123 167 213 249 319 386
#     4  10  21  41  69  86 127 163 205 260 316 373
#     4  11  25  38  62  90 127 166 215 268 322 365
#     4  10  21  42  65  92 129 169 210 259 316 397
#     4  10  24  41  60  95 124 167 218 255 327 375
#     4  10  23  42  64  99 125 160 210 261 326 379
#     4  10  22  41  62  91 124 165 215 260 313 383
#
# _framework density 20.818073999999999
#
# number of rings (size 3 to 8) (size 9 to 14) (size 15 to 20)
#    0.000    2.000    1.429    0.000    8.000    8.000 
#    5.143    0.000    0.000    0.000    0.000    0.000 
#    0.000    0.000    0.000    0.000    0.000    0.000 
#
# Total GULP energy -346972.358700 kJ/mol
# GULP energy per Si atom -12391.869954 kJ/mol
# Density = 2.077069 g / cm^3
# Si number density = 20.818074 Si / 1000 Ang^3
#
#
#
# Elastic Constant Matrix: (Units=GPa)
#
#
# Indices 1 2 3 4 5 6 
#
# 1 57.9276 28.3950 34.1029 0.0000 9.0266 0.0000
# 2 28.3950 113.1216 41.2741 0.0000 2.8213 0.0000
# 3 34.1029 41.2741 145.1555 0.0000 6.2046 0.0000
# 4 0.0000 0.0000 0.0000 27.1149 0.0000 5.1877
# 5 9.0266 2.8213 6.2046 0.0000 29.9262 0.0000
# 6 0.0000 0.0000 0.0000 5.1877 0.0000 19.9234
#
#
#
# Elastic Compliance Matrix: (Units=1/GPa)
#
#
# Indices 1 2 3 4 5 6 
#
# 1 0.022405 -0.004074 -0.003867 0.000000 -0.005572 0.000000
# 2 -0.004074 0.010608 -0.002087 0.000000 0.000662 0.000000
# 3 -0.003867 -0.002087 0.008408 0.000000 -0.000380 0.000000
# 4 0.000000 0.000000 0.000000 0.038814 0.000000 -0.010107
# 5 -0.005572 0.000662 -0.000380 0.000000 0.035113 0.000000
# 6 0.000000 0.000000 0.000000 -0.010107 0.000000 0.052824
#
#
# Mechanical properties :
#
#
# Convention : Reuss Voigt Hill
#
# Bulk Modulus (GPa) = 46.80985 58.19428 52.50207
# Shear Modulus (GPa) = 25.59529 29.55508 27.57519
#
# Velocity S-wave (km/s) = 3.51019 3.77196 3.64343
# Velocity P-wave (km/s) = 6.24200 6.85453 6.55543
#
# Compressibility (1/GPa) = 0.02136302
#
# Stress axis : x y z
#
# Youngs Moduli (GPa) = 44.63319 94.27047 118.94128
#
# Poissons Ratio (x) = 0.38405 0.45997
# Poissons Ratio (y) = 0.18183 0.24828
# Poissons Ratio (z) = 0.17261 0.19678
#
# Static dielectric constant tensor:
#      x y z
#    x 3.669100 0.000000 0.075370 
#    y 0.000000 3.798720 0.000000 
#    z 0.075370 0.000000 4.008190 
# 
# 
# High freq. dielectric constant tensor:
#      x y z
#    x 1.792760 0.000000 0.010110 
#    y 0.000000 1.815130 0.000000 
#    z 0.010110 0.000000 1.834010 
# 
# From -- ./inp_files/51707.got.cif
#   From: 2010.03.12/outbox.cif.g09.slc.cpg/sg14_26_cif.got.tgz:51707.got - 2010.03.31 13:35:05.
