data_PCOD8126755
_publ_section_title
;
Structure prediction by ZEFSAII (Michael W. Deem and Ramdas Pophale) SiO2 
 PCOD8126755
Probable space group: P 21/C
;
_chemical_formula_sum "Si O2"
_cell_formula_units_Z 28
_cell_length_a 8.833343
_cell_length_b 18.549241
_cell_length_c 15.277262
_cell_angle_alpha 90.000000
_cell_angle_beta 31.613035
_cell_angle_gamma 90.000000
_cell_volume 1312.130204
_symmetry_space_group_name_H-M "P 21/C"
_symmetry_group_IT_number 14
_symmetry_cell_setting 'monoclinic'
loop_
_space_group_symop_operation_xyz
x,y,z
-x,1/2+y,1/2-z
-x,-y,-z
x,1/2-y,1/2+z
loop_
_atom_site_type_symbol
_atom_site_label
_atom_site_fract_x
_atom_site_fract_y
_atom_site_fract_z
Si Si1 0.329936 0.202294 0.347613
Si Si2 0.657531 0.838329 0.032680
Si Si3 0.571260 0.343340 0.996011
Si Si4 0.851141 0.768600 0.758464
Si Si5 0.741780 0.105178 0.228457
Si Si6 0.345442 0.977228 0.425185
Si Si7 0.877177 0.407591 0.138535
O O1 0.372664 0.276997 0.378153
O O2 0.276995 0.209222 0.271160
O O3 0.618600 0.152720 0.208744
O O4 0.059772 0.162231 0.523760
O O5 0.709371 0.812076 0.908805
O O6 0.914161 0.891794 0.936136
O O7 0.362273 0.883855 0.173329
O O8 0.249227 0.314561 0.177673
O O9 0.632000 0.420300 0.008560
O O10 0.589496 0.354208 0.884289
O O11 0.804960 0.282207 0.910847
O O12 0.642621 0.022195 0.270946
O O13 0.294021 0.936400 0.360824
O O14 0.079282 0.030278 0.579585
#
# Coordination Sequence:
#
# PCOD8126755 Si02
#       7
#     4   4   4   4   4   4   4
#     4  11  21  41  64  93 130 171 201 273 320 381
#     4  11  23  41  63 102 126 163 217 272 310 376
#     4  11  22  43  61  99 121 169 209 270 312 386
#     4  11  25  39  67  95 132 159 218 262 326 375
#     4  10  23  38  66  90 131 165 214 258 319 376
#     4  10  21  42  65  88 129 177 211 249 326 387
#     4  10  22  40  67  90 127 172 213 255 323 377
#
# _framework density 21.339345000000002
#
# number of rings (size 3 to 8) (size 9 to 14) (size 15 to 20)
#    0.000    1.429    2.857    2.143    4.000    0.571 
#    0.000    4.286    0.000    0.000    0.000    0.000 
#    0.000    0.000    0.000    0.000    0.000    0.000 
#
# Total GULP energy -347150.219874 kJ/mol
# GULP energy per Si atom -12398.222138 kJ/mol
# Density = 2.129078 g / cm^3
# Si number density = 21.339345 Si / 1000 Ang^3
#
#
#
# Elastic Constant Matrix: (Units=GPa)
#
#
# Indices 1 2 3 4 5 6 
#
# 1 60.9296 14.1780 3.3999 0.0000 2.3106 0.0000
# 2 14.1780 81.5670 20.8963 0.0000 -22.9079 0.0000
# 3 3.3999 20.8963 61.7561 0.0000 -19.0823 0.0000
# 4 0.0000 0.0000 0.0000 22.5266 0.0000 -7.2693
# 5 2.3106 -22.9079 -19.0823 0.0000 20.2346 0.0000
# 6 0.0000 0.0000 0.0000 -7.2693 0.0000 28.9427
#
#
#
# Elastic Compliance Matrix: (Units=1/GPa)
#
#
# Indices 1 2 3 4 5 6 
#
# 1 0.018238 -0.005536 -0.002415 0.000000 -0.010628 0.000000
# 2 -0.005536 0.019659 0.001023 0.000000 0.023854 0.000000
# 3 -0.002415 0.001023 0.023176 0.000000 0.023291 0.000000
# 4 0.000000 0.000000 0.000000 0.048307 0.000000 0.012133
# 5 -0.010628 0.023854 0.023291 0.000000 0.099604 0.000000
# 6 0.000000 0.000000 0.000000 0.012133 0.000000 0.037598
#
#
# Mechanical properties :
#
#
# Convention : Reuss Voigt Hill
#
# Bulk Modulus (GPa) = 21.17804 31.24457 26.21131
# Shear Modulus (GPa) = 18.10427 25.39269 21.74848
#
# Velocity S-wave (km/s) = 2.91589 3.45330 3.19591
# Velocity P-wave (km/s) = 4.61330 5.52937 5.09198
#
# Compressibility (1/GPa) = 0.04721872
#
# Stress axis : x y z
#
# Youngs Moduli (GPa) = 54.82927 50.86631 43.14805
#
# Poissons Ratio (x) = 0.28162 0.10419
# Poissons Ratio (y) = 0.30356 -0.04416
# Poissons Ratio (z) = 0.13239 -0.05206
#
# Static dielectric constant tensor:
#      x y z
#    x 4.095430 0.000000 -0.197530 
#    y 0.000000 3.923510 0.000000 
#    z -0.197530 0.000000 3.792110 
# 
# 
# High freq. dielectric constant tensor:
#      x y z
#    x 1.854790 0.000000 -0.008640 
#    y 0.000000 1.833580 0.000000 
#    z -0.008640 0.000000 1.822750 
# 
# From -- ./inp_files/16830.got.cif
#   From: 2010.03.12/outbox.cif.g09.slc.cpg/sg14_9_cif.got.tgz:16830.got - 2010.03.31 13:35:05.
