data_PCOD8126483
_publ_section_title
;
Structure prediction by ZEFSAII (Michael W. Deem and Ramdas Pophale) SiO2 
 PCOD8126483
Probable space group: P 21/C
;
_chemical_formula_sum "Si O2"
_cell_formula_units_Z 20
_cell_length_a 11.754172
_cell_length_b 9.745558
_cell_length_c 18.012159
_cell_angle_alpha 90.000000
_cell_angle_beta 28.336338
_cell_angle_gamma 90.000000
_cell_volume 979.343020
_symmetry_space_group_name_H-M "P 21/C"
_symmetry_group_IT_number 14
_symmetry_cell_setting 'monoclinic'
loop_
_space_group_symop_operation_xyz
x,y,z
-x,1/2+y,1/2-z
-x,-y,-z
x,1/2-y,1/2+z
loop_
_atom_site_type_symbol
_atom_site_label
_atom_site_fract_x
_atom_site_fract_y
_atom_site_fract_z
Si Si1 0.459996 0.841248 0.550375
Si Si2 0.268323 0.426132 0.599745
Si Si3 0.195713 0.641492 0.063370
Si Si4 0.141610 0.920984 0.022036
Si Si5 0.352096 0.975657 0.749671
O O1 0.688726 0.739781 0.423254
O O2 0.275929 0.784345 0.594699
O O3 0.500000 0.000000 0.500000
O O4 0.349537 0.842002 0.696982
O O5 0.500000 0.500000 0.500000
O O6 0.208892 0.478546 0.551055
O O7 0.038430 0.451922 0.784814
O O8 0.139116 0.761939 0.040468
O O9 0.397629 0.550627 0.908774
O O10 0.875117 0.936083 0.144077
O O11 0.338181 0.941893 0.844431
#
# Coordination Sequence:
#
# PCOD8126483 Si02
#       5
#     4   4   4   4   4
#     4  10  21  40  65  91 128 176 218 260 325 389
#     4  12  25  40  69 103 130 170 230 275 324 395
#     4  11  22  42  69  94 133 173 224 275 325 398
#     4  11  24  43  65 100 135 173 222 279 326 401
#     4  10  24  44  66  92 135 180 216 267 347 385
#
# _framework density 20.421854
#
# number of rings (size 3 to 8) (size 9 to 14) (size 15 to 20)
#    0.000    1.200    4.000    2.400    5.600    0.000 
#    0.000    1.000    0.000    0.000    0.000    0.000 
#    0.000    0.000    0.000    0.000    0.000    0.000 
#
# Total GULP energy -247795.884620 kJ/mol
# GULP energy per Si atom -12389.794231 kJ/mol
# Density = 2.037537 g / cm^3
# Si number density = 20.421854 Si / 1000 Ang^3
#
#
#
# Elastic Constant Matrix: (Units=GPa)
#
#
# Indices 1 2 3 4 5 6 
#
# 1 99.7824 30.7108 65.3893 0.0000 19.4678 0.0000
# 2 30.7108 52.0305 42.3877 0.0000 16.6296 0.0000
# 3 65.3893 42.3877 184.2030 0.0000 17.4692 0.0000
# 4 0.0000 0.0000 0.0000 28.9323 0.0000 -2.9986
# 5 19.4678 16.6296 17.4692 0.0000 34.3858 0.0000
# 6 0.0000 0.0000 0.0000 -2.9986 0.0000 32.8263
#
#
#
# Elastic Compliance Matrix: (Units=1/GPa)
#
#
# Indices 1 2 3 4 5 6 
#
# 1 0.014659 -0.004134 -0.003840 0.000000 -0.004349 0.000000
# 2 -0.004134 0.027891 -0.004090 0.000000 -0.009070 0.000000
# 3 -0.003840 -0.004090 0.007711 0.000000 0.000235 0.000000
# 4 0.000000 0.000000 0.000000 0.034894 0.000000 0.003187
# 5 -0.004349 -0.009070 0.000235 0.000000 0.035811 0.000000
# 6 0.000000 0.000000 0.000000 0.003187 0.000000 0.030755
#
#
# Mechanical properties :
#
#
# Convention : Reuss Voigt Hill
#
# Bulk Modulus (GPa) = 38.26734 68.11015 53.18875
# Shear Modulus (GPa) = 27.09146 32.39742 29.74444
#
# Velocity S-wave (km/s) = 3.64619 3.98730 3.82055
# Velocity P-wave (km/s) = 6.04197 7.39067 6.75009
#
# Compressibility (1/GPa) = 0.02613194
#
# Stress axis : x y z
#
# Youngs Moduli (GPa) = 68.21673 35.85411 129.68629
#
# Poissons Ratio (x) = 0.14823 0.49799
# Poissons Ratio (y) = 0.28202 0.53046
# Poissons Ratio (z) = 0.26195 0.14666
#
# Static dielectric constant tensor:
#      x y z
#    x 4.280860 0.000000 0.246400 
#    y 0.000000 3.713610 0.000000 
#    z 0.246400 0.000000 3.960570 
# 
# 
# High freq. dielectric constant tensor:
#      x y z
#    x 1.803740 0.000000 0.000220 
#    y 0.000000 1.787430 0.000000 
#    z 0.000220 0.000000 1.808140 
# 
# From -- ./inp_files/27750.got.cif
#   From: 2010.03.12/outbox.cif.g09.slc.cpg/sg14_14_cif.got.tgz:27750.got - 2010.03.31 13:35:05.
