data_PCOD8126619
_publ_section_title
;
Structure prediction by ZEFSAII (Michael W. Deem and Ramdas Pophale) SiO2 
 PCOD8126619
Probable space group: P 21/C
;
_chemical_formula_sum "Si O2"
_cell_formula_units_Z 32
_cell_length_a 22.185818
_cell_length_b 12.007516
_cell_length_c 16.261036
_cell_angle_alpha 90.000000
_cell_angle_beta 160.299697
_cell_angle_gamma 90.000000
_cell_volume 1460.279167
_symmetry_space_group_name_H-M "P 21/C"
_symmetry_group_IT_number 14
_symmetry_cell_setting 'monoclinic'
loop_
_space_group_symop_operation_xyz
x,y,z
-x,1/2+y,1/2-z
-x,-y,-z
x,1/2-y,1/2+z
loop_
_atom_site_type_symbol
_atom_site_label
_atom_site_fract_x
_atom_site_fract_y
_atom_site_fract_z
Si Si1 0.110768 0.402245 0.416283
Si Si2 0.374977 0.090527 0.962742
Si Si3 0.777631 0.462819 0.587127
Si Si4 0.487969 0.171378 0.624602
Si Si5 0.208293 0.507160 0.783526
Si Si6 0.138834 0.342686 0.008511
Si Si7 0.330823 0.922117 0.286387
Si Si8 0.751270 0.487486 0.973056
O O1 0.205574 0.428974 0.451033
O O2 0.169345 0.288349 0.534832
O O3 0.156910 0.508432 0.533022
O O4 0.895698 0.395725 0.128187
O O5 0.284832 0.114006 0.760104
O O6 0.242984 0.015127 0.848657
O O7 0.430685 0.205928 0.079400
O O8 0.560643 0.027430 0.185580
O O9 0.599682 0.391902 0.338861
O O10 0.945403 0.378830 0.795359
O O11 0.302961 0.105068 0.371703
O O12 0.616594 0.179074 0.707405
O O13 0.286478 0.608535 0.825120
O O14 0.000000 0.500000 0.500000
O O15 0.262875 0.524382 0.947194
O O16 0.173437 0.394400 0.962732
O O17 0.500000 0.000000 0.500000
#
# Coordination Sequence:
#
# PCOD8126619 Si02
#       8
#     4   4   4   4   4   4   4   4
#     4  10  21  41  64  91 126 169 207 267 327 378
#     4  12  24  43  66  92 130 176 219 260 325 388
#     4  10  23  42  67  94 130 170 217 274 323 380
#     4  10  22  41  64  95 126 167 210 267 326 389
#     4  11  20  37  64  93 128 157 206 269 323 370
#     4  11  24  43  66  88 131 176 219 260 323 390
#     4   9  18  35  61  92 126 154 196 259 326 367
#     4  11  24  41  62  95 130 165 213 270 314 379
#
# _framework density 21.913619000000001
#
# number of rings (size 3 to 8) (size 9 to 14) (size 15 to 20)
#    0.000    1.500    2.500    3.000    1.750    0.000 
#    0.000    0.000    2.750    0.000    0.000    0.000 
#    0.000    0.000    0.000    0.000    0.000    0.000 
#
# Total GULP energy -396467.885602 kJ/mol
# GULP energy per Si atom -12389.621425 kJ/mol
# Density = 2.186374 g / cm^3
# Si number density = 21.913619 Si / 1000 Ang^3
#
#
#
# Elastic Constant Matrix: (Units=GPa)
#
#
# Indices 1 2 3 4 5 6 
#
# 1 81.4561 16.5736 21.1567 0.0000 -6.9309 0.0000
# 2 16.5736 69.6731 15.8514 0.0000 5.9216 0.0000
# 3 21.1567 15.8514 119.1183 0.0000 6.9475 0.0000
# 4 0.0000 0.0000 0.0000 26.9269 0.0000 -0.6845
# 5 -6.9309 5.9216 6.9475 0.0000 32.6781 0.0000
# 6 0.0000 0.0000 0.0000 -0.6845 0.0000 22.8590
#
#
#
# Elastic Compliance Matrix: (Units=1/GPa)
#
#
# Indices 1 2 3 4 5 6 
#
# 1 0.013840 -0.003113 -0.002276 0.000000 0.003983 0.000000
# 2 -0.003113 0.015672 -0.001345 0.000000 -0.003214 0.000000
# 3 -0.002276 -0.001345 0.009105 0.000000 -0.002175 0.000000
# 4 0.000000 0.000000 0.000000 0.037166 0.000000 0.001113
# 5 0.003983 -0.003214 -0.002175 0.000000 0.032491 0.000000
# 6 0.000000 0.000000 0.000000 0.001113 0.000000 0.043780
#
#
# Mechanical properties :
#
#
# Convention : Reuss Voigt Hill
#
# Bulk Modulus (GPa) = 39.76311 41.93455 40.84883
# Shear Modulus (GPa) = 28.75109 30.93717 29.84413
#
# Velocity S-wave (km/s) = 3.62611 3.76144 3.69439
# Velocity P-wave (km/s) = 5.97632 6.16785 6.07284
#
# Compressibility (1/GPa) = 0.02514894
#
# Stress axis : x y z
#
# Youngs Moduli (GPa) = 72.25392 63.80617 109.82782
#
# Poissons Ratio (x) = 0.19862 0.24999
# Poissons Ratio (y) = 0.22492 0.14774
# Poissons Ratio (z) = 0.16447 0.08583
#
# Static dielectric constant tensor:
#      x y z
#    x 3.533120 0.000000 0.388760 
#    y 0.000000 3.553430 0.000000 
#    z 0.388760 0.000000 4.099650 
# 
# 
# High freq. dielectric constant tensor:
#      x y z
#    x 1.865910 0.000000 0.007970 
#    y 0.000000 1.821800 0.000000 
#    z 0.007970 0.000000 1.881950 
# 
# From -- ./inp_files/62012.got.cif
#   From: 2010.03.12/outbox.cif.g09.slc.cpg/sg14_32_cif.got.tgz:62012.got - 2010.03.31 13:35:05.
