data_PCOD8126476
_publ_section_title
;
Structure prediction by ZEFSAII (Michael W. Deem and Ramdas Pophale) SiO2 
 PCOD8126476
Probable space group: P 21/C
;
_chemical_formula_sum "Si O2"
_cell_formula_units_Z 20
_cell_length_a 5.066750
_cell_length_b 15.720904
_cell_length_c 10.301284
_cell_angle_alpha 90.000000
_cell_angle_beta 104.899592
_cell_angle_gamma 90.000000
_cell_volume 792.949166
_symmetry_space_group_name_H-M "P 21/C"
_symmetry_group_IT_number 14
_symmetry_cell_setting 'monoclinic'
loop_
_space_group_symop_operation_xyz
x,y,z
-x,1/2+y,1/2-z
-x,-y,-z
x,1/2-y,1/2+z
loop_
_atom_site_type_symbol
_atom_site_label
_atom_site_fract_x
_atom_site_fract_y
_atom_site_fract_z
Si Si1 0.582308 0.673371 0.387779
Si Si2 0.373824 0.704311 0.655456
Si Si3 0.892653 0.609042 0.739868
Si Si4 0.031750 0.587822 0.299142
Si Si5 0.927769 0.685994 0.019945
O O1 0.551577 0.726395 0.252899
O O2 0.305042 0.627602 0.396476
O O3 0.684984 0.743487 0.507500
O O4 0.807178 0.601602 0.382566
O O5 0.600245 0.634610 0.633914
O O6 0.149607 0.660907 0.720069
O O7 0.202734 0.758082 0.525817
O O8 0.936814 0.510799 0.721121
O O9 0.868608 0.624265 0.891595
O O10 0.954087 0.631626 0.153472
#
# Coordination Sequence:
#
# PCOD8126476 Si02
#       5
#     4   4   4   4   4
#     4  10  22  39  60  88 121 156 195 240 293 355
#     4  10  22  39  60  88 121 156 195 240 293 355
#     4  11  23  40  61  91 121 150 196 253 293 336
#     4  11  23  40  61  91 121 150 196 253 293 336
#     4  10  21  40  65  86 114 164 202 232 289 362
#
# _framework density 25.222297999999999
#
# number of rings (size 3 to 8) (size 9 to 14) (size 15 to 20)
#    0.000    1.600    0.000    6.600    0.000   14.400 
#    0.000   16.000    0.000    0.000    0.000    0.000 
#    0.000    0.000    0.000    0.000    0.000    0.000 
#
# Total GULP energy -247908.408839 kJ/mol
# GULP energy per Si atom -12395.420442 kJ/mol
# Density = 2.516489 g / cm^3
# Si number density = 25.222298 Si / 1000 Ang^3
#
#
#
# Elastic Constant Matrix: (Units=GPa)
#
#
# Indices 1 2 3 4 5 6 
#
# 1 116.2477 16.1440 -3.2147 0.0000 4.1342 0.0000
# 2 16.1440 110.3357 14.6059 0.0000 15.3869 0.0000
# 3 -3.2147 14.6059 40.3447 0.0000 5.3187 0.0000
# 4 0.0000 0.0000 0.0000 37.4851 0.0000 4.4155
# 5 4.1342 15.3869 5.3187 0.0000 45.1638 0.0000
# 6 0.0000 0.0000 0.0000 4.4155 0.0000 33.3475
#
#
#
# Elastic Compliance Matrix: (Units=1/GPa)
#
#
# Indices 1 2 3 4 5 6 
#
# 1 0.008849 -0.001396 0.001274 0.000000 -0.000485 0.000000
# 2 -0.001396 0.010124 -0.003391 0.000000 -0.002922 0.000000
# 3 0.001274 -0.003391 0.026388 0.000000 -0.002069 0.000000
# 4 0.000000 0.000000 0.000000 0.027100 0.000000 -0.003588
# 5 -0.000485 -0.002922 -0.002069 0.000000 0.023425 0.000000
# 6 0.000000 0.000000 0.000000 -0.003588 0.000000 0.030462
#
#
# Mechanical properties :
#
#
# Convention : Reuss Voigt Hill
#
# Bulk Modulus (GPa) = 26.08547 35.77762 30.93154
# Shear Modulus (GPa) = 34.21090 39.15880 36.68485
#
# Velocity S-wave (km/s) = 3.68690 3.94451 3.81788
# Velocity P-wave (km/s) = 5.33750 5.91281 5.63250
#
# Compressibility (1/GPa) = 0.03833552
#
# Stress axis : x y z
#
# Youngs Moduli (GPa) = 113.01179 98.77635 37.89544
#
# Poissons Ratio (x) = 0.13787 -0.04829
# Poissons Ratio (y) = 0.15774 0.12851
# Poissons Ratio (z) = -0.14401 0.33496
#
# Static dielectric constant tensor:
#      x y z
#    x 5.032290 0.000000 0.511210 
#    y 0.000000 4.535830 0.000000 
#    z 0.511210 0.000000 4.772900 
# 
# 
# High freq. dielectric constant tensor:
#      x y z
#    x 2.032020 0.000000 0.007370 
#    y 0.000000 2.002050 0.000000 
#    z 0.007370 0.000000 2.029020 
# 
# From -- ./inp_files/20711.got.cif
#   From: 2010.03.12/outbox.cif.g09.slc.cpg/sg14_11_cif.got.tgz:20711.got - 2010.03.31 13:35:05.
