data_PCOD8126841
_publ_section_title
;
Structure prediction by ZEFSAII (Michael W. Deem and Ramdas Pophale) SiO2 
 PCOD8126841
Probable space group: P 21/C
;
_chemical_formula_sum "Si O2"
_cell_formula_units_Z 24
_cell_length_a 14.666213
_cell_length_b 11.890421
_cell_length_c 14.450983
_cell_angle_alpha 90.000000
_cell_angle_beta 27.612166
_cell_angle_gamma 90.000000
_cell_volume 1168.012639
_symmetry_space_group_name_H-M "P 21/C"
_symmetry_group_IT_number 14
_symmetry_cell_setting 'monoclinic'
loop_
_space_group_symop_operation_xyz
x,y,z
-x,1/2+y,1/2-z
-x,-y,-z
x,1/2-y,1/2+z
loop_
_atom_site_type_symbol
_atom_site_label
_atom_site_fract_x
_atom_site_fract_y
_atom_site_fract_z
Si Si1 0.342967 0.291884 0.239046
Si Si2 0.326385 0.942813 0.484181
Si Si3 0.542048 0.395819 0.333640
Si Si4 0.666264 0.106975 0.921427
Si Si5 0.992239 0.265644 0.696803
Si Si6 0.733479 0.805780 0.400415
O O1 0.475844 0.399436 0.144250
O O2 0.237477 0.312554 0.235773
O O3 0.178096 0.277523 0.463815
O O4 0.475528 0.180645 0.118688
O O5 0.330720 0.921603 0.370797
O O6 0.136874 0.878132 0.694634
O O7 0.310086 0.073391 0.517976
O O8 0.363094 0.484742 0.506314
O O9 0.685932 0.403869 0.292758
O O10 0.452540 0.271364 0.405730
O O11 0.866019 0.157467 0.781214
O O12 0.067876 0.244265 0.733161
#
# Coordination Sequence:
#
# PCOD8126841 Si02
#       6
#     4   4   4   4   4   4
#     4  10  22  45  63  93 132 162 210 260 315 386
#     4  11  24  41  63  93 130 168 209 259 320 378
#     4  10  21  43  66  91 127 170 207 263 317 373
#     4   9  22  42  67  93 126 165 211 262 319 368
#     4  11  24  40  64  99 125 166 214 260 311 378
#     4  11  24  41  66  92 125 171 209 260 323 369
#
# _framework density 20.547722
#
# number of rings (size 3 to 8) (size 9 to 14) (size 15 to 20)
#    0.000    1.667    1.667    1.500    7.000    0.667 
#    0.000    3.333    0.000    0.000    0.000    0.000 
#    0.000    0.000    0.000    0.000    0.000    0.000 
#
# Total GULP energy -297725.151279 kJ/mol
# GULP energy per Si atom -12405.214637 kJ/mol
# Density = 2.050095 g / cm^3
# Si number density = 20.547722 Si / 1000 Ang^3
#
#
#
# Elastic Constant Matrix: (Units=GPa)
#
#
# Indices 1 2 3 4 5 6 
#
# 1 116.7747 20.0991 46.6218 0.0000 4.6254 0.0000
# 2 20.0991 104.3782 28.5187 0.0000 5.4637 0.0000
# 3 46.6218 28.5187 91.0856 0.0000 -0.6685 0.0000
# 4 0.0000 0.0000 0.0000 16.3968 0.0000 2.4985
# 5 4.6254 5.4637 -0.6685 0.0000 28.3449 0.0000
# 6 0.0000 0.0000 0.0000 2.4985 0.0000 28.4682
#
#
#
# Elastic Compliance Matrix: (Units=1/GPa)
#
#
# Indices 1 2 3 4 5 6 
#
# 1 0.010890 -0.000520 -0.005424 0.000000 -0.001805 0.000000
# 2 -0.000520 0.010628 -0.003076 0.000000 -0.002036 0.000000
# 3 -0.005424 -0.003076 0.014732 0.000000 0.001826 0.000000
# 4 0.000000 0.000000 0.000000 0.061814 0.000000 -0.005425
# 5 -0.001805 -0.002036 0.001826 0.000000 0.036010 0.000000
# 6 0.000000 0.000000 0.000000 -0.005425 0.000000 0.035603
#
#
# Mechanical properties :
#
#
# Convention : Reuss Voigt Hill
#
# Bulk Modulus (GPa) = 54.92162 55.85752 55.38957
# Shear Modulus (GPa) = 25.80142 29.10858 27.45500
#
# Velocity S-wave (km/s) = 3.54741 3.76790 3.65932
# Velocity P-wave (km/s) = 6.60043 6.79505 6.69845
#
# Compressibility (1/GPa) = 0.01820777
#
# Stress axis : x y z
#
# Youngs Moduli (GPa) = 91.82543 94.09266 67.88105
#
# Poissons Ratio (x) = 0.04897 0.36821
# Poissons Ratio (y) = 0.04779 0.20881
# Poissons Ratio (z) = 0.49810 0.28944
#
# Static dielectric constant tensor:
#      x y z
#    x 4.168480 0.000000 0.038190 
#    y 0.000000 3.832790 0.000000 
#    z 0.038190 0.000000 3.425610 
# 
# 
# High freq. dielectric constant tensor:
#      x y z
#    x 1.820300 0.000000 0.006700 
#    y 0.000000 1.814730 0.000000 
#    z 0.006700 0.000000 1.785660 
# 
# From -- ./inp_files/46860.got.cif
#   From: 2010.03.12/outbox.cif.g09.slc.cpg/sg14_24_cif.got.tgz:46860.got - 2010.03.31 13:35:05.
