data_PCOD8126373
_publ_section_title
;
Structure prediction by ZEFSAII (Michael W. Deem and Ramdas Pophale) SiO2 
 PCOD8126373
Probable space group: P 21/C
;
_chemical_formula_sum "Si O2"
_cell_formula_units_Z 28
_cell_length_a 14.846417
_cell_length_b 14.815972
_cell_length_c 9.066059
_cell_angle_alpha 90.000000
_cell_angle_beta 36.615849
_cell_angle_gamma 90.000000
_cell_volume 1189.438929
_symmetry_space_group_name_H-M "P 21/C"
_symmetry_group_IT_number 14
_symmetry_cell_setting 'monoclinic'
loop_
_space_group_symop_operation_xyz
x,y,z
-x,1/2+y,1/2-z
-x,-y,-z
x,1/2-y,1/2+z
loop_
_atom_site_type_symbol
_atom_site_label
_atom_site_fract_x
_atom_site_fract_y
_atom_site_fract_z
Si Si1 0.105633 0.143678 0.215709
Si Si2 0.689221 0.688005 0.064591
Si Si3 0.244293 0.855023 0.274838
Si Si4 0.545634 0.089300 0.596349
Si Si5 0.677304 0.941481 0.849504
Si Si6 0.283711 0.422825 0.239556
Si Si7 0.625360 0.252294 0.639525
O O1 0.171125 0.100047 0.278922
O O2 0.930470 0.159726 0.464216
O O3 0.186574 0.237053 0.059479
O O4 0.138033 0.074339 0.038329
O O5 0.631421 0.627977 0.278957
O O6 0.552946 0.731729 0.149939
O O7 0.767738 0.620658 0.845600
O O8 0.334066 0.776407 0.247027
O O9 0.292613 0.957458 0.251755
O O10 0.278888 0.835753 0.055135
O O11 0.421015 0.130043 0.645555
O O12 0.664129 0.164294 0.491255
O O13 0.651878 0.021615 0.369607
O O14 0.458138 0.049187 0.854608
#
# Coordination Sequence:
#
# PCOD8126373 Si02
#       7
#     4   4   4   4   4   4   4
#     4  11  26  46  69  99 145 193 239 281 366 428
#     4  12  23  43  77 102 135 190 241 291 349 432
#     4  12  29  46  69 108 149 186 234 305 359 421
#     4  10  21  42  69 106 131 179 232 298 343 414
#     4  11  24  48  76 101 144 191 244 286 361 431
#     4  10  21  39  69  97 136 175 234 280 344 419
#     4  12  25  43  69 106 141 176 240 300 353 406
#
# _framework density 23.540512
#
# number of rings (size 3 to 8) (size 9 to 14) (size 15 to 20)
#    0.000    0.857    2.857    4.714    4.000    4.000 
#    2.571    1.429    0.000    0.000    0.000    0.000 
#    0.000    0.000    0.000    0.000    0.000    0.000 
#
# Total GULP energy -347037.907753 kJ/mol
# GULP energy per Si atom -12394.210991 kJ/mol
# Density = 2.348693 g / cm^3
# Si number density = 23.540512 Si / 1000 Ang^3
#
#
#
# Elastic Constant Matrix: (Units=GPa)
#
#
# Indices 1 2 3 4 5 6 
#
# 1 78.3770 28.6566 26.0329 0.0000 12.9967 0.0000
# 2 28.6566 85.9121 30.8441 0.0000 0.8961 0.0000
# 3 26.0329 30.8441 73.6367 0.0000 -1.5885 0.0000
# 4 0.0000 0.0000 0.0000 38.2495 0.0000 14.3402
# 5 12.9967 0.8961 -1.5885 0.0000 39.8932 0.0000
# 6 0.0000 0.0000 0.0000 14.3402 0.0000 36.5129
#
#
#
# Elastic Compliance Matrix: (Units=1/GPa)
#
#
# Indices 1 2 3 4 5 6 
#
# 1 0.016530 -0.003903 -0.004327 0.000000 -0.005470 0.000000
# 2 -0.003903 0.014633 -0.004733 0.000000 0.000754 0.000000
# 3 -0.004327 -0.004733 0.017140 0.000000 0.002198 0.000000
# 4 0.000000 0.000000 0.000000 0.030658 0.000000 -0.012041
# 5 -0.005470 0.000754 0.002198 0.000000 0.026920 0.000000
# 6 0.000000 0.000000 0.000000 -0.012041 0.000000 0.032117
#
#
# Mechanical properties :
#
#
# Convention : Reuss Voigt Hill
#
# Bulk Modulus (GPa) = 44.68980 45.44365 45.06673
# Shear Modulus (GPa) = 29.17433 33.09060 31.13247
#
# Velocity S-wave (km/s) = 3.52422 3.75332 3.64057
# Velocity P-wave (km/s) = 5.96537 6.17491 6.07104
#
# Compressibility (1/GPa) = 0.02237647
#
# Stress axis : x y z
#
# Youngs Moduli (GPa) = 60.49528 68.33774 58.34331
#
# Poissons Ratio (x) = 0.26674 0.25245
# Poissons Ratio (y) = 0.23613 0.27615
# Poissons Ratio (z) = 0.26176 0.32346
#
# Static dielectric constant tensor:
#      x y z
#    x 4.273320 0.000000 0.285390 
#    y 0.000000 4.369870 0.000000 
#    z 0.285390 0.000000 4.083480 
# 
# 
# High freq. dielectric constant tensor:
#      x y z
#    x 1.919970 0.000000 0.025880 
#    y 0.000000 1.939800 0.000000 
#    z 0.025880 0.000000 1.923250 
# 
# From -- ./inp_files/16410.got.cif
#   From: 2010.03.12/outbox.cif.g09.slc.cpg/sg14_9_cif.got.tgz:16410.got - 2010.03.31 13:35:05.
