data_PCOD8126827
_publ_section_title
;
Structure prediction by ZEFSAII (Michael W. Deem and Ramdas Pophale) SiO2 
 PCOD8126827
Probable space group: P 21/C
;
_chemical_formula_sum "Si O2"
_cell_formula_units_Z 24
_cell_length_a 6.775904
_cell_length_b 15.853289
_cell_length_c 10.518922
_cell_angle_alpha 90.000000
_cell_angle_beta 78.344720
_cell_angle_gamma 90.000000
_cell_volume 1106.647831
_symmetry_space_group_name_H-M "P 21/C"
_symmetry_group_IT_number 14
_symmetry_cell_setting 'monoclinic'
loop_
_space_group_symop_operation_xyz
x,y,z
-x,1/2+y,1/2-z
-x,-y,-z
x,1/2-y,1/2+z
loop_
_atom_site_type_symbol
_atom_site_label
_atom_site_fract_x
_atom_site_fract_y
_atom_site_fract_z
Si Si1 0.895892 0.877548 0.988744
Si Si2 0.186112 0.112048 0.572639
Si Si3 0.168975 0.505566 0.293545
Si Si4 0.457859 0.637425 0.151775
Si Si5 0.269376 0.226690 0.195778
Si Si6 0.918086 0.215691 0.430239
O O1 0.723342 0.823537 0.939625
O O2 0.786584 0.928720 0.115578
O O3 0.984605 0.941672 0.873638
O O4 0.065637 0.812907 0.022963
O O5 0.114887 0.028914 0.658807
O O6 0.363535 0.091990 0.449568
O O7 0.281315 0.174788 0.664678
O O8 0.990993 0.152759 0.531973
O O9 0.361503 0.565000 0.251378
O O10 0.544895 0.706485 0.237358
O O11 0.306876 0.688318 0.078509
O O12 0.057179 0.203420 0.288997
#
# Coordination Sequence:
#
# PCOD8126827 Si02
#       6
#     4   4   4   4   4   4
#     4  10  22  41  67  90 125 170 203 252 314 365
#     4  10  23  41  64  91 127 162 206 259 308 361
#     4  11  22  41  63  94 128 160 206 258 314 361
#     4  11  24  39  68  94 122 163 213 251 310 372
#     4  10  21  43  64  93 124 163 209 256 303 370
#     4  10  21  43  67  87 123 169 208 250 303 376
#
# _framework density 21.687117000000001
#
# number of rings (size 3 to 8) (size 9 to 14) (size 15 to 20)
#    0.000    1.667    3.333    0.500    2.333    1.333 
#    3.000    1.667    0.000    0.000    0.000    0.000 
#    0.000    0.000    0.000    0.000    0.000    0.000 
#
# Total GULP energy -297542.326221 kJ/mol
# GULP energy per Si atom -12397.596926 kJ/mol
# Density = 2.163776 g / cm^3
# Si number density = 21.687117 Si / 1000 Ang^3
#
#
#
# Elastic Constant Matrix: (Units=GPa)
#
#
# Indices 1 2 3 4 5 6 
#
# 1 102.6155 31.0301 27.3848 0.0000 17.3432 0.0000
# 2 31.0301 72.0478 36.9006 0.0000 4.6911 0.0000
# 3 27.3848 36.9006 88.9979 0.0000 9.0087 0.0000
# 4 0.0000 0.0000 0.0000 62.0576 0.0000 5.5964
# 5 17.3432 4.6911 9.0087 0.0000 22.3187 0.0000
# 6 0.0000 0.0000 0.0000 5.5964 0.0000 17.5668
#
#
#
# Elastic Compliance Matrix: (Units=1/GPa)
#
#
# Indices 1 2 3 4 5 6 
#
# 1 0.012839 -0.004308 -0.001299 0.000000 -0.008547 0.000000
# 2 -0.004308 0.019080 -0.006796 0.000000 0.002080 0.000000
# 3 -0.001299 -0.006796 0.014812 0.000000 -0.003541 0.000000
# 4 0.000000 0.000000 0.000000 0.016591 0.000000 -0.005285
# 5 -0.008547 0.002080 -0.003541 0.000000 0.052439 0.000000
# 6 0.000000 0.000000 0.000000 -0.005285 0.000000 0.058609
#
#
# Mechanical properties :
#
#
# Convention : Reuss Voigt Hill
#
# Bulk Modulus (GPa) = 45.60975 50.47693 48.04334
# Shear Modulus (GPa) = 24.21478 31.61166 27.91322
#
# Velocity S-wave (km/s) = 3.34511 3.82203 3.59149
# Velocity P-wave (km/s) = 5.99968 6.54238 6.27690
#
# Compressibility (1/GPa) = 0.02192514
#
# Stress axis : x y z
#
# Youngs Moduli (GPa) = 77.88767 52.41009 67.51139
#
# Poissons Ratio (x) = 0.22576 0.08772
# Poissons Ratio (y) = 0.33551 0.45882
# Poissons Ratio (z) = 0.10121 0.35619
#
# Static dielectric constant tensor:
#      x y z
#    x 3.429810 0.000000 0.115830 
#    y 0.000000 4.040780 0.000000 
#    z 0.115830 0.000000 4.232590 
# 
# 
# High freq. dielectric constant tensor:
#      x y z
#    x 1.813070 0.000000 0.012220 
#    y 0.000000 1.860460 0.000000 
#    z 0.012220 0.000000 1.873820 
# 
# From -- ./inp_files/21148.got.cif
#   From: 2010.03.12/outbox.cif.g09.slc.cpg/sg14_11_cif.got.tgz:21148.got - 2010.03.31 13:35:05.
