data_PCOD8126285
_publ_section_title
;
Structure prediction by ZEFSAII (Michael W. Deem and Ramdas Pophale) SiO2 
 PCOD8126285
Probable space group: P 21/C
;
_chemical_formula_sum "Si O2"
_cell_formula_units_Z 28
_cell_length_a 12.300014
_cell_length_b 18.615266
_cell_length_c 9.240628
_cell_angle_alpha 90.000000
_cell_angle_beta 43.841849
_cell_angle_gamma 90.000000
_cell_volume 1465.557361
_symmetry_space_group_name_H-M "P 21/C"
_symmetry_group_IT_number 14
_symmetry_cell_setting 'monoclinic'
loop_
_space_group_symop_operation_xyz
x,y,z
-x,1/2+y,1/2-z
-x,-y,-z
x,1/2-y,1/2+z
loop_
_atom_site_type_symbol
_atom_site_label
_atom_site_fract_x
_atom_site_fract_y
_atom_site_fract_z
Si Si1 0.406839 0.728927 0.506748
Si Si2 0.591581 0.684847 0.595860
Si Si3 0.117427 0.693768 0.422651
Si Si4 0.360514 0.463938 0.547706
Si Si5 0.054013 0.419525 0.947608
Si Si6 0.800756 0.396982 0.410981
Si Si7 0.049666 0.193842 0.215766
O O1 0.550317 0.708718 0.472896
O O2 0.467855 0.781622 0.324309
O O3 0.336052 0.656451 0.508374
O O4 0.277512 0.770577 0.721016
O O5 0.576267 0.597683 0.621510
O O6 0.766213 0.711864 0.462522
O O7 0.158284 0.617333 0.459823
O O8 0.001493 0.682260 0.400401
O O9 0.041634 0.740940 0.623054
O O10 0.500000 0.500000 0.500000
O O11 0.244298 0.423000 0.774583
O O12 0.262248 0.522108 0.549247
O O13 0.010007 0.378984 0.840934
O O14 0.000000 0.500000 0.000000
O O15 0.962526 0.380676 0.166241
#
# Coordination Sequence:
#
# PCOD8126285 Si02
#       7
#     4   4   4   4   4   4   4
#     4  12  21  37  63  90 121 160 209 259 308 373
#     4  11  24  39  60  93 125 159 207 258 319 369
#     4  12  22  38  64  90 125 159 215 259 311 374
#     4  10  21  39  63  89 128 165 204 250 314 383
#     4   9  20  37  61  86 116 155 209 248 299 372
#     4  11  21  39  62  94 117 164 215 255 309 370
#     4  11  21  38  58  91 120 162 201 264 312 368
#
# _framework density 19.105357999999999
#
# number of rings (size 3 to 8) (size 9 to 14) (size 15 to 20)
#    0.000    1.143    5.714    0.857    0.000    1.143 
#    0.000    7.143    0.000    0.000    0.000    0.000 
#    0.000    0.000    0.000    0.000    0.000    0.000 
#
# Total GULP energy -347093.570415 kJ/mol
# GULP energy per Si atom -12396.198943 kJ/mol
# Density = 1.906187 g / cm^3
# Si number density = 19.105358 Si / 1000 Ang^3
#
#
#
# Elastic Constant Matrix: (Units=GPa)
#
#
# Indices 1 2 3 4 5 6 
#
# 1 115.6443 34.7819 47.3429 0.0000 4.9769 0.0000
# 2 34.7819 99.7068 50.1589 0.0000 1.4818 0.0000
# 3 47.3429 50.1589 83.6351 0.0000 -2.1380 0.0000
# 4 0.0000 0.0000 0.0000 35.3480 0.0000 -1.2941
# 5 4.9769 1.4818 -2.1380 0.0000 30.1728 0.0000
# 6 0.0000 0.0000 0.0000 -1.2941 0.0000 33.1345
#
#
#
# Elastic Compliance Matrix: (Units=1/GPa)
#
#
# Indices 1 2 3 4 5 6 
#
# 1 0.011483 -0.000964 -0.005980 0.000000 -0.002270 0.000000
# 2 -0.000964 0.014496 -0.008177 0.000000 -0.001132 0.000000
# 3 -0.005980 -0.008177 0.020318 0.000000 0.002828 0.000000
# 4 0.000000 0.000000 0.000000 0.028331 0.000000 0.001106
# 5 -0.002270 -0.001132 0.002828 0.000000 0.033773 0.000000
# 6 0.000000 0.000000 0.000000 0.001106 0.000000 0.030223
#
#
# Mechanical properties :
#
#
# Convention : Reuss Voigt Hill
#
# Bulk Modulus (GPa) = 62.28513 62.61707 62.45110
# Shear Modulus (GPa) = 28.69963 30.84456 29.77209
#
# Velocity S-wave (km/s) = 3.88000 4.02238 3.95183
# Velocity P-wave (km/s) = 7.26252 7.37689 7.31992
#
# Compressibility (1/GPa) = 0.01605520
#
# Stress axis : x y z
#
# Youngs Moduli (GPa) = 87.08570 68.98424 49.21637
#
# Poissons Ratio (x) = 0.06647 0.29433
# Poissons Ratio (y) = 0.08391 0.40246
# Poissons Ratio (z) = 0.52080 0.56411
#
# Static dielectric constant tensor:
#      x y z
#    x 3.645570 0.000000 -0.204200 
#    y 0.000000 3.663550 0.000000 
#    z -0.204200 0.000000 4.019530 
# 
# 
# High freq. dielectric constant tensor:
#      x y z
#    x 1.738320 0.000000 -0.015720 
#    y 0.000000 1.747760 0.000000 
#    z -0.015720 0.000000 1.748110 
# 
# From -- ./inp_files/9406.got.cif
#   From: 2010.03.12/outbox.cif.g09.slc.cpg/sg14_5_cif.got.tgz:9406.got - 2010.03.31 13:35:05.
