data_PCOD8126767
_publ_section_title
;
Structure prediction by ZEFSAII (Michael W. Deem and Ramdas Pophale) SiO2 
 PCOD8126767
Probable space group: P 21/C
;
_chemical_formula_sum "Si O2"
_cell_formula_units_Z 24
_cell_length_a 21.209164
_cell_length_b 11.826621
_cell_length_c 14.464845
_cell_angle_alpha 90.000000
_cell_angle_beta 161.617331
_cell_angle_gamma 90.000000
_cell_volume 1144.214324
_symmetry_space_group_name_H-M "P 21/C"
_symmetry_group_IT_number 14
_symmetry_cell_setting 'monoclinic'
loop_
_space_group_symop_operation_xyz
x,y,z
-x,1/2+y,1/2-z
-x,-y,-z
x,1/2-y,1/2+z
loop_
_atom_site_type_symbol
_atom_site_label
_atom_site_fract_x
_atom_site_fract_y
_atom_site_fract_z
Si Si1 0.486648 0.235638 0.045600
Si Si2 0.849066 0.933246 0.461086
Si Si3 0.939568 0.607980 0.289139
Si Si4 0.170849 0.772220 0.836359
Si Si5 0.823826 0.903918 0.826559
Si Si6 0.790723 0.313197 0.818147
O O1 0.646864 0.226772 0.349653
O O2 0.591762 0.229937 0.092460
O O3 0.331056 0.132263 0.840454
O O4 0.369002 0.354237 0.890086
O O5 0.818472 0.926004 0.529042
O O6 0.063266 0.879864 0.733268
O O7 0.849358 0.061746 0.430294
O O8 0.789581 0.594958 0.167736
O O9 0.135376 0.529015 0.577670
O O10 0.019601 0.735873 0.390575
O O11 0.254192 0.809019 0.852888
O O12 0.020732 0.668451 0.620665
#
# Coordination Sequence:
#
# PCOD8126767 Si02
#       6
#     4   4   4   4   4   4
#     4  11  23  41  64  98 126 166 222 266 319 388
#     4  11  23  41  68  93 131 173 212 271 328 387
#     4  10  21  42  66  90 131 175 211 268 324 387
#     4  10  22  44  62  95 136 164 218 268 322 396
#     4   9  22  41  66  91 130 177 213 262 333 382
#     4  11  23  41  65  96 128 171 216 265 329 381
#
# _framework density 20.975092
#
# number of rings (size 3 to 8) (size 9 to 14) (size 15 to 20)
#    0.000    1.667    1.667    2.000    4.667    0.667 
#    6.000    0.000    0.000    0.000    0.000    0.000 
#    0.000    0.000    0.000    0.000    0.000    0.000 
#
# Total GULP energy -297696.338430 kJ/mol
# GULP energy per Si atom -12404.014101 kJ/mol
# Density = 2.092735 g / cm^3
# Si number density = 20.975092 Si / 1000 Ang^3
#
#
#
# Elastic Constant Matrix: (Units=GPa)
#
#
# Indices 1 2 3 4 5 6 
#
# 1 135.9398 50.0981 57.6026 0.0000 -12.1261 0.0000
# 2 50.0981 107.0314 33.7654 0.0000 -3.1553 0.0000
# 3 57.6026 33.7654 94.3399 0.0000 -17.5547 0.0000
# 4 0.0000 0.0000 0.0000 22.0429 0.0000 2.5476
# 5 -12.1261 -3.1553 -17.5547 0.0000 27.0823 0.0000
# 6 0.0000 0.0000 0.0000 2.5476 0.0000 30.4243
#
#
#
# Elastic Compliance Matrix: (Units=1/GPa)
#
#
# Indices 1 2 3 4 5 6 
#
# 1 0.010944 -0.003434 -0.005249 0.000000 0.001098 0.000000
# 2 -0.003434 0.011656 -0.002397 0.000000 -0.001734 0.000000
# 3 -0.005249 -0.002397 0.016118 0.000000 0.007818 0.000000
# 4 0.000000 0.000000 0.000000 0.045810 0.000000 -0.003836
# 5 0.001098 -0.001734 0.007818 0.000000 0.042282 0.000000
# 6 0.000000 0.000000 0.000000 -0.003836 0.000000 0.033190
#
#
# Mechanical properties :
#
#
# Convention : Reuss Voigt Hill
#
# Bulk Modulus (GPa) = 60.39981 68.91592 64.65787
# Shear Modulus (GPa) = 26.64145 28.96623 27.80384
#
# Velocity S-wave (km/s) = 3.56778 3.72019 3.64478
# Velocity P-wave (km/s) = 6.76983 7.16802 6.97177
#
# Compressibility (1/GPa) = 0.01655634
#
# Stress axis : x y z
#
# Youngs Moduli (GPa) = 91.37576 85.79470 62.04415
#
# Poissons Ratio (x) = 0.29464 0.32565
# Poissons Ratio (y) = 0.31381 0.14874
# Poissons Ratio (z) = 0.47960 0.20568
#
# Static dielectric constant tensor:
#      x y z
#    x 4.096000 0.000000 0.034490 
#    y 0.000000 3.872030 0.000000 
#    z 0.034490 0.000000 3.527250 
# 
# 
# High freq. dielectric constant tensor:
#      x y z
#    x 1.834350 0.000000 -0.004980 
#    y 0.000000 1.830290 0.000000 
#    z -0.004980 0.000000 1.801630 
# 
# From -- ./inp_files/44276.got.cif
#   From: 2010.03.12/outbox.cif.g09.slc.cpg/sg14_23_cif.got.tgz:44276.got - 2010.03.31 13:35:05.
