data_PCOD8126022
_publ_section_title
;
Structure prediction by ZEFSAII (Michael W. Deem and Ramdas Pophale) SiO2 
 PCOD8126022
Probable space group: P 21/C
;
_chemical_formula_sum "Si O2"
_cell_formula_units_Z 20
_cell_length_a 24.912399
_cell_length_b 7.146323
_cell_length_c 5.274018
_cell_angle_alpha 90.000000
_cell_angle_beta 77.576497
_cell_angle_gamma 90.000000
_cell_volume 916.958022
_symmetry_space_group_name_H-M "P 21/C"
_symmetry_group_IT_number 14
_symmetry_cell_setting 'monoclinic'
loop_
_space_group_symop_operation_xyz
x,y,z
-x,1/2+y,1/2-z
-x,-y,-z
x,1/2-y,1/2+z
loop_
_atom_site_type_symbol
_atom_site_label
_atom_site_fract_x
_atom_site_fract_y
_atom_site_fract_z
Si Si1 0.172390 0.626833 0.805391
Si Si2 0.051588 0.869000 0.444179
Si Si3 0.553678 0.375303 0.957458
Si Si4 0.330401 0.464067 0.198570
Si Si5 0.716338 0.544327 0.254178
O O1 0.179985 0.725770 0.525837
O O2 0.111751 0.531279 0.883832
O O3 0.217521 0.461752 0.785729
O O4 0.046691 0.746831 0.696323
O O5 0.000000 0.000000 0.500000
O O6 0.555468 0.233162 0.721327
O O7 0.604112 0.521392 0.892678
O O8 0.500000 0.500000 0.000000
O O9 0.308173 0.252177 0.245053
O O10 0.311166 0.563548 0.479143
O O11 0.301774 0.562626 0.985106
#
# Coordination Sequence:
#
# PCOD8126022 Si02
#       5
#     4   4   4   4   4
#     4  10  21  37  61  91 129 165 215 264 318 377
#     4  10  21  40  61  93 130 172 216 271 318 381
#     4  12  28  46  73 101 130 172 216 263 321 380
#     4  10  23  40  63  91 131 157 214 261 316 374
#     4  10  21  39  63  89 128 170 204 264 320 378
#
# _framework density 21.811247999999999
#
# number of rings (size 3 to 8) (size 9 to 14) (size 15 to 20)
#    0.000    1.600    0.000    3.600    5.600    4.800 
#    7.200    0.000    0.000    0.000    0.000    0.000 
#    0.000    0.000    0.000    0.000    0.000    0.000 
#
# Total GULP energy -247819.035982 kJ/mol
# GULP energy per Si atom -12390.951799 kJ/mol
# Density = 2.176160 g / cm^3
# Si number density = 21.811248 Si / 1000 Ang^3
#
#
#
# Elastic Constant Matrix: (Units=GPa)
#
#
# Indices 1 2 3 4 5 6 
#
# 1 187.0374 40.5166 30.4607 0.0000 -23.6263 0.0000
# 2 40.5166 51.8590 -1.2800 0.0000 -13.8897 0.0000
# 3 30.4607 -1.2800 160.1904 0.0000 23.1436 0.0000
# 4 0.0000 0.0000 0.0000 8.9400 0.0000 -11.7737
# 5 -23.6263 -13.8897 23.1436 0.0000 50.8691 0.0000
# 6 0.0000 0.0000 0.0000 -11.7737 0.0000 50.9465
#
#
#
# Elastic Compliance Matrix: (Units=1/GPa)
#
#
# Indices 1 2 3 4 5 6 
#
# 1 0.007021 -0.004790 -0.001772 0.000000 0.002759 0.000000
# 2 -0.004790 0.024147 0.000506 0.000000 0.004138 0.000000
# 3 -0.001772 0.000506 0.007153 0.000000 -0.003939 0.000000
# 4 0.000000 0.000000 0.000000 0.160795 0.000000 0.037159
# 5 0.002759 0.004138 -0.003939 0.000000 0.023862 0.000000
# 6 0.000000 0.000000 0.000000 0.037159 0.000000 0.028216
#
#
# Mechanical properties :
#
#
# Convention : Reuss Voigt Hill
#
# Bulk Modulus (GPa) = 38.15676 59.83125 48.99400
# Shear Modulus (GPa) = 18.37953 44.11042 31.24497
#
# Velocity S-wave (km/s) = 2.90601 4.50196 3.78897
# Velocity P-wave (km/s) = 5.36581 7.38339 6.45393
#
# Compressibility (1/GPa) = 0.02620768
#
# Stress axis : x y z
#
# Youngs Moduli (GPa) = 142.42202 41.41386 139.80760
#
# Poissons Ratio (x) = 0.19839 0.24775
# Poissons Ratio (y) = 0.68226 -0.07074
# Poissons Ratio (z) = 0.25238 -0.02096
#
# Static dielectric constant tensor:
#      x y z
#    x 4.609910 0.000000 0.406360 
#    y 0.000000 3.521890 0.000000 
#    z 0.406360 0.000000 5.917700 
# 
# 
# High freq. dielectric constant tensor:
#      x y z
#    x 1.881080 0.000000 0.007970 
#    y 0.000000 1.816290 0.000000 
#    z 0.007970 0.000000 1.901350 
# 
# From -- ./inp_files/4309.got.cif
#   From: 2010.03.12/outbox.cif.g09.slc.cpg/sg14_3_cif.got.tgz:4309.got - 2010.03.31 13:35:05.
