data_PCOD8126516
_publ_section_title
;
Structure prediction by ZEFSAII (Michael W. Deem and Ramdas Pophale) SiO2 
 PCOD8126516
Probable space group: P 21/C
;
_chemical_formula_sum "Si O2"
_cell_formula_units_Z 32
_cell_length_a 10.719822
_cell_length_b 11.284830
_cell_length_c 14.586315
_cell_angle_alpha 90.000000
_cell_angle_beta 63.729342
_cell_angle_gamma 90.000000
_cell_volume 1582.274226
_symmetry_space_group_name_H-M "P 21/C"
_symmetry_group_IT_number 14
_symmetry_cell_setting 'monoclinic'
loop_
_space_group_symop_operation_xyz
x,y,z
-x,1/2+y,1/2-z
-x,-y,-z
x,1/2-y,1/2+z
loop_
_atom_site_type_symbol
_atom_site_label
_atom_site_fract_x
_atom_site_fract_y
_atom_site_fract_z
Si Si1 0.454912 0.448769 0.610347
Si Si2 0.225322 0.531769 0.950741
Si Si3 0.090687 0.110962 0.001396
Si Si4 0.948750 0.847429 0.597230
Si Si5 0.167417 0.330993 0.671301
Si Si6 0.635275 0.846637 0.476601
Si Si7 0.536710 0.299230 0.133597
Si Si8 0.599742 0.653941 0.640891
O O1 0.500000 0.500000 0.500000
O O2 0.292980 0.417261 0.659577
O O3 0.555525 0.337559 0.599625
O O4 0.482027 0.552045 0.674757
O O5 0.179249 0.433658 0.890715
O O6 0.318259 0.640568 0.880529
O O7 0.323923 0.470288 0.992927
O O8 0.091360 0.581655 0.045427
O O9 0.039557 0.233685 0.972416
O O10 0.250129 0.092886 0.919041
O O11 0.077909 0.115326 0.116279
O O12 0.000000 0.000000 0.000000
O O13 0.929456 0.809185 0.709015
O O14 0.227544 0.206514 0.616500
O O15 0.520173 0.870156 0.436471
O O16 0.577293 0.754705 0.571610
O O17 0.419648 0.293628 0.251518
#
# Coordination Sequence:
#
# PCOD8126516 Si02
#       8
#     4   4   4   4   4   4   4   4
#     4  11  20  40  66  95 125 159 205 269 310 360
#     4  11  24  43  61  89 131 158 215 260 303 379
#     4  11  23  41  65  94 126 161 212 262 303 379
#     4  11  24  43  63  86 128 175 200 256 318 372
#     4  10  21  40  67  89 122 170 205 241 331 373
#     4  10  21  41  62  90 125 158 203 258 314 369
#     4  11  24  38  68  93 121 165 211 256 318 370
#     4  11  22  40  66  91 127 163 205 255 318 373
#
# _framework density 20.224053999999999
#
# number of rings (size 3 to 8) (size 9 to 14) (size 15 to 20)
#    0.000    1.250    6.250    2.625    3.500    2.000 
#    0.000    1.250    0.000    0.000    0.000    0.000 
#    0.000    0.000    0.000    0.000    0.000    0.000 
#
# Total GULP energy -396695.728195 kJ/mol
# GULP energy per Si atom -12396.741506 kJ/mol
# Density = 2.017802 g / cm^3
# Si number density = 20.224054 Si / 1000 Ang^3
#
#
#
# Elastic Constant Matrix: (Units=GPa)
#
#
# Indices 1 2 3 4 5 6 
#
# 1 75.3234 44.2249 33.2040 0.0000 10.5218 0.0000
# 2 44.2249 112.6840 36.7413 0.0000 9.7112 0.0000
# 3 33.2040 36.7413 115.3018 0.0000 15.7800 0.0000
# 4 0.0000 0.0000 0.0000 19.5353 0.0000 0.2386
# 5 10.5218 9.7112 15.7800 0.0000 20.5431 0.0000
# 6 0.0000 0.0000 0.0000 0.2386 0.0000 44.9306
#
#
#
# Elastic Compliance Matrix: (Units=1/GPa)
#
#
# Indices 1 2 3 4 5 6 
#
# 1 0.018699 -0.006020 -0.002845 0.000000 -0.004547 0.000000
# 2 -0.006020 0.011960 -0.001928 0.000000 -0.001089 0.000000
# 3 -0.002845 -0.001928 0.010932 0.000000 -0.006028 0.000000
# 4 0.000000 0.000000 0.000000 0.051193 0.000000 -0.000272
# 5 -0.004547 -0.001089 -0.006028 0.000000 0.056153 0.000000
# 6 0.000000 0.000000 0.000000 -0.000272 0.000000 0.022258
#
#
# Mechanical properties :
#
#
# Convention : Reuss Voigt Hill
#
# Bulk Modulus (GPa) = 49.98625 59.07219 54.52922
# Shear Modulus (GPa) = 25.06929 29.61109 27.34019
#
# Velocity S-wave (km/s) = 3.52458 3.83057 3.68076
# Velocity P-wave (km/s) = 6.42911 6.98833 6.71454
#
# Compressibility (1/GPa) = 0.02000550
#
# Stress axis : x y z
#
# Youngs Moduli (GPa) = 53.47746 83.61550 91.47823
#
# Poissons Ratio (x) = 0.50333 0.26021
# Poissons Ratio (y) = 0.32191 0.17640
# Poissons Ratio (z) = 0.15212 0.16124
#
# Static dielectric constant tensor:
#      x y z
#    x 3.862820 0.000000 0.283400 
#    y 0.000000 12.345910 0.000000 
#    z 0.283400 0.000000 3.514630 
# 
# 
# High freq. dielectric constant tensor:
#      x y z
#    x 1.785310 0.000000 0.014700 
#    y 0.000000 1.792130 0.000000 
#    z 0.014700 0.000000 1.786950 
# 
# From -- ./inp_files/44639.got.cif
#   From: 2010.03.12/outbox.cif.g09.slc.cpg/sg14_23_cif.got.tgz:44639.got - 2010.03.31 13:35:05.
