data_PCOD8126582
_publ_section_title
;
Structure prediction by ZEFSAII (Michael W. Deem and Ramdas Pophale) SiO2 
 PCOD8126582
Probable space group: P 21/C
;
_chemical_formula_sum "Si O2"
_cell_formula_units_Z 24
_cell_length_a 15.325495
_cell_length_b 7.780576
_cell_length_c 21.247804
_cell_angle_alpha 90.000000
_cell_angle_beta 153.259313
_cell_angle_gamma 90.000000
_cell_volume 1140.007586
_symmetry_space_group_name_H-M "P 21/C"
_symmetry_group_IT_number 14
_symmetry_cell_setting 'monoclinic'
loop_
_space_group_symop_operation_xyz
x,y,z
-x,1/2+y,1/2-z
-x,-y,-z
x,1/2-y,1/2+z
loop_
_atom_site_type_symbol
_atom_site_label
_atom_site_fract_x
_atom_site_fract_y
_atom_site_fract_z
Si Si1 0.798071 0.094607 0.084941
Si Si2 0.841280 0.324704 0.367600
Si Si3 0.769015 0.674256 0.938066
Si Si4 0.017817 0.122317 0.108685
Si Si5 0.530004 0.070715 0.193800
Si Si6 0.025058 0.573010 0.839233
O O1 0.833416 0.300877 0.110198
O O2 0.927584 0.019502 0.110256
O O3 0.857428 0.005711 0.188112
O O4 0.575626 0.050058 0.925658
O O5 0.809024 0.505881 0.309140
O O6 0.664166 0.198855 0.238779
O O7 0.049220 0.250022 0.482084
O O8 0.848146 0.357803 0.447002
O O9 0.620172 0.822161 0.860988
O O10 0.664082 0.539670 0.825425
O O11 0.842734 0.577841 0.048132
O O12 0.080138 0.313704 0.172881
#
# Coordination Sequence:
#
# PCOD8126582 Si02
#       6
#     4   4   4   4   4   4
#     4  10  21  41  62  92 125 162 217 248 315 381
#     4  11  22  41  65  94 134 159 206 271 312 369
#     4  12  23  40  65  94 129 162 214 259 312 374
#     4   9  21  40  62  93 122 171 201 255 325 358
#     4  12  23  37  63  99 120 169 213 259 312 373
#     4  10  21  41  67  89 124 179 199 260 324 368
#
# _framework density 21.052492000000001
#
# number of rings (size 3 to 8) (size 9 to 14) (size 15 to 20)
#    1.000    0.333    3.333    3.500    2.333    0.000 
#    0.000    1.667    0.000    0.000    0.000    0.000 
#    0.000    0.000    0.000    0.000    0.000    0.000 
#
# Total GULP energy -297411.042066 kJ/mol
# GULP energy per Si atom -12392.126753 kJ/mol
# Density = 2.100458 g / cm^3
# Si number density = 21.052492 Si / 1000 Ang^3
#
#
#
# Elastic Constant Matrix: (Units=GPa)
#
#
# Indices 1 2 3 4 5 6 
#
# 1 51.5086 12.8998 29.2121 0.0000 -10.1549 0.0000
# 2 12.8998 68.7582 20.9704 0.0000 -5.6233 0.0000
# 3 29.2121 20.9704 97.7082 0.0000 -10.3092 0.0000
# 4 0.0000 0.0000 0.0000 21.4736 0.0000 -8.4536
# 5 -10.1549 -5.6233 -10.3092 0.0000 37.6734 0.0000
# 6 0.0000 0.0000 0.0000 -8.4536 0.0000 39.8717
#
#
#
# Elastic Compliance Matrix: (Units=1/GPa)
#
#
# Indices 1 2 3 4 5 6 
#
# 1 0.024480 -0.002286 -0.006351 0.000000 0.004519 0.000000
# 2 -0.002286 0.015853 -0.002610 0.000000 0.001036 0.000000
# 3 -0.006351 -0.002610 0.012843 0.000000 0.001413 0.000000
# 4 0.000000 0.000000 0.000000 0.050810 0.000000 0.010773
# 5 0.004519 0.001036 0.001413 0.000000 0.028303 0.000000
# 6 0.000000 0.000000 0.000000 0.010773 0.000000 0.027364
#
#
# Mechanical properties :
#
#
# Convention : Reuss Voigt Hill
#
# Bulk Modulus (GPa) = 32.59288 38.23773 35.41531
# Shear Modulus (GPa) = 25.99099 30.12992 28.06046
#
# Velocity S-wave (km/s) = 3.51747 3.78720 3.65482
# Velocity P-wave (km/s) = 5.65793 6.10953 5.88806
#
# Compressibility (1/GPa) = 0.03068155
#
# Stress axis : x y z
#
# Youngs Moduli (GPa) = 40.85009 63.07851 77.86586
#
# Poissons Ratio (x) = 0.14420 0.49455
# Poissons Ratio (y) = 0.09338 0.20321
# Poissons Ratio (z) = 0.25945 0.16462
#
# Static dielectric constant tensor:
#      x y z
#    x 3.614520 0.000000 -0.074040 
#    y 0.000000 4.128490 0.000000 
#    z -0.074040 0.000000 3.598200 
# 
# 
# High freq. dielectric constant tensor:
#      x y z
#    x 1.805530 0.000000 -0.014640 
#    y 0.000000 1.844560 0.000000 
#    z -0.014640 0.000000 1.800300 
# 
# From -- ./inp_files/74205.got.cif
#   From: 2010.03.12/outbox.cif.g09.slc.cpg/sg14_38_cif.got.tgz:74205.got - 2010.03.31 13:35:05.
