data_PCOD8126275
_publ_section_title
;
Structure prediction by ZEFSAII (Michael W. Deem and Ramdas Pophale) SiO2 
 PCOD8126275
Probable space group: P 21/C
;
_chemical_formula_sum "Si O2"
_cell_formula_units_Z 24
_cell_length_a 18.760940
_cell_length_b 4.951053
_cell_length_c 13.311846
_cell_angle_alpha 90.000000
_cell_angle_beta 131.800678
_cell_angle_gamma 90.000000
_cell_volume 921.763540
_symmetry_space_group_name_H-M "P 21/C"
_symmetry_group_IT_number 14
_symmetry_cell_setting 'monoclinic'
loop_
_space_group_symop_operation_xyz
x,y,z
-x,1/2+y,1/2-z
-x,-y,-z
x,1/2-y,1/2+z
loop_
_atom_site_type_symbol
_atom_site_label
_atom_site_fract_x
_atom_site_fract_y
_atom_site_fract_z
Si Si1 0.299704 0.363326 0.145663
Si Si2 0.438698 0.537712 0.673726
Si Si3 0.917257 0.747369 0.021748
Si Si4 0.028213 0.239278 0.158593
Si Si5 0.226358 0.005844 0.375243
Si Si6 0.314715 0.981764 0.870919
O O1 0.360080 0.096344 0.173501
O O2 0.345134 0.531121 0.281843
O O3 0.195324 0.277243 0.083014
O O4 0.285858 0.551091 0.034051
O O5 0.471016 0.829845 0.747571
O O6 0.403096 0.590489 0.526326
O O7 0.981779 0.526878 0.143015
O O8 0.945203 0.756438 0.932643
O O9 0.944487 0.024812 0.102183
O O10 0.123801 0.139641 0.307679
O O11 0.284483 0.212463 0.361599
O O12 0.225522 0.723367 0.312687
#
# Coordination Sequence:
#
# PCOD8126275 Si02
#       6
#     4   4   4   4   4   4
#     4  11  26  45  74 102 137 191 234 282 369 427
#     4  11  26  49  72 104 140 176 236 304 361 436
#     4  10  22  37  65  98 134 188 230 276 343 398
#     4  10  21  39  62  98 143 180 230 288 319 398
#     4  11  24  43  68 103 145 185 234 289 333 412
#     4  11  25  45  72 103 140 179 229 292 355 421
#
# _framework density 26.037046
#
# number of rings (size 3 to 8) (size 9 to 14) (size 15 to 20)
#    0.000    1.333    1.667    3.000    4.667   10.667 
#    0.000    0.000    0.000    0.000    0.000    0.000 
#    0.000    0.000    0.000    0.000    0.000    0.000 
#
# Total GULP energy -297524.460552 kJ/mol
# GULP energy per Si atom -12396.852523 kJ/mol
# Density = 2.597778 g / cm^3
# Si number density = 26.037046 Si / 1000 Ang^3
#
#
#
# Elastic Constant Matrix: (Units=GPa)
#
#
# Indices 1 2 3 4 5 6 
#
# 1 55.5159 16.1133 28.9125 0.0000 -8.5175 0.0000
# 2 16.1133 81.2997 16.9880 0.0000 -24.7453 0.0000
# 3 28.9125 16.9880 145.5997 0.0000 -19.1122 0.0000
# 4 0.0000 0.0000 0.0000 26.7733 0.0000 15.3187
# 5 -8.5175 -24.7453 -19.1122 0.0000 40.7754 0.0000
# 6 0.0000 0.0000 0.0000 15.3187 0.0000 6.9094
#
#
#
# Elastic Compliance Matrix: (Units=1/GPa)
#
#
# Indices 1 2 3 4 5 6 
#
# 1 0.020969 -0.003161 -0.003700 0.000000 0.000728 0.000000
# 2 -0.003161 0.015612 -0.000039 0.000000 0.008796 0.000000
# 3 -0.003700 -0.000039 0.007995 0.000000 0.002951 0.000000
# 4 0.000000 0.000000 0.000000 -0.139101 0.000000 0.308394
# 5 0.000728 0.008796 0.002951 0.000000 0.031397 0.000000
# 6 0.000000 0.000000 0.000000 0.308394 0.000000 -0.539000
#
#
# Mechanical properties :
#
#
# Convention : Reuss Voigt Hill
#
# Bulk Modulus (GPa) = 32.49370 45.16033 38.82701
# Shear Modulus (GPa) = -8.64949 29.58508 10.46779
#
# Velocity S-wave (km/s) = -1.82461 3.37452 2.00726
# Velocity P-wave (km/s) = 2.84041 5.70661 4.50740
#
# Compressibility (1/GPa) = 0.03077519
#
# Stress axis : x y z
#
# Youngs Moduli (GPa) = 47.68994 64.05282 125.08337
#
# Poissons Ratio (x) = 0.20250 0.46275
# Poissons Ratio (y) = 0.15077 0.00490
# Poissons Ratio (z) = 0.17643 0.00251
#
# Static dielectric constant tensor:
#      x y z
#    x 4.661860 0.000000 -0.150370 
#    y 0.000000 4.722100 0.000000 
#    z -0.150370 0.000000 5.158950 
# 
# 
# High freq. dielectric constant tensor:
#      x y z
#    x 2.043620 0.000000 -0.009340 
#    y 0.000000 2.040230 0.000000 
#    z -0.009340 0.000000 2.057620 
# 
# From -- ./inp_files/49739.got.cif
#   From: 2010.03.12/outbox.cif.g09.slc.cpg/sg14_25_cif.got.tgz:49739.got - 2010.03.31 13:35:05.
