data_PCOD8126587
_publ_section_title
;
Structure prediction by ZEFSAII (Michael W. Deem and Ramdas Pophale) SiO2 
 PCOD8126587
Probable space group: P 21/C
;
_chemical_formula_sum "Si O2"
_cell_formula_units_Z 20
_cell_length_a 22.266244
_cell_length_b 7.711985
_cell_length_c 5.268211
_cell_angle_alpha 90.000000
_cell_angle_beta 103.751269
_cell_angle_gamma 90.000000
_cell_volume 878.711168
_symmetry_space_group_name_H-M "P 21/C"
_symmetry_group_IT_number 14
_symmetry_cell_setting 'monoclinic'
loop_
_space_group_symop_operation_xyz
x,y,z
-x,1/2+y,1/2-z
-x,-y,-z
x,1/2-y,1/2+z
loop_
_atom_site_type_symbol
_atom_site_label
_atom_site_fract_x
_atom_site_fract_y
_atom_site_fract_z
Si Si1 0.758693 0.171202 0.757991
Si Si2 0.056073 0.867098 0.057654
Si Si3 0.554457 0.860735 0.084550
Si Si4 0.833978 0.635927 0.331524
Si Si5 0.379537 0.681234 0.378459
O O1 0.791551 0.250126 0.541056
O O2 0.687636 0.230370 0.685428
O O3 0.766939 0.961529 0.765914
O O4 0.052053 0.748385 0.805254
O O5 0.118620 0.977278 0.118670
O O6 0.000000 0.000000 0.000000
O O7 0.552557 0.779421 0.361333
O O8 0.618835 0.971641 0.126308
O O9 0.500000 0.000000 0.000000
O O10 0.842407 0.752015 0.587983
O O11 0.415584 0.747284 0.666001
#
# Coordination Sequence:
#
# PCOD8126587 Si02
#       5
#     4   4   4   4   4
#     4  10  21  41  63  86 122 168 207 255 313 365
#     4  12  24  42  66  95 130 169 210 263 320 376
#     4  12  24  41  66  96 126 164 206 256 313 376
#     4  12  24  41  64  95 127 166 216 262 312 378
#     4  10  21  41  63  88 125 163 204 254 308 369
#
# _framework density 22.760607
#
# number of rings (size 3 to 8) (size 9 to 14) (size 15 to 20)
#    0.000    0.800    0.000    8.400    0.000    0.000 
#    0.000   24.000    0.000    0.000    0.000    0.000 
#    0.000    0.000    0.000    0.000    0.000    0.000 
#
# Total GULP energy -247837.161899 kJ/mol
# GULP energy per Si atom -12391.858095 kJ/mol
# Density = 2.270880 g / cm^3
# Si number density = 22.760607 Si / 1000 Ang^3
#
#
#
# Elastic Constant Matrix: (Units=GPa)
#
#
# Indices 1 2 3 4 5 6 
#
# 1 75.6866 54.3761 23.9461 0.0000 11.7063 0.0000
# 2 54.3761 157.3139 75.0896 0.0000 -6.4159 0.0000
# 3 23.9461 75.0896 220.6118 0.0000 -43.7559 0.0000
# 4 0.0000 0.0000 0.0000 68.2296 0.0000 -0.9765
# 5 11.7063 -6.4159 -43.7559 0.0000 17.2184 0.0000
# 6 0.0000 0.0000 0.0000 -0.9765 0.0000 67.0221
#
#
#
# Elastic Compliance Matrix: (Units=1/GPa)
#
#
# Indices 1 2 3 4 5 6 
#
# 1 0.029296 -0.007100 -0.010562 0.000000 -0.049403 0.000000
# 2 -0.007100 0.009828 -0.001796 0.000000 0.003924 0.000000
# 3 -0.010562 -0.001796 0.015287 0.000000 0.045360 0.000000
# 4 0.000000 0.000000 0.000000 0.014659 0.000000 0.000214
# 5 -0.049403 0.003924 0.045360 0.000000 0.208398 0.000000
# 6 0.000000 0.000000 0.000000 0.000214 0.000000 0.014924
#
#
# Mechanical properties :
#
#
# Convention : Reuss Voigt Hill
#
# Bulk Modulus (GPa) = 64.53421 84.49287 74.51354
# Shear Modulus (GPa) = 14.86005 50.50741 32.68373
#
# Velocity S-wave (km/s) = 2.55793 4.71581 3.79354
# Velocity P-wave (km/s) = 6.09418 8.17648 7.21089
#
# Compressibility (1/GPa) = 0.01549566
#
# Stress axis : x y z
#
# Youngs Moduli (GPa) = 34.13470 101.74865 65.41355
#
# Poissons Ratio (x) = 0.72237 0.69090
# Poissons Ratio (y) = 0.24234 0.11750
# Poissons Ratio (z) = 0.36053 0.18277
#
# Static dielectric constant tensor:
#      x y z
#    x 4.514390 0.000000 -0.730160 
#    y 0.000000 4.695660 0.000000 
#    z -0.730160 0.000000 6.817150 
# 
# 
# High freq. dielectric constant tensor:
#      x y z
#    x 1.888980 0.000000 -0.009830 
#    y 0.000000 1.909110 0.000000 
#    z -0.009830 0.000000 1.936480 
# 
# From -- ./inp_files/4511.got.cif
#   From: 2010.03.12/outbox.cif.g09.slc.cpg/sg14_3_cif.got.tgz:4511.got - 2010.03.31 13:35:05.
