data_PCOD8126860
_publ_section_title
;
Structure prediction by ZEFSAII (Michael W. Deem and Ramdas Pophale) SiO2 
 PCOD8126860
Probable space group: P 21/C
;
_chemical_formula_sum "Si O2"
_cell_formula_units_Z 28
_cell_length_a 6.099163
_cell_length_b 17.188339
_cell_length_c 13.347945
_cell_angle_alpha 90.000000
_cell_angle_beta 61.267770
_cell_angle_gamma 90.000000
_cell_volume 1227.034258
_symmetry_space_group_name_H-M "P 21/C"
_symmetry_group_IT_number 14
_symmetry_cell_setting 'monoclinic'
loop_
_space_group_symop_operation_xyz
x,y,z
-x,1/2+y,1/2-z
-x,-y,-z
x,1/2-y,1/2+z
loop_
_atom_site_type_symbol
_atom_site_label
_atom_site_fract_x
_atom_site_fract_y
_atom_site_fract_z
Si Si1 0.220652 0.861212 0.320439
Si Si2 0.067488 0.845150 0.137469
Si Si3 0.336975 0.033915 0.806984
Si Si4 0.432471 0.701400 0.257499
Si Si5 0.045527 0.326068 0.916014
Si Si6 0.955447 0.408743 0.737699
Si Si7 0.504778 0.092396 0.078378
O O1 0.038379 0.853160 0.264013
O O2 0.382587 0.940261 0.285618
O O3 0.425308 0.793295 0.271219
O O4 0.060945 0.853920 0.455550
O O5 0.846863 0.893440 0.131890
O O6 0.064119 0.756357 0.099190
O O7 0.339371 0.883768 0.054198
O O8 0.358368 0.982124 0.902564
O O9 0.228814 0.981420 0.739834
O O10 0.656628 0.680877 0.132158
O O11 0.498807 0.667311 0.350462
O O12 0.166418 0.669799 0.279164
O O13 0.993781 0.395125 0.847570
O O14 0.213572 0.426098 0.620672
#
# Coordination Sequence:
#
# PCOD8126860 Si02
#       7
#     4   4   4   4   4   4   4
#     4  12  25  41  68 107 135 177 233 282 339 417
#     4  12  24  42  72 105 137 181 232 289 345 402
#     4  11  25  44  67 103 144 178 232 281 349 411
#     4  10  21  43  68  99 132 178 225 279 338 406
#     4  11  24  44  70 102 140 178 231 286 345 407
#     4  10  23  46  70  97 138 189 223 282 349 404
#     4  10  23  44  70  97 140 182 224 279 348 409
#
# _framework density 22.81925
#
# number of rings (size 3 to 8) (size 9 to 14) (size 15 to 20)
#    0.000    1.143    4.286    1.286    0.000    7.429 
#    0.000   10.000    0.000    0.000    0.000    0.000 
#    0.000    0.000    0.000    0.000    0.000    0.000 
#
# Total GULP energy -347187.222613 kJ/mol
# GULP energy per Si atom -12399.543665 kJ/mol
# Density = 2.276731 g / cm^3
# Si number density = 22.819250 Si / 1000 Ang^3
#
#
#
# Elastic Constant Matrix: (Units=GPa)
#
#
# Indices 1 2 3 4 5 6 
#
# 1 80.1652 13.5669 25.1499 0.0000 -13.7603 0.0000
# 2 13.5669 81.5069 10.2325 0.0000 -2.7858 0.0000
# 3 25.1499 10.2325 122.2164 0.0000 -6.5719 0.0000
# 4 0.0000 0.0000 0.0000 28.6877 0.0000 -4.6682
# 5 -13.7603 -2.7858 -6.5719 0.0000 26.3355 0.0000
# 6 0.0000 0.0000 0.0000 -4.6682 0.0000 41.7394
#
#
#
# Elastic Compliance Matrix: (Units=1/GPa)
#
#
# Indices 1 2 3 4 5 6 
#
# 1 0.014766 -0.001908 -0.002509 0.000000 0.006888 0.000000
# 2 -0.001908 0.012675 -0.000659 0.000000 0.000180 0.000000
# 3 -0.002509 -0.000659 0.008797 0.000000 0.000815 0.000000
# 4 0.000000 0.000000 0.000000 0.035504 0.000000 0.003971
# 5 0.006888 0.000180 0.000815 0.000000 0.041793 0.000000
# 6 0.000000 0.000000 0.000000 0.003971 0.000000 0.024402
#
#
# Mechanical properties :
#
#
# Convention : Reuss Voigt Hill
#
# Bulk Modulus (GPa) = 38.33068 42.42080 40.37574
# Shear Modulus (GPa) = 31.89086 35.01514 33.45300
#
# Velocity S-wave (km/s) = 3.74243 3.92146 3.83299
# Velocity P-wave (km/s) = 5.95889 6.25573 6.10911
#
# Compressibility (1/GPa) = 0.02608876
#
# Stress axis : x y z
#
# Youngs Moduli (GPa) = 67.72171 78.89372 113.66969
#
# Poissons Ratio (x) = 0.15049 0.28515
# Poissons Ratio (y) = 0.12918 0.07491
# Poissons Ratio (z) = 0.16988 0.05199
#
# Static dielectric constant tensor:
#      x y z
#    x 4.230130 0.000000 -0.159410 
#    y 0.000000 4.288850 0.000000 
#    z -0.159410 0.000000 3.892050 
# 
# 
# High freq. dielectric constant tensor:
#      x y z
#    x 1.905170 0.000000 -0.008510 
#    y 0.000000 1.914350 0.000000 
#    z -0.008510 0.000000 1.882590 
# 
# From -- ./inp_files/37810.got.cif
#   From: 2010.03.12/outbox.cif.g09.slc.cpg/sg14_19_cif.got.tgz:37810.got - 2010.03.31 13:35:05.
