data_PCOD8126041
_publ_section_title
;
Structure prediction by ZEFSAII (Michael W. Deem and Ramdas Pophale) SiO2 
 PCOD8126041
Probable space group: P 21/C
;
_chemical_formula_sum "Si O2"
_cell_formula_units_Z 28
_cell_length_a 9.285619
_cell_length_b 8.656722
_cell_length_c 22.300831
_cell_angle_alpha 90.000000
_cell_angle_beta 49.765273
_cell_angle_gamma 90.000000
_cell_volume 1368.485479
_symmetry_space_group_name_H-M "P 21/C"
_symmetry_group_IT_number 14
_symmetry_cell_setting 'monoclinic'
loop_
_space_group_symop_operation_xyz
x,y,z
-x,1/2+y,1/2-z
-x,-y,-z
x,1/2-y,1/2+z
loop_
_atom_site_type_symbol
_atom_site_label
_atom_site_fract_x
_atom_site_fract_y
_atom_site_fract_z
Si Si1 0.214764 0.385941 0.593940
Si Si2 0.071096 0.699273 0.764428
Si Si3 0.134111 0.581942 0.010698
Si Si4 0.142162 0.917902 0.639939
Si Si5 0.810756 0.435073 0.522556
Si Si6 0.567858 0.428172 0.362176
Si Si7 0.439134 0.139042 0.467152
O O1 0.205956 0.503619 0.540967
O O2 0.333483 0.465917 0.614097
O O3 0.315028 0.223731 0.551303
O O4 0.002738 0.337256 0.672581
O O5 0.099087 0.761966 0.688754
O O6 0.270852 0.617897 0.730700
O O7 0.916582 0.563580 0.803945
O O8 0.037631 0.585993 0.103386
O O9 0.180613 0.752601 0.976554
O O10 0.325461 0.485073 0.959290
O O11 0.000000 0.500000 0.000000
O O12 0.364735 0.935139 0.560409
O O13 0.621088 0.485023 0.610646
O O14 0.000000 0.500000 0.500000
O O15 0.499925 0.265263 0.403446
#
# Coordination Sequence:
#
# PCOD8126041 Si02
#       7
#     4   4   4   4   4   4   4
#     4  11  20  39  63  93 127 166 211 273 327 377
#     4  11  22  36  64  93 132 162 209 261 332 379
#     4  12  24  39  65  98 127 164 221 272 318 381
#     4  11  23  38  64  95 129 164 215 267 328 380
#     4  11  24  41  67  90 127 170 219 265 325 381
#     4  10  21  40  62  95 128 163 211 271 324 384
#     4  10  21  37  64  95 120 163 223 272 308 375
#
# _framework density 20.460574999999999
#
# number of rings (size 3 to 8) (size 9 to 14) (size 15 to 20)
#    0.000    1.143    2.857    6.429    2.000    0.000 
#    0.000    0.000    9.429    1.714    0.000    0.000 
#    0.000    0.000    0.000    0.000    0.000    0.000 
#
# Total GULP energy -346984.584715 kJ/mol
# GULP energy per Si atom -12392.306597 kJ/mol
# Density = 2.041401 g / cm^3
# Si number density = 20.460575 Si / 1000 Ang^3
#
#
#
# Elastic Constant Matrix: (Units=GPa)
#
#
# Indices 1 2 3 4 5 6 
#
# 1 88.4986 57.5612 40.8693 0.0000 -21.8708 0.0000
# 2 57.5612 140.7754 53.6078 0.0000 -23.4606 0.0000
# 3 40.8693 53.6078 136.6169 0.0000 -23.7939 0.0000
# 4 0.0000 0.0000 0.0000 46.9665 0.0000 -7.4679
# 5 -21.8708 -23.4606 -23.7939 0.0000 27.5883 0.0000
# 6 0.0000 0.0000 0.0000 -7.4679 0.0000 36.6016
#
#
#
# Elastic Compliance Matrix: (Units=1/GPa)
#
#
# Indices 1 2 3 4 5 6 
#
# 1 0.017418 -0.005111 -0.001832 0.000000 0.007882 0.000000
# 2 -0.005111 0.010490 -0.002047 0.000000 0.003104 0.000000
# 3 -0.001832 -0.002047 0.009549 0.000000 0.005043 0.000000
# 4 0.000000 0.000000 0.000000 0.022006 0.000000 0.004490
# 5 0.007882 0.003104 0.005043 0.000000 0.049484 0.000000
# 6 0.000000 0.000000 0.000000 0.004490 0.000000 0.028237
#
#
# Mechanical properties :
#
#
# Convention : Reuss Voigt Hill
#
# Bulk Modulus (GPa) = 51.34211 74.44081 62.89146
# Shear Modulus (GPa) = 30.92997 36.48813 33.70905
#
# Velocity S-wave (km/s) = 3.89226 4.22754 4.06336
# Velocity P-wave (km/s) = 6.73404 7.76473 7.26768
#
# Compressibility (1/GPa) = 0.01947719
#
# Stress axis : x y z
#
# Youngs Moduli (GPa) = 57.41304 95.33072 104.71944
#
# Poissons Ratio (x) = 0.48719 0.19190
# Poissons Ratio (y) = 0.29341 0.21434
# Poissons Ratio (z) = 0.10521 0.19512
#
# Static dielectric constant tensor:
#      x y z
#    x 3.531450 0.000000 -0.420350 
#    y 0.000000 4.163820 0.000000 
#    z -0.420350 0.000000 4.249540 
# 
# 
# High freq. dielectric constant tensor:
#      x y z
#    x 1.753900 0.000000 -0.019220 
#    y 0.000000 1.835440 0.000000 
#    z -0.019220 0.000000 1.810010 
# 
# From -- ./inp_files/76302.got.cif
#   From: 2010.03.12/outbox.cif.g09.slc.cpg/sg14_39_cif.got.tgz:76302.got - 2010.03.31 13:35:05.
