data_PCOD8126043
_publ_section_title
;
Structure prediction by ZEFSAII (Michael W. Deem and Ramdas Pophale) SiO2 
 PCOD8126043
Probable space group: P 21/C
;
_chemical_formula_sum "Si O2"
_cell_formula_units_Z 28
_cell_length_a 9.578241
_cell_length_b 7.446917
_cell_length_c 30.267404
_cell_angle_alpha 90.000000
_cell_angle_beta 142.030064
_cell_angle_gamma 90.000000
_cell_volume 1328.273761
_symmetry_space_group_name_H-M "P 21/C"
_symmetry_group_IT_number 14
_symmetry_cell_setting 'monoclinic'
loop_
_space_group_symop_operation_xyz
x,y,z
-x,1/2+y,1/2-z
-x,-y,-z
x,1/2-y,1/2+z
loop_
_atom_site_type_symbol
_atom_site_label
_atom_site_fract_x
_atom_site_fract_y
_atom_site_fract_z
Si Si1 0.632488 0.932141 0.409149
Si Si2 0.031976 0.931910 0.879245
Si Si3 0.131954 0.996636 0.741330
Si Si4 0.133520 0.687550 0.151390
Si Si5 0.592318 0.820190 0.715551
Si Si6 0.958493 0.365880 0.049034
Si Si7 0.752609 0.273379 0.646829
O O1 0.458021 0.019615 0.331002
O O2 0.728520 0.085642 0.465621
O O3 0.839042 0.836815 0.435331
O O4 0.505154 0.776819 0.405111
O O5 0.789261 0.879326 0.798044
O O6 0.079791 0.819641 0.935319
O O7 0.233966 0.890264 0.894730
O O8 0.031622 0.140525 0.892419
O O9 0.179749 0.859299 0.713656
O O10 0.125786 0.887905 0.784963
O O11 0.330899 0.144920 0.792365
O O12 0.887759 0.087787 0.673531
O O13 0.372623 0.734326 0.188714
O O14 0.013155 0.523593 0.096983
#
# Coordination Sequence:
#
# PCOD8126043 Si02
#       7
#     4   4   4   4   4   4   4
#     4  10  23  42  66  87 131 171 203 262 315 370
#     4  11  23  39  63  95 123 162 213 255 312 375
#     4  11  21  37  60  99 127 155 215 261 310 377
#     4  11  21  38  65  91 125 163 207 264 306 369
#     4  10  21  37  64  96 119 166 208 263 315 356
#     4  10  23  46  61  92 128 168 214 253 311 375
#     4  11  22  37  61  92 129 166 196 268 319 359
#
# _framework density 21.079993000000002
#
# number of rings (size 3 to 8) (size 9 to 14) (size 15 to 20)
#    0.000    1.429    2.857    4.286    6.000    0.571 
#    2.571    2.857    0.000    0.000    0.000    0.000 
#    0.000    0.000    0.000    0.000    0.000    0.000 
#
# Total GULP energy -347343.334794 kJ/mol
# GULP energy per Si atom -12405.119100 kJ/mol
# Density = 2.103201 g / cm^3
# Si number density = 21.079993 Si / 1000 Ang^3
#
#
#
# Elastic Constant Matrix: (Units=GPa)
#
#
# Indices 1 2 3 4 5 6 
#
# 1 102.6670 24.9139 -5.7394 0.0000 2.4696 0.0000
# 2 24.9139 73.1570 -17.8158 0.0000 9.8717 0.0000
# 3 -5.7394 -17.8158 21.4514 0.0000 -1.7855 0.0000
# 4 0.0000 0.0000 0.0000 19.2336 0.0000 -0.7814
# 5 2.4696 9.8717 -1.7855 0.0000 21.6742 0.0000
# 6 0.0000 0.0000 0.0000 -0.7814 0.0000 32.1967
#
#
#
# Elastic Compliance Matrix: (Units=1/GPa)
#
#
# Indices 1 2 3 4 5 6 
#
# 1 0.010623 -0.003735 -0.000221 0.000000 0.000473 0.000000
# 2 -0.003735 0.019465 0.014564 0.000000 -0.007240 0.000000
# 3 -0.000221 0.014564 0.058505 0.000000 -0.001789 0.000000
# 4 0.000000 0.000000 0.000000 0.052044 0.000000 0.001263
# 5 0.000473 -0.007240 -0.001789 0.000000 0.049234 0.000000
# 6 0.000000 0.000000 0.000000 0.001263 0.000000 0.031090
#
#
# Mechanical properties :
#
#
# Convention : Reuss Voigt Hill
#
# Bulk Modulus (GPa) = 9.10669 22.22143 15.66406
# Shear Modulus (GPa) = 21.15533 27.68201 24.41867
#
# Velocity S-wave (km/s) = 3.17136 3.62773 3.40719
# Velocity P-wave (km/s) = 4.21183 5.30203 4.78806
#
# Compressibility (1/GPa) = 0.10980940
#
# Stress axis : x y z
#
# Youngs Moduli (GPa) = 94.13601 51.37426 17.09259
#
# Poissons Ratio (x) = 0.19189 0.00377
# Poissons Ratio (y) = 0.35162 -0.24894
# Poissons Ratio (z) = 0.02077 -0.74822
#
# Static dielectric constant tensor:
#      x y z
#    x 4.092680 0.000000 -0.084420 
#    y 0.000000 3.791340 0.000000 
#    z -0.084420 0.000000 3.551550 
# 
# 
# High freq. dielectric constant tensor:
#      x y z
#    x 1.845400 0.000000 -0.007060 
#    y 0.000000 1.822930 0.000000 
#    z -0.007060 0.000000 1.800690 
# 
# From -- ./inp_files/79493.got.cif
#   From: 2010.03.12/outbox.cif.g09.slc.cpg/sg14_40_cif.got.tgz:79493.got - 2010.03.31 13:35:05.
