data_PCOD8126071
_publ_section_title
;
Structure prediction by ZEFSAII (Michael W. Deem and Ramdas Pophale) SiO2 
 PCOD8126071
Probable space group: P 21/C
;
_chemical_formula_sum "Si O2"
_cell_formula_units_Z 28
_cell_length_a 7.413497
_cell_length_b 26.082140
_cell_length_c 9.157055
_cell_angle_alpha 90.000000
_cell_angle_beta 130.613974
_cell_angle_gamma 90.000000
_cell_volume 1344.089973
_symmetry_space_group_name_H-M "P 21/C"
_symmetry_group_IT_number 14
_symmetry_cell_setting 'monoclinic'
loop_
_space_group_symop_operation_xyz
x,y,z
-x,1/2+y,1/2-z
-x,-y,-z
x,1/2-y,1/2+z
loop_
_atom_site_type_symbol
_atom_site_label
_atom_site_fract_x
_atom_site_fract_y
_atom_site_fract_z
Si Si1 0.446817 0.917279 0.713148
Si Si2 0.433940 0.472215 0.281482
Si Si3 0.690692 0.083900 0.681332
Si Si4 0.744504 0.246322 0.005763
Si Si5 0.828459 0.962612 0.083349
Si Si6 0.518961 0.185655 0.144144
Si Si7 0.032709 0.814260 0.127571
O O1 0.426798 0.903097 0.534131
O O2 0.725034 0.924584 0.903991
O O3 0.346238 0.868649 0.752112
O O4 0.317562 0.972132 0.677373
O O5 0.471379 0.434938 0.164301
O O6 0.258826 0.443438 0.301700
O O7 0.699548 0.481715 0.493197
O O8 0.816029 0.133941 0.810179
O O9 0.886212 0.037558 0.773190
O O10 0.599544 0.206412 0.029577
O O11 0.881856 0.284799 0.183305
O O12 0.566185 0.275051 0.801596
O O13 0.935022 0.217154 0.005079
O O14 0.241048 0.173965 0.992835
#
# Coordination Sequence:
#
# PCOD8126071 Si02
#       7
#     4   4   4   4   4   4   4
#     4  10  21  38  58  85 119 148 187 238 276 337
#     4   9  21  40  56  86 117 149 196 227 280 340
#     4  12  21  36  62  83 116 152 189 231 287 334
#     4  10  24  39  61  83 113 148 190 237 286 338
#     4   9  21  39  56  81 117 149 184 236 274 327
#     4  11  21  42  60  84 119 145 188 244 279 334
#     4  11  22  38  60  86 108 152 189 228 292 339
#
# _framework density 20.831938000000001
#
# number of rings (size 3 to 8) (size 9 to 14) (size 15 to 20)
#    0.857    0.857    2.857    1.714    2.000    0.571 
#    0.000    1.429    0.000    0.000    0.000    0.000 
#    0.000    0.000    0.000    0.000    0.000    0.000 
#
# Total GULP energy -346888.158253 kJ/mol
# GULP energy per Si atom -12388.862795 kJ/mol
# Density = 2.078452 g / cm^3
# Si number density = 20.831938 Si / 1000 Ang^3
#
#
#
# Elastic Constant Matrix: (Units=GPa)
#
#
# Indices 1 2 3 4 5 6 
#
# 1 68.4927 10.9537 23.0620 0.0000 -11.7749 0.0000
# 2 10.9537 68.8498 12.2429 0.0000 -1.1427 0.0000
# 3 23.0620 12.2429 67.1889 0.0000 -18.3540 0.0000
# 4 0.0000 0.0000 0.0000 23.0139 0.0000 -2.4606
# 5 -11.7749 -1.1427 -18.3540 0.0000 22.3501 0.0000
# 6 0.0000 0.0000 0.0000 -2.4606 0.0000 16.6537
#
#
#
# Elastic Compliance Matrix: (Units=1/GPa)
#
#
# Indices 1 2 3 4 5 6 
#
# 1 0.017238 -0.001935 -0.004010 0.000000 0.005690 0.000000
# 2 -0.001935 0.015291 -0.002820 0.000000 -0.002553 0.000000
# 3 -0.004010 -0.002820 0.020830 0.000000 0.014849 0.000000
# 4 0.000000 0.000000 0.000000 0.044149 0.000000 0.006523
# 5 0.005690 -0.002553 0.014849 0.000000 0.059804 0.000000
# 6 0.000000 0.000000 0.000000 0.006523 0.000000 0.061010
#
#
# Mechanical properties :
#
#
# Convention : Reuss Voigt Hill
#
# Bulk Modulus (GPa) = 27.90956 33.00538 30.45747
# Shear Modulus (GPa) = 20.17801 22.95507 21.56654
#
# Velocity S-wave (km/s) = 3.11563 3.32312 3.22104
# Velocity P-wave (km/s) = 5.13511 5.53192 5.33721
#
# Compressibility (1/GPa) = 0.03583002
#
# Stress axis : x y z
#
# Youngs Moduli (GPa) = 58.01189 65.39699 48.00812
#
# Poissons Ratio (x) = 0.12654 0.19251
# Poissons Ratio (y) = 0.11225 0.13536
# Poissons Ratio (z) = 0.23262 0.18439
#
# Static dielectric constant tensor:
#      x y z
#    x 3.535590 0.000000 -0.250920 
#    y 0.000000 3.749490 0.000000 
#    z -0.250920 0.000000 3.745620 
# 
# 
# High freq. dielectric constant tensor:
#      x y z
#    x 1.792590 0.000000 -0.021320 
#    y 0.000000 1.812750 0.000000 
#    z -0.021320 0.000000 1.817520 
# 
# From -- ./inp_files/7009.got.cif
#   From: 2010.03.12/outbox.cif.g09.slc.cpg/sg14_4_cif.got.tgz:7009.got - 2010.03.31 13:35:05.
