data_PCOD8126204
_publ_section_title
;
Structure prediction by ZEFSAII (Michael W. Deem and Ramdas Pophale) SiO2 
 PCOD8126204
Probable space group: P 21/C
;
_chemical_formula_sum "Si O2"
_cell_formula_units_Z 28
_cell_length_a 12.868648
_cell_length_b 22.990195
_cell_length_c 5.242505
_cell_angle_alpha 90.000000
_cell_angle_beta 119.035354
_cell_angle_gamma 90.000000
_cell_volume 1356.079147
_symmetry_space_group_name_H-M "P 21/C"
_symmetry_group_IT_number 14
_symmetry_cell_setting 'monoclinic'
loop_
_space_group_symop_operation_xyz
x,y,z
-x,1/2+y,1/2-z
-x,-y,-z
x,1/2-y,1/2+z
loop_
_atom_site_type_symbol
_atom_site_label
_atom_site_fract_x
_atom_site_fract_y
_atom_site_fract_z
Si Si1 0.320817 0.284611 0.649100
Si Si2 0.600832 0.092944 0.522654
Si Si3 0.235727 0.404328 0.340213
Si Si4 0.530776 0.934945 0.117091
Si Si5 0.192164 0.989179 0.138117
Si Si6 0.396564 0.717813 0.993374
Si Si7 0.972187 0.550637 0.158887
O O1 0.276953 0.244249 0.361385
O O2 0.263391 0.348706 0.548873
O O3 0.461767 0.289964 0.834368
O O4 0.512993 0.077124 0.649766
O O5 0.697149 0.042367 0.598282
O O6 0.661522 0.155389 0.644282
O O7 0.532664 0.103509 0.175396
O O8 0.331760 0.414075 0.226814
O O9 0.244054 0.466404 0.492580
O O10 0.100190 0.396939 0.066072
O O11 0.500000 0.000000 0.000000
O O12 0.118733 0.028262 0.240513
O O13 0.103841 0.936878 0.929807
O O14 0.352792 0.739737 0.216234
O O15 0.000000 0.500000 0.000000
#
# Coordination Sequence:
#
# PCOD8126204 Si02
#       7
#     4   4   4   4   4   4   4
#     4  10  23  37  56  84 119 161 207 243 294 357
#     4  12  24  38  60  91 125 162 199 247 305 368
#     4  11  22  37  62  85 126 160 198 254 306 362
#     4  12  24  35  55  96 131 156 190 244 315 371
#     4  10  22  39  62  89 122 159 203 248 309 370
#     4  10  21  39  56  81 120 165 208 244 291 362
#     4   9  21  40  60  88 115 159 202 243 303 361
#
# _framework density 20.647762
#
# number of rings (size 3 to 8) (size 9 to 14) (size 15 to 20)
#    0.000    1.429    2.857    2.143   10.000    0.000 
#    0.000    0.000    0.000    1.714    0.000    0.000 
#    0.000    0.000    0.000    0.000    0.000    0.000 
#
# Total GULP energy -346885.091763 kJ/mol
# GULP energy per Si atom -12388.753277 kJ/mol
# Density = 2.060077 g / cm^3
# Si number density = 20.647762 Si / 1000 Ang^3
#
#
#
# Elastic Constant Matrix: (Units=GPa)
#
#
# Indices 1 2 3 4 5 6 
#
# 1 58.5760 3.7935 18.4651 0.0000 -1.7610 0.0000
# 2 3.7935 88.8311 6.1424 0.0000 4.2382 0.0000
# 3 18.4651 6.1424 67.9702 0.0000 -5.9644 0.0000
# 4 0.0000 0.0000 0.0000 36.6993 0.0000 1.2406
# 5 -1.7610 4.2382 -5.9644 0.0000 25.9017 0.0000
# 6 0.0000 0.0000 0.0000 1.2406 0.0000 14.1925
#
#
#
# Elastic Compliance Matrix: (Units=1/GPa)
#
#
# Indices 1 2 3 4 5 6 
#
# 1 0.018690 -0.000460 -0.005019 0.000000 0.000190 0.000000
# 2 -0.000460 0.011456 -0.001100 0.000000 -0.002159 0.000000
# 3 -0.005019 -0.001100 0.016494 0.000000 0.003637 0.000000
# 4 0.000000 0.000000 0.000000 0.027329 0.000000 -0.002389
# 5 0.000190 -0.002159 0.003637 0.000000 0.039811 0.000000
# 6 0.000000 0.000000 0.000000 -0.002389 0.000000 0.070668
#
#
# Mechanical properties :
#
#
# Convention : Reuss Voigt Hill
#
# Bulk Modulus (GPa) = 29.86669 30.24214 30.05442
# Shear Modulus (GPa) = 23.95012 27.82378 25.88695
#
# Velocity S-wave (km/s) = 3.40948 3.67487 3.54466
# Velocity P-wave (km/s) = 5.47683 5.71706 5.59823
#
# Compressibility (1/GPa) = 0.03348212
#
# Stress axis : x y z
#
# Youngs Moduli (GPa) = 53.50589 87.29035 60.62687
#
# Poissons Ratio (x) = 0.04017 0.30429
# Poissons Ratio (y) = 0.02462 0.06667
# Poissons Ratio (z) = 0.26855 0.09599
#
# Static dielectric constant tensor:
#      x y z
#    x 3.713660 0.000000 0.121010 
#    y 0.000000 3.742180 0.000000 
#    z 0.121010 0.000000 4.502950 
# 
# 
# High freq. dielectric constant tensor:
#      x y z
#    x 1.785770 0.000000 -0.018660 
#    y 0.000000 1.789840 0.000000 
#    z -0.018660 0.000000 1.819250 
# 
# From -- ./inp_files/2995.got.cif
#   From: 2010.03.12/outbox.cif.g09.slc.cpg/sg14_2_cif.got.tgz:2995.got - 2010.03.31 13:35:05.
