data_PCOD8126090
_publ_section_title
;
Structure prediction by ZEFSAII (Michael W. Deem and Ramdas Pophale) SiO2 
 PCOD8126090
Probable space group: P 21/C
;
_chemical_formula_sum "Si O2"
_cell_formula_units_Z 28
_cell_length_a 9.047231
_cell_length_b 13.444358
_cell_length_c 19.467194
_cell_angle_alpha 90.000000
_cell_angle_beta 38.834420
_cell_angle_gamma 90.000000
_cell_volume 1484.828963
_symmetry_space_group_name_H-M "P 21/C"
_symmetry_group_IT_number 14
_symmetry_cell_setting 'monoclinic'
loop_
_space_group_symop_operation_xyz
x,y,z
-x,1/2+y,1/2-z
-x,-y,-z
x,1/2-y,1/2+z
loop_
_atom_site_type_symbol
_atom_site_label
_atom_site_fract_x
_atom_site_fract_y
_atom_site_fract_z
Si Si1 0.249013 0.001420 0.128962
Si Si2 0.954676 0.613092 0.029602
Si Si3 0.893459 0.220669 0.782794
Si Si4 0.959997 0.845374 0.889744
Si Si5 0.781930 0.843558 0.741159
Si Si6 0.348004 0.746439 0.329519
Si Si7 0.422782 0.249944 0.391075
O O1 0.148084 0.895363 0.188289
O O2 0.268935 0.064833 0.190736
O O3 0.056587 0.053211 0.148157
O O4 0.500000 0.000000 0.000000
O O5 0.900592 0.620592 0.128915
O O6 0.733179 0.651303 0.064794
O O7 0.000000 0.500000 0.000000
O O8 0.187268 0.673541 0.925462
O O9 0.038309 0.246788 0.660564
O O10 0.639691 0.275062 0.863697
O O11 0.033490 0.264111 0.796134
O O12 0.191222 0.844755 0.854705
O O13 0.729146 0.838040 0.020567
O O14 0.528748 0.793346 0.820556
O O15 0.486571 0.794430 0.214612
#
# Coordination Sequence:
#
# PCOD8126090 Si02
#       7
#     4   4   4   4   4   4   4
#     4  11  22  37  63  87 115 156 201 237 291 357
#     4  10  22  38  62  87 116 157 199 239 296 349
#     4  10  21  38  60  84 121 151 195 244 294 345
#     4   9  19  37  60  85 116 154 193 239 297 343
#     4  10  24  40  58  89 120 151 196 248 290 345
#     4   9  20  40  59  81 123 150 191 243 293 343
#     4   9  18  37  61  82 115 157 185 242 293 343
#
# _framework density 18.857391
#
# number of rings (size 3 to 8) (size 9 to 14) (size 15 to 20)
#    0.000    2.286    1.429    0.000    8.000    0.000 
#   10.286    1.429    0.000    0.000    0.000    0.000 
#    0.000    0.000    0.000    0.000    0.000    0.000 
#
# Total GULP energy -347041.406740 kJ/mol
# GULP energy per Si atom -12394.335955 kJ/mol
# Density = 1.881447 g / cm^3
# Si number density = 18.857391 Si / 1000 Ang^3
#
#
#
# Elastic Constant Matrix: (Units=GPa)
#
#
# Indices 1 2 3 4 5 6 
#
# 1 157.8262 74.0159 52.5156 0.0000 -16.0648 0.0000
# 2 74.0159 137.6361 61.6377 0.0000 -3.6394 0.0000
# 3 52.5156 61.6377 128.7285 0.0000 -2.3453 0.0000
# 4 0.0000 0.0000 0.0000 26.4823 0.0000 2.5764
# 5 -16.0648 -3.6394 -2.3453 0.0000 23.4296 0.0000
# 6 0.0000 0.0000 0.0000 2.5764 0.0000 20.3938
#
#
#
# Elastic Compliance Matrix: (Units=1/GPa)
#
#
# Indices 1 2 3 4 5 6 
#
# 1 0.009439 -0.004135 -0.001768 0.000000 0.005653 0.000000
# 2 -0.004135 0.011083 -0.003647 0.000000 -0.001478 0.000000
# 3 -0.001768 -0.003647 0.010222 0.000000 -0.000755 0.000000
# 4 0.000000 0.000000 0.000000 0.038231 0.000000 -0.004830
# 5 0.005653 -0.001478 -0.000755 0.000000 0.046252 0.000000
# 6 0.000000 0.000000 0.000000 -0.004830 0.000000 0.049645
#
#
# Mechanical properties :
#
#
# Convention : Reuss Voigt Hill
#
# Bulk Modulus (GPa) = 85.87490 88.94767 87.41129
# Shear Modulus (GPa) = 26.61678 29.79593 28.20635
#
# Velocity S-wave (km/s) = 3.76104 3.97932 3.87172
# Velocity P-wave (km/s) = 8.03110 8.26948 8.15116
#
# Compressibility (1/GPa) = 0.01164485
#
# Stress axis : x y z
#
# Youngs Moduli (GPa) = 105.94667 90.22704 97.82834
#
# Poissons Ratio (x) = 0.37306 0.17295
# Poissons Ratio (y) = 0.43805 0.35678
# Poissons Ratio (z) = 0.18730 0.32906
#
# Static dielectric constant tensor:
#      x y z
#    x 0.571610 0.000000 -2.041320 
#    y 0.000000 3.241310 0.000000 
#    z -2.041320 0.000000 2.399600 
# 
# 
# High freq. dielectric constant tensor:
#      x y z
#    x 1.743000 0.000000 0.001570 
#    y 0.000000 1.704920 0.000000 
#    z 0.001570 0.000000 1.751440 
# 
# From -- ./inp_files/65541.got.cif
#   From: 2010.03.12/outbox.cif.g09.slc.cpg/sg14_33_cif.got.tgz:65541.got - 2010.03.31 13:35:05.
