data_PCOD8126923
_publ_section_title
;
Structure prediction by ZEFSAII (Michael W. Deem and Ramdas Pophale) SiO2 
 PCOD8126923
Probable space group: P 21/C
;
_chemical_formula_sum "Si O2"
_cell_formula_units_Z 20
_cell_length_a 24.904537
_cell_length_b 7.590252
_cell_length_c 8.650589
_cell_angle_alpha 90.000000
_cell_angle_beta 148.613563
_cell_angle_gamma 90.000000
_cell_volume 851.643096
_symmetry_space_group_name_H-M "P 21/C"
_symmetry_group_IT_number 14
_symmetry_cell_setting 'monoclinic'
loop_
_space_group_symop_operation_xyz
x,y,z
-x,1/2+y,1/2-z
-x,-y,-z
x,1/2-y,1/2+z
loop_
_atom_site_type_symbol
_atom_site_label
_atom_site_fract_x
_atom_site_fract_y
_atom_site_fract_z
Si Si1 0.294753 0.933314 0.344843
Si Si2 0.529820 0.553356 0.901141
Si Si3 0.103762 0.918652 0.691802
Si Si4 0.821951 0.103086 0.452383
Si Si5 0.346083 0.414256 0.289228
O O1 0.261600 0.740608 0.326407
O O2 0.396183 0.903158 0.489217
O O3 0.320748 0.064118 0.547794
O O4 0.201264 0.015889 0.012170
O O5 0.426801 0.563586 0.544225
O O6 0.500000 0.500000 0.000000
O O7 0.600371 0.726578 0.055511
O O8 0.106133 0.955804 0.513438
O O9 0.110533 0.708143 0.751215
O O10 0.000000 0.000000 0.500000
O O11 0.760761 0.937893 0.376563
#
# Coordination Sequence:
#
# PCOD8126923 Si02
#       5
#     4   4   4   4   4
#     4  10  22  45  66 100 145 187 244 303 361 428
#     4  12  26  42  69 109 144 199 247 290 360 443
#     4  10  22  46  75 102 137 185 248 300 373 434
#     4  10  21  45  72 102 138 189 235 307 363 428
#     4  12  24  44  70 103 150 192 242 302 361 435
#
# _framework density 23.484016
#
# number of rings (size 3 to 8) (size 9 to 14) (size 15 to 20)
#    1.200    0.000    2.000    4.200    0.000    3.200 
#    7.200    4.000    0.000    0.000    0.000    0.000 
#    0.000    0.000    0.000    0.000    0.000    0.000 
#
# Total GULP energy -247830.150971 kJ/mol
# GULP energy per Si atom -12391.507549 kJ/mol
# Density = 2.343057 g / cm^3
# Si number density = 23.484016 Si / 1000 Ang^3
#
#
#
# Elastic Constant Matrix: (Units=GPa)
#
#
# Indices 1 2 3 4 5 6 
#
# 1 214.4461 30.9632 43.7840 0.0000 20.9071 0.0000
# 2 30.9632 72.0354 -2.4769 0.0000 8.7315 0.0000
# 3 43.7840 -2.4769 71.4556 0.0000 5.4093 0.0000
# 4 0.0000 0.0000 0.0000 24.1907 0.0000 10.3309
# 5 20.9071 8.7315 5.4093 0.0000 44.5008 0.0000
# 6 0.0000 0.0000 0.0000 10.3309 0.0000 41.1293
#
#
#
# Elastic Compliance Matrix: (Units=1/GPa)
#
#
# Indices 1 2 3 4 5 6 
#
# 1 0.005929 -0.002444 -0.003576 0.000000 -0.001871 0.000000
# 2 -0.002444 0.015264 0.002187 0.000000 -0.002112 0.000000
# 3 -0.003576 0.002187 0.016317 0.000000 -0.000733 0.000000
# 4 0.000000 0.000000 0.000000 0.046305 0.000000 -0.011631
# 5 -0.001871 -0.002112 -0.000733 0.000000 0.023854 0.000000
# 6 0.000000 0.000000 0.000000 -0.011631 0.000000 0.027235
#
#
# Mechanical properties :
#
#
# Convention : Reuss Voigt Hill
#
# Bulk Modulus (GPa) = 33.50896 55.83085 44.66990
# Shear Modulus (GPa) = 32.78289 41.00863 36.89576
#
# Velocity S-wave (km/s) = 3.74032 4.18333 3.96801
# Velocity P-wave (km/s) = 5.74048 6.86726 6.32900
#
# Compressibility (1/GPa) = 0.02984277
#
# Stress axis : x y z
#
# Youngs Moduli (GPa) = 168.67313 65.51359 61.28566
#
# Poissons Ratio (x) = 0.16015 0.21915
# Poissons Ratio (y) = 0.41232 -0.13402
# Poissons Ratio (z) = 0.60315 -0.14327
#
# Static dielectric constant tensor:
#      x y z
#    x 4.156560 0.000000 0.098040 
#    y 0.000000 3.889940 0.000000 
#    z 0.098040 0.000000 4.103190 
# 
# 
# High freq. dielectric constant tensor:
#      x y z
#    x 1.944530 0.000000 0.004920 
#    y 0.000000 1.905790 0.000000 
#    z 0.004920 0.000000 1.917080 
# 
# From -- ./inp_files/19381.got.cif
#   From: 2010.03.12/outbox.cif.g09.slc.cpg/sg14_10_cif.got.tgz:19381.got - 2010.03.31 13:35:05.
