data_PCOD8126454
_publ_section_title
;
Structure prediction by ZEFSAII (Michael W. Deem and Ramdas Pophale) SiO2 
 PCOD8126454
Probable space group: P 21/C
;
_chemical_formula_sum "Si O2"
_cell_formula_units_Z 16
_cell_length_a 14.615836
_cell_length_b 4.834708
_cell_length_c 19.906854
_cell_angle_alpha 90.000000
_cell_angle_beta 30.575534
_cell_angle_gamma 90.000000
_cell_volume 715.543317
_symmetry_space_group_name_H-M "P 21/C"
_symmetry_group_IT_number 14
_symmetry_cell_setting 'monoclinic'
loop_
_space_group_symop_operation_xyz
x,y,z
-x,1/2+y,1/2-z
-x,-y,-z
x,1/2-y,1/2+z
loop_
_atom_site_type_symbol
_atom_site_label
_atom_site_fract_x
_atom_site_fract_y
_atom_site_fract_z
Si Si1 0.035670 0.744737 0.525607
Si Si2 0.408852 0.519410 0.334705
Si Si3 0.301854 0.239005 0.175310
Si Si4 0.525179 0.766773 0.568700
O O1 0.905301 0.744092 0.672421
O O2 0.000000 0.500000 0.500000
O O3 0.236798 0.707776 0.425951
O O4 0.000000 0.000000 0.500000
O O5 0.435286 0.256686 0.267315
O O6 0.391943 0.371266 0.417491
O O7 0.427987 0.437831 0.142098
O O8 0.365779 0.925020 0.141950
O O9 0.318788 0.315033 0.085495
#
# Coordination Sequence:
#
# PCOD8126454 Si02
#       4
#     4   4   4   4
#     4  12  24  40  63  91 126 165 209 258 310 371
#     4  12  24  40  63  92 126 164 210 262 312 368
#     4  10  21  40  64  89 121 162 203 250 311 373
#     4  10  21  40  64  88 121 161 203 252 310 372
#
# _framework density 22.360634000000001
#
# number of rings (size 3 to 8) (size 9 to 14) (size 15 to 20)
#    0.000    1.000    0.000    9.000    0.000    0.000 
#    0.000   12.500    0.000    0.000    0.000    0.000 
#    0.000    0.000    0.000    0.000    0.000    0.000 
#
# Total GULP energy -198267.363933 kJ/mol
# GULP energy per Si atom -12391.710246 kJ/mol
# Density = 2.230974 g / cm^3
# Si number density = 22.360634 Si / 1000 Ang^3
#
#
#
# Elastic Constant Matrix: (Units=GPa)
#
#
# Indices 1 2 3 4 5 6 
#
# 1 115.6615 35.9466 54.9461 0.0000 12.3480 0.0000
# 2 35.9466 135.7842 54.6658 0.0000 9.1263 0.0000
# 3 54.9461 54.6658 157.2962 0.0000 20.2626 0.0000
# 4 0.0000 0.0000 0.0000 31.9239 0.0000 3.6219
# 5 12.3480 9.1263 20.2626 0.0000 30.0538 0.0000
# 6 0.0000 0.0000 0.0000 3.6219 0.0000 45.4455
#
#
#
# Elastic Compliance Matrix: (Units=1/GPa)
#
#
# Indices 1 2 3 4 5 6 
#
# 1 0.010737 -0.001514 -0.002974 0.000000 -0.001947 0.000000
# 2 -0.001514 0.008788 -0.002477 0.000000 -0.000377 0.000000
# 3 -0.002974 -0.002477 0.008764 0.000000 -0.003935 0.000000
# 4 0.000000 0.000000 0.000000 0.031610 0.000000 -0.002519
# 5 -0.001947 -0.000377 -0.003935 0.000000 0.036841 0.000000
# 6 0.000000 0.000000 0.000000 -0.002519 0.000000 0.022205
#
#
# Mechanical properties :
#
#
# Convention : Reuss Voigt Hill
#
# Bulk Modulus (GPa) = 69.64005 77.76211 73.70108
# Shear Modulus (GPa) = 36.32124 39.03020 37.67572
#
# Velocity S-wave (km/s) = 4.03468 4.18244 4.10922
# Velocity P-wave (km/s) = 7.27437 7.62729 7.45292
#
# Compressibility (1/GPa) = 0.01435955
#
# Stress axis : x y z
#
# Youngs Moduli (GPa) = 93.13560 113.79257 114.10712
#
# Poissons Ratio (x) = 0.17234 0.33930
# Poissons Ratio (y) = 0.14105 0.28259
# Poissons Ratio (z) = 0.27694 0.28181
#
# Static dielectric constant tensor:
#      x y z
#    x 3.699130 0.000000 0.391150 
#    y 0.000000 4.330120 0.000000 
#    z 0.391150 0.000000 4.006360 
# 
# 
# High freq. dielectric constant tensor:
#      x y z
#    x 1.855180 0.000000 0.027670 
#    y 0.000000 1.913420 0.000000 
#    z 0.027670 0.000000 1.881200 
# 
# From -- ./inp_files/67581.got.cif
#   From: 2010.03.12/outbox.cif.g09.slc.cpg/sg14_34_cif.got.tgz:67581.got - 2010.03.31 13:35:05.
