data_PCOD8126810
_publ_section_title
;
Structure prediction by ZEFSAII (Michael W. Deem and Ramdas Pophale) SiO2 
 PCOD8126810
Probable space group: P 21/C
;
_chemical_formula_sum "Si O2"
_cell_formula_units_Z 32
_cell_length_a 8.847192
_cell_length_b 25.420490
_cell_length_c 9.036280
_cell_angle_alpha 90.000000
_cell_angle_beta 48.357790
_cell_angle_gamma 90.000000
_cell_volume 1518.724955
_symmetry_space_group_name_H-M "P 21/C"
_symmetry_group_IT_number 14
_symmetry_cell_setting 'monoclinic'
loop_
_space_group_symop_operation_xyz
x,y,z
-x,1/2+y,1/2-z
-x,-y,-z
x,1/2-y,1/2+z
loop_
_atom_site_type_symbol
_atom_site_label
_atom_site_fract_x
_atom_site_fract_y
_atom_site_fract_z
Si Si1 0.491946 0.143104 0.773481
Si Si2 0.285560 0.443683 0.221590
Si Si3 0.653181 0.059428 0.264264
Si Si4 0.859227 0.147600 0.322510
Si Si5 0.134668 0.288385 0.446462
Si Si6 0.968955 0.640171 0.732537
Si Si7 0.163937 0.167106 0.371831
Si Si8 0.408216 0.629383 0.465134
O O1 0.374794 0.092296 0.792529
O O2 0.665198 0.163349 0.547379
O O3 0.337675 0.192491 0.902391
O O4 0.588795 0.120356 0.860848
O O5 0.244167 0.502082 0.308072
O O6 0.071333 0.417702 0.312139
O O7 0.437734 0.443796 0.984575
O O8 0.807910 0.097189 0.254197
O O9 0.602113 0.076919 0.129219
O O10 0.930296 0.193905 0.165272
O O11 0.050832 0.139143 0.307674
O O12 0.106603 0.227352 0.435700
O O13 0.160784 0.315941 0.269142
O O14 0.199393 0.659205 0.566998
O O15 0.898930 0.634281 0.945252
O O16 0.404725 0.165561 0.200448
#
# Coordination Sequence:
#
# PCOD8126810 Si02
#       8
#     4   4   4   4   4   4   4   4
#     4  10  23  42  64  95 133 161 213 269 317 387
#     4   9  21  43  67  95 128 174 214 267 331 381
#     4  10  21  42  71  92 128 173 217 267 326 387
#     4  11  22  45  64  90 130 166 210 268 316 381
#     4  11  24  42  64  91 125 171 213 257 325 378
#     4  11  23  42  64  96 129 167 218 265 316 390
#     4  12  25  41  63  92 131 168 211 269 315 378
#     4  12  23  41  64  95 131 169 212 266 319 383
#
# _framework density 21.070305000000001
#
# number of rings (size 3 to 8) (size 9 to 14) (size 15 to 20)
#    0.000    1.250    5.000    0.750    0.000    3.000 
#    0.000    1.875    0.000    0.000    0.000    0.000 
#    0.000    0.000    0.000    0.000    0.000    0.000 
#
# Total GULP energy -396596.929413 kJ/mol
# GULP energy per Si atom -12393.654044 kJ/mol
# Density = 2.102235 g / cm^3
# Si number density = 21.070305 Si / 1000 Ang^3
#
#
#
# Elastic Constant Matrix: (Units=GPa)
#
#
# Indices 1 2 3 4 5 6 
#
# 1 125.1538 45.5152 40.8578 0.0000 -2.8403 0.0000
# 2 45.5152 108.2281 28.3534 0.0000 -5.4299 0.0000
# 3 40.8578 28.3534 93.4950 0.0000 -5.1974 0.0000
# 4 0.0000 0.0000 0.0000 23.4757 0.0000 -1.5409
# 5 -2.8403 -5.4299 -5.1974 0.0000 40.9505 0.0000
# 6 0.0000 0.0000 0.0000 -1.5409 0.0000 16.8583
#
#
#
# Elastic Compliance Matrix: (Units=1/GPa)
#
#
# Indices 1 2 3 4 5 6 
#
# 1 0.010387 -0.003461 -0.003500 0.000000 -0.000183 0.000000
# 2 -0.003461 0.011227 -0.001836 0.000000 0.001016 0.000000
# 3 -0.003500 -0.001836 0.012846 0.000000 0.001144 0.000000
# 4 0.000000 0.000000 0.000000 0.042854 0.000000 0.003917
# 5 -0.000183 0.001016 0.001144 0.000000 0.024687 0.000000
# 6 0.000000 0.000000 0.000000 0.003917 0.000000 0.059676
#
#
# Mechanical properties :
#
#
# Convention : Reuss Voigt Hill
#
# Bulk Modulus (GPa) = 59.28788 61.81441 60.55114
# Shear Modulus (GPa) = 27.04279 30.40027 28.72153
#
# Velocity S-wave (km/s) = 3.58642 3.80254 3.69606
# Velocity P-wave (km/s) = 6.73417 6.97711 6.85672
#
# Compressibility (1/GPa) = 0.01686685
#
# Stress axis : x y z
#
# Youngs Moduli (GPa) = 96.27308 89.07088 77.84747
#
# Poissons Ratio (x) = 0.30823 0.27246
# Poissons Ratio (y) = 0.33316 0.14293
# Poissons Ratio (z) = 0.33695 0.16353
#
# Static dielectric constant tensor:
#      x y z
#    x 4.060400 0.000000 0.052330 
#    y 0.000000 3.551600 0.000000 
#    z 0.052330 0.000000 4.057680 
# 
# 
# High freq. dielectric constant tensor:
#      x y z
#    x 1.835660 0.000000 0.002060 
#    y 0.000000 1.792820 0.000000 
#    z 0.002060 0.000000 1.846980 
# 
# From -- ./inp_files/11046.got.cif
#   From: 2010.03.12/outbox.cif.g09.slc.cpg/sg14_6_cif.got.tgz:11046.got - 2010.03.31 13:35:05.
