data_PCOD8126276
_publ_section_title
;
Structure prediction by ZEFSAII (Michael W. Deem and Ramdas Pophale) SiO2 
 PCOD8126276
Probable space group: P 21/C
;
_chemical_formula_sum "Si O2"
_cell_formula_units_Z 20
_cell_length_a 33.569147
_cell_length_b 5.002854
_cell_length_c 18.061975
_cell_angle_alpha 90.000000
_cell_angle_beta 18.111996
_cell_angle_gamma 90.000000
_cell_volume 942.995832
_symmetry_space_group_name_H-M "P 21/C"
_symmetry_group_IT_number 14
_symmetry_cell_setting 'monoclinic'
loop_
_space_group_symop_operation_xyz
x,y,z
-x,1/2+y,1/2-z
-x,-y,-z
x,1/2-y,1/2+z
loop_
_atom_site_type_symbol
_atom_site_label
_atom_site_fract_x
_atom_site_fract_y
_atom_site_fract_z
Si Si1 0.972655 0.500693 0.751762
Si Si2 0.888383 0.909569 0.142630
Si Si3 0.747722 0.103932 0.941974
Si Si4 0.535613 0.691547 0.871204
Si Si5 0.291323 0.596473 0.848757
O O1 0.064058 0.398708 0.525123
O O2 0.023429 0.784417 0.689914
O O3 0.826449 0.542797 0.984022
O O4 0.850176 0.612915 0.234320
O O5 0.771018 0.122214 0.355644
O O6 0.000000 0.000000 0.000000
O O7 0.761624 0.157216 0.006777
O O8 0.602307 0.982646 0.187404
O O9 0.642003 0.904158 0.708990
O O10 0.500000 0.500000 0.000000
O O11 0.397260 0.826844 0.097774
#
# Coordination Sequence:
#
# PCOD8126276 Si02
#       5
#     4   4   4   4   4
#     4  12  28  43  62  95 138 176 206 254 335 407
#     4  12  23  38  66  91 130 165 217 271 312 374
#     4  11  20  36  64  97 120 154 215 275 316 358
#     4   9  19  35  66 100 124 157 217 288 311 358
#     4  10  21  39  63 100 129 164 216 271 320 381
#
# _framework density 21.209002000000002
#
# number of rings (size 3 to 8) (size 9 to 14) (size 15 to 20)
#    0.000    1.200    4.000    1.800    8.400    0.000 
#    0.000    0.000    0.000    4.800    0.000    0.000 
#    0.000    0.000    0.000    0.000    0.000    0.000 
#
# Total GULP energy -247796.758148 kJ/mol
# GULP energy per Si atom -12389.837907 kJ/mol
# Density = 2.116073 g / cm^3
# Si number density = 21.209002 Si / 1000 Ang^3
#
#
#
# Elastic Constant Matrix: (Units=GPa)
#
#
# Indices 1 2 3 4 5 6 
#
# 1 51.0552 9.1040 34.6824 0.0000 7.6756 0.0000
# 2 9.1040 90.4332 29.3654 0.0000 1.7881 0.0000
# 3 34.6824 29.3654 122.3139 0.0000 8.7255 0.0000
# 4 0.0000 0.0000 0.0000 49.7240 0.0000 16.1435
# 5 7.6756 1.7881 8.7255 0.0000 20.5665 0.0000
# 6 0.0000 0.0000 0.0000 16.1435 0.0000 26.4933
#
#
#
# Elastic Compliance Matrix: (Units=1/GPa)
#
#
# Indices 1 2 3 4 5 6 
#
# 1 0.025091 -0.000258 -0.006585 0.000000 -0.006548 0.000000
# 2 -0.000258 0.011996 -0.002825 0.000000 0.000252 0.000000
# 3 -0.006585 -0.002825 0.010857 0.000000 -0.001903 0.000000
# 4 0.000000 0.000000 0.000000 0.025071 0.000000 -0.015277
# 5 -0.006548 0.000252 -0.001903 0.000000 0.051852 0.000000
# 6 0.000000 0.000000 0.000000 -0.015277 0.000000 0.047054
#
#
# Mechanical properties :
#
#
# Convention : Reuss Voigt Hill
#
# Bulk Modulus (GPa) = 34.95641 45.56733 40.26187
# Shear Modulus (GPa) = 24.90129 32.06679 28.48404
#
# Velocity S-wave (km/s) = 3.43022 3.89259 3.66869
# Velocity P-wave (km/s) = 5.67505 6.46023 6.08033
#
# Compressibility (1/GPa) = 0.02860705
#
# Stress axis : x y z
#
# Youngs Moduli (GPa) = 39.85552 83.35989 92.10696
#
# Poissons Ratio (x) = 0.02151 0.60657
# Poissons Ratio (y) = 0.01028 0.26019
# Poissons Ratio (z) = 0.26247 0.23548
#
# Static dielectric constant tensor:
#      x y z
#    x 0.863860 0.000000 -1.696000 
#    y 0.000000 -5.558990 0.000000 
#    z -1.696000 0.000000 3.239760 
# 
# 
# High freq. dielectric constant tensor:
#      x y z
#    x 1.756460 0.000000 0.035480 
#    y 0.000000 1.855730 0.000000 
#    z 0.035480 0.000000 1.857150 
# 
# From -- ./inp_files/56333.got.cif
#   From: 2010.03.12/outbox.cif.g09.slc.cpg/sg14_29_cif.got.tgz:56333.got - 2010.03.31 13:35:05.
