data_PCOD8126831
_publ_section_title
;
Structure prediction by ZEFSAII (Michael W. Deem and Ramdas Pophale) SiO2 
 PCOD8126831
Probable space group: P 21/C
;
_chemical_formula_sum "Si O2"
_cell_formula_units_Z 32
_cell_length_a 22.088284
_cell_length_b 9.630626
_cell_length_c 13.389321
_cell_angle_alpha 90.000000
_cell_angle_beta 31.058576
_cell_angle_gamma 90.000000
_cell_volume 1469.442064
_symmetry_space_group_name_H-M "P 21/C"
_symmetry_group_IT_number 14
_symmetry_cell_setting 'monoclinic'
loop_
_space_group_symop_operation_xyz
x,y,z
-x,1/2+y,1/2-z
-x,-y,-z
x,1/2-y,1/2+z
loop_
_atom_site_type_symbol
_atom_site_label
_atom_site_fract_x
_atom_site_fract_y
_atom_site_fract_z
Si Si1 0.745894 0.705017 0.107878
Si Si2 0.511618 0.065163 0.641834
Si Si3 0.892291 0.133793 0.699718
Si Si4 0.278516 0.547622 0.734468
Si Si5 0.946757 0.835221 0.699213
Si Si6 0.162418 0.747188 0.526988
Si Si7 0.683580 0.500223 0.726296
Si Si8 0.478865 0.376995 0.691390
O O1 0.783785 0.595626 0.139989
O O2 0.720509 0.844904 0.205373
O O3 0.629496 0.632593 0.230164
O O4 0.835554 0.740908 0.889781
O O5 0.382762 0.013038 0.787612
O O6 0.511007 0.222456 0.683088
O O7 0.598483 0.067687 0.426188
O O8 0.560407 0.964720 0.657512
O O9 0.791188 0.097783 0.764312
O O10 0.851159 0.254653 0.833666
O O11 0.004057 0.198000 0.481702
O O12 0.921418 0.000400 0.728740
O O13 0.414963 0.540085 0.512330
O O14 0.268082 0.654704 0.841568
O O15 0.043506 0.800551 0.645260
O O16 0.198603 0.590136 0.447078
#
# Coordination Sequence:
#
# PCOD8126831 Si02
#       8
#     4   4   4   4   4   4   4   4
#     4  11  25  41  64 100 138 175 226 288 337 402
#     4  10  23  40  65  97 131 177 228 275 339 410
#     4  10  23  46  73  96 136 184 227 279 348 417
#     4  11  25  43  72 101 135 181 230 285 347 411
#     4  10  24  41  69 100 129 178 230 270 342 404
#     4  11  22  44  72  96 132 183 223 281 334 416
#     4  10  21  43  65  91 135 178 222 277 341 400
#     4  11  24  42  65 100 136 178 226 282 348 408
#
# _framework density 21.776973000000002
#
# number of rings (size 3 to 8) (size 9 to 14) (size 15 to 20)
#    0.000    1.500    2.500    1.125    8.750    2.000 
#    0.000    0.625    0.000    0.000    0.000    0.000 
#    0.000    0.000    0.000    0.000    0.000    0.000 
#
# Total GULP energy -396598.357381 kJ/mol
# GULP energy per Si atom -12393.698668 kJ/mol
# Density = 2.172741 g / cm^3
# Si number density = 21.776973 Si / 1000 Ang^3
#
#
#
# Elastic Constant Matrix: (Units=GPa)
#
#
# Indices 1 2 3 4 5 6 
#
# 1 65.1096 32.7727 30.9693 0.0000 8.5712 0.0000
# 2 32.7727 84.1034 20.5389 0.0000 10.5345 0.0000
# 3 30.9693 20.5389 110.7312 0.0000 0.2942 0.0000
# 4 0.0000 0.0000 0.0000 40.5656 0.0000 8.7081
# 5 8.5712 10.5345 0.2942 0.0000 28.7364 0.0000
# 6 0.0000 0.0000 0.0000 8.7081 0.0000 44.4644
#
#
#
# Elastic Compliance Matrix: (Units=1/GPa)
#
#
# Indices 1 2 3 4 5 6 
#
# 1 0.021528 -0.006737 -0.004761 0.000000 -0.003903 0.000000
# 2 -0.006737 0.015185 -0.000923 0.000000 -0.003548 0.000000
# 3 -0.004761 -0.000923 0.010529 0.000000 0.001651 0.000000
# 4 0.000000 0.000000 0.000000 0.025733 0.000000 -0.005040
# 5 -0.003903 -0.003548 0.001651 0.000000 0.037247 0.000000
# 6 0.000000 0.000000 0.000000 -0.005040 0.000000 0.023477
#
#
# Mechanical properties :
#
#
# Convention : Reuss Voigt Hill
#
# Bulk Modulus (GPa) = 44.64247 47.61177 46.12712
# Shear Modulus (GPa) = 30.11882 34.46416 32.29149
#
# Velocity S-wave (km/s) = 3.72298 3.98250 3.85493
# Velocity P-wave (km/s) = 6.24701 6.56185 6.40637
#
# Compressibility (1/GPa) = 0.02240020
#
# Stress axis : x y z
#
# Youngs Moduli (GPa) = 46.45047 65.85333 94.97375
#
# Poissons Ratio (x) = 0.44368 0.45217
# Poissons Ratio (y) = 0.31296 0.08765
# Poissons Ratio (z) = 0.22115 0.06077
#
# Static dielectric constant tensor:
#      x y z
#    x 3.697410 0.000000 0.061400 
#    y 0.000000 3.974350 0.000000 
#    z 0.061400 0.000000 4.211050 
# 
# 
# High freq. dielectric constant tensor:
#      x y z
#    x 1.837820 0.000000 0.006630 
#    y 0.000000 1.851060 0.000000 
#    z 0.006630 0.000000 1.873260 
# 
# From -- ./inp_files/51351.got.cif
#   From: 2010.03.12/outbox.cif.g09.slc.cpg/sg14_26_cif.got.tgz:51351.got - 2010.03.31 13:35:05.
