data_PCOD8126109
_publ_section_title
;
Structure prediction by ZEFSAII (Michael W. Deem and Ramdas Pophale) SiO2 
 PCOD8126109
Probable space group: P 21/C
;
_chemical_formula_sum "Si O2"
_cell_formula_units_Z 24
_cell_length_a 20.286979
_cell_length_b 8.587836
_cell_length_c 18.903621
_cell_angle_alpha 90.000000
_cell_angle_beta 158.443903
_cell_angle_gamma 90.000000
_cell_volume 1210.039262
_symmetry_space_group_name_H-M "P 21/C"
_symmetry_group_IT_number 14
_symmetry_cell_setting 'monoclinic'
loop_
_space_group_symop_operation_xyz
x,y,z
-x,1/2+y,1/2-z
-x,-y,-z
x,1/2-y,1/2+z
loop_
_atom_site_type_symbol
_atom_site_label
_atom_site_fract_x
_atom_site_fract_y
_atom_site_fract_z
Si Si1 0.005631 0.180670 0.424195
Si Si2 0.293587 0.819520 0.111965
Si Si3 0.005677 0.819108 0.424370
Si Si4 0.297517 0.319785 0.967547
Si Si5 0.706432 0.680606 0.388172
Si Si6 0.702467 0.319609 0.032303
O O1 0.813433 0.217125 0.198217
O O2 0.999851 0.230752 0.499771
O O3 0.161076 0.281165 0.543220
O O4 0.051505 0.999879 0.461024
O O5 0.494664 0.776587 0.336791
O O6 0.280592 0.000031 0.078392
O O7 0.237375 0.719875 0.987488
O O8 0.161047 0.781475 0.043318
O O9 0.813403 0.782476 0.198420
O O10 0.237255 0.280005 0.987190
O O11 0.257269 0.500116 0.913245
O O12 0.505348 0.723645 0.163382
#
# Coordination Sequence:
#
# PCOD8126109 Si02
#       6
#     4   4   4   4   4   4
#     4  11  24  39  56  81 115 153 188 227 278 333
#     4  10  21  38  61  86 112 145 186 232 279 329
#     4  11  24  39  56  81 115 153 188 227 278 333
#     4  10  21  38  61  86 112 145 186 232 279 329
#     4  10  21  38  61  86 112 145 186 232 279 329
#     4  10  21  38  61  86 112 145 186 232 279 329
#
# _framework density 19.834067000000001
#
# number of rings (size 3 to 8) (size 9 to 14) (size 15 to 20)
#    0.000    1.667    0.000    4.000    0.000    8.000 
#    0.000    6.667    0.000    0.000    0.000    0.000 
#    0.000    0.000    0.000    0.000    0.000    0.000 
#
# Total GULP energy -297780.430066 kJ/mol
# GULP energy per Si atom -12407.517919 kJ/mol
# Density = 1.978892 g / cm^3
# Si number density = 19.834067 Si / 1000 Ang^3
#
#
#
# Elastic Constant Matrix: (Units=GPa)
#
#
# Indices 1 2 3 4 5 6 
#
# 1 101.5358 16.3632 64.8432 0.0000 -17.8125 0.0000
# 2 16.3632 39.2116 22.3242 0.0000 -1.3735 0.0000
# 3 64.8432 22.3242 112.8020 0.0000 -5.4702 0.0000
# 4 0.0000 0.0000 0.0000 34.3781 0.0000 -0.5819
# 5 -17.8125 -1.3735 -5.4702 0.0000 13.8252 0.0000
# 6 0.0000 0.0000 0.0000 -0.5819 0.0000 28.5226
#
#
#
# Elastic Compliance Matrix: (Units=1/GPa)
#
#
# Indices 1 2 3 4 5 6 
#
# 1 0.020791 -0.001922 -0.010483 0.000000 0.022449 0.000000
# 2 -0.001922 0.028924 -0.004690 0.000000 -0.001458 0.000000
# 3 -0.010483 -0.004690 0.015438 0.000000 -0.007864 0.000000
# 4 0.000000 0.000000 0.000000 0.029098 0.000000 0.000594
# 5 0.022449 -0.001458 -0.007864 0.000000 0.097999 0.000000
# 6 0.000000 0.000000 0.000000 0.000594 0.000000 0.035072
#
#
# Mechanical properties :
#
#
# Convention : Reuss Voigt Hill
#
# Bulk Modulus (GPa) = 32.29611 51.17897 41.73754
# Shear Modulus (GPa) = 18.39366 25.34642 21.87004
#
# Velocity S-wave (km/s) = 3.04859 3.57868 3.32422
# Velocity P-wave (km/s) = 5.35821 6.55252 5.98523
#
# Compressibility (1/GPa) = 0.03096348
#
# Stress axis : x y z
#
# Youngs Moduli (GPa) = 48.09727 34.57359 64.77601
#
# Poissons Ratio (x) = 0.06645 0.67902
# Poissons Ratio (y) = 0.09244 0.30381
# Poissons Ratio (z) = 0.50419 0.16215
#
# Static dielectric constant tensor:
#      x y z
#    x 3.480830 0.000000 -0.008850 
#    y 0.000000 3.624200 0.000000 
#    z -0.008850 0.000000 3.698290 
# 
# 
# High freq. dielectric constant tensor:
#      x y z
#    x 1.765400 0.000000 0.003140 
#    y 0.000000 1.784570 0.000000 
#    z 0.003140 0.000000 1.784820 
# 
# From -- ./inp_files/69810.got.cif
#   From: 2010.03.12/outbox.cif.g09.slc.cpg/sg14_35_cif.got.tgz:69810.got - 2010.03.31 13:35:05.
