data_PCOD8126111
_publ_section_title
;
Structure prediction by ZEFSAII (Michael W. Deem and Ramdas Pophale) SiO2 
 PCOD8126111
Probable space group: P 21/C
;
_chemical_formula_sum "Si O2"
_cell_formula_units_Z 24
_cell_length_a 8.632509
_cell_length_b 12.710054
_cell_length_c 10.973929
_cell_angle_alpha 90.000000
_cell_angle_beta 108.651312
_cell_angle_gamma 90.000000
_cell_volume 1140.821572
_symmetry_space_group_name_H-M "P 21/C"
_symmetry_group_IT_number 14
_symmetry_cell_setting 'monoclinic'
loop_
_space_group_symop_operation_xyz
x,y,z
-x,1/2+y,1/2-z
-x,-y,-z
x,1/2-y,1/2+z
loop_
_atom_site_type_symbol
_atom_site_label
_atom_site_fract_x
_atom_site_fract_y
_atom_site_fract_z
Si Si1 0.090573 0.349696 0.076074
Si Si2 0.113046 0.659413 0.504073
Si Si3 0.416211 0.781682 0.515941
Si Si4 0.604769 0.723727 0.317274
Si Si5 0.799893 0.027593 0.574133
Si Si6 0.184954 0.038027 0.165807
O O1 0.238997 0.293931 0.182794
O O2 0.989889 0.260835 0.971414
O O3 0.960328 0.399335 0.137822
O O4 0.167773 0.444406 0.021944
O O5 0.266537 0.699869 0.463747
O O6 0.183722 0.584415 0.627313
O O7 0.995566 0.587833 0.391077
O O8 0.530166 0.763521 0.426642
O O9 0.490710 0.766507 0.670141
O O10 0.355988 0.901881 0.498633
O O11 0.672856 0.606080 0.364019
O O12 0.761325 0.958305 0.681267
#
# Coordination Sequence:
#
# PCOD8126111 Si02
#       6
#     4   4   4   4   4   4
#     4   9  21  39  60  86 115 156 205 252 299 356
#     4   9  21  39  58  85 118 157 203 251 301 357
#     4  11  24  40  61  91 126 160 198 249 306 363
#     4  11  24  39  60  91 126 161 197 244 305 363
#     4  10  21  39  64  87 115 159 208 251 297 357
#     4  10  21  38  61  86 118 161 205 248 298 360
#
# _framework density 21.037471
#
# number of rings (size 3 to 8) (size 9 to 14) (size 15 to 20)
#    0.000    2.000    0.000    2.000    0.000   16.667 
#    0.000    0.000    0.000    0.000    0.000    0.000 
#    0.000    0.000    0.000    0.000    0.000    0.000 
#
# Total GULP energy -297346.308490 kJ/mol
# GULP energy per Si atom -12389.429520 kJ/mol
# Density = 2.098959 g / cm^3
# Si number density = 21.037471 Si / 1000 Ang^3
#
#
#
# Elastic Constant Matrix: (Units=GPa)
#
#
# Indices 1 2 3 4 5 6 
#
# 1 91.9609 47.3019 29.8976 0.0000 1.5276 0.0000
# 2 47.3019 117.3088 19.7174 0.0000 1.5178 0.0000
# 3 29.8976 19.7174 86.3361 0.0000 -0.0634 0.0000
# 4 0.0000 0.0000 0.0000 24.8270 0.0000 -1.0191
# 5 1.5276 1.5178 -0.0634 0.0000 24.6205 0.0000
# 6 0.0000 0.0000 0.0000 -1.0191 0.0000 36.0614
#
#
#
# Elastic Compliance Matrix: (Units=1/GPa)
#
#
# Indices 1 2 3 4 5 6 
#
# 1 0.014915 -0.005343 -0.003945 0.000000 -0.000606 0.000000
# 2 -0.005343 0.010786 -0.000613 0.000000 -0.000335 0.000000
# 3 -0.003945 -0.000613 0.013089 0.000000 0.000316 0.000000
# 4 0.000000 0.000000 0.000000 0.040325 0.000000 0.001140
# 5 -0.000606 -0.000335 0.000316 0.000000 0.040676 0.000000
# 6 0.000000 0.000000 0.000000 0.001140 0.000000 0.027763
#
#
# Mechanical properties :
#
#
# Convention : Reuss Voigt Hill
#
# Bulk Modulus (GPa) = 52.66680 54.38222 53.52451
# Shear Modulus (GPa) = 28.78736 30.34773 29.56755
#
# Velocity S-wave (km/s) = 3.70318 3.80222 3.75303
# Velocity P-wave (km/s) = 6.58588 6.72176 6.65417
#
# Compressibility (1/GPa) = 0.01898730
#
# Stress axis : x y z
#
# Youngs Moduli (GPa) = 67.04517 92.70869 76.39919
#
# Poissons Ratio (x) = 0.49537 0.30141
# Poissons Ratio (y) = 0.35824 0.04686
# Poissons Ratio (z) = 0.26451 0.05686
#
# Static dielectric constant tensor:
#      x y z
#    x 4.027920 0.000000 0.178770 
#    y 0.000000 4.204550 0.000000 
#    z 0.178770 0.000000 3.420430 
# 
# 
# High freq. dielectric constant tensor:
#      x y z
#    x 1.832050 0.000000 0.018010 
#    y 0.000000 1.848750 0.000000 
#    z 0.018010 0.000000 1.793700 
# 
# From -- ./inp_files/24099.got.cif
#   From: 2010.03.12/outbox.cif.g09.slc.cpg/sg14_13_cif.got.tgz:24099.got - 2010.03.31 13:35:05.
