data_PCOD8126309
_publ_section_title
;
Structure prediction by ZEFSAII (Michael W. Deem and Ramdas Pophale) SiO2 
 PCOD8126309
Probable space group: P 21/C
;
_chemical_formula_sum "Si O2"
_cell_formula_units_Z 24
_cell_length_a 14.557062
_cell_length_b 14.674205
_cell_length_c 8.359500
_cell_angle_alpha 90.000000
_cell_angle_beta 137.492030
_cell_angle_gamma 90.000000
_cell_volume 1206.584884
_symmetry_space_group_name_H-M "P 21/C"
_symmetry_group_IT_number 14
_symmetry_cell_setting 'monoclinic'
loop_
_space_group_symop_operation_xyz
x,y,z
-x,1/2+y,1/2-z
-x,-y,-z
x,1/2-y,1/2+z
loop_
_atom_site_type_symbol
_atom_site_label
_atom_site_fract_x
_atom_site_fract_y
_atom_site_fract_z
Si Si1 0.627724 0.362778 0.815904
Si Si2 0.099188 0.032298 0.990117
Si Si3 0.927933 0.177547 0.615074
Si Si4 0.400812 0.032298 0.509882
Si Si5 0.427933 0.822454 0.115074
Si Si6 0.872276 0.137222 0.184096
O O1 0.586682 0.461097 0.828395
O O2 0.564374 0.346855 0.560978
O O3 0.566727 0.286693 0.857871
O O4 0.790648 0.358650 0.021386
O O5 0.054670 0.130619 0.865971
O O6 0.086681 0.961097 0.828394
O O7 0.250000 0.041051 0.249999
O O8 0.000000 0.000000 0.000000
O O9 0.935626 0.153147 0.439022
O O10 0.933273 0.286694 0.642129
O O11 0.445330 0.130618 0.634028
O O12 0.500000 0.000000 0.500000
O O13 0.290648 0.858651 0.021386
#
# Coordination Sequence:
#
# PCOD8126309 Si02
#       6
#     4   4   4   4   4   4
#     4  10  21  39  65  90 123 164 208 250 308 368
#     4  12  23  40  63  94 127 161 207 254 307 364
#     4  10  21  39  64  92 122 164 209 251 303 370
#     4  12  23  40  63  94 127 161 207 254 307 364
#     4  10  21  39  64  92 122 164 209 251 303 370
#     4  10  21  39  65  90 123 164 208 250 308 368
#
# _framework density 19.890851000000001
#
# number of rings (size 3 to 8) (size 9 to 14) (size 15 to 20)
#    0.000    1.333    3.333    3.000    4.667    0.000 
#    0.000    6.667    0.000    0.000    0.000    0.000 
#    0.000    0.000    0.000    0.000    0.000    0.000 
#
# Total GULP energy -297702.915355 kJ/mol
# GULP energy per Si atom -12404.288140 kJ/mol
# Density = 1.984558 g / cm^3
# Si number density = 19.890851 Si / 1000 Ang^3
#
#
#
# Elastic Constant Matrix: (Units=GPa)
#
#
# Indices 1 2 3 4 5 6 
#
# 1 77.0561 27.3278 51.5788 0.0000 -5.9889 0.0000
# 2 27.3278 78.0778 41.7632 0.0000 -8.9834 0.0000
# 3 51.5788 41.7632 138.5992 0.0000 -3.6076 0.0000
# 4 0.0000 0.0000 0.0000 39.4470 0.0000 -6.8250
# 5 -5.9889 -8.9834 -3.6076 0.0000 26.6121 0.0000
# 6 0.0000 0.0000 0.0000 -6.8250 0.0000 33.7647
#
#
#
# Elastic Compliance Matrix: (Units=1/GPa)
#
#
# Indices 1 2 3 4 5 6 
#
# 1 0.018072 -0.002977 -0.005769 0.000000 0.002280 0.000000
# 2 -0.002977 0.016328 -0.003699 0.000000 0.004340 0.000000
# 3 -0.005769 -0.003699 0.010447 0.000000 -0.001131 0.000000
# 4 0.000000 0.000000 0.000000 0.026269 0.000000 0.005310
# 5 0.002280 0.004340 -0.001131 0.000000 0.039402 0.000000
# 6 0.000000 0.000000 0.000000 0.005310 0.000000 0.030690
#
#
# Mechanical properties :
#
#
# Convention : Reuss Voigt Hill
#
# Bulk Modulus (GPa) = 50.10890 59.45252 54.78071
# Shear Modulus (GPa) = 28.94344 31.50233 30.22289
#
# Velocity S-wave (km/s) = 3.81873 3.98397 3.90222
# Velocity P-wave (km/s) = 6.68508 7.14961 6.92124
#
# Compressibility (1/GPa) = 0.01995654
#
# Stress axis : x y z
#
# Youngs Moduli (GPa) = 55.33360 61.24548 95.72040
#
# Poissons Ratio (x) = 0.18235 0.55221
# Poissons Ratio (y) = 0.16474 0.35407
# Poissons Ratio (z) = 0.31922 0.22655
#
# Static dielectric constant tensor:
#      x y z
#    x 3.567500 0.000000 -0.113170 
#    y 0.000000 3.750550 0.000000 
#    z -0.113170 0.000000 3.457230 
# 
# 
# High freq. dielectric constant tensor:
#      x y z
#    x 1.773700 0.000000 -0.018680 
#    y 0.000000 1.779070 0.000000 
#    z -0.018680 0.000000 1.774000 
# 
# From -- ./inp_files/8420.got.cif
#   From: 2010.03.12/outbox.cif.g09.slc.cpg/sg14_5_cif.got.tgz:8420.got - 2010.03.31 13:35:05.
