data_PCOD8126456
_publ_section_title
;
Structure prediction by ZEFSAII (Michael W. Deem and Ramdas Pophale) SiO2 
 PCOD8126456
Probable space group: P 21/C
;
_chemical_formula_sum "Si O2"
_cell_formula_units_Z 32
_cell_length_a 17.829824
_cell_length_b 13.042392
_cell_length_c 25.631788
_cell_angle_alpha 90.000000
_cell_angle_beta 163.846093
_cell_angle_gamma 90.000000
_cell_volume 1658.323242
_symmetry_space_group_name_H-M "P 21/C"
_symmetry_group_IT_number 14
_symmetry_cell_setting 'monoclinic'
loop_
_space_group_symop_operation_xyz
x,y,z
-x,1/2+y,1/2-z
-x,-y,-z
x,1/2-y,1/2+z
loop_
_atom_site_type_symbol
_atom_site_label
_atom_site_fract_x
_atom_site_fract_y
_atom_site_fract_z
Si Si1 0.055082 0.258178 0.705702
Si Si2 0.293276 0.344474 0.065583
Si Si3 0.411647 0.819536 0.668451
Si Si4 0.589772 0.913447 0.097857
Si Si5 0.887856 0.264247 0.707995
Si Si6 0.970251 0.015128 0.540435
Si Si7 0.470948 0.413458 0.937432
Si Si8 0.681877 0.986918 0.779417
O O1 0.187253 0.148462 0.785034
O O2 0.752894 0.254469 0.480841
O O3 0.062146 0.274059 0.772212
O O4 0.216939 0.345381 0.783787
O O5 0.418507 0.249764 0.179501
O O6 0.523238 0.409881 0.189779
O O7 0.138223 0.414639 0.003250
O O8 0.080442 0.292925 0.884253
O O9 0.216328 0.887106 0.573735
O O10 0.605620 0.890923 0.764232
O O11 0.724904 0.963779 0.238448
O O12 0.344115 0.847028 0.953410
O O13 0.500000 0.000000 0.000000
O O14 0.749095 0.152253 0.621703
O O15 0.000000 0.000000 0.500000
O O16 0.500000 0.500000 0.000000
O O17 0.403498 0.463742 0.836884
O O18 0.000000 0.000000 0.000000
#
# Coordination Sequence:
#
# PCOD8126456 Si02
#       8
#     4   4   4   4   4   4   4   4
#     4  10  22  40  64  89 122 166 211 247 323 377
#     4  11  24  41  65  95 127 165 218 262 321 380
#     4  10  23  43  62  90 126 169 211 259 317 378
#     4  10  21  40  64  90 123 161 205 260 314 371
#     4  11  23  41  64  94 127 168 207 266 316 379
#     4  10  23  41  63  94 124 162 212 263 313 375
#     4  11  24  41  65  97 129 167 213 262 321 386
#     4  11  24  44  67  92 132 172 213 270 320 379
#
# _framework density 19.296599000000001
#
# number of rings (size 3 to 8) (size 9 to 14) (size 15 to 20)
#    0.000    1.500    2.500    1.500    3.500    4.000 
#    0.000    0.000    0.000    0.000    0.000    0.000 
#    0.000    0.000    0.000    0.000    0.000    0.000 
#
# Total GULP energy -396843.837766 kJ/mol
# GULP energy per Si atom -12401.369930 kJ/mol
# Density = 1.925268 g / cm^3
# Si number density = 19.296599 Si / 1000 Ang^3
#
#
#
# Elastic Constant Matrix: (Units=GPa)
#
#
# Indices 1 2 3 4 5 6 
#
# 1 144.3710 59.9906 67.8751 0.0000 -24.2903 0.0000
# 2 59.9906 101.4618 65.2864 0.0000 -18.8581 0.0000
# 3 67.8751 65.2864 156.6228 0.0000 -20.9330 0.0000
# 4 0.0000 0.0000 0.0000 36.2763 0.0000 -11.9516
# 5 -24.2903 -18.8581 -20.9330 0.0000 34.8427 0.0000
# 6 0.0000 0.0000 0.0000 -11.9516 0.0000 27.8125
#
#
#
# Elastic Compliance Matrix: (Units=1/GPa)
#
#
# Indices 1 2 3 4 5 6 
#
# 1 0.010251 -0.003879 -0.002339 0.000000 0.003642 0.000000
# 2 -0.003879 0.015544 -0.004387 0.000000 0.003073 0.000000
# 3 -0.002339 -0.004387 0.009451 0.000000 0.001673 0.000000
# 4 0.000000 0.000000 0.000000 0.032113 0.000000 0.013799
# 5 0.003642 0.003073 0.001673 0.000000 0.033907 0.000000
# 6 0.000000 0.000000 0.000000 0.013799 0.000000 0.041885
#
#
# Mechanical properties :
#
#
# Convention : Reuss Voigt Hill
#
# Bulk Modulus (GPa) = 71.25244 87.63998 79.44621
# Shear Modulus (GPa) = 29.57901 33.73986 31.65943
#
# Velocity S-wave (km/s) = 3.91942 4.18603 4.05492
# Velocity P-wave (km/s) = 7.58205 8.29938 7.94881
#
# Compressibility (1/GPa) = 0.01403461
#
# Stress axis : x y z
#
# Youngs Moduli (GPa) = 97.55414 64.33427 105.81253
#
# Poissons Ratio (x) = 0.24957 0.24745
# Poissons Ratio (y) = 0.37844 0.46425
# Poissons Ratio (z) = 0.22814 0.28226
#
# Static dielectric constant tensor:
#      x y z
#    x 3.386960 0.000000 -0.080250 
#    y 0.000000 3.489430 0.000000 
#    z -0.080250 0.000000 3.665320 
# 
# 
# High freq. dielectric constant tensor:
#      x y z
#    x 1.759860 0.000000 -0.003010 
#    y 0.000000 1.761610 0.000000 
#    z -0.003010 0.000000 1.763860 
# 
# From -- ./inp_files/68731.got.cif
#   From: 2010.03.12/outbox.cif.g09.slc.cpg/sg14_35_cif.got.tgz:68731.got - 2010.03.31 13:35:05.
