data_PCOD8126798
_publ_section_title
;
Structure prediction by ZEFSAII (Michael W. Deem and Ramdas Pophale) SiO2 
 PCOD8126798
Probable space group: P 21/C
;
_chemical_formula_sum "Si O2"
_cell_formula_units_Z 20
_cell_length_a 7.723821
_cell_length_b 18.394252
_cell_length_c 6.991651
_cell_angle_alpha 90.000000
_cell_angle_beta 127.644570
_cell_angle_gamma 90.000000
_cell_volume 786.534317
_symmetry_space_group_name_H-M "P 21/C"
_symmetry_group_IT_number 14
_symmetry_cell_setting 'monoclinic'
loop_
_space_group_symop_operation_xyz
x,y,z
-x,1/2+y,1/2-z
-x,-y,-z
x,1/2-y,1/2+z
loop_
_atom_site_type_symbol
_atom_site_label
_atom_site_fract_x
_atom_site_fract_y
_atom_site_fract_z
Si Si1 0.898661 0.078856 0.411106
Si Si2 0.696423 0.388995 0.368637
Si Si3 0.861231 0.843753 0.948806
Si Si4 0.455524 0.035234 0.176812
Si Si5 0.749860 0.818106 0.447579
O O1 0.676367 0.078908 0.391126
O O2 0.077923 0.141949 0.583032
O O3 0.831398 0.094548 0.149500
O O4 0.000000 0.000000 0.500000
O O5 0.601514 0.466225 0.223673
O O6 0.500207 0.332931 0.282548
O O7 0.876373 0.353658 0.347675
O O8 0.745195 0.909628 0.981176
O O9 0.777488 0.850922 0.676092
O O10 0.792221 0.767226 0.991670
O O11 0.500000 0.000000 0.000000
#
# Coordination Sequence:
#
# PCOD8126798 Si02
#       5
#     4   4   4   4   4
#     4  10  21  42  70 104 133 181 233 284 345 420
#     4  10  23  44  68 100 137 182 233 291 345 415
#     4  11  27  43  68 100 139 183 235 291 357 422
#     4  10  22  44  73  97 138 178 236 287 350 412
#     4  11  26  44  66 101 142 182 237 290 360 420
#
# _framework density 25.428004999999999
#
# number of rings (size 3 to 8) (size 9 to 14) (size 15 to 20)
#    0.000    1.600    2.000    0.600    8.400    2.400 
#    7.200    0.000    0.000    0.000    0.000    0.000 
#    0.000    0.000    0.000    0.000    0.000    0.000 
#
# Total GULP energy -247897.849986 kJ/mol
# GULP energy per Si atom -12394.892499 kJ/mol
# Density = 2.537013 g / cm^3
# Si number density = 25.428005 Si / 1000 Ang^3
#
#
#
# Elastic Constant Matrix: (Units=GPa)
#
#
# Indices 1 2 3 4 5 6 
#
# 1 167.3259 90.4852 31.5583 0.0000 66.7909 0.0000
# 2 90.4852 205.3962 25.6019 0.0000 38.6875 0.0000
# 3 31.5583 25.6019 65.6352 0.0000 30.6835 0.0000
# 4 0.0000 0.0000 0.0000 40.5470 0.0000 10.5112
# 5 66.7909 38.6875 30.6835 0.0000 47.7849 0.0000
# 6 0.0000 0.0000 0.0000 10.5112 0.0000 60.0025
#
#
#
# Elastic Compliance Matrix: (Units=1/GPa)
#
#
# Indices 1 2 3 4 5 6 
#
# 1 0.015753 -0.003312 0.003940 0.000000 -0.021867 0.000000
# 2 -0.003312 0.006441 -0.000924 0.000000 0.000007 0.000000
# 3 0.003940 -0.000924 0.022758 0.000000 -0.019373 0.000000
# 4 0.000000 0.000000 0.000000 0.025836 0.000000 -0.004526
# 5 -0.021867 0.000007 -0.019373 0.000000 0.063925 0.000000
# 6 0.000000 0.000000 0.000000 -0.004526 0.000000 0.017459
#
#
# Mechanical properties :
#
#
# Convention : Reuss Voigt Hill
#
# Bulk Modulus (GPa) = 22.54199 81.51645 52.02922
# Shear Modulus (GPa) = 29.84170 49.04767 39.44468
#
# Velocity S-wave (km/s) = 3.42947 4.39667 3.94284
# Velocity P-wave (km/s) = 4.95640 7.60931 6.42135
#
# Compressibility (1/GPa) = 0.04436165
#
# Stress axis : x y z
#
# Youngs Moduli (GPa) = 63.48030 155.24337 43.94042
#
# Poissons Ratio (x) = 0.51419 -0.17314
# Poissons Ratio (y) = 0.21026 0.04058
# Poissons Ratio (z) = -0.25013 0.14337
#
# Static dielectric constant tensor:
#      x y z
#    x 5.389380 0.000000 0.715460 
#    y 0.000000 4.910820 0.000000 
#    z 0.715460 0.000000 4.696910 
# 
# 
# High freq. dielectric constant tensor:
#      x y z
#    x 2.025940 0.000000 0.020060 
#    y 0.000000 2.011340 0.000000 
#    z 0.020060 0.000000 2.017600 
# 
# From -- ./inp_files/9265.got.cif
#   From: 2010.03.12/outbox.cif.g09.slc.cpg/sg14_5_cif.got.tgz:9265.got - 2010.03.31 13:35:05.
