data_PCOD8126294
_publ_section_title
;
Structure prediction by ZEFSAII (Michael W. Deem and Ramdas Pophale) SiO2 
 PCOD8126294
Probable space group: P 21/C
;
_chemical_formula_sum "Si O2"
_cell_formula_units_Z 28
_cell_length_a 11.779766
_cell_length_b 14.285593
_cell_length_c 8.662184
_cell_angle_alpha 90.000000
_cell_angle_beta 118.390469
_cell_angle_gamma 90.000000
_cell_volume 1282.361874
_symmetry_space_group_name_H-M "P 21/C"
_symmetry_group_IT_number 14
_symmetry_cell_setting 'monoclinic'
loop_
_space_group_symop_operation_xyz
x,y,z
-x,1/2+y,1/2-z
-x,-y,-z
x,1/2-y,1/2+z
loop_
_atom_site_type_symbol
_atom_site_label
_atom_site_fract_x
_atom_site_fract_y
_atom_site_fract_z
Si Si1 0.972789 0.781009 0.349270
Si Si2 0.816072 0.840209 0.522675
Si Si3 0.484124 0.558638 0.205256
Si Si4 0.403254 0.728698 0.368513
Si Si5 0.286790 0.498133 0.835612
Si Si6 0.142521 0.826296 0.183415
Si Si7 0.462484 0.149125 0.756325
O O1 0.920042 0.849884 0.450270
O O2 0.857386 0.740796 0.168751
O O3 0.071429 0.835519 0.302693
O O4 0.045728 0.695276 0.481107
O O5 0.683560 0.813860 0.349769
O O6 0.802466 0.935126 0.611426
O O7 0.454972 0.644147 0.297408
O O8 0.629775 0.564802 0.229947
O O9 0.469510 0.461556 0.291829
O O10 0.380940 0.560726 0.001541
O O11 0.248923 0.742645 0.263821
O O12 0.452134 0.708766 0.570905
O O13 0.470085 0.826717 0.363388
O O14 0.200381 0.571437 0.683983
#
# Coordination Sequence:
#
# PCOD8126294 Si02
#       7
#     4   4   4   4   4   4   4
#     4  10  23  42  63  87 122 169 220 249 304 371
#     4  10  23  41  61  89 124 164 210 263 307 368
#     4  10  22  38  59  99 133 161 200 257 330 388
#     4  12  23  38  67  96 128 163 204 261 327 375
#     4  10  21  39  63  92 131 160 206 263 314 376
#     4  11  22  41  65  91 124 168 210 257 309 375
#     4  11  23  39  64  96 128 161 206 261 325 378
#
# _framework density 21.834710000000001
#
# number of rings (size 3 to 8) (size 9 to 14) (size 15 to 20)
#    0.000    1.429    1.429    3.857    6.000    1.143 
#    0.000    1.429    0.000    0.000    0.000    0.000 
#    0.000    0.000    0.000    0.000    0.000    0.000 
#
# Total GULP energy -347126.831904 kJ/mol
# GULP energy per Si atom -12397.386854 kJ/mol
# Density = 2.178501 g / cm^3
# Si number density = 21.834710 Si / 1000 Ang^3
#
#
#
# Elastic Constant Matrix: (Units=GPa)
#
#
# Indices 1 2 3 4 5 6 
#
# 1 127.4445 42.0321 22.5585 0.0000 -5.7480 0.0000
# 2 42.0321 78.9106 17.9981 0.0000 -0.8813 0.0000
# 3 22.5585 17.9981 57.7082 0.0000 3.3862 0.0000
# 4 0.0000 0.0000 0.0000 31.2234 0.0000 -5.8688
# 5 -5.7480 -0.8813 3.3862 0.0000 30.7668 0.0000
# 6 0.0000 0.0000 0.0000 -5.8688 0.0000 36.8899
#
#
#
# Elastic Compliance Matrix: (Units=1/GPa)
#
#
# Indices 1 2 3 4 5 6 
#
# 1 0.009933 -0.004690 -0.002538 0.000000 0.002001 0.000000
# 2 -0.004690 0.015880 -0.003115 0.000000 -0.000078 0.000000
# 3 -0.002538 -0.003115 0.019451 0.000000 -0.002704 0.000000
# 4 0.000000 0.000000 0.000000 0.033014 0.000000 0.005252
# 5 0.002001 -0.000078 -0.002704 0.000000 0.033172 0.000000
# 6 0.000000 0.000000 0.000000 0.005252 0.000000 0.027943
#
#
# Mechanical properties :
#
#
# Convention : Reuss Voigt Hill
#
# Bulk Modulus (GPa) = 40.68457 47.69340 44.18899
# Shear Modulus (GPa) = 29.71419 31.87433 30.79426
#
# Velocity S-wave (km/s) = 3.69300 3.82488 3.75952
# Velocity P-wave (km/s) = 6.07106 6.43402 6.25517
#
# Compressibility (1/GPa) = 0.02457934
#
# Stress axis : x y z
#
# Youngs Moduli (GPa) = 100.67869 62.97209 51.41215
#
# Poissons Ratio (x) = 0.29531 0.13046
# Poissons Ratio (y) = 0.47214 0.16014
# Poissons Ratio (z) = 0.25548 0.19615
#
# Static dielectric constant tensor:
#      x y z
#    x 4.143110 0.000000 0.001870 
#    y 0.000000 3.667800 0.000000 
#    z 0.001870 0.000000 3.963170 
# 
# 
# High freq. dielectric constant tensor:
#      x y z
#    x 1.869210 0.000000 -0.004870 
#    y 0.000000 1.845850 0.000000 
#    z -0.004870 0.000000 1.857340 
# 
# From -- ./inp_files/13124.got.cif
#   From: 2010.03.12/outbox.cif.g09.slc.cpg/sg14_7_cif.got.tgz:13124.got - 2010.03.31 13:35:05.
