data_PCOD8126663
_publ_section_title
;
Structure prediction by ZEFSAII (Michael W. Deem and Ramdas Pophale) SiO2 
 PCOD8126663
Probable space group: P 21/C
;
_chemical_formula_sum "Si O2"
_cell_formula_units_Z 28
_cell_length_a 9.027344
_cell_length_b 8.861159
_cell_length_c 21.112683
_cell_angle_alpha 90.000000
_cell_angle_beta 129.289493
_cell_angle_gamma 90.000000
_cell_volume 1307.104816
_symmetry_space_group_name_H-M "P 21/C"
_symmetry_group_IT_number 14
_symmetry_cell_setting 'monoclinic'
loop_
_space_group_symop_operation_xyz
x,y,z
-x,1/2+y,1/2-z
-x,-y,-z
x,1/2-y,1/2+z
loop_
_atom_site_type_symbol
_atom_site_label
_atom_site_fract_x
_atom_site_fract_y
_atom_site_fract_z
Si Si1 0.969083 0.527045 0.620414
Si Si2 0.367614 0.484514 0.152783
Si Si3 0.705971 0.794718 0.781083
Si Si4 0.242693 0.038934 0.802552
Si Si5 0.634804 0.590825 0.990239
Si Si6 0.586209 0.930581 0.961461
Si Si7 0.939380 0.355181 0.854635
O O1 0.861352 0.542613 0.658405
O O2 0.812013 0.527004 0.520736
O O3 0.097025 0.378598 0.646484
O O4 0.098329 0.676512 0.649909
O O5 0.365874 0.314939 0.181796
O O6 0.549306 0.577147 0.226866
O O7 0.361861 0.491119 0.076027
O O8 0.173042 0.565522 0.119553
O O9 0.757303 0.701096 0.731676
O O10 0.468273 0.994989 0.869690
O O11 0.135174 0.912490 0.732994
O O12 0.546745 0.753705 0.954198
O O13 0.500000 0.500000 0.000000
O O14 0.839458 0.601959 0.078889
O O15 0.500000 0.000000 0.000000
#
# Coordination Sequence:
#
# PCOD8126663 Si02
#       7
#     4   4   4   4   4   4   4
#     4  10  21  41  67 100 134 178 234 283 348 399
#     4  11  26  45  67 101 142 179 235 274 359 409
#     4  11  25  42  69  99 135 190 225 294 346 418
#     4  10  22  40  69  99 137 179 236 286 340 407
#     4  11  26  43  72 102 138 183 231 288 343 411
#     4   9  22  41  62 100 136 173 223 285 348 397
#     4  10  23  44  64 100 136 179 231 281 346 411
#
# _framework density 21.421388
#
# number of rings (size 3 to 8) (size 9 to 14) (size 15 to 20)
#    0.000    1.714    0.000    2.143   14.000    4.571 
#    2.571    1.429    0.000    0.000    0.000    0.000 
#    0.000    0.000    0.000    0.000    0.000    0.000 
#
# Total GULP energy -347179.916558 kJ/mol
# GULP energy per Si atom -12399.282734 kJ/mol
# Density = 2.137263 g / cm^3
# Si number density = 21.421388 Si / 1000 Ang^3
#
#
#
# Elastic Constant Matrix: (Units=GPa)
#
#
# Indices 1 2 3 4 5 6 
#
# 1 69.0835 35.3492 31.4941 0.0000 -0.2240 0.0000
# 2 35.3492 134.9368 61.7926 0.0000 21.3301 0.0000
# 3 31.4941 61.7926 131.7139 0.0000 8.9228 0.0000
# 4 0.0000 0.0000 0.0000 34.9109 0.0000 12.6375
# 5 -0.2240 21.3301 8.9228 0.0000 35.7320 0.0000
# 6 0.0000 0.0000 0.0000 12.6375 0.0000 27.4428
#
#
#
# Elastic Compliance Matrix: (Units=1/GPa)
#
#
# Indices 1 2 3 4 5 6 
#
# 1 0.017681 -0.003936 -0.002591 0.000000 0.003108 0.000000
# 2 -0.003936 0.011124 -0.003892 0.000000 -0.005693 0.000000
# 3 -0.002591 -0.003892 0.010052 0.000000 -0.000203 0.000000
# 4 0.000000 0.000000 0.000000 0.034375 0.000000 -0.015830
# 5 0.003108 -0.005693 -0.000203 0.000000 0.031455 0.000000
# 6 0.000000 0.000000 0.000000 -0.015830 0.000000 0.043729
#
#
# Mechanical properties :
#
#
# Convention : Reuss Voigt Hill
#
# Bulk Modulus (GPa) = 55.50290 65.88957 60.69623
# Shear Modulus (GPa) = 28.52890 33.42369 30.97629
#
# Velocity S-wave (km/s) = 3.65334 3.95434 3.80682
# Velocity P-wave (km/s) = 6.61529 7.18851 6.90785
#
# Compressibility (1/GPa) = 0.01801708
#
# Stress axis : x y z
#
# Youngs Moduli (GPa) = 56.55814 89.89278 99.48752
#
# Poissons Ratio (x) = 0.35385 0.25782
# Poissons Ratio (y) = 0.22263 0.38721
# Poissons Ratio (z) = 0.14657 0.34986
#
# Static dielectric constant tensor:
#      x y z
#    x 3.826020 0.000000 0.254700 
#    y 0.000000 4.066840 0.000000 
#    z 0.254700 0.000000 4.429210 
# 
# 
# High freq. dielectric constant tensor:
#      x y z
#    x 1.836560 0.000000 0.008760 
#    y 0.000000 1.852040 0.000000 
#    z 0.008760 0.000000 1.853390 
# 
# From -- ./inp_files/65030.got.cif
#   From: 2010.03.12/outbox.cif.g09.slc.cpg/sg14_33_cif.got.tgz:65030.got - 2010.03.31 13:35:05.
