data_PCOD8126337
_publ_section_title
;
Structure prediction by ZEFSAII (Michael W. Deem and Ramdas Pophale) SiO2 
 PCOD8126337
Probable space group: P 21/C
;
_chemical_formula_sum "Si O2"
_cell_formula_units_Z 28
_cell_length_a 22.085211
_cell_length_b 8.564336
_cell_length_c 19.173257
_cell_angle_alpha 90.000000
_cell_angle_beta 20.132876
_cell_angle_gamma 90.000000
_cell_volume 1248.245757
_symmetry_space_group_name_H-M "P 21/C"
_symmetry_group_IT_number 14
_symmetry_cell_setting 'monoclinic'
loop_
_space_group_symop_operation_xyz
x,y,z
-x,1/2+y,1/2-z
-x,-y,-z
x,1/2-y,1/2+z
loop_
_atom_site_type_symbol
_atom_site_label
_atom_site_fract_x
_atom_site_fract_y
_atom_site_fract_z
Si Si1 0.347464 0.863661 0.583851
Si Si2 0.473197 0.189679 0.226214
Si Si3 0.883600 0.839745 0.899610
Si Si4 0.035769 0.399270 0.543288
Si Si5 0.609244 0.693533 0.913395
Si Si6 0.476657 0.833804 0.182957
Si Si7 0.126244 0.664548 0.539605
O O1 0.375091 0.784860 0.478626
O O2 0.449040 0.762639 0.533328
O O3 0.438419 0.033146 0.493537
O O4 0.134861 0.887053 0.822560
O O5 0.291629 0.248752 0.391025
O O6 0.475933 0.218609 0.305495
O O7 0.484528 0.006609 0.203056
O O8 0.966998 0.773004 0.738920
O O9 0.842329 0.026247 0.936577
O O10 0.005472 0.816609 0.837200
O O11 0.081096 0.582182 0.513783
O O12 0.201956 0.315858 0.327702
O O13 0.613801 0.822533 0.970024
O O14 0.289125 0.780741 0.355004
#
# Coordination Sequence:
#
# PCOD8126337 Si02
#       7
#     4   4   4   4   4   4   4
#     4  11  22  44  72  97 141 182 230 286 346 425
#     4  12  25  44  69 104 134 188 234 300 355 415
#     4  10  21  39  66 100 139 174 235 288 344 413
#     4  10  23  42  72 100 141 182 234 279 354 419
#     4  11  23  44  68 104 139 190 232 279 358 426
#     4  12  26  42  70  99 141 180 240 294 359 419
#     4  10  21  40  64 104 134 184 229 290 349 412
#
# _framework density 22.431479
#
# number of rings (size 3 to 8) (size 9 to 14) (size 15 to 20)
#    0.857    0.286    1.429    6.429    4.000    0.571 
#    0.000    0.714    0.000    0.000    0.000    0.000 
#    0.000    0.000    0.000    0.000    0.000    0.000 
#
# Total GULP energy -346941.857852 kJ/mol
# GULP energy per Si atom -12390.780638 kJ/mol
# Density = 2.238042 g / cm^3
# Si number density = 22.431479 Si / 1000 Ang^3
#
#
#
# Elastic Constant Matrix: (Units=GPa)
#
#
# Indices 1 2 3 4 5 6 
#
# 1 107.3789 5.5831 43.8114 0.0000 -9.9274 0.0000
# 2 5.5831 45.0222 30.4080 0.0000 3.4620 0.0000
# 3 43.8114 30.4080 95.5716 0.0000 -8.8332 0.0000
# 4 0.0000 0.0000 0.0000 33.4979 0.0000 8.1030
# 5 -9.9274 3.4620 -8.8332 0.0000 38.0456 0.0000
# 6 0.0000 0.0000 0.0000 8.1030 0.0000 26.0131
#
#
#
# Elastic Compliance Matrix: (Units=1/GPa)
#
#
# Indices 1 2 3 4 5 6 
#
# 1 0.011795 0.002534 -0.006080 0.000000 0.001435 0.000000
# 2 0.002534 0.029707 -0.011039 0.000000 -0.004605 0.000000
# 3 -0.006080 -0.011039 0.017076 0.000000 0.003382 0.000000
# 4 0.000000 0.000000 0.000000 0.032285 0.000000 -0.010057
# 5 0.001435 -0.004605 0.003382 0.000000 0.027863 0.000000
# 6 0.000000 0.000000 0.000000 -0.010057 0.000000 0.041575
#
#
# Mechanical properties :
#
#
# Convention : Reuss Voigt Hill
#
# Bulk Modulus (GPa) = 34.00682 45.28640 39.64661
# Shear Modulus (GPa) = 25.09118 30.72267 27.90693
#
# Velocity S-wave (km/s) = 3.34813 3.70486 3.53100
# Velocity P-wave (km/s) = 5.48998 6.20757 5.85977
#
# Compressibility (1/GPa) = 0.02940586
#
# Stress axis : x y z
#
# Youngs Moduli (GPa) = 84.78471 33.66226 58.56342
#
# Poissons Ratio (x) = -0.08529 0.35608
# Poissons Ratio (y) = -0.21481 0.64648
# Poissons Ratio (z) = 0.51551 0.37159
#
# Static dielectric constant tensor:
#      x y z
#    x 4.085130 0.000000 0.108470 
#    y 0.000000 3.827650 0.000000 
#    z 0.108470 0.000000 3.960420 
# 
# 
# High freq. dielectric constant tensor:
#      x y z
#    x 1.890330 0.000000 0.006350 
#    y 0.000000 1.855020 0.000000 
#    z 0.006350 0.000000 1.883800 
# 
# From -- ./inp_files/70174.got.cif
#   From: 2010.03.12/outbox.cif.g09.slc.cpg/sg14_36_cif.got.tgz:70174.got - 2010.03.31 13:35:05.
