data_PCOD8126957
_publ_section_title
;
Structure prediction by ZEFSAII (Michael W. Deem and Ramdas Pophale) SiO2 
 PCOD8126957
Probable space group: P 21/C
;
_chemical_formula_sum "Si O2"
_cell_formula_units_Z 32
_cell_length_a 16.778150
_cell_length_b 12.725615
_cell_length_c 12.652317
_cell_angle_alpha 90.000000
_cell_angle_beta 139.283519
_cell_angle_gamma 90.000000
_cell_volume 1762.183983
_symmetry_space_group_name_H-M "P 21/C"
_symmetry_group_IT_number 14
_symmetry_cell_setting 'monoclinic'
loop_
_space_group_symop_operation_xyz
x,y,z
-x,1/2+y,1/2-z
-x,-y,-z
x,1/2-y,1/2+z
loop_
_atom_site_type_symbol
_atom_site_label
_atom_site_fract_x
_atom_site_fract_y
_atom_site_fract_z
Si Si1 0.390834 0.877857 0.750269
Si Si2 0.189059 0.258910 0.928233
Si Si3 0.339011 0.378220 0.434243
Si Si4 0.609166 0.622143 0.749731
Si Si5 0.980203 0.376922 0.603143
Si Si6 0.189059 0.741090 0.928233
Si Si7 0.339011 0.878220 0.934243
Si Si8 0.980203 0.876922 0.103143
O O1 0.313095 0.814857 0.587436
O O2 0.361318 1.000000 0.707564
O O3 0.534605 0.856802 0.875726
O O4 0.353462 0.839123 0.829113
O O5 0.224466 0.180403 0.869968
O O6 0.132575 0.192891 0.968547
O O7 0.097784 0.346419 0.790953
O O8 0.313095 0.314857 0.087436
O O9 0.353462 0.339123 0.329113
O O10 0.306545 0.500000 0.404017
O O11 0.465395 0.643198 0.624275
O O12 0.867425 0.307110 0.531453
O O13 0.952058 0.500000 0.591309
O O14 1.000000 0.350862 0.500000
O O15 0.097784 0.653581 0.790954
O O16 0.224466 0.819597 0.869968
#
# Coordination Sequence:
#
# PCOD8126957 Si02
#       8
#     4   4   4   4   4   4   4   4
#     4   9  18  32  50  74 101 124 151 193 240 283
#     4  11  19  32  54  72  91 127 168 194 228 287
#     4   9  18  32  50  74 101 124 151 193 240 283
#     4   9  18  32  50  74 101 124 151 193 240 283
#     4  10  22  36  48  68  98 128 160 202 242 272
#     4  11  19  32  54  72  91 127 168 194 228 287
#     4   9  18  32  50  74 101 124 151 193 240 283
#     4  10  22  36  48  68  98 128 160 202 242 272
#
# _framework density 18.159284
#
# number of rings (size 3 to 8) (size 9 to 14) (size 15 to 20)
#    0.000    2.250    0.000    5.250    0.000    0.000 
#    0.000    0.000    0.000   12.000    0.000   21.000 
#    0.000    0.000    0.000    0.000    0.000    0.000 
#
# Total GULP energy -396803.454658 kJ/mol
# GULP energy per Si atom -12400.107958 kJ/mol
# Density = 1.811795 g / cm^3
# Si number density = 18.159284 Si / 1000 Ang^3
#
#
#
# Elastic Constant Matrix: (Units=GPa)
#
#
# Indices 1 2 3 4 5 6 
#
# 1 70.2298 24.5712 -4.1842 0.0000 -6.7975 0.0000
# 2 24.5712 57.9000 22.2127 0.0000 -5.0533 0.0000
# 3 -4.1842 22.2127 50.5434 0.0000 -1.5723 0.0000
# 4 0.0000 0.0000 0.0000 16.1276 0.0000 -4.3584
# 5 -6.7975 -5.0533 -1.5723 0.0000 22.7456 0.0000
# 6 0.0000 0.0000 0.0000 -4.3584 0.0000 22.1003
#
#
#
# Elastic Compliance Matrix: (Units=1/GPa)
#
#
# Indices 1 2 3 4 5 6 
#
# 1 0.018358 -0.009734 0.005914 0.000000 0.003733 0.000000
# 2 -0.009734 0.026303 -0.012300 0.000000 0.002084 0.000000
# 3 0.005914 -0.012300 0.025706 0.000000 0.000811 0.000000
# 4 0.000000 0.000000 0.000000 0.065496 0.000000 0.012916
# 5 0.003733 0.002084 0.000811 0.000000 0.045599 0.000000
# 6 0.000000 0.000000 0.000000 0.012916 0.000000 0.047795
#
#
# Mechanical properties :
#
#
# Convention : Reuss Voigt Hill
#
# Bulk Modulus (GPa) = 26.22918 29.31916 27.77417
# Shear Modulus (GPa) = 18.23446 21.26628 19.75037
#
# Velocity S-wave (km/s) = 3.17225 3.42584 3.30148
# Velocity P-wave (km/s) = 5.28137 5.64173 5.46452
#
# Compressibility (1/GPa) = 0.03812548
#
# Stress axis : x y z
#
# Youngs Moduli (GPa) = 54.47202 38.01901 38.90218
#
# Poissons Ratio (x) = 0.37006 -0.23005
# Poissons Ratio (y) = 0.53021 0.47851
# Poissons Ratio (z) = -0.32212 0.46765
#
# Static dielectric constant tensor:
#      x y z
#    x 3.292800 0.000000 0.014680 
#    y 0.000000 3.219740 0.000000 
#    z 0.014680 0.000000 3.207210 
# 
# 
# High freq. dielectric constant tensor:
#      x y z
#    x 1.705870 0.000000 0.002450 
#    y 0.000000 1.702900 0.000000 
#    z 0.002450 0.000000 1.700260 
# 
# From -- ./inp_files/29090.got.cif
#   From: 2010.03.12/outbox.cif.g09.slc.cpg/sg14_15_cif.got.tgz:29090.got - 2010.03.31 13:35:05.
