data_PCOD8126124
_publ_section_title
;
Structure prediction by ZEFSAII (Michael W. Deem and Ramdas Pophale) SiO2 
 PCOD8126124
Probable space group: P 21/C
;
_chemical_formula_sum "Si O2"
_cell_formula_units_Z 20
_cell_length_a 28.662068
_cell_length_b 7.109638
_cell_length_c 5.245621
_cell_angle_alpha 90.000000
_cell_angle_beta 123.056124
_cell_angle_gamma 90.000000
_cell_volume 895.914900
_symmetry_space_group_name_H-M "P 21/C"
_symmetry_group_IT_number 14
_symmetry_cell_setting 'monoclinic'
loop_
_space_group_symop_operation_xyz
x,y,z
-x,1/2+y,1/2-z
-x,-y,-z
x,1/2-y,1/2+z
loop_
_atom_site_type_symbol
_atom_site_label
_atom_site_fract_x
_atom_site_fract_y
_atom_site_fract_z
Si Si1 0.275475 0.629536 0.869677
Si Si2 0.387501 0.046402 0.638172
Si Si3 0.434950 0.030222 0.278974
Si Si4 0.049628 0.362475 0.204989
Si Si5 0.173227 0.371181 0.515657
O O1 0.283847 0.717582 0.173445
O O2 0.320671 0.460967 0.970938
O O3 0.214054 0.545907 0.666247
O O4 0.404665 0.935883 0.431150
O O5 0.413195 0.254550 0.688755
O O6 0.415844 0.934115 0.957993
O O7 0.500000 0.000000 0.500000
O O8 0.044195 0.305370 0.484327
O O9 0.110554 0.454775 0.345759
O O10 0.000000 0.500000 0.000000
O O11 0.183746 0.278186 0.271955
#
# Coordination Sequence:
#
# PCOD8126124 Si02
#       5
#     4   4   4   4   4
#     4  12  26  44  64  97 132 169 216 268 329 387
#     4  10  23  41  63  91 121 157 202 258 316 374
#     4  10  21  42  66  90 115 155 208 249 312 384
#     4  10  21  38  61  97 133 176 222 271 327 384
#     4  10  23  41  68  94 129 176 227 272 319 382
#
# _framework density 22.323549
#
# number of rings (size 3 to 8) (size 9 to 14) (size 15 to 20)
#    0.000    1.600    0.000    3.600    5.600    1.600 
#   21.600    0.000    0.000    0.000    0.000    0.000 
#    0.000    0.000    0.000    0.000    0.000    0.000 
#
# Total GULP energy -247870.900760 kJ/mol
# GULP energy per Si atom -12393.545038 kJ/mol
# Density = 2.227274 g / cm^3
# Si number density = 22.323549 Si / 1000 Ang^3
#
#
#
# Elastic Constant Matrix: (Units=GPa)
#
#
# Indices 1 2 3 4 5 6 
#
# 1 114.6618 20.6111 41.1689 0.0000 6.0662 0.0000
# 2 20.6111 46.7049 -0.6724 0.0000 23.5309 0.0000
# 3 41.1689 -0.6724 116.3820 0.0000 -11.0945 0.0000
# 4 0.0000 0.0000 0.0000 30.2512 0.0000 20.4009
# 5 6.0662 23.5309 -11.0945 0.0000 69.7554 0.0000
# 6 0.0000 0.0000 0.0000 20.4009 0.0000 29.0347
#
#
#
# Elastic Compliance Matrix: (Units=1/GPa)
#
#
# Indices 1 2 3 4 5 6 
#
# 1 0.011015 -0.004965 -0.003916 0.000000 0.000094 0.000000
# 2 -0.004965 0.028088 0.001073 0.000000 -0.008873 0.000000
# 3 -0.003916 0.001073 0.010136 0.000000 0.001591 0.000000
# 4 0.000000 0.000000 0.000000 0.062827 0.000000 -0.044145
# 5 0.000094 -0.008873 0.001591 0.000000 0.017574 0.000000
# 6 0.000000 0.000000 0.000000 -0.044145 0.000000 0.065459
#
#
# Mechanical properties :
#
#
# Convention : Reuss Voigt Hill
#
# Bulk Modulus (GPa) = 29.74268 44.44044 37.09156
# Shear Modulus (GPa) = 22.53053 40.25102 31.39078
#
# Velocity S-wave (km/s) = 3.18035 4.25087 3.75397
# Velocity P-wave (km/s) = 5.18059 6.63655 5.95325
#
# Compressibility (1/GPa) = 0.03362172
#
# Stress axis : x y z
#
# Youngs Moduli (GPa) = 90.78692 35.60299 98.66298
#
# Poissons Ratio (x) = 0.17676 0.38637
# Poissons Ratio (y) = 0.45072 -0.10583
# Poissons Ratio (z) = 0.35553 -0.03819
#
# Static dielectric constant tensor:
#      x y z
#    x 4.917990 0.000000 -0.885180 
#    y 0.000000 3.500760 0.000000 
#    z -0.885180 0.000000 5.350840 
# 
# 
# High freq. dielectric constant tensor:
#      x y z
#    x 1.902630 0.000000 -0.013180 
#    y 0.000000 1.840550 0.000000 
#    z -0.013180 0.000000 1.913560 
# 
# From -- ./inp_files/4551.got.cif
#   From: 2010.03.12/outbox.cif.g09.slc.cpg/sg14_3_cif.got.tgz:4551.got - 2010.03.31 13:35:05.
