data_PCOD8126333
_publ_section_title
;
Structure prediction by ZEFSAII (Michael W. Deem and Ramdas Pophale) SiO2 
 PCOD8126333
Probable space group: P 21/C
;
_chemical_formula_sum "Si O2"
_cell_formula_units_Z 32
_cell_length_a 15.026211
_cell_length_b 13.633525
_cell_length_c 14.992198
_cell_angle_alpha 90.000000
_cell_angle_beta 151.189494
_cell_angle_gamma 90.000000
_cell_volume 1480.105965
_symmetry_space_group_name_H-M "P 21/C"
_symmetry_group_IT_number 14
_symmetry_cell_setting 'monoclinic'
loop_
_space_group_symop_operation_xyz
x,y,z
-x,1/2+y,1/2-z
-x,-y,-z
x,1/2-y,1/2+z
loop_
_atom_site_type_symbol
_atom_site_label
_atom_site_fract_x
_atom_site_fract_y
_atom_site_fract_z
Si Si1 0.416157 0.913321 0.374823
Si Si2 0.452100 0.560172 0.590266
Si Si3 0.624445 0.728361 0.512414
Si Si4 0.310750 0.051538 0.127834
Si Si5 0.911980 0.697609 0.910364
Si Si6 0.355349 0.238832 0.670390
Si Si7 0.973903 0.397239 0.430765
Si Si8 0.294566 0.591403 0.263309
O O1 0.573283 0.832403 0.509727
O O2 0.240466 0.876318 0.278136
O O3 0.500000 0.000000 0.500000
O O4 0.355566 0.955297 0.224935
O O5 0.348468 0.477391 0.558479
O O6 0.481059 0.659785 0.672537
O O7 0.320336 0.587335 0.392367
O O8 0.649660 0.515185 0.729113
O O9 0.706972 0.749893 0.487344
O O10 0.434034 0.668243 0.340510
O O11 0.771855 0.673604 0.705920
O O12 0.424468 0.150372 0.258444
O O13 0.099576 0.093220 0.952108
O O14 0.972978 0.810702 0.953559
O O15 0.083149 0.621112 0.056089
O O16 0.813540 0.694756 0.920400
O O17 0.000000 0.500000 0.500000
#
# Coordination Sequence:
#
# PCOD8126333 Si02
#       8
#     4   4   4   4   4   4   4   4
#     4  11  21  37  65  99 132 180 212 272 351 397
#     4  11  23  46  70  99 135 185 232 286 344 409
#     4  12  22  43  71  97 138 180 222 284 341 403
#     4  10  21  39  65  96 136 171 227 284 328 410
#     4  11  24  45  66  99 140 175 227 283 335 412
#     4  11  23  43  67 100 140 175 232 283 337 413
#     4   9  19  37  62  93 133 172 215 275 332 399
#     4  11  25  46  73  94 137 188 226 281 348 401
#
# _framework density 21.620073999999999
#
# number of rings (size 3 to 8) (size 9 to 14) (size 15 to 20)
#    0.000    1.250    5.000    2.250    0.000    0.500 
#    9.000    2.500    0.000    0.000    0.000    0.000 
#    0.000    0.000    0.000    0.000    0.000    0.000 
#
# Total GULP energy -396458.942879 kJ/mol
# GULP energy per Si atom -12389.341965 kJ/mol
# Density = 2.157087 g / cm^3
# Si number density = 21.620074 Si / 1000 Ang^3
#
#
#
# Elastic Constant Matrix: (Units=GPa)
#
#
# Indices 1 2 3 4 5 6 
#
# 1 123.9185 19.7544 50.6855 0.0000 -8.1261 0.0000
# 2 19.7544 97.3432 18.0813 0.0000 1.2703 0.0000
# 3 50.6855 18.0813 105.0700 0.0000 4.5008 0.0000
# 4 0.0000 0.0000 0.0000 37.0337 0.0000 0.6774
# 5 -8.1261 1.2703 4.5008 0.0000 23.5264 0.0000
# 6 0.0000 0.0000 0.0000 0.6774 0.0000 36.1101
#
#
#
# Elastic Compliance Matrix: (Units=1/GPa)
#
#
# Indices 1 2 3 4 5 6 
#
# 1 0.010686 -0.001276 -0.005138 0.000000 0.004743 0.000000
# 2 -0.001276 0.010766 -0.001203 0.000000 -0.000792 0.000000
# 3 -0.005138 -0.001203 0.012378 0.000000 -0.004078 0.000000
# 4 0.000000 0.000000 0.000000 0.027012 0.000000 -0.000507
# 5 0.004743 -0.000792 -0.004078 0.000000 0.044967 0.000000
# 6 0.000000 0.000000 0.000000 -0.000507 0.000000 0.027703
#
#
# Mechanical properties :
#
#
# Convention : Reuss Voigt Hill
#
# Bulk Modulus (GPa) = 53.77979 55.93046 54.85513
# Shear Modulus (GPa) = 32.26970 35.18807 33.72888
#
# Velocity S-wave (km/s) = 3.86758 4.03869 3.95406
# Velocity P-wave (km/s) = 6.69875 6.90462 6.80246
#
# Compressibility (1/GPa) = 0.01859435
#
# Stress axis : x y z
#
# Youngs Moduli (GPa) = 93.58023 92.88755 80.78855
#
# Poissons Ratio (x) = 0.11853 0.41513
# Poissons Ratio (y) = 0.11941 0.09720
# Poissons Ratio (z) = 0.48086 0.11176
#
# Static dielectric constant tensor:
#      x y z
#    x 4.144950 0.000000 0.611200 
#    y 0.000000 3.161520 0.000000 
#    z 0.611200 0.000000 3.202750 
# 
# 
# High freq. dielectric constant tensor:
#      x y z
#    x 1.851610 0.000000 0.008860 
#    y 0.000000 1.879110 0.000000 
#    z 0.008860 0.000000 1.808360 
# 
# From -- ./inp_files/47427.got.cif
#   From: 2010.03.12/outbox.cif.g09.slc.cpg/sg14_24_cif.got.tgz:47427.got - 2010.03.31 13:35:05.
