data_PCOD8126702
_publ_section_title
;
Structure prediction by ZEFSAII (Michael W. Deem and Ramdas Pophale) SiO2 
 PCOD8126702
Probable space group: P 21/C
;
_chemical_formula_sum "Si O2"
_cell_formula_units_Z 24
_cell_length_a 14.279995
_cell_length_b 14.249073
_cell_length_c 10.719340
_cell_angle_alpha 90.000000
_cell_angle_beta 150.499410
_cell_angle_gamma 90.000000
_cell_volume 1074.062221
_symmetry_space_group_name_H-M "P 21/C"
_symmetry_group_IT_number 14
_symmetry_cell_setting 'monoclinic'
loop_
_space_group_symop_operation_xyz
x,y,z
-x,1/2+y,1/2-z
-x,-y,-z
x,1/2-y,1/2+z
loop_
_atom_site_type_symbol
_atom_site_label
_atom_site_fract_x
_atom_site_fract_y
_atom_site_fract_z
Si Si1 0.439260 0.595256 0.494776
Si Si2 0.914457 0.797090 0.896238
Si Si3 0.801699 0.428363 0.556897
Si Si4 0.669018 0.209551 0.697168
Si Si5 0.180033 0.169161 0.480028
Si Si6 0.356607 0.422001 0.787533
O O1 0.500000 0.500000 0.500000
O O2 0.253944 0.578466 0.363675
O O3 0.378338 0.680484 0.331237
O O4 0.612295 0.624612 0.785080
O O5 0.853985 0.767350 0.684363
O O6 0.807616 0.895658 0.802113
O O7 0.845504 0.725482 0.921357
O O8 0.142583 0.805683 0.168352
O O9 0.690566 0.346147 0.351957
O O10 0.750151 0.534159 0.455112
O O11 0.026668 0.415076 0.801392
O O12 0.487474 0.168976 0.408462
O O13 0.500000 0.500000 0.000000
#
# Coordination Sequence:
#
# PCOD8126702 Si02
#       6
#     4   4   4   4   4   4
#     4  12  26  43  66 104 141 189 229 295 357 422
#     4  11  23  44  72 100 138 188 232 292 353 421
#     4  10  24  44  65 106 139 176 243 294 346 431
#     4  10  22  44  70  95 138 187 240 281 356 423
#     4  11  24  44  69  99 141 181 237 283 353 418
#     4  10  21  41  70  99 134 180 235 292 343 422
#
# _framework density 22.345075000000001
#
# number of rings (size 3 to 8) (size 9 to 14) (size 15 to 20)
#    0.000    1.333    3.333    2.000    0.000   10.667 
#    6.000    0.000    0.000    0.000    0.000    0.000 
#    0.000    0.000    0.000    0.000    0.000    0.000 
#
# Total GULP energy -297415.520828 kJ/mol
# GULP energy per Si atom -12392.313368 kJ/mol
# Density = 2.229422 g / cm^3
# Si number density = 22.345075 Si / 1000 Ang^3
#
#
#
# Elastic Constant Matrix: (Units=GPa)
#
#
# Indices 1 2 3 4 5 6 
#
# 1 97.5290 34.3089 26.4637 0.0000 3.1746 0.0000
# 2 34.3089 116.6531 21.1764 0.0000 8.3744 0.0000
# 3 26.4637 21.1764 84.2524 0.0000 17.9741 0.0000
# 4 0.0000 0.0000 0.0000 30.6750 0.0000 4.5408
# 5 3.1746 8.3744 17.9741 0.0000 40.0507 0.0000
# 6 0.0000 0.0000 0.0000 4.5408 0.0000 41.4398
#
#
#
# Elastic Compliance Matrix: (Units=1/GPa)
#
#
# Indices 1 2 3 4 5 6 
#
# 1 0.012192 -0.003069 -0.003305 0.000000 0.001159 0.000000
# 2 -0.003069 0.009788 -0.001229 0.000000 -0.001252 0.000000
# 3 -0.003305 -0.001229 0.014493 0.000000 -0.005985 0.000000
# 4 0.000000 0.000000 0.000000 0.033137 0.000000 -0.003631
# 5 0.001159 -0.001252 -0.005985 0.000000 0.027824 0.000000
# 6 0.000000 0.000000 0.000000 -0.003631 0.000000 0.024529
#
#
# Mechanical properties :
#
#
# Convention : Reuss Voigt Hill
#
# Bulk Modulus (GPa) = 47.02279 51.37027 49.19653
# Shear Modulus (GPa) = 34.65963 36.86547 35.76255
#
# Velocity S-wave (km/s) = 3.94268 4.06621 4.00492
# Velocity P-wave (km/s) = 6.46652 6.71453 6.59169
#
# Compressibility (1/GPa) = 0.02126628
#
# Stress axis : x y z
#
# Youngs Moduli (GPa) = 82.02004 102.16544 68.99821
#
# Poissons Ratio (x) = 0.31354 0.22806
# Poissons Ratio (y) = 0.25172 0.08481
# Poissons Ratio (z) = 0.27111 0.12558
#
# Static dielectric constant tensor:
#      x y z
#    x 3.991340 0.000000 0.280450 
#    y 0.000000 4.369460 0.000000 
#    z 0.280450 0.000000 4.434100 
# 
# 
# High freq. dielectric constant tensor:
#      x y z
#    x 1.870870 0.000000 0.025610 
#    y 0.000000 1.869430 0.000000 
#    z 0.025610 0.000000 1.889890 
# 
# From -- ./inp_files/32649.got.cif
#   From: 2010.03.12/outbox.cif.g09.slc.cpg/sg14_17_cif.got.tgz:32649.got - 2010.03.31 13:35:05.
