data_PCOD8126503
_publ_section_title
;
Structure prediction by ZEFSAII (Michael W. Deem and Ramdas Pophale) SiO2 
 PCOD8126503
Probable space group: P 21/C
;
_chemical_formula_sum "Si O2"
_cell_formula_units_Z 24
_cell_length_a 8.205097
_cell_length_b 11.205649
_cell_length_c 12.260964
_cell_angle_alpha 90.000000
_cell_angle_beta 86.446477
_cell_angle_gamma 90.000000
_cell_volume 1125.147721
_symmetry_space_group_name_H-M "P 21/C"
_symmetry_group_IT_number 14
_symmetry_cell_setting 'monoclinic'
loop_
_space_group_symop_operation_xyz
x,y,z
-x,1/2+y,1/2-z
-x,-y,-z
x,1/2-y,1/2+z
loop_
_atom_site_type_symbol
_atom_site_label
_atom_site_fract_x
_atom_site_fract_y
_atom_site_fract_z
Si Si1 0.491178 0.185905 0.972355
Si Si2 0.405011 0.563884 0.099024
Si Si3 0.064371 0.063513 0.603050
Si Si4 0.883511 0.816596 0.980502
Si Si5 0.027439 0.476730 0.342866
Si Si6 0.409184 0.966179 0.839120
O O1 0.301809 0.221428 0.987610
O O2 0.553938 0.149242 0.089032
O O3 0.604331 0.295716 0.928484
O O4 0.506265 0.078758 0.885061
O O5 0.240121 0.490696 0.116556
O O6 0.485458 0.553434 0.215726
O O7 0.500000 0.500000 0.000000
O O8 0.041305 0.203204 0.582252
O O9 0.968613 0.041547 0.720689
O O10 0.000000 0.000000 0.500000
O O11 0.978676 0.851390 0.088973
O O12 0.898819 0.930051 0.899310
O O13 0.213662 0.521299 0.346816
#
# Coordination Sequence:
#
# PCOD8126503 Si02
#       6
#     4   4   4   4   4   4
#     4  10  21  40  66  89 122 164 203 251 314 371
#     4  11  23  40  61  93 125 156 209 261 303 368
#     4  11  25  40  60  94 123 163 210 252 312 358
#     4  10  21  41  64  86 125 161 205 252 307 375
#     4   9  22  42  62  89 122 166 205 252 302 372
#     4   9  22  40  61  92 123 163 204 249 315 363
#
# _framework density 21.330534
#
# number of rings (size 3 to 8) (size 9 to 14) (size 15 to 20)
#    0.000    2.000    1.667    0.000    7.000    2.667 
#    0.000    0.000    0.000    0.000    0.000    0.000 
#    0.000    0.000    0.000    0.000    0.000    0.000 
#
# Total GULP energy -297428.195991 kJ/mol
# GULP energy per Si atom -12392.841500 kJ/mol
# Density = 2.128199 g / cm^3
# Si number density = 21.330534 Si / 1000 Ang^3
#
#
#
# Elastic Constant Matrix: (Units=GPa)
#
#
# Indices 1 2 3 4 5 6 
#
# 1 15.7527 9.3511 10.7373 0.0000 0.8735 0.0000
# 2 9.3511 121.1665 57.9700 0.0000 4.7066 0.0000
# 3 10.7373 57.9700 211.5780 0.0000 9.1531 0.0000
# 4 0.0000 0.0000 0.0000 30.9897 0.0000 -1.4426
# 5 0.8735 4.7066 9.1531 0.0000 30.6654 0.0000
# 6 0.0000 0.0000 0.0000 -1.4426 0.0000 26.6932
#
#
#
# Elastic Compliance Matrix: (Units=1/GPa)
#
#
# Indices 1 2 3 4 5 6 
#
# 1 0.067499 -0.004096 -0.002277 0.000000 -0.000614 0.000000
# 2 -0.004096 0.009761 -0.002438 0.000000 -0.000654 0.000000
# 3 -0.002277 -0.002438 0.005563 0.000000 -0.001221 0.000000
# 4 0.000000 0.000000 0.000000 0.032350 0.000000 0.001748
# 5 -0.000614 -0.000654 -0.001221 0.000000 0.033092 0.000000
# 6 0.000000 0.000000 0.000000 0.001748 0.000000 0.037557
#
#
# Mechanical properties :
#
#
# Convention : Reuss Voigt Hill
#
# Bulk Modulus (GPa) = 15.33733 56.06824 35.70279
# Shear Modulus (GPa) = 22.20466 35.69891 28.95178
#
# Velocity S-wave (km/s) = 3.22992 4.09541 3.68814
# Velocity P-wave (km/s) = 4.59519 6.97895 5.90853
#
# Compressibility (1/GPa) = 0.06520041
#
# Stress axis : x y z
#
# Youngs Moduli (GPa) = 14.81513 102.44661 179.76484
#
# Poissons Ratio (x) = 0.41964 0.40925
# Poissons Ratio (y) = 0.06069 0.43832
# Poissons Ratio (z) = 0.03373 0.24980
#
# Static dielectric constant tensor:
#      x y z
#    x 3.530680 0.000000 -0.153310 
#    y 0.000000 4.045210 0.000000 
#    z -0.153310 0.000000 5.442550 
# 
# 
# High freq. dielectric constant tensor:
#      x y z
#    x 1.808990 0.000000 -0.002700 
#    y 0.000000 1.837710 0.000000 
#    z -0.002700 0.000000 1.859690 
# 
# From -- ./inp_files/24167.got.cif
#   From: 2010.03.12/outbox.cif.g09.slc.cpg/sg14_13_cif.got.tgz:24167.got - 2010.03.31 13:35:05.
