data_PCOD8126782
_publ_section_title
;
Structure prediction by ZEFSAII (Michael W. Deem and Ramdas Pophale) SiO2 
 PCOD8126782
Probable space group: P 21/C
;
_chemical_formula_sum "Si O2"
_cell_formula_units_Z 28
_cell_length_a 9.338915
_cell_length_b 18.512661
_cell_length_c 16.185911
_cell_angle_alpha 90.000000
_cell_angle_beta 29.269085
_cell_angle_gamma 90.000000
_cell_volume 1368.147664
_symmetry_space_group_name_H-M "P 21/C"
_symmetry_group_IT_number 14
_symmetry_cell_setting 'monoclinic'
loop_
_space_group_symop_operation_xyz
x,y,z
-x,1/2+y,1/2-z
-x,-y,-z
x,1/2-y,1/2+z
loop_
_atom_site_type_symbol
_atom_site_label
_atom_site_fract_x
_atom_site_fract_y
_atom_site_fract_z
Si Si1 0.825446 0.815428 0.897229
Si Si2 0.104156 0.046250 0.369774
Si Si3 0.739798 0.308381 0.060176
Si Si4 0.281631 0.777403 0.082982
Si Si5 0.773922 0.417098 0.500076
Si Si6 0.113627 0.178681 0.944557
Si Si7 0.166225 0.023548 0.161743
O O1 0.879146 0.891380 0.825733
O O2 0.980737 0.750331 0.771485
O O3 0.490515 0.790564 0.056512
O O4 0.942392 0.821942 0.930357
O O5 0.022488 0.005343 0.324068
O O6 0.934192 0.120954 0.457455
O O7 0.455338 0.059423 0.195113
O O8 0.000000 0.000000 0.500000
O O9 0.609736 0.283646 0.036913
O O10 0.957011 0.247472 0.984677
O O11 0.462610 0.320480 0.258162
O O12 0.251791 0.852386 0.051191
O O13 0.948958 0.480079 0.360857
O O14 0.977696 0.394622 0.474514
O O15 0.500000 0.000000 0.000000
#
# Coordination Sequence:
#
# PCOD8126782 Si02
#       7
#     4   4   4   4   4   4   4
#     4  12  23  39  67 100 126 174 225 271 331 404
#     4  11  23  41  71  98 131 178 227 273 335 415
#     4  11  22  43  62  98 130 172 220 276 336 391
#     4  11  20  40  68  91 128 173 222 271 329 397
#     4  10  22  45  68  92 135 182 214 278 343 398
#     4  11  25  39  68  97 134 169 220 280 330 392
#     4  10  21  42  67  93 132 180 221 266 344 411
#
# _framework density 20.465627000000001
#
# number of rings (size 3 to 8) (size 9 to 14) (size 15 to 20)
#    0.000    1.143    4.286    4.286    4.000    1.714 
#    0.000    2.143    0.000    0.000    0.000    0.000 
#    0.000    0.000    0.000    0.000    0.000    0.000 
#
# Total GULP energy -346993.727706 kJ/mol
# GULP energy per Si atom -12392.633132 kJ/mol
# Density = 2.041905 g / cm^3
# Si number density = 20.465627 Si / 1000 Ang^3
#
#
#
# Elastic Constant Matrix: (Units=GPa)
#
#
# Indices 1 2 3 4 5 6 
#
# 1 116.0820 42.1663 33.3448 0.0000 20.2561 0.0000
# 2 42.1663 90.8147 36.5099 0.0000 7.3349 0.0000
# 3 33.3448 36.5099 105.7634 0.0000 15.1019 0.0000
# 4 0.0000 0.0000 0.0000 36.1311 0.0000 3.7563
# 5 20.2561 7.3349 15.1019 0.0000 31.6508 0.0000
# 6 0.0000 0.0000 0.0000 3.7563 0.0000 19.7524
#
#
#
# Elastic Compliance Matrix: (Units=1/GPa)
#
#
# Indices 1 2 3 4 5 6 
#
# 1 0.011594 -0.004388 -0.001316 0.000000 -0.005775 0.000000
# 2 -0.004388 0.014471 -0.003793 0.000000 0.001264 0.000000
# 3 -0.001316 -0.003793 0.011733 0.000000 -0.003877 0.000000
# 4 0.000000 0.000000 0.000000 0.028235 0.000000 -0.005369
# 5 -0.005775 0.001264 -0.003877 0.000000 0.036848 0.000000
# 6 0.000000 0.000000 0.000000 -0.005369 0.000000 0.051648
#
#
# Mechanical properties :
#
#
# Convention : Reuss Voigt Hill
#
# Bulk Modulus (GPa) = 53.17625 59.63355 56.40490
# Shear Modulus (GPa) = 27.81006 30.88281 29.34644
#
# Velocity S-wave (km/s) = 3.69028 3.88881 3.79085
# Velocity P-wave (km/s) = 6.64809 7.02606 6.83969
#
# Compressibility (1/GPa) = 0.01880539
#
# Stress axis : x y z
#
# Youngs Moduli (GPa) = 86.24943 69.10179 85.23079
#
# Poissons Ratio (x) = 0.30320 0.11217
# Poissons Ratio (y) = 0.37845 0.32326
# Poissons Ratio (z) = 0.11351 0.26208
#
# Static dielectric constant tensor:
#      x y z
#    x 4.556900 0.000000 0.094740 
#    y 0.000000 4.211840 0.000000 
#    z 0.094740 0.000000 3.865890 
# 
# 
# High freq. dielectric constant tensor:
#      x y z
#    x 1.805130 0.000000 0.014780 
#    y 0.000000 1.804030 0.000000 
#    z 0.014780 0.000000 1.792890 
# 
# From -- ./inp_files/16828.got.cif
#   From: 2010.03.12/outbox.cif.g09.slc.cpg/sg14_9_cif.got.tgz:16828.got - 2010.03.31 13:35:05.
