data_PCOD8126036
_publ_section_title
;
Structure prediction by ZEFSAII (Michael W. Deem and Ramdas Pophale) SiO2 
 PCOD8126036
Probable space group: P 21/C
;
_chemical_formula_sum "Si O2"
_cell_formula_units_Z 28
_cell_length_a 14.039172
_cell_length_b 5.022500
_cell_length_c 20.919537
_cell_angle_alpha 90.000000
_cell_angle_beta 59.889494
_cell_angle_gamma 90.000000
_cell_volume 1276.025818
_symmetry_space_group_name_H-M "P 21/C"
_symmetry_group_IT_number 14
_symmetry_cell_setting 'monoclinic'
loop_
_space_group_symop_operation_xyz
x,y,z
-x,1/2+y,1/2-z
-x,-y,-z
x,1/2-y,1/2+z
loop_
_atom_site_type_symbol
_atom_site_label
_atom_site_fract_x
_atom_site_fract_y
_atom_site_fract_z
Si Si1 0.585801 0.732939 0.651593
Si Si2 0.287298 0.759386 0.432470
Si Si3 0.370158 0.466442 0.226347
Si Si4 0.202479 0.816928 0.601786
Si Si5 0.846001 0.315153 0.642853
Si Si6 0.239695 0.188758 0.167685
Si Si7 0.053642 0.199334 0.330646
O O1 0.611361 0.446548 0.611347
O O2 0.590912 0.710833 0.726681
O O3 0.465711 0.834024 0.671073
O O4 0.676370 0.943862 0.597899
O O5 0.247423 0.741331 0.517799
O O6 0.185029 0.680603 0.421473
O O7 0.264951 0.649261 0.278104
O O8 0.340793 0.254630 0.181011
O O9 0.250782 0.609373 0.637271
O O10 0.071483 0.817382 0.647939
O O11 0.244440 0.108638 0.606547
O O12 0.931369 0.549338 0.628132
O O13 0.906359 0.046944 0.641150
O O14 0.123334 0.226772 0.242459
#
# Coordination Sequence:
#
# PCOD8126036 Si02
#       7
#     4   4   4   4   4   4   4
#     4  11  23  41  68  95 120 155 204 263 316 364
#     4  11  24  41  59  91 130 164 202 247 311 379
#     4  10  22  41  69  96 121 155 207 271 324 352
#     4  12  25  41  60  85 130 174 200 243 306 376
#     4  10  21  37  63  93 119 149 204 269 312 360
#     4  11  23  40  62  90 121 161 210 255 301 367
#     4  11  22  39  64  91 117 158 213 262 306 352
#
# _framework density 21.943128000000002
#
# number of rings (size 3 to 8) (size 9 to 14) (size 15 to 20)
#    0.000    1.143    0.000    8.571    0.000    6.857 
#    0.000    4.286    0.000    0.000    0.000    0.000 
#    0.000    0.000    0.000    0.000    0.000    0.000 
#
# Total GULP energy -347368.899513 kJ/mol
# GULP energy per Si atom -12406.032125 kJ/mol
# Density = 2.189318 g / cm^3
# Si number density = 21.943128 Si / 1000 Ang^3
#
#
#
# Elastic Constant Matrix: (Units=GPa)
#
#
# Indices 1 2 3 4 5 6 
#
# 1 54.6715 41.8680 14.2978 0.0000 20.3773 0.0000
# 2 41.8680 108.7622 12.7020 0.0000 -11.8986 0.0000
# 3 14.2978 12.7020 89.1515 0.0000 20.7352 0.0000
# 4 0.0000 0.0000 0.0000 25.9660 0.0000 7.4620
# 5 20.3773 -11.8986 20.7352 0.0000 5.8552 0.0000
# 6 0.0000 0.0000 0.0000 7.4620 0.0000 41.2712
#
#
#
# Elastic Compliance Matrix: (Units=1/GPa)
#
#
# Indices 1 2 3 4 5 6 
#
# 1 0.001877 0.005017 -0.010589 0.000000 0.041159 0.000000
# 2 0.005017 0.004033 0.004396 0.000000 -0.024831 0.000000
# 3 -0.010589 0.004396 0.009300 0.000000 0.012852 0.000000
# 4 0.000000 0.000000 0.000000 0.040623 0.000000 -0.007345
# 5 0.041159 -0.024831 0.012852 0.000000 -0.068427 0.000000
# 6 0.000000 0.000000 0.000000 -0.007345 0.000000 0.025558
#
#
# Mechanical properties :
#
#
# Convention : Reuss Voigt Hill
#
# Bulk Modulus (GPa) = 77.77067 43.36899 60.56983
# Shear Modulus (GPa) = 255.07536 26.86628 140.97082
#
# Velocity S-wave (km/s) = 10.79334 3.50288 8.02391
# Velocity P-wave (km/s) = 13.81474 6.01393 10.65398
#
# Compressibility (1/GPa) = 0.01285832
#
# Stress axis : x y z
#
# Youngs Moduli (GPa) = 532.62342 247.93840 107.53161
#
# Poissons Ratio (x) = -1.24383 1.13863
# Poissons Ratio (y) = -2.67201 -0.47272
# Poissons Ratio (z) = 5.63985 -1.08996
#
# Static dielectric constant tensor:
#      x y z
#    x 3.982820 0.000000 0.127130 
#    y 0.000000 4.112400 0.000000 
#    z 0.127130 0.000000 3.710140 
# 
# 
# High freq. dielectric constant tensor:
#      x y z
#    x 1.865270 0.000000 0.010800 
#    y 0.000000 1.882310 0.000000 
#    z 0.010800 0.000000 1.841260 
# 
# From -- ./inp_files/66444.got.cif
#   From: 2010.03.12/outbox.cif.g09.slc.cpg/sg14_34_cif.got.tgz:66444.got - 2010.03.31 13:35:05.
