data_PCOD8126764
_publ_section_title
;
Structure prediction by ZEFSAII (Michael W. Deem and Ramdas Pophale) SiO2 
 PCOD8126764
Probable space group: P 21/C
;
_chemical_formula_sum "Si O2"
_cell_formula_units_Z 24
_cell_length_a 11.036801
_cell_length_b 12.251501
_cell_length_c 8.714350
_cell_angle_alpha 90.000000
_cell_angle_beta 98.364158
_cell_angle_gamma 90.000000
_cell_volume 1165.798266
_symmetry_space_group_name_H-M "P 21/C"
_symmetry_group_IT_number 14
_symmetry_cell_setting 'monoclinic'
loop_
_space_group_symop_operation_xyz
x,y,z
-x,1/2+y,1/2-z
-x,-y,-z
x,1/2-y,1/2+z
loop_
_atom_site_type_symbol
_atom_site_label
_atom_site_fract_x
_atom_site_fract_y
_atom_site_fract_z
Si Si1 0.450957 0.616833 0.943190
Si Si2 0.119195 0.627388 0.242675
Si Si3 0.500898 0.340039 0.393551
Si Si4 0.704281 0.992951 0.032048
Si Si5 0.172821 0.849619 0.400364
Si Si6 0.911075 0.519292 0.343993
O O1 0.503380 0.649632 0.788962
O O2 0.306600 0.600252 0.916471
O O3 0.500000 0.500000 0.000000
O O4 0.490073 0.711528 0.068780
O O5 0.200474 0.523487 0.313766
O O6 0.178053 0.726002 0.346812
O O7 0.974329 0.617303 0.259338
O O8 0.122593 0.643585 0.062598
O O9 0.374473 0.388013 0.435923
O O10 0.616981 0.403435 0.484983
O O11 0.775947 0.958869 0.888271
O O12 0.086699 0.915734 0.268678
O O13 0.000000 0.500000 0.500000
#
# Coordination Sequence:
#
# PCOD8126764 Si02
#       6
#     4   4   4   4   4   4
#     4  12  26  42  68 103 137 180 231 275 342 413
#     4  11  22  39  66  94 129 173 226 270 339 404
#     4  11  24  41  67  96 138 174 225 278 343 397
#     4  10  21  42  65  95 132 179 220 281 335 397
#     4  12  22  41  64  97 130 175 221 278 335 407
#     4  10  22  41  64  93 125 169 223 273 330 397
#
# _framework density 20.586751
#
# number of rings (size 3 to 8) (size 9 to 14) (size 15 to 20)
#    0.000    1.000    3.333    4.500    4.667    0.000 
#    0.000   11.667    0.000    0.000    0.000    0.000 
#    0.000    0.000    0.000    0.000    0.000    0.000 
#
# Total GULP energy -297576.533894 kJ/mol
# GULP energy per Si atom -12399.022246 kJ/mol
# Density = 2.053989 g / cm^3
# Si number density = 20.586751 Si / 1000 Ang^3
#
#
#
# Elastic Constant Matrix: (Units=GPa)
#
#
# Indices 1 2 3 4 5 6 
#
# 1 110.9058 51.5124 66.6580 0.0000 -26.8411 0.0000
# 2 51.5124 123.2719 59.3109 0.0000 1.9796 0.0000
# 3 66.6580 59.3109 155.6011 0.0000 -19.6730 0.0000
# 4 0.0000 0.0000 0.0000 44.9265 0.0000 -6.4600
# 5 -26.8411 1.9796 -19.6730 0.0000 36.0292 0.0000
# 6 0.0000 0.0000 0.0000 -6.4600 0.0000 74.9404
#
#
#
# Elastic Compliance Matrix: (Units=1/GPa)
#
#
# Indices 1 2 3 4 5 6 
#
# 1 0.016067 -0.005134 -0.003628 0.000000 0.010271 0.000000
# 2 -0.005134 0.011846 -0.003096 0.000000 -0.006166 0.000000
# 3 -0.003628 -0.003096 0.009496 0.000000 0.002653 0.000000
# 4 0.000000 0.000000 0.000000 0.022538 0.000000 0.001943
# 5 0.010271 -0.006166 0.002653 0.000000 0.037194 0.000000
# 6 0.000000 0.000000 0.000000 0.001943 0.000000 0.013511
#
#
# Mechanical properties :
#
#
# Convention : Reuss Voigt Hill
#
# Bulk Modulus (GPa) = 73.01789 82.74907 77.88348
# Shear Modulus (GPa) = 35.98894 45.33238 40.66066
#
# Velocity S-wave (km/s) = 4.18564 4.69766 4.44902
# Velocity P-wave (km/s) = 7.67495 8.34904 8.01908
#
# Compressibility (1/GPa) = 0.01369527
#
# Stress axis : x y z
#
# Youngs Moduli (GPa) = 62.23866 84.41797 105.30646
#
# Poissons Ratio (x) = 0.43337 0.38201
# Poissons Ratio (y) = 0.31951 0.32599
# Poissons Ratio (z) = 0.22578 0.26133
#
# Static dielectric constant tensor:
#      x y z
#    x 4.174640 0.000000 -0.376070 
#    y 0.000000 4.037590 0.000000 
#    z -0.376070 0.000000 4.022430 
# 
# 
# High freq. dielectric constant tensor:
#      x y z
#    x 1.811950 0.000000 -0.011830 
#    y 0.000000 1.790570 0.000000 
#    z -0.011830 0.000000 1.820940 
# 
# From -- ./inp_files/12423.got.cif
#   From: 2010.03.12/outbox.cif.g09.slc.cpg/sg14_7_cif.got.tgz:12423.got - 2010.03.31 13:35:05.
