data_PCOD8126354
_publ_section_title
;
Structure prediction by ZEFSAII (Michael W. Deem and Ramdas Pophale) SiO2 
 PCOD8126354
Probable space group: P 21/C
;
_chemical_formula_sum "Si O2"
_cell_formula_units_Z 28
_cell_length_a 23.005501
_cell_length_b 5.324468
_cell_length_c 12.272582
_cell_angle_alpha 90.000000
_cell_angle_beta 57.044947
_cell_angle_gamma 90.000000
_cell_volume 1261.410146
_symmetry_space_group_name_H-M "P 21/C"
_symmetry_group_IT_number 14
_symmetry_cell_setting 'monoclinic'
loop_
_space_group_symop_operation_xyz
x,y,z
-x,1/2+y,1/2-z
-x,-y,-z
x,1/2-y,1/2+z
loop_
_atom_site_type_symbol
_atom_site_label
_atom_site_fract_x
_atom_site_fract_y
_atom_site_fract_z
Si Si1 0.968639 0.969529 0.914343
Si Si2 0.472735 0.682849 0.118929
Si Si3 0.654519 0.487793 0.218778
Si Si4 0.413797 0.388817 0.366542
Si Si5 0.765415 0.404141 0.930860
Si Si6 0.279779 0.078653 0.126355
Si Si7 0.086926 0.534002 0.114885
O O1 0.924095 0.712514 0.949680
O O2 0.031582 0.969394 0.766952
O O3 0.919609 0.210317 0.947096
O O4 0.000000 0.000000 0.000000
O O5 0.399081 0.805413 0.161770
O O6 0.459932 0.579941 0.252702
O O7 0.540826 0.847477 0.070499
O O8 0.500000 0.500000 0.000000
O O9 0.605520 0.668147 0.198186
O O10 0.700802 0.612621 0.266377
O O11 0.707692 0.351995 0.082617
O O12 0.343837 0.501989 0.485435
O O13 0.748866 0.649634 0.876344
O O14 0.837216 0.468707 0.913655
O O15 0.772123 0.156742 0.845580
#
# Coordination Sequence:
#
# PCOD8126354 Si02
#       7
#     4   4   4   4   4   4   4
#     4  10  21  39  67 101 134 169 214 263 309 369
#     4  12  25  39  68  89 121 163 217 269 342 391
#     4  11  26  42  62  90 125 165 216 270 327 391
#     4  11  24  43  60  92 120 162 210 278 330 389
#     4  11  25  45  64  94 132 172 214 262 316 384
#     4  11  26  42  65  89 126 168 215 264 320 385
#     4  10  22  40  65  97 135 171 213 261 313 372
#
# _framework density 22.197379999999999
#
# number of rings (size 3 to 8) (size 9 to 14) (size 15 to 20)
#    0.000    1.143    2.857    2.143    8.000    3.429 
#    0.000    0.000    0.000    0.000    0.000    0.000 
#    0.000    0.000    0.000    0.000    0.000    0.000 
#
# Total GULP energy -346967.018823 kJ/mol
# GULP energy per Si atom -12391.679244 kJ/mol
# Density = 2.214686 g / cm^3
# Si number density = 22.197380 Si / 1000 Ang^3
#
#
#
# Elastic Constant Matrix: (Units=GPa)
#
#
# Indices 1 2 3 4 5 6 
#
# 1 132.7563 34.6591 15.7017 0.0000 6.2276 0.0000
# 2 34.6591 116.8579 16.1194 0.0000 3.9489 0.0000
# 3 15.7017 16.1194 16.9558 0.0000 13.2214 0.0000
# 4 0.0000 0.0000 0.0000 21.3935 0.0000 1.4938
# 5 6.2276 3.9489 13.2214 0.0000 32.4882 0.0000
# 6 0.0000 0.0000 0.0000 1.4938 0.0000 33.7547
#
#
#
# Elastic Compliance Matrix: (Units=1/GPa)
#
#
# Indices 1 2 3 4 5 6 
#
# 1 0.008810 -0.001561 -0.008065 0.000000 0.001783 0.000000
# 2 -0.001561 0.010462 -0.011341 0.000000 0.003643 0.000000
# 3 -0.008065 -0.011341 0.109785 0.000000 -0.041754 0.000000
# 4 0.000000 0.000000 0.000000 0.046888 0.000000 -0.002075
# 5 0.001783 0.003643 -0.041754 0.000000 0.046988 0.000000
# 6 0.000000 0.000000 0.000000 -0.002075 0.000000 0.029717
#
#
# Mechanical properties :
#
#
# Convention : Reuss Voigt Hill
#
# Bulk Modulus (GPa) = 11.47801 44.39227 27.93514
# Shear Modulus (GPa) = 15.44998 30.86660 23.15829
#
# Velocity S-wave (km/s) = 2.64109 3.73306 3.23350
# Velocity P-wave (km/s) = 3.80560 6.21476 5.15295
#
# Compressibility (1/GPa) = 0.08712309
#
# Stress axis : x y z
#
# Youngs Moduli (GPa) = 113.50273 95.58800 9.10872
#
# Poissons Ratio (x) = 0.14919 0.07347
# Poissons Ratio (y) = 0.17715 0.10330
# Poissons Ratio (z) = 0.91544 1.08404
#
# Static dielectric constant tensor:
#      x y z
#    x 3.950010 0.000000 -0.020760 
#    y 0.000000 4.283970 0.000000 
#    z -0.020760 0.000000 3.929190 
# 
# 
# High freq. dielectric constant tensor:
#      x y z
#    x 1.888110 0.000000 0.007430 
#    y 0.000000 1.876110 0.000000 
#    z 0.007430 0.000000 1.869670 
# 
# From -- ./inp_files/34593.got.cif
#   From: 2010.03.12/outbox.cif.g09.slc.cpg/sg14_18_cif.got.tgz:34593.got - 2010.03.31 13:35:05.
