data_PCOD8126069
_publ_section_title
;
Structure prediction by ZEFSAII (Michael W. Deem and Ramdas Pophale) SiO2 
 PCOD8126069
Probable space group: P 21/C
;
_chemical_formula_sum "Si O2"
_cell_formula_units_Z 32
_cell_length_a 8.466648
_cell_length_b 26.408627
_cell_length_c 9.463283
_cell_angle_alpha 90.000000
_cell_angle_beta 55.722581
_cell_angle_gamma 90.000000
_cell_volume 1748.427341
_symmetry_space_group_name_H-M "P 21/C"
_symmetry_group_IT_number 14
_symmetry_cell_setting 'monoclinic'
loop_
_space_group_symop_operation_xyz
x,y,z
-x,1/2+y,1/2-z
-x,-y,-z
x,1/2-y,1/2+z
loop_
_atom_site_type_symbol
_atom_site_label
_atom_site_fract_x
_atom_site_fract_y
_atom_site_fract_z
Si Si1 0.731516 0.879589 0.336222
Si Si2 0.725244 0.870625 0.671011
Si Si3 0.022176 0.966646 0.125175
Si Si4 0.982814 0.959364 0.625673
Si Si5 0.292019 0.885610 0.564274
Si Si6 0.706761 0.384726 0.614557
Si Si7 0.015733 0.302759 0.457443
Si Si8 0.007439 0.299249 0.791157
O O1 0.755016 0.862791 0.487856
O O2 0.509976 0.883536 0.402950
O O3 0.832716 0.933771 0.257495
O O4 0.813960 0.836080 0.193644
O O5 0.505515 0.871957 0.826763
O O6 0.807004 0.923773 0.678818
O O7 0.820348 0.826110 0.712943
O O8 0.201341 0.928422 0.028032
O O9 0.070302 0.010237 0.209554
O O10 0.000000 0.000000 0.000000
O O11 0.179687 0.927847 0.532386
O O12 0.000000 0.000000 0.500000
O O13 0.285097 0.904073 0.729043
O O14 0.188441 0.831344 0.597193
O O15 0.819447 0.332707 0.542342
O O16 0.062675 0.290993 0.598432
O O17 0.978319 0.253467 0.383566
#
# Coordination Sequence:
#
# PCOD8126069 Si02
#       8
#     4   4   4   4   4   4   4   4
#     4  10  21  38  59  84 110 151 188 231 276 333
#     4  10  21  38  58  83 117 143 188 234 278 325
#     4  11  21  36  59  80 116 153 191 227 276 330
#     4  11  21  36  55  86 114 151 189 233 274 327
#     4   9  20  38  59  81 113 146 190 228 278 329
#     4   9  20  38  58  83 110 150 186 231 273 334
#     4  10  21  39  61  83 112 145 185 222 286 332
#     4  10  21  39  61  84 112 146 178 233 277 338
#
# _framework density 18.302161000000002
#
# number of rings (size 3 to 8) (size 9 to 14) (size 15 to 20)
#    0.000    2.000    2.500    0.750    1.750    3.000 
#    2.250    2.500    0.000    0.000    0.000    0.000 
#    0.000    0.000    0.000    0.000    0.000    0.000 
#
# Total GULP energy -396738.240358 kJ/mol
# GULP energy per Si atom -12398.070011 kJ/mol
# Density = 1.826050 g / cm^3
# Si number density = 18.302161 Si / 1000 Ang^3
#
#
#
# Elastic Constant Matrix: (Units=GPa)
#
#
# Indices 1 2 3 4 5 6 
#
# 1 124.2986 51.1815 68.6840 0.0000 -12.0688 0.0000
# 2 51.1815 107.3011 55.6441 0.0000 2.8686 0.0000
# 3 68.6840 55.6441 118.6764 0.0000 -2.0986 0.0000
# 4 0.0000 0.0000 0.0000 33.7130 0.0000 15.8243
# 5 -12.0688 2.8686 -2.0986 0.0000 41.5574 0.0000
# 6 0.0000 0.0000 0.0000 15.8243 0.0000 22.4564
#
#
#
# Elastic Compliance Matrix: (Units=1/GPa)
#
#
# Indices 1 2 3 4 5 6 
#
# 1 0.013026 -0.003220 -0.005964 0.000000 0.003704 0.000000
# 2 -0.003220 0.013164 -0.004345 0.000000 -0.002063 0.000000
# 3 -0.005964 -0.004345 0.013902 0.000000 -0.000730 0.000000
# 4 0.000000 0.000000 0.000000 0.044322 0.000000 -0.031232
# 5 0.003704 -0.002063 -0.000730 0.000000 0.025244 0.000000
# 6 0.000000 0.000000 0.000000 -0.031232 0.000000 0.066539
#
#
# Mechanical properties :
#
#
# Convention : Reuss Voigt Hill
#
# Bulk Modulus (GPa) = 76.71756 77.92170 77.31963
# Shear Modulus (GPa) = 24.08484 31.19646 27.64065
#
# Velocity S-wave (km/s) = 3.63155 4.13307 3.89040
# Velocity P-wave (km/s) = 7.71961 8.08974 7.90684
#
# Compressibility (1/GPa) = 0.01303482
#
# Stress axis : x y z
#
# Youngs Moduli (GPa) = 76.77062 75.96582 71.93103
#
# Poissons Ratio (x) = 0.24458 0.42897
# Poissons Ratio (y) = 0.24717 0.31256
# Poissons Ratio (z) = 0.45783 0.33009
#
# Static dielectric constant tensor:
#      x y z
#    x 3.397170 0.000000 0.017020 
#    y 0.000000 3.394590 0.000000 
#    z 0.017020 0.000000 3.448560 
# 
# 
# High freq. dielectric constant tensor:
#      x y z
#    x 1.711050 0.000000 0.005170 
#    y 0.000000 1.719210 0.000000 
#    z 0.005170 0.000000 1.713090 
# 
# From -- ./inp_files/11053.got.cif
#   From: 2010.03.12/outbox.cif.g09.slc.cpg/sg14_6_cif.got.tgz:11053.got - 2010.03.31 13:35:05.
