data_PCOD8126600
_publ_section_title
;
Structure prediction by ZEFSAII (Michael W. Deem and Ramdas Pophale) SiO2 
 PCOD8126600
Probable space group: P 21/C
;
_chemical_formula_sum "Si O2"
_cell_formula_units_Z 32
_cell_length_a 26.473668
_cell_length_b 11.460206
_cell_length_c 12.949611
_cell_angle_alpha 90.000000
_cell_angle_beta 156.982083
_cell_angle_gamma 90.000000
_cell_volume 1536.247123
_symmetry_space_group_name_H-M "P 21/C"
_symmetry_group_IT_number 14
_symmetry_cell_setting 'monoclinic'
loop_
_space_group_symop_operation_xyz
x,y,z
-x,1/2+y,1/2-z
-x,-y,-z
x,1/2-y,1/2+z
loop_
_atom_site_type_symbol
_atom_site_label
_atom_site_fract_x
_atom_site_fract_y
_atom_site_fract_z
Si Si1 0.678930 0.847042 0.568536
Si Si2 0.912510 0.695923 0.045545
Si Si3 0.630579 0.020229 0.302412
Si Si4 0.497983 0.146258 0.220301
Si Si5 0.276796 0.924810 0.234980
Si Si6 0.909876 0.392789 0.793879
Si Si7 0.863051 0.221011 0.417715
Si Si8 0.745911 0.494115 0.807690
O O1 0.658324 0.903335 0.418617
O O2 0.550766 0.779190 0.367802
O O3 0.726472 0.939994 0.740796
O O4 0.787134 0.750712 0.759026
O O5 0.006761 0.680308 0.127776
O O6 0.986457 0.782457 0.263648
O O7 0.870230 0.576362 0.022906
O O8 0.738606 0.035258 0.416838
O O9 0.608854 0.130529 0.339184
O O10 0.500000 0.000000 0.000000
O O11 0.573250 0.118138 0.470081
O O12 0.384214 0.052506 0.984017
O O13 0.187769 0.849981 0.147275
O O14 0.223043 0.925903 0.016748
O O15 0.864004 0.307982 0.798761
O O16 0.000000 0.500000 0.000000
O O17 0.770226 0.128238 0.298382
#
# Coordination Sequence:
#
# PCOD8126600 Si02
#       8
#     4   4   4   4   4   4   4   4
#     4  10  21  41  63  93 131 162 214 272 315 396
#     4  10  23  39  65  96 126 172 215 265 323 382
#     4   9  20  38  65  92 121 168 209 258 325 380
#     4   9  21  41  65  92 130 162 212 270 326 382
#     4  10  24  40  66  97 125 172 213 266 330 384
#     4  11  22  44  66  94 131 173 216 269 327 379
#     4  11  24  40  68  88 137 166 218 272 319 389
#     4  10  21  42  65  94 126 175 213 268 324 381
#
# _framework density 20.829982000000001
#
# number of rings (size 3 to 8) (size 9 to 14) (size 15 to 20)
#    0.000    2.000    1.250    0.750    8.750    4.000 
#    4.500    1.875    0.000    0.000    0.000    0.000 
#    0.000    0.000    0.000    0.000    0.000    0.000 
#
# Total GULP energy -396482.460109 kJ/mol
# GULP energy per Si atom -12390.076878 kJ/mol
# Density = 2.078257 g / cm^3
# Si number density = 20.829982 Si / 1000 Ang^3
#
#
#
# Elastic Constant Matrix: (Units=GPa)
#
#
# Indices 1 2 3 4 5 6 
#
# 1 136.0679 53.5419 41.8205 0.0000 -6.9924 0.0000
# 2 53.5419 90.5163 37.1413 0.0000 -0.2483 0.0000
# 3 41.8205 37.1413 113.8783 0.0000 -22.2551 0.0000
# 4 0.0000 0.0000 0.0000 36.3484 0.0000 -0.0603
# 5 -6.9924 -0.2483 -22.2551 0.0000 33.7713 0.0000
# 6 0.0000 0.0000 0.0000 -0.0603 0.0000 22.3855
#
#
#
# Elastic Compliance Matrix: (Units=1/GPa)
#
#
# Indices 1 2 3 4 5 6 
#
# 1 0.009980 -0.005153 -0.001823 0.000000 0.000827 0.000000
# 2 -0.005153 0.015693 -0.003916 0.000000 -0.003532 0.000000
# 3 -0.001823 -0.003916 0.012223 0.000000 0.007648 0.000000
# 4 0.000000 0.000000 0.000000 0.027512 0.000000 0.000074
# 5 0.000827 -0.003532 0.007648 0.000000 0.034797 0.000000
# 6 0.000000 0.000000 0.000000 0.000074 0.000000 0.044672
#
#
# Mechanical properties :
#
#
# Convention : Reuss Voigt Hill
#
# Bulk Modulus (GPa) = 62.06651 67.27443 64.67047
# Shear Modulus (GPa) = 29.06474 32.36495 30.71485
#
# Velocity S-wave (km/s) = 3.73947 3.94606 3.84415
# Velocity P-wave (km/s) = 6.96464 7.28896 7.12864
#
# Compressibility (1/GPa) = 0.01611175
#
# Stress axis : x y z
#
# Youngs Moduli (GPa) = 100.20408 63.72238 81.81543
#
# Poissons Ratio (x) = 0.32836 0.14911
# Poissons Ratio (y) = 0.51635 0.32041
# Poissons Ratio (z) = 0.18263 0.24955
#
# Static dielectric constant tensor:
#      x y z
#    x 4.238610 0.000000 -0.340650 
#    y 0.000000 3.730010 0.000000 
#    z -0.340650 0.000000 4.344300 
# 
# 
# High freq. dielectric constant tensor:
#      x y z
#    x 1.799290 0.000000 -0.003300 
#    y 0.000000 1.812980 0.000000 
#    z -0.003300 0.000000 1.835640 
# 
# From -- ./inp_files/35923.got.cif
#   From: 2010.03.12/outbox.cif.g09.slc.cpg/sg14_18_cif.got.tgz:35923.got - 2010.03.31 13:35:05.
