data_PCOD8126875
_publ_section_title
;
Structure prediction by ZEFSAII (Michael W. Deem and Ramdas Pophale) SiO2 
 PCOD8126875
Probable space group: P 21/C
;
_chemical_formula_sum "Si O2"
_cell_formula_units_Z 28
_cell_length_a 20.896322
_cell_length_b 9.623633
_cell_length_c 8.869042
_cell_angle_alpha 90.000000
_cell_angle_beta 48.948581
_cell_angle_gamma 90.000000
_cell_volume 1345.012647
_symmetry_space_group_name_H-M "P 21/C"
_symmetry_group_IT_number 14
_symmetry_cell_setting 'monoclinic'
loop_
_space_group_symop_operation_xyz
x,y,z
-x,1/2+y,1/2-z
-x,-y,-z
x,1/2-y,1/2+z
loop_
_atom_site_type_symbol
_atom_site_label
_atom_site_fract_x
_atom_site_fract_y
_atom_site_fract_z
Si Si1 0.608707 0.179636 0.684261
Si Si2 0.689056 0.828707 0.186356
Si Si3 0.733106 0.573024 0.946696
Si Si4 0.089691 0.568844 0.342061
Si Si5 0.848111 0.282296 0.030519
Si Si6 0.499004 0.849202 0.427028
Si Si7 0.743588 0.108669 0.954029
O O1 0.533589 0.129251 0.691797
O O2 0.657117 0.313500 0.541979
O O3 0.677643 0.055493 0.597658
O O4 0.563572 0.233351 0.905634
O O5 0.691903 0.864741 0.358444
O O6 0.593782 0.791665 0.283223
O O7 0.740332 0.689228 0.065896
O O8 0.726698 0.951791 0.027032
O O9 0.828812 0.528960 0.759174
O O10 0.090629 0.686370 0.467160
O O11 0.000000 0.500000 0.500000
O O12 0.091880 0.629793 0.170838
O O13 0.801979 0.388961 0.215722
O O14 0.781515 0.191006 0.038795
O O15 0.500000 0.000000 0.500000
#
# Coordination Sequence:
#
# PCOD8126875 Si02
#       7
#     4   4   4   4   4   4   4
#     4  12  23  43  69  92 132 180 232 269 332 402
#     4  12  26  43  63 101 142 172 228 283 339 391
#     4  12  26  43  67  96 135 182 217 281 344 407
#     4  11  25  46  71 105 135 167 231 281 338 409
#     4  10  21  43  74  99 126 183 226 268 333 411
#     4  12  25  42  64  99 132 175 230 288 319 385
#     4  11  20  42  72  94 129 182 234 260 325 417
#
# _framework density 20.817647000000001
#
# number of rings (size 3 to 8) (size 9 to 14) (size 15 to 20)
#    0.000    0.571    7.143    1.714    2.000    1.714 
#    0.000    1.429    0.000    0.000    0.000    0.000 
#    0.000    0.000    0.000    0.000    0.000    0.000 
#
# Total GULP energy -347184.569931 kJ/mol
# GULP energy per Si atom -12399.448926 kJ/mol
# Density = 2.077027 g / cm^3
# Si number density = 20.817647 Si / 1000 Ang^3
#
#
#
# Elastic Constant Matrix: (Units=GPa)
#
#
# Indices 1 2 3 4 5 6 
#
# 1 67.8786 22.6705 50.1294 0.0000 -6.3012 0.0000
# 2 22.6705 115.6263 58.7036 0.0000 -1.3154 0.0000
# 3 50.1294 58.7036 121.6970 0.0000 -8.8030 0.0000
# 4 0.0000 0.0000 0.0000 38.7444 0.0000 -4.8620
# 5 -6.3012 -1.3154 -8.8030 0.0000 38.8853 0.0000
# 6 0.0000 0.0000 0.0000 -4.8620 0.0000 27.3431
#
#
#
# Elastic Compliance Matrix: (Units=1/GPa)
#
#
# Indices 1 2 3 4 5 6 
#
# 1 0.021266 0.000319 -0.008808 0.000000 0.001463 0.000000
# 2 0.000319 0.011488 -0.005735 0.000000 -0.000858 0.000000
# 3 -0.008808 -0.005735 0.014736 0.000000 0.001715 0.000000
# 4 0.000000 0.000000 0.000000 0.026399 0.000000 0.004694
# 5 0.001463 -0.000858 0.001715 0.000000 0.026313 0.000000
# 6 0.000000 0.000000 0.000000 0.004694 0.000000 0.037407
#
#
# Mechanical properties :
#
#
# Convention : Reuss Voigt Hill
#
# Bulk Modulus (GPa) = 52.51583 63.13432 57.82507
# Shear Modulus (GPa) = 29.00156 32.57444 30.78800
#
# Velocity S-wave (km/s) = 3.73651 3.95998 3.84987
# Velocity P-wave (km/s) = 6.62546 7.16253 6.89922
#
# Compressibility (1/GPa) = 0.01904188
#
# Stress axis : x y z
#
# Youngs Moduli (GPa) = 47.02263 87.04825 67.86234
#
# Poissons Ratio (x) = -0.02776 0.59773
# Poissons Ratio (y) = -0.01499 0.38918
# Poissons Ratio (z) = 0.41418 0.49921
#
# Static dielectric constant tensor:
#      x y z
#    x 3.827680 0.000000 0.094250 
#    y 0.000000 3.830580 0.000000 
#    z 0.094250 0.000000 4.049630 
# 
# 
# High freq. dielectric constant tensor:
#      x y z
#    x 1.811930 0.000000 0.011280 
#    y 0.000000 1.816870 0.000000 
#    z 0.011280 0.000000 1.816630 
# 
# From -- ./inp_files/18705.got.cif
#   From: 2010.03.12/outbox.cif.g09.slc.cpg/sg14_10_cif.got.tgz:18705.got - 2010.03.31 13:35:05.
