data_PCOD8126241
_publ_section_title
;
Structure prediction by ZEFSAII (Michael W. Deem and Ramdas Pophale) SiO2 
 PCOD8126241
Probable space group: P 21/C
;
_chemical_formula_sum "Si O2"
_cell_formula_units_Z 32
_cell_length_a 14.012496
_cell_length_b 18.521024
_cell_length_c 9.013529
_cell_angle_alpha 90.000000
_cell_angle_beta 135.522578
_cell_angle_gamma 90.000000
_cell_volume 1638.939554
_symmetry_space_group_name_H-M "P 21/C"
_symmetry_group_IT_number 14
_symmetry_cell_setting 'monoclinic'
loop_
_space_group_symop_operation_xyz
x,y,z
-x,1/2+y,1/2-z
-x,-y,-z
x,1/2-y,1/2+z
loop_
_atom_site_type_symbol
_atom_site_label
_atom_site_fract_x
_atom_site_fract_y
_atom_site_fract_z
Si Si1 0.203087 0.947457 0.555164
Si Si2 0.308597 0.708934 0.841449
Si Si3 0.344540 0.944611 0.432757
Si Si4 0.722741 0.914620 0.197563
Si Si5 0.568145 0.134247 0.022037
Si Si6 0.006915 0.340230 0.047567
Si Si7 0.120821 0.734580 0.369549
Si Si8 0.389399 0.982045 0.166781
O O1 0.206894 0.946905 0.379532
O O2 0.338181 0.902537 0.749959
O O3 0.069301 0.911500 0.476444
O O4 0.211280 0.030657 0.611643
O O5 0.399542 0.637784 0.970059
O O6 0.400112 0.780796 0.951186
O O7 0.233744 0.698091 0.600424
O O8 0.196407 0.708531 0.847575
O O9 0.309129 0.976627 0.232445
O O10 0.456841 0.992354 0.638715
O O11 0.832265 0.853004 0.282356
O O12 0.589347 0.875778 0.112839
O O13 0.691515 0.959135 0.015728
O O14 0.603293 0.095537 0.905867
O O15 0.985676 0.275455 0.141182
O O16 0.951369 0.323159 0.819819
#
# Coordination Sequence:
#
# PCOD8126241 Si02
#       8
#     4   4   4   4   4   4   4   4
#     4  11  19  39  65  86 119 167 209 246 296 380
#     4  11  20  35  65  88 114 155 223 249 295 360
#     4  11  20  36  60  96 123 158 202 267 299 351
#     4  11  23  40  60  91 125 166 202 246 316 373
#     4  11  19  39  65  92 120 165 209 255 301 374
#     4  11  23  42  63  88 123 162 206 251 307 375
#     4  10  21  39  61  86 115 161 202 258 301 358
#     4  10  22  37  60  90 136 156 196 254 324 353
#
# _framework density 19.524819000000001
#
# number of rings (size 3 to 8) (size 9 to 14) (size 15 to 20)
#    0.000    1.250    6.250    1.875    1.750    0.000 
#    2.250    3.125    0.000    0.000    0.000    0.000 
#    0.000    0.000    0.000    0.000    0.000    0.000 
#
# Total GULP energy -396674.033036 kJ/mol
# GULP energy per Si atom -12396.063532 kJ/mol
# Density = 1.948038 g / cm^3
# Si number density = 19.524819 Si / 1000 Ang^3
#
#
#
# Elastic Constant Matrix: (Units=GPa)
#
#
# Indices 1 2 3 4 5 6 
#
# 1 104.5018 24.9026 51.6989 0.0000 -10.8078 0.0000
# 2 24.9026 71.2090 21.2246 0.0000 -13.2368 0.0000
# 3 51.6989 21.2246 74.6801 0.0000 -17.2507 0.0000
# 4 0.0000 0.0000 0.0000 25.6734 0.0000 7.1321
# 5 -10.8078 -13.2368 -17.2507 0.0000 35.7820 0.0000
# 6 0.0000 0.0000 0.0000 7.1321 0.0000 27.6953
#
#
#
# Elastic Compliance Matrix: (Units=1/GPa)
#
#
# Indices 1 2 3 4 5 6 
#
# 1 0.014943 -0.002492 -0.009911 0.000000 -0.001186 0.000000
# 2 -0.002492 0.016291 -0.001898 0.000000 0.004359 0.000000
# 3 -0.009911 -0.001898 0.022435 0.000000 0.007121 0.000000
# 4 0.000000 0.000000 0.000000 0.041952 0.000000 -0.010803
# 5 -0.001186 0.004359 0.007121 0.000000 0.032634 0.000000
# 6 0.000000 0.000000 0.000000 -0.010803 0.000000 0.038889
#
#
# Mechanical properties :
#
#
# Convention : Reuss Voigt Hill
#
# Bulk Modulus (GPa) = 39.89117 49.56034 44.72576
# Shear Modulus (GPa) = 24.49752 28.00112 26.24932
#
# Velocity S-wave (km/s) = 3.54600 3.79110 3.67059
# Velocity P-wave (km/s) = 6.10253 6.67844 6.39697
#
# Compressibility (1/GPa) = 0.02506820
#
# Stress axis : x y z
#
# Youngs Moduli (GPa) = 66.91920 61.38494 44.57232
#
# Poissons Ratio (x) = 0.15300 0.44174
# Poissons Ratio (y) = 0.16679 0.08458
# Poissons Ratio (z) = 0.66321 0.11649
#
# Static dielectric constant tensor:
#      x y z
#    x 3.627890 0.000000 -0.323620 
#    y 0.000000 3.520360 0.000000 
#    z -0.323620 0.000000 3.503120 
# 
# 
# High freq. dielectric constant tensor:
#      x y z
#    x 1.765160 0.000000 -0.028330 
#    y 0.000000 1.758130 0.000000 
#    z -0.028330 0.000000 1.741340 
# 
# From -- ./inp_files/16812.got.cif
#   From: 2010.03.12/outbox.cif.g09.slc.cpg/sg14_9_cif.got.tgz:16812.got - 2010.03.31 13:35:05.
