data_PCOD8126911
_publ_section_title
;
Structure prediction by ZEFSAII (Michael W. Deem and Ramdas Pophale) SiO2 
 PCOD8126911
Probable space group: P 21/C
;
_chemical_formula_sum "Si O2"
_cell_formula_units_Z 32
_cell_length_a 15.909523
_cell_length_b 8.603912
_cell_length_c 10.754025
_cell_angle_alpha 90.000000
_cell_angle_beta 75.448232
_cell_angle_gamma 90.000000
_cell_volume 1424.833385
_symmetry_space_group_name_H-M "P 21/C"
_symmetry_group_IT_number 14
_symmetry_cell_setting 'monoclinic'
loop_
_space_group_symop_operation_xyz
x,y,z
-x,1/2+y,1/2-z
-x,-y,-z
x,1/2-y,1/2+z
loop_
_atom_site_type_symbol
_atom_site_label
_atom_site_fract_x
_atom_site_fract_y
_atom_site_fract_z
Si Si1 0.858539 0.058222 0.499982
Si Si2 0.540889 0.585318 0.603318
Si Si3 0.146738 0.872839 0.879982
Si Si4 0.540615 0.418859 0.864750
Si Si5 0.271430 0.011302 0.024323
Si Si6 0.276491 0.678189 0.122370
Si Si7 0.964396 0.581022 0.740486
Si Si8 0.122948 0.088974 0.250440
O O1 0.891975 0.231761 0.524078
O O2 0.762370 0.073709 0.475570
O O3 0.928239 0.986534 0.382249
O O4 0.851445 0.941511 0.617403
O O5 0.500000 0.500000 0.500000
O O6 0.520660 0.501252 0.741476
O O7 0.498699 0.750689 0.632609
O O8 0.643835 0.608761 0.543782
O O9 0.199108 0.793164 0.748212
O O10 0.068471 0.980593 0.863712
O O11 0.212516 0.985482 0.926271
O O12 0.643996 0.412009 0.845460
O O13 0.500000 0.500000 0.000000
O O14 0.213757 0.108665 0.144094
O O15 0.306105 0.846774 0.064062
O O16 0.937694 0.759487 0.737006
O O17 0.068809 0.557141 0.711355
#
# Coordination Sequence:
#
# PCOD8126911 Si02
#       8
#     4   4   4   4   4   4   4   4
#     4  10  23  44  71  98 136 183 234 290 343 423
#     4  12  26  47  75 111 148 187 244 301 365 440
#     4  10  21  44  72  98 135 182 238 282 349 423
#     4  12  27  48  74 109 146 194 237 303 367 439
#     4  11  24  43  73 102 140 186 234 293 353 423
#     4  10  21  44  75 102 135 190 234 279 362 430
#     4  11  27  44  68 102 143 183 239 290 356 415
#     4  12  26  45  68 103 141 187 237 296 355 415
#
# _framework density 22.458765
#
# number of rings (size 3 to 8) (size 9 to 14) (size 15 to 20)
#    0.000    1.000    3.750    1.875    5.250    3.500 
#    2.250    0.000    0.000    0.000    0.000    0.000 
#    0.000    0.000    0.000    0.000    0.000    0.000 
#
# Total GULP energy -396899.924351 kJ/mol
# GULP energy per Si atom -12403.122636 kJ/mol
# Density = 2.240765 g / cm^3
# Si number density = 22.458765 Si / 1000 Ang^3
#
#
#
# Elastic Constant Matrix: (Units=GPa)
#
#
# Indices 1 2 3 4 5 6 
#
# 1 104.3654 43.3031 51.3950 0.0000 9.7156 0.0000
# 2 43.3031 104.9210 50.6165 0.0000 9.9727 0.0000
# 3 51.3950 50.6165 109.8030 0.0000 20.9261 0.0000
# 4 0.0000 0.0000 0.0000 37.2616 0.0000 5.2949
# 5 9.7156 9.9727 20.9261 0.0000 42.7507 0.0000
# 6 0.0000 0.0000 0.0000 5.2949 0.0000 36.6020
#
#
#
# Elastic Compliance Matrix: (Units=1/GPa)
#
#
# Indices 1 2 3 4 5 6 
#
# 1 0.013228 -0.003180 -0.004736 0.000000 0.000054 0.000000
# 2 -0.003180 0.013022 -0.004492 0.000000 -0.000116 0.000000
# 3 -0.004736 -0.004492 0.014326 0.000000 -0.004888 0.000000
# 4 0.000000 0.000000 0.000000 0.027401 0.000000 -0.003964
# 5 0.000054 -0.000116 -0.004888 0.000000 0.025799 0.000000
# 6 0.000000 0.000000 0.000000 -0.003964 0.000000 0.027894
#
#
# Mechanical properties :
#
#
# Convention : Reuss Voigt Hill
#
# Bulk Modulus (GPa) = 63.45147 67.74652 65.59899
# Shear Modulus (GPa) = 32.95109 34.90786 33.92947
#
# Velocity S-wave (km/s) = 3.83454 3.94675 3.89105
# Velocity P-wave (km/s) = 6.92233 7.14139 7.03271
#
# Compressibility (1/GPa) = 0.01576008
#
# Stress axis : x y z
#
# Youngs Moduli (GPa) = 75.59454 76.79590 69.80112
#
# Poissons Ratio (x) = 0.24421 0.33059
# Poissons Ratio (y) = 0.24039 0.31355
# Poissons Ratio (z) = 0.35803 0.34497
#
# Static dielectric constant tensor:
#      x y z
#    x 4.170300 0.000000 0.161890 
#    y 0.000000 3.876950 0.000000 
#    z 0.161890 0.000000 4.197870 
# 
# 
# High freq. dielectric constant tensor:
#      x y z
#    x 1.892940 0.000000 0.011340 
#    y 0.000000 1.876770 0.000000 
#    z 0.011340 0.000000 1.900500 
# 
# From -- ./inp_files/31781.got.cif
#   From: 2010.03.12/outbox.cif.g09.slc.cpg/sg14_16_cif.got.tgz:31781.got - 2010.03.31 13:35:05.
