data_PCOD8126208
_publ_section_title
;
Structure prediction by ZEFSAII (Michael W. Deem and Ramdas Pophale) SiO2 
 PCOD8126208
Probable space group: P 21/C
;
_chemical_formula_sum "Si O2"
_cell_formula_units_Z 24
_cell_length_a 19.730231
_cell_length_b 5.199351
_cell_length_c 12.755502
_cell_angle_alpha 90.000000
_cell_angle_beta 60.832891
_cell_angle_gamma 90.000000
_cell_volume 1142.598317
_symmetry_space_group_name_H-M "P 21/C"
_symmetry_group_IT_number 14
_symmetry_cell_setting 'monoclinic'
loop_
_space_group_symop_operation_xyz
x,y,z
-x,1/2+y,1/2-z
-x,-y,-z
x,1/2-y,1/2+z
loop_
_atom_site_type_symbol
_atom_site_label
_atom_site_fract_x
_atom_site_fract_y
_atom_site_fract_z
Si Si1 0.597075 0.941580 0.222521
Si Si2 0.875928 0.964430 0.157022
Si Si3 0.161766 0.856965 0.599474
Si Si4 0.976942 0.198001 0.431009
Si Si5 0.226338 0.352244 0.448220
Si Si6 0.473664 0.946245 0.136511
O O1 0.550010 0.955642 0.150114
O O2 0.571570 0.175844 0.317779
O O3 0.686701 0.953631 0.126683
O O4 0.584686 0.672429 0.289289
O O5 0.809152 0.814166 0.142528
O O6 0.836291 0.143278 0.274999
O O7 0.922711 0.097420 0.028835
O O8 0.939355 0.796556 0.173806
O O9 0.073667 0.918349 0.625885
O O10 0.185328 0.572183 0.547848
O O11 0.219499 0.077966 0.512087
O O12 0.000000 0.000000 0.500000
O O13 0.500000 0.000000 0.000000
#
# Coordination Sequence:
#
# PCOD8126208 Si02
#       6
#     4   4   4   4   4   4
#     4  10  22  39  62  88 127 152 193 246 285 346
#     4  10  24  38  59  85 116 154 199 250 301 347
#     4  11  25  38  62  85 117 158 202 240 301 356
#     4  10  21  39  57  81 113 150 199 251 291 346
#     4  11  24  42  57  91 122 155 195 244 297 355
#     4  10  21  39  64  93 116 159 198 233 288 351
#
# _framework density 21.004756
#
# number of rings (size 3 to 8) (size 9 to 14) (size 15 to 20)
#    0.000    1.667    1.667    1.500    4.667    2.667 
#    0.000    0.000    0.000    0.000    0.000    0.000 
#    0.000    0.000    0.000    0.000    0.000    0.000 
#
# Total GULP energy -297459.601087 kJ/mol
# GULP energy per Si atom -12394.150045 kJ/mol
# Density = 2.095695 g / cm^3
# Si number density = 21.004756 Si / 1000 Ang^3
#
#
#
# Elastic Constant Matrix: (Units=GPa)
#
#
# Indices 1 2 3 4 5 6 
#
# 1 74.4898 16.1392 37.2634 0.0000 -17.6690 0.0000
# 2 16.1392 76.8481 6.6501 0.0000 -1.1088 0.0000
# 3 37.2634 6.6501 89.5927 0.0000 8.6276 0.0000
# 4 0.0000 0.0000 0.0000 23.9155 0.0000 -4.7206
# 5 -17.6690 -1.1088 8.6276 0.0000 27.8910 0.0000
# 6 0.0000 0.0000 0.0000 -4.7206 0.0000 26.0268
#
#
#
# Elastic Compliance Matrix: (Units=1/GPa)
#
#
# Indices 1 2 3 4 5 6 
#
# 1 0.024750 -0.003895 -0.011853 0.000000 0.019191 0.000000
# 2 -0.003895 0.013729 0.000810 0.000000 -0.002172 0.000000
# 3 -0.011853 0.000810 0.017266 0.000000 -0.012817 0.000000
# 4 0.000000 0.000000 0.000000 0.043366 0.000000 0.007866
# 5 0.019191 -0.002172 -0.012817 0.000000 0.051890 0.000000
# 6 0.000000 0.000000 0.000000 0.007866 0.000000 0.039849
#
#
# Mechanical properties :
#
#
# Convention : Reuss Voigt Hill
#
# Bulk Modulus (GPa) = 38.65617 40.11511 39.38564
# Shear Modulus (GPa) = 21.80083 27.62518 24.71301
#
# Velocity S-wave (km/s) = 3.22514 3.63048 3.43380
# Velocity P-wave (km/s) = 5.68438 6.05916 5.87476
#
# Compressibility (1/GPa) = 0.02586909
#
# Stress axis : x y z
#
# Youngs Moduli (GPa) = 40.40378 72.83705 57.91840
#
# Poissons Ratio (x) = 0.28372 0.68651
# Poissons Ratio (y) = 0.15738 -0.04693
# Poissons Ratio (z) = 0.47891 -0.05902
#
# Static dielectric constant tensor:
#      x y z
#    x 3.689870 0.000000 0.499400 
#    y 0.000000 1.177770 0.000000 
#    z 0.499400 0.000000 3.190620 
# 
# 
# High freq. dielectric constant tensor:
#      x y z
#    x 1.824620 0.000000 0.003600 
#    y 0.000000 1.826280 0.000000 
#    z 0.003600 0.000000 1.818350 
# 
# From -- ./inp_files/34554.got.cif
#   From: 2010.03.12/outbox.cif.g09.slc.cpg/sg14_18_cif.got.tgz:34554.got - 2010.03.31 13:35:05.
