data_PCOD8126752
_publ_section_title
;
Structure prediction by ZEFSAII (Michael W. Deem and Ramdas Pophale) SiO2 
 PCOD8126752
Probable space group: P 21/C
;
_chemical_formula_sum "Si O2"
_cell_formula_units_Z 32
_cell_length_a 19.854706
_cell_length_b 8.337830
_cell_length_c 26.540565
_cell_angle_alpha 90.000000
_cell_angle_beta 19.173140
_cell_angle_gamma 90.000000
_cell_volume 1442.983626
_symmetry_space_group_name_H-M "P 21/C"
_symmetry_group_IT_number 14
_symmetry_cell_setting 'monoclinic'
loop_
_space_group_symop_operation_xyz
x,y,z
-x,1/2+y,1/2-z
-x,-y,-z
x,1/2-y,1/2+z
loop_
_atom_site_type_symbol
_atom_site_label
_atom_site_fract_x
_atom_site_fract_y
_atom_site_fract_z
Si Si1 0.064832 0.958290 0.660007
Si Si2 0.022526 0.321653 0.672519
Si Si3 0.954158 0.173547 0.968733
Si Si4 0.358903 0.763670 0.125200
Si Si5 0.253515 0.379606 0.696469
Si Si6 0.518184 0.154187 0.675040
Si Si7 0.642733 0.028087 0.117431
Si Si8 0.258192 0.574790 0.288779
O O1 0.247333 0.871036 0.503450
O O2 0.066031 0.913014 0.717236
O O3 0.858253 0.902148 0.778171
O O4 0.099684 0.147090 0.632636
O O5 0.224336 0.415353 0.512343
O O6 0.841165 0.311942 0.759688
O O7 0.111796 0.312675 0.841539
O O8 0.789860 0.154561 0.041119
O O9 0.833407 0.205899 0.106796
O O10 0.068323 0.003080 0.893414
O O11 0.400868 0.665364 0.147223
O O12 0.329743 0.948417 0.161932
O O13 0.556595 0.756940 0.948296
O O14 0.486997 0.349707 0.697754
O O15 0.479611 0.083641 0.757752
O O16 0.375752 0.069545 0.734159
#
# Coordination Sequence:
#
# PCOD8126752 Si02
#       8
#     4   4   4   4   4   4   4   4
#     4  11  24  41  63  98 132 174 220 269 321 392
#     4  11  24  42  67  95 133 175 218 268 329 387
#     4  10  21  42  64  93 128 170 212 272 321 385
#     4  10  23  44  67  98 131 175 219 268 323 389
#     4  10  23  43  65  94 138 171 217 270 324 383
#     4  11  24  41  66  96 129 170 222 270 329 391
#     4  11  22  45  66  93 130 173 217 272 333 394
#     4  10  23  40  67  97 127 166 227 262 320 393
#
# _framework density 22.176273999999999
#
# number of rings (size 3 to 8) (size 9 to 14) (size 15 to 20)
#    0.000    1.500    2.500    1.500    3.500    1.000 
#    2.250    0.000    0.000    0.000    0.000    0.000 
#    0.000    0.000    0.000    0.000    0.000    0.000 
#
# Total GULP energy -396749.728210 kJ/mol
# GULP energy per Si atom -12398.429007 kJ/mol
# Density = 2.212580 g / cm^3
# Si number density = 22.176274 Si / 1000 Ang^3
#
#
#
# Elastic Constant Matrix: (Units=GPa)
#
#
# Indices 1 2 3 4 5 6 
#
# 1 73.8011 48.7981 26.4475 0.0000 23.2774 0.0000
# 2 48.7981 116.4659 57.8472 0.0000 15.9581 0.0000
# 3 26.4475 57.8472 115.1081 0.0000 18.2858 0.0000
# 4 0.0000 0.0000 0.0000 46.9174 0.0000 4.3323
# 5 23.2774 15.9581 18.2858 0.0000 33.1891 0.0000
# 6 0.0000 0.0000 0.0000 4.3323 0.0000 28.1357
#
#
#
# Elastic Compliance Matrix: (Units=1/GPa)
#
#
# Indices 1 2 3 4 5 6 
#
# 1 0.022552 -0.008204 0.000907 0.000000 -0.012372 0.000000
# 2 -0.008204 0.014628 -0.005768 0.000000 0.001898 0.000000
# 3 0.000907 -0.005768 0.012097 0.000000 -0.004528 0.000000
# 4 0.000000 0.000000 0.000000 0.021621 0.000000 -0.003329
# 5 -0.012372 0.001898 -0.004528 0.000000 0.040389 0.000000
# 6 0.000000 0.000000 0.000000 -0.003329 0.000000 0.036055
#
#
# Mechanical properties :
#
#
# Convention : Reuss Voigt Hill
#
# Bulk Modulus (GPa) = 43.20315 63.50673 53.35494
# Shear Modulus (GPa) = 27.59549 33.13393 30.36471
#
# Velocity S-wave (km/s) = 3.53139 3.86957 3.70434
# Velocity P-wave (km/s) = 6.01262 6.97597 6.51214
#
# Compressibility (1/GPa) = 0.02314646
#
# Stress axis : x y z
#
# Youngs Moduli (GPa) = 44.34239 68.35974 82.66446
#
# Poissons Ratio (x) = 0.56084 -0.07496
# Poissons Ratio (y) = 0.36379 0.47681
# Poissons Ratio (z) = -0.04021 0.39430
#
# Static dielectric constant tensor:
#      x y z
#    x 3.921880 0.000000 0.062950 
#    y 0.000000 3.989240 0.000000 
#    z 0.062950 0.000000 4.080270 
# 
# 
# High freq. dielectric constant tensor:
#      x y z
#    x 1.866740 0.000000 0.007090 
#    y 0.000000 1.871450 0.000000 
#    z 0.007090 0.000000 1.882080 
# 
# From -- ./inp_files/77990.got.cif
#   From: 2010.03.12/outbox.cif.g09.slc.cpg/sg14_39_cif.got.tgz:77990.got - 2010.03.31 13:35:05.
