data_PCOD8126575
_publ_section_title
;
Structure prediction by ZEFSAII (Michael W. Deem and Ramdas Pophale) SiO2 
 PCOD8126575
Probable space group: P 21/C
;
_chemical_formula_sum "Si O2"
_cell_formula_units_Z 32
_cell_length_a 9.259228
_cell_length_b 23.239548
_cell_length_c 8.079054
_cell_angle_alpha 90.000000
_cell_angle_beta 56.595814
_cell_angle_gamma 90.000000
_cell_volume 1451.273893
_symmetry_space_group_name_H-M "P 21/C"
_symmetry_group_IT_number 14
_symmetry_cell_setting 'monoclinic'
loop_
_space_group_symop_operation_xyz
x,y,z
-x,1/2+y,1/2-z
-x,-y,-z
x,1/2-y,1/2+z
loop_
_atom_site_type_symbol
_atom_site_label
_atom_site_fract_x
_atom_site_fract_y
_atom_site_fract_z
Si Si1 0.119477 0.824968 0.329902
Si Si2 0.619478 0.324968 0.829901
Si Si3 0.046074 0.424293 0.869398
Si Si4 0.250001 0.346755 0.499999
Si Si5 0.028467 0.791161 0.030156
Si Si6 0.750000 0.509910 0.999999
Si Si7 0.546074 0.575707 0.869399
Si Si8 0.528468 0.291160 0.530156
O O1 0.070591 0.776903 0.497738
O O2 0.067621 0.887301 0.429452
O O3 0.017169 0.810150 0.227013
O O4 0.323883 0.825597 0.164066
O O5 0.823884 0.325598 0.664066
O O6 0.517170 0.310149 0.727012
O O7 0.567621 0.387301 0.929450
O O8 0.570592 0.276904 0.997737
O O9 0.112140 0.386224 0.678335
O O10 0.210992 0.451298 0.862272
O O11 0.922978 0.472229 0.863979
O O12 0.387863 0.386223 0.321663
O O13 0.343100 0.305018 0.570902
O O14 0.156901 0.305018 0.429098
O O15 0.577022 0.472230 0.136020
O O16 0.710994 0.548702 0.862271
#
# Coordination Sequence:
#
# PCOD8126575 Si02
#       8
#     4   4   4   4   4   4   4   4
#     4  10  21  41  62  86 125 161 192 236 293 357
#     4  10  21  41  62  86 125 161 192 236 293 357
#     4  11  23  41  62  86 119 156 199 249 294 343
#     4  12  24  37  62  94 120 151 194 246 298 352
#     4  10  22  37  62  95 122 156 193 232 296 366
#     4  10  24  43  62  82 112 159 206 248 296 342
#     4  11  23  41  62  86 119 156 199 249 294 343
#     4  10  22  37  62  95 122 156 193 232 296 366
#
# _framework density 22.049593000000002
#
# number of rings (size 3 to 8) (size 9 to 14) (size 15 to 20)
#    0.000    1.500    0.000    4.500    0.000   10.000 
#    0.000   10.000    0.000    0.000    0.000    0.000 
#    0.000    0.000    0.000    0.000    0.000    0.000 
#
# Total GULP energy -396952.241562 kJ/mol
# GULP energy per Si atom -12404.757549 kJ/mol
# Density = 2.199941 g / cm^3
# Si number density = 22.049593 Si / 1000 Ang^3
#
#
#
# Elastic Constant Matrix: (Units=GPa)
#
#
# Indices 1 2 3 4 5 6 
#
# 1 122.6941 19.8527 -3.9127 0.0000 4.5020 0.0000
# 2 19.8527 89.9394 22.1883 0.0000 1.9718 0.0000
# 3 -3.9127 22.1883 55.0083 0.0000 5.7949 0.0000
# 4 0.0000 0.0000 0.0000 20.5578 0.0000 2.1616
# 5 4.5020 1.9718 5.7949 0.0000 22.1474 0.0000
# 6 0.0000 0.0000 0.0000 2.1616 0.0000 38.0560
#
#
#
# Elastic Compliance Matrix: (Units=1/GPa)
#
#
# Indices 1 2 3 4 5 6 
#
# 1 0.008652 -0.002299 0.001755 0.000000 -0.002013 0.000000
# 2 -0.002299 0.012959 -0.005469 0.000000 0.000744 0.000000
# 3 0.001755 -0.005469 0.021077 0.000000 -0.005385 0.000000
# 4 0.000000 0.000000 0.000000 0.048936 0.000000 -0.002780
# 5 -0.002013 0.000744 -0.005385 0.000000 0.046904 0.000000
# 6 0.000000 0.000000 0.000000 -0.002780 0.000000 0.026435
#
#
# Mechanical properties :
#
#
# Convention : Reuss Voigt Hill
#
# Bulk Modulus (GPa) = 32.61345 38.21093 35.41219
# Shear Modulus (GPa) = 26.70811 31.45315 29.08063
#
# Velocity S-wave (km/s) = 3.48411 3.78097 3.63557
# Velocity P-wave (km/s) = 5.56852 6.03557 5.80674
#
# Compressibility (1/GPa) = 0.03066219
#
# Stress axis : x y z
#
# Youngs Moduli (GPa) = 115.57891 77.16724 47.44481
#
# Poissons Ratio (x) = 0.17737 -0.08325
# Poissons Ratio (y) = 0.26566 0.25948
# Poissons Ratio (z) = -0.20280 0.42203
#
# Static dielectric constant tensor:
#      x y z
#    x 4.127620 0.000000 0.033040 
#    y 0.000000 4.005860 0.000000 
#    z 0.033040 0.000000 3.714070 
# 
# 
# High freq. dielectric constant tensor:
#      x y z
#    x 1.888010 0.000000 0.003960 
#    y 0.000000 1.866550 0.000000 
#    z 0.003960 0.000000 1.851930 
# 
# From -- ./inp_files/10806.got.cif
#   From: 2010.03.12/outbox.cif.g09.slc.cpg/sg14_6_cif.got.tgz:10806.got - 2010.03.31 13:35:05.
