data_PCOD8126390
_publ_section_title
;
Structure prediction by ZEFSAII (Michael W. Deem and Ramdas Pophale) SiO2 
 PCOD8126390
Probable space group: P 21/C
;
_chemical_formula_sum "Si O2"
_cell_formula_units_Z 24
_cell_length_a 17.753781
_cell_length_b 8.541807
_cell_length_c 15.184341
_cell_angle_alpha 90.000000
_cell_angle_beta 148.884924
_cell_angle_gamma 90.000000
_cell_volume 1189.937876
_symmetry_space_group_name_H-M "P 21/C"
_symmetry_group_IT_number 14
_symmetry_cell_setting 'monoclinic'
loop_
_space_group_symop_operation_xyz
x,y,z
-x,1/2+y,1/2-z
-x,-y,-z
x,1/2-y,1/2+z
loop_
_atom_site_type_symbol
_atom_site_label
_atom_site_fract_x
_atom_site_fract_y
_atom_site_fract_z
Si Si1 0.417080 0.160145 0.903123
Si Si2 0.083838 0.691902 0.749398
Si Si3 0.082114 0.336985 0.075221
Si Si4 0.895133 0.823102 0.715185
Si Si5 0.412414 0.197034 0.089959
Si Si6 0.399750 0.675531 0.573127
O O1 0.248038 0.128345 0.714087
O O2 0.492204 0.243773 0.894598
O O3 0.434009 0.258684 0.010856
O O4 0.500000 0.000000 0.000000
O O5 0.100785 0.508418 0.777137
O O6 0.985241 0.726481 0.566389
O O7 0.016976 0.764042 0.770426
O O8 0.239113 0.770504 0.888617
O O9 0.069734 0.248553 0.154979
O O10 0.000000 0.500000 0.000000
O O11 0.736763 0.769656 0.521442
O O12 0.550016 0.253171 0.283783
O O13 0.401953 0.010660 0.081071
#
# Coordination Sequence:
#
# PCOD8126390 Si02
#       6
#     4   4   4   4   4   4
#     4   9  20  38  60  86 119 157 197 241 299 365
#     4  12  24  40  62  90 121 163 207 258 312 366
#     4  11  22  40  65  92 125 161 202 256 311 369
#     4  11  24  42  61  88 123 161 210 258 308 369
#     4  10  21  40  60  87 120 159 202 251 302 362
#     4  11  22  38  62  89 121 161 204 252 307 365
#
# _framework density 20.169119999999999
#
# number of rings (size 3 to 8) (size 9 to 14) (size 15 to 20)
#    0.000    1.333    0.000    7.500    0.000    5.333 
#    0.000    9.167    0.000    0.000    0.000    0.000 
#    0.000    0.000    0.000    0.000    0.000    0.000 
#
# Total GULP energy -297661.907211 kJ/mol
# GULP energy per Si atom -12402.579467 kJ/mol
# Density = 2.012321 g / cm^3
# Si number density = 20.169120 Si / 1000 Ang^3
#
#
#
# Elastic Constant Matrix: (Units=GPa)
#
#
# Indices 1 2 3 4 5 6 
#
# 1 120.5947 16.1605 50.3556 0.0000 9.4867 0.0000
# 2 16.1605 89.4510 17.8737 0.0000 -6.3292 0.0000
# 3 50.3556 17.8737 137.4621 0.0000 1.7074 0.0000
# 4 0.0000 0.0000 0.0000 43.0438 0.0000 -3.3385
# 5 9.4867 -6.3292 1.7074 0.0000 34.9741 0.0000
# 6 0.0000 0.0000 0.0000 -3.3385 0.0000 30.6392
#
#
#
# Elastic Compliance Matrix: (Units=1/GPa)
#
#
# Indices 1 2 3 4 5 6 
#
# 1 0.010160 -0.001333 -0.003513 0.000000 -0.002826 0.000000
# 2 -0.001333 0.011817 -0.001080 0.000000 0.002553 0.000000
# 3 -0.003513 -0.001080 0.008698 0.000000 0.000333 0.000000
# 4 0.000000 0.000000 0.000000 0.023430 0.000000 0.002553
# 5 -0.002826 0.002553 0.000333 0.000000 0.029805 0.000000
# 6 0.000000 0.000000 0.000000 0.002553 0.000000 0.032916
#
#
# Mechanical properties :
#
#
# Convention : Reuss Voigt Hill
#
# Bulk Modulus (GPa) = 53.13031 57.36528 55.24780
# Shear Modulus (GPa) = 37.04985 39.27260 38.16122
#
# Velocity S-wave (km/s) = 4.29063 4.41746 4.35450
# Velocity P-wave (km/s) = 7.13762 7.38393 7.26182
#
# Compressibility (1/GPa) = 0.01882165
#
# Stress axis : x y z
#
# Youngs Moduli (GPa) = 98.42211 84.62680 114.96824
#
# Poissons Ratio (x) = 0.11285 0.40394
# Poissons Ratio (y) = 0.13124 0.12413
# Poissons Ratio (z) = 0.34580 0.09137
#
# Static dielectric constant tensor:
#      x y z
#    x 4.408140 0.000000 -0.002070 
#    y 0.000000 4.640940 0.000000 
#    z -0.002070 0.000000 3.552340 
# 
# 
# High freq. dielectric constant tensor:
#      x y z
#    x 1.805270 0.000000 -0.001840 
#    y 0.000000 1.780020 0.000000 
#    z -0.001840 0.000000 1.804220 
# 
# From -- ./inp_files/38980.got.cif
#   From: 2010.03.12/outbox.cif.g09.slc.cpg/sg14_20_cif.got.tgz:38980.got - 2010.03.31 13:35:05.
