data_PCOD8126351
_publ_section_title
;
Structure prediction by ZEFSAII (Michael W. Deem and Ramdas Pophale) SiO2 
 PCOD8126351
Probable space group: P 21/C
;
_chemical_formula_sum "Si O2"
_cell_formula_units_Z 32
_cell_length_a 20.135859
_cell_length_b 9.902528
_cell_length_c 19.611412
_cell_angle_alpha 90.000000
_cell_angle_beta 22.245643
_cell_angle_gamma 90.000000
_cell_volume 1480.405690
_symmetry_space_group_name_H-M "P 21/C"
_symmetry_group_IT_number 14
_symmetry_cell_setting 'monoclinic'
loop_
_space_group_symop_operation_xyz
x,y,z
-x,1/2+y,1/2-z
-x,-y,-z
x,1/2-y,1/2+z
loop_
_atom_site_type_symbol
_atom_site_label
_atom_site_fract_x
_atom_site_fract_y
_atom_site_fract_z
Si Si1 0.056470 0.816014 0.054080
Si Si2 0.709426 0.945758 0.346238
Si Si3 0.192842 0.438380 0.501289
Si Si4 0.792643 0.248491 0.226520
Si Si5 0.447299 0.252992 0.110578
Si Si6 0.125461 0.335480 0.988527
Si Si7 0.570614 0.066260 0.606884
Si Si8 0.092402 0.579389 0.119176
O O1 0.132770 0.962996 0.998107
O O2 0.055549 0.725641 0.122596
O O3 0.862865 0.835408 0.207937
O O4 0.174428 0.742808 0.885150
O O5 0.591357 0.890535 0.396093
O O6 0.606868 0.948791 0.516346
O O7 0.788849 0.092604 0.254440
O O8 0.154476 0.287057 0.512980
O O9 0.400965 0.466653 0.315664
O O10 0.082339 0.466832 0.674544
O O11 0.605401 0.322007 0.420216
O O12 0.939722 0.328102 0.128134
O O13 0.276536 0.161914 0.286146
O O14 0.523930 0.296637 0.111107
O O15 0.135396 0.473863 0.019620
O O16 0.742294 0.090772 0.488199
#
# Coordination Sequence:
#
# PCOD8126351 Si02
#       8
#     4   4   4   4   4   4   4   4
#     4  12  23  40  69  95 126 166 213 264 314 373
#     4  11  19  40  69  99 121 153 216 280 308 354
#     4  11  22  42  68  90 118 168 215 264 312 365
#     4  11  20  39  67  94 122 160 215 263 315 366
#     4  10  21  39  66  98 120 156 213 276 316 355
#     4  11  23  41  64  88 129 169 205 258 321 376
#     4  10  22  40  65  94 126 161 214 268 316 368
#     4  12  27  42  57  95 137 171 206 249 319 395
#
# _framework density 21.615696
#
# number of rings (size 3 to 8) (size 9 to 14) (size 15 to 20)
#    0.000    1.000    3.750    5.625    0.000    3.500 
#    2.250    0.625    0.000    0.000    0.000    0.000 
#    0.000    0.000    0.000    0.000    0.000    0.000 
#
# Total GULP energy -396786.466510 kJ/mol
# GULP energy per Si atom -12399.577078 kJ/mol
# Density = 2.156650 g / cm^3
# Si number density = 21.615696 Si / 1000 Ang^3
#
#
#
# Elastic Constant Matrix: (Units=GPa)
#
#
# Indices 1 2 3 4 5 6 
#
# 1 92.2054 14.4296 38.1233 0.0000 -6.8623 0.0000
# 2 14.4296 42.9336 7.0822 0.0000 -3.7898 0.0000
# 3 38.1233 7.0822 160.4000 0.0000 10.8517 0.0000
# 4 0.0000 0.0000 0.0000 13.5499 0.0000 8.8144
# 5 -6.8623 -3.7898 10.8517 0.0000 26.9395 0.0000
# 6 0.0000 0.0000 0.0000 8.8144 0.0000 21.4114
#
#
#
# Elastic Compliance Matrix: (Units=1/GPa)
#
#
# Indices 1 2 3 4 5 6 
#
# 1 0.013030 -0.003483 -0.003222 0.000000 0.004127 0.000000
# 2 -0.003483 0.024783 -0.000455 0.000000 0.002782 0.000000
# 3 -0.003222 -0.000455 0.007279 0.000000 -0.003817 0.000000
# 4 0.000000 0.000000 0.000000 0.100793 0.000000 -0.041493
# 5 0.004127 0.002782 -0.003817 0.000000 0.040100 0.000000
# 6 0.000000 0.000000 0.000000 -0.041493 0.000000 0.063785
#
#
# Mechanical properties :
#
#
# Convention : Reuss Voigt Hill
#
# Bulk Modulus (GPa) = 32.49807 46.08990 39.29398
# Shear Modulus (GPa) = 18.22502 28.10711 23.16607
#
# Velocity S-wave (km/s) = 2.90683 3.60989 3.27727
# Velocity P-wave (km/s) = 5.13160 6.22445 5.70426
#
# Compressibility (1/GPa) = 0.03077106
#
# Stress axis : x y z
#
# Youngs Moduli (GPa) = 76.74631 40.35007 137.38963
#
# Poissons Ratio (x) = 0.14056 0.44271
# Poissons Ratio (y) = 0.26734 0.06245
# Poissons Ratio (z) = 0.24730 0.01834
#
# Static dielectric constant tensor:
#      x y z
#    x 3.756060 0.000000 0.085660 
#    y 0.000000 3.390430 0.000000 
#    z 0.085660 0.000000 4.506970 
# 
# 
# High freq. dielectric constant tensor:
#      x y z
#    x 1.844990 0.000000 0.000410 
#    y 0.000000 1.806960 0.000000 
#    z 0.000410 0.000000 1.876010 
# 
# From -- ./inp_files/69904.got.cif
#   From: 2010.03.12/outbox.cif.g09.slc.cpg/sg14_35_cif.got.tgz:69904.got - 2010.03.31 13:35:05.
