data_PCOD8126437
_publ_section_title
;
Structure prediction by ZEFSAII (Michael W. Deem and Ramdas Pophale) SiO2 
 PCOD8126437
Probable space group: P 21/C
;
_chemical_formula_sum "Si O2"
_cell_formula_units_Z 32
_cell_length_a 32.557569
_cell_length_b 7.824250
_cell_length_c 12.293228
_cell_angle_alpha 90.000000
_cell_angle_beta 27.096953
_cell_angle_gamma 90.000000
_cell_volume 1426.417585
_symmetry_space_group_name_H-M "P 21/C"
_symmetry_group_IT_number 14
_symmetry_cell_setting 'monoclinic'
loop_
_space_group_symop_operation_xyz
x,y,z
-x,1/2+y,1/2-z
-x,-y,-z
x,1/2-y,1/2+z
loop_
_atom_site_type_symbol
_atom_site_label
_atom_site_fract_x
_atom_site_fract_y
_atom_site_fract_z
Si Si1 0.777360 0.931499 0.892630
Si Si2 0.979425 0.731621 0.223404
Si Si3 0.139150 0.757710 0.717415
Si Si4 0.468612 0.752419 0.575638
Si Si5 0.591742 0.532328 0.922099
Si Si6 0.374344 0.456974 0.903283
Si Si7 0.878488 0.420008 0.965274
Si Si8 0.176066 0.076959 0.787410
O O1 0.832271 0.750227 0.768363
O O2 0.807063 0.078285 0.908084
O O3 0.792528 0.019294 0.738773
O O4 0.674669 0.884827 0.160103
O O5 0.902349 0.593106 0.434992
O O6 0.061226 0.723993 0.118286
O O7 0.943091 0.920637 0.295185
O O8 0.033621 0.702352 0.981823
O O9 0.160431 0.841797 0.552352
O O10 0.168173 0.902947 0.737797
O O11 0.499693 0.880773 0.597788
O O12 0.391635 0.644125 0.816059
O O13 0.557584 0.660203 0.323814
O O14 0.418031 0.835312 0.591215
O O15 0.603758 0.555496 0.021278
O O16 0.270809 0.408181 0.127177
#
# Coordination Sequence:
#
# PCOD8126437 Si02
#       8
#     4   4   4   4   4   4   4   4
#     4  10  24  42  62 104 129 166 230 278 325 407
#     4  10  21  40  63  91 127 168 226 274 321 396
#     4  11  23  43  68  91 135 185 220 274 346 390
#     4  10  23  43  67 101 134 167 231 276 330 434
#     4  11  22  43  69  98 134 176 218 279 348 402
#     4  11  23  43  69  96 135 179 217 280 352 397
#     4  10  22  43  63  92 130 176 225 277 332 393
#     4  11  23  43  64  99 135 169 226 284 323 410
#
# _framework density 22.433820999999998
#
# number of rings (size 3 to 8) (size 9 to 14) (size 15 to 20)
#    0.000    1.500    2.500    1.875    0.000    5.000 
#    4.500    3.125    0.000    0.000    0.000    0.000 
#    0.000    0.000    0.000    0.000    0.000    0.000 
#
# Total GULP energy -396467.448586 kJ/mol
# GULP energy per Si atom -12389.607768 kJ/mol
# Density = 2.238276 g / cm^3
# Si number density = 22.433821 Si / 1000 Ang^3
#
#
#
# Elastic Constant Matrix: (Units=GPa)
#
#
# Indices 1 2 3 4 5 6 
#
# 1 86.8038 15.4095 18.4332 0.0000 8.2336 0.0000
# 2 15.4095 89.1041 7.2526 0.0000 -8.0953 0.0000
# 3 18.4332 7.2526 85.8889 0.0000 4.3749 0.0000
# 4 0.0000 0.0000 0.0000 32.6458 0.0000 -1.9821
# 5 8.2336 -8.0953 4.3749 0.0000 20.7597 0.0000
# 6 0.0000 0.0000 0.0000 -1.9821 0.0000 29.9355
#
#
#
# Elastic Compliance Matrix: (Units=1/GPa)
#
#
# Indices 1 2 3 4 5 6 
#
# 1 0.013002 -0.002579 -0.002283 0.000000 -0.005681 0.000000
# 2 -0.002579 0.012276 -0.000788 0.000000 0.005976 0.000000
# 3 -0.002283 -0.000788 0.012301 0.000000 -0.001994 0.000000
# 4 0.000000 0.000000 0.000000 0.030755 0.000000 0.002036
# 5 -0.005681 0.005976 -0.001994 0.000000 0.053174 0.000000
# 6 0.000000 0.000000 0.000000 0.002036 0.000000 0.033540
#
#
# Mechanical properties :
#
#
# Convention : Reuss Voigt Hill
#
# Bulk Modulus (GPa) = 38.05257 38.22083 38.13670
# Shear Modulus (GPa) = 28.55402 31.38165 29.96783
#
# Velocity S-wave (km/s) = 3.57152 3.74418 3.65887
# Velocity P-wave (km/s) = 5.83152 5.98047 5.90646
#
# Compressibility (1/GPa) = 0.02627944
#
# Stress axis : x y z
#
# Youngs Moduli (GPa) = 76.91263 81.46106 81.29397
#
# Poissons Ratio (x) = 0.21007 0.18562
# Poissons Ratio (y) = 0.19834 0.06402
# Poissons Ratio (z) = 0.17561 0.06415
#
# Static dielectric constant tensor:
#      x y z
#    x 3.682420 0.000000 0.072560 
#    y 0.000000 4.285070 0.000000 
#    z 0.072560 0.000000 4.182630 
# 
# 
# High freq. dielectric constant tensor:
#      x y z
#    x 1.854810 0.000000 0.002810 
#    y 0.000000 1.898930 0.000000 
#    z 0.002810 0.000000 1.895640 
# 
# From -- ./inp_files/36426.got.cif
#   From: 2010.03.12/outbox.cif.g09.slc.cpg/sg14_19_cif.got.tgz:36426.got - 2010.03.31 13:35:05.
