data_PCOD8126539
_publ_section_title
;
Structure prediction by ZEFSAII (Michael W. Deem and Ramdas Pophale) SiO2 
 PCOD8126539
Probable space group: P 21/C
;
_chemical_formula_sum "Si O2"
_cell_formula_units_Z 20
_cell_length_a 7.616230
_cell_length_b 5.350156
_cell_length_c 21.467209
_cell_angle_alpha 90.000000
_cell_angle_beta 122.248283
_cell_angle_gamma 90.000000
_cell_volume 739.811213
_symmetry_space_group_name_H-M "P 21/C"
_symmetry_group_IT_number 14
_symmetry_cell_setting 'monoclinic'
loop_
_space_group_symop_operation_xyz
x,y,z
-x,1/2+y,1/2-z
-x,-y,-z
x,1/2-y,1/2+z
loop_
_atom_site_type_symbol
_atom_site_label
_atom_site_fract_x
_atom_site_fract_y
_atom_site_fract_z
Si Si1 0.853713 0.740431 0.437627
Si Si2 0.694917 0.394190 0.993860
Si Si3 0.735655 0.605429 0.545137
Si Si4 0.114859 0.458005 0.292525
Si Si5 0.482918 0.023584 0.208279
O O1 0.895589 0.622027 0.515388
O O2 0.733144 0.557725 0.368611
O O3 0.062266 0.832215 0.443862
O O4 0.697589 0.983092 0.424911
O O5 0.636193 0.612184 0.034139
O O6 0.582974 0.122852 0.987387
O O7 0.863557 0.522167 0.629034
O O8 0.343353 0.455214 0.308478
O O9 0.988980 0.696849 0.245539
O O10 0.545553 0.285705 0.252362
#
# Coordination Sequence:
#
# PCOD8126539 Si02
#       5
#     4   4   4   4   4
#     4   9  23  40  70 102 145 173 252 278 373 407
#     4   9  20  36  70 105 134 182 224 304 349 430
#     4  10  21  40  69 100 136 184 232 294 348 423
#     4  12  28  49  71 105 147 197 242 291 371 433
#     4  12  30  47  72 106 148 195 236 306 357 432
#
# _framework density 27.033923999999999
#
# number of rings (size 3 to 8) (size 9 to 14) (size 15 to 20)
#    1.200    0.400    0.000    3.000   11.200    0.800 
#    0.000    1.000    0.000    0.000    0.000    0.000 
#    0.000    0.000    0.000    0.000    0.000    0.000 
#
# Total GULP energy -247792.194378 kJ/mol
# GULP energy per Si atom -12389.609719 kJ/mol
# Density = 2.697239 g / cm^3
# Si number density = 27.033924 Si / 1000 Ang^3
#
#
#
# Elastic Constant Matrix: (Units=GPa)
#
#
# Indices 1 2 3 4 5 6 
#
# 1 118.4042 36.9571 16.4723 0.0000 -6.3391 0.0000
# 2 36.9571 182.6875 18.9733 0.0000 -19.1027 0.0000
# 3 16.4723 18.9733 128.4640 0.0000 -15.5343 0.0000
# 4 0.0000 0.0000 0.0000 48.4321 0.0000 -2.1836
# 5 -6.3391 -19.1027 -15.5343 0.0000 29.5502 0.0000
# 6 0.0000 0.0000 0.0000 -2.1836 0.0000 54.4157
#
#
#
# Elastic Compliance Matrix: (Units=1/GPa)
#
#
# Indices 1 2 3 4 5 6 
#
# 1 0.009123 -0.001714 -0.000869 0.000000 0.000392 0.000000
# 2 -0.001714 0.006216 -0.000274 0.000000 0.003506 0.000000
# 3 -0.000869 -0.000274 0.008428 0.000000 0.004067 0.000000
# 4 0.000000 0.000000 0.000000 0.020685 0.000000 0.000830
# 5 0.000392 0.003506 0.004067 0.000000 0.038329 0.000000
# 6 0.000000 0.000000 0.000000 0.000830 0.000000 0.018410
#
#
# Mechanical properties :
#
#
# Convention : Reuss Voigt Hill
#
# Bulk Modulus (GPa) = 55.39835 63.81790 59.60812
# Shear Modulus (GPa) = 44.27788 50.28979 47.28384
#
# Velocity S-wave (km/s) = 4.05144 4.31774 4.18671
# Velocity P-wave (km/s) = 6.51324 6.96527 6.74304
#
# Compressibility (1/GPa) = 0.01805108
#
# Stress axis : x y z
#
# Youngs Moduli (GPa) = 109.61783 160.88224 118.65201
#
# Poissons Ratio (x) = 0.27579 0.10313
# Poissons Ratio (y) = 0.18791 0.03254
# Poissons Ratio (z) = 0.09528 0.04412
#
# Static dielectric constant tensor:
#      x y z
#    x 5.273880 0.000000 -0.272330 
#    y 0.000000 6.174050 0.000000 
#    z -0.272330 0.000000 4.383890 
# 
# 
# High freq. dielectric constant tensor:
#      x y z
#    x 2.149600 0.000000 -0.010890 
#    y 0.000000 2.153210 0.000000 
#    z -0.010890 0.000000 2.042650 
# 
# From -- ./inp_files/71482.got.cif
#   From: 2010.03.12/outbox.cif.g09.slc.cpg/sg14_36_cif.got.tgz:71482.got - 2010.03.31 13:35:05.
