data_PCOD8126660
_publ_section_title
;
Structure prediction by ZEFSAII (Michael W. Deem and Ramdas Pophale) SiO2 
 PCOD8126660
Probable space group: P 21/C
;
_chemical_formula_sum "Si O2"
_cell_formula_units_Z 24
_cell_length_a 6.343960
_cell_length_b 12.579642
_cell_length_c 14.259373
_cell_angle_alpha 90.000000
_cell_angle_beta 85.403100
_cell_angle_gamma 90.000000
_cell_volume 1134.305046
_symmetry_space_group_name_H-M "P 21/C"
_symmetry_group_IT_number 14
_symmetry_cell_setting 'monoclinic'
loop_
_space_group_symop_operation_xyz
x,y,z
-x,1/2+y,1/2-z
-x,-y,-z
x,1/2-y,1/2+z
loop_
_atom_site_type_symbol
_atom_site_label
_atom_site_fract_x
_atom_site_fract_y
_atom_site_fract_z
Si Si1 0.898823 0.093651 0.735876
Si Si2 0.428001 0.743017 0.336306
Si Si3 0.548010 0.832341 0.523672
Si Si4 0.275383 0.998650 0.613869
Si Si5 0.735106 0.811979 0.168974
Si Si6 0.506972 0.006319 0.205022
O O1 0.773501 0.186392 0.685542
O O2 0.039158 0.021707 0.659837
O O3 0.026058 0.154545 0.813751
O O4 0.746663 0.006689 0.791867
O O5 0.476275 0.753860 0.444397
O O6 0.634796 0.768658 0.268740
O O7 0.386131 0.617910 0.322779
O O8 0.684301 0.929848 0.478769
O O9 0.710458 0.775708 0.589233
O O10 0.334473 0.876449 0.583590
O O11 0.438076 0.030131 0.690223
O O12 0.612789 0.916800 0.135202
#
# Coordination Sequence:
#
# PCOD8126660 Si02
#       6
#     4   4   4   4   4   4
#     4  10  21  43  66  96 127 177 219 261 329 393
#     4  11  22  42  64  93 136 168 210 278 327 375
#     4  11  21  42  65  97 136 163 213 282 321 371
#     4  10  21  41  66  98 126 162 228 270 321 378
#     4  10  22  41  61  95 133 171 215 265 330 382
#     4  10  21  43  63  92 134 171 214 271 324 383
#
# _framework density 21.158329999999999
#
# number of rings (size 3 to 8) (size 9 to 14) (size 15 to 20)
#    0.000    1.667    6.667    0.000    0.000    4.000 
#    6.000    0.833    0.000    0.000    0.000    0.000 
#    0.000    0.000    0.000    0.000    0.000    0.000 
#
# Total GULP energy -297387.581095 kJ/mol
# GULP energy per Si atom -12391.149212 kJ/mol
# Density = 2.111017 g / cm^3
# Si number density = 21.158330 Si / 1000 Ang^3
#
#
#
# Elastic Constant Matrix: (Units=GPa)
#
#
# Indices 1 2 3 4 5 6 
#
# 1 114.4269 22.3349 35.3604 0.0000 2.1073 0.0000
# 2 22.3349 89.1907 26.8411 0.0000 1.5486 0.0000
# 3 35.3604 26.8411 85.0604 0.0000 17.8455 0.0000
# 4 0.0000 0.0000 0.0000 38.1809 0.0000 -1.8073
# 5 2.1073 1.5486 17.8455 0.0000 19.6980 0.0000
# 6 0.0000 0.0000 0.0000 -1.8073 0.0000 31.6780
#
#
#
# Elastic Compliance Matrix: (Units=1/GPa)
#
#
# Indices 1 2 3 4 5 6 
#
# 1 0.010336 -0.001274 -0.004548 0.000000 0.003115 0.000000
# 2 -0.001274 0.012708 -0.004074 0.000000 0.002828 0.000000
# 3 -0.004548 -0.004074 0.018228 0.000000 -0.015707 0.000000
# 4 0.000000 0.000000 0.000000 0.026262 0.000000 0.001498
# 5 0.003115 0.002828 -0.015707 0.000000 0.064440 0.000000
# 6 0.000000 0.000000 0.000000 0.001498 0.000000 0.031653
#
#
# Mechanical properties :
#
#
# Convention : Reuss Voigt Hill
#
# Bulk Modulus (GPa) = 46.55489 50.86120 48.70805
# Shear Modulus (GPa) = 26.23587 31.52083 28.87835
#
# Velocity S-wave (km/s) = 3.52515 3.86393 3.69842
# Velocity P-wave (km/s) = 6.21448 6.63303 6.42717
#
# Compressibility (1/GPa) = 0.02148002
#
# Stress axis : x y z
#
# Youngs Moduli (GPa) = 96.74946 78.69220 54.86102
#
# Poissons Ratio (x) = 0.10022 0.24953
# Poissons Ratio (y) = 0.12322 0.22349
# Poissons Ratio (z) = 0.44005 0.32058
#
# Static dielectric constant tensor:
#      x y z
#    x 3.660430 0.000000 -0.025400 
#    y 0.000000 4.144290 0.000000 
#    z -0.025400 0.000000 3.667290 
# 
# 
# High freq. dielectric constant tensor:
#      x y z
#    x 1.816190 0.000000 0.004170 
#    y 0.000000 1.841130 0.000000 
#    z 0.004170 0.000000 1.808410 
# 
# From -- ./inp_files/37137.got.cif
#   From: 2010.03.12/outbox.cif.g09.slc.cpg/sg14_19_cif.got.tgz:37137.got - 2010.03.31 13:35:05.
