data_PCOD8126613
_publ_section_title
;
Structure prediction by ZEFSAII (Michael W. Deem and Ramdas Pophale) SiO2 
 PCOD8126613
Probable space group: P 21/C
;
_chemical_formula_sum "Si O2"
_cell_formula_units_Z 32
_cell_length_a 9.625415
_cell_length_b 11.317860
_cell_length_c 15.467196
_cell_angle_alpha 90.000000
_cell_angle_beta 61.354141
_cell_angle_gamma 90.000000
_cell_volume 1478.739805
_symmetry_space_group_name_H-M "P 21/C"
_symmetry_group_IT_number 14
_symmetry_cell_setting 'monoclinic'
loop_
_space_group_symop_operation_xyz
x,y,z
-x,1/2+y,1/2-z
-x,-y,-z
x,1/2-y,1/2+z
loop_
_atom_site_type_symbol
_atom_site_label
_atom_site_fract_x
_atom_site_fract_y
_atom_site_fract_z
Si Si1 0.960607 0.931279 0.281369
Si Si2 0.824637 0.058215 0.490794
Si Si3 0.608110 0.440468 0.593254
Si Si4 0.873591 0.684069 0.056575
Si Si5 0.509764 0.188852 0.609138
Si Si6 0.248463 0.100223 0.807312
Si Si7 0.711551 0.473662 0.376620
Si Si8 0.774596 0.768864 0.906915
O O1 0.882777 0.967672 0.212374
O O2 0.902478 0.798664 0.312148
O O3 0.150519 0.915002 0.221698
O O4 0.899237 0.013306 0.378115
O O5 0.652993 0.112743 0.528172
O O6 0.937040 0.162944 0.493935
O O7 0.804949 0.949796 0.565641
O O8 0.564325 0.310145 0.641383
O O9 0.726604 0.512722 0.619052
O O10 0.686984 0.412215 0.476559
O O11 0.452583 0.522851 0.627060
O O12 0.808980 0.764575 0.154378
O O13 0.820952 0.763892 0.992373
O O14 0.413961 0.111490 0.707246
O O15 0.401436 0.217030 0.557708
O O16 0.785057 0.600530 0.370756
#
# Coordination Sequence:
#
# PCOD8126613 Si02
#       8
#     4   4   4   4   4   4   4   4
#     4  10  24  38  64  92 124 172 208 264 313 372
#     4  10  24  43  65  95 124 170 214 260 318 374
#     4  10  23  41  64  95 126 172 208 262 319 374
#     4  10  22  41  68  89 127 167 210 266 309 372
#     4  10  24  41  66  93 131 166 210 261 314 383
#     4  11  24  41  63  96 130 165 211 263 316 373
#     4  10  21  41  64  88 130 166 213 257 319 380
#     4   9  20  42  61  92 124 169 207 263 320 362
#
# _framework density 21.640048
#
# number of rings (size 3 to 8) (size 9 to 14) (size 15 to 20)
#    0.000    2.000    1.250    0.000    8.750    8.000 
#    0.000    0.000    0.000    0.000    0.000    0.000 
#    0.000    0.000    0.000    0.000    0.000    0.000 
#
# Total GULP energy -396568.479537 kJ/mol
# GULP energy per Si atom -12392.764986 kJ/mol
# Density = 2.159079 g / cm^3
# Si number density = 21.640048 Si / 1000 Ang^3
#
#
#
# Elastic Constant Matrix: (Units=GPa)
#
#
# Indices 1 2 3 4 5 6 
#
# 1 88.3313 16.6892 39.7437 0.0000 -9.3512 0.0000
# 2 16.6892 39.8303 8.2222 0.0000 -1.5416 0.0000
# 3 39.7437 8.2222 67.4238 0.0000 -10.6145 0.0000
# 4 0.0000 0.0000 0.0000 27.4530 0.0000 -3.8153
# 5 -9.3512 -1.5416 -10.6145 0.0000 41.5579 0.0000
# 6 0.0000 0.0000 0.0000 -3.8153 0.0000 30.3011
#
#
#
# Elastic Compliance Matrix: (Units=1/GPa)
#
#
# Indices 1 2 3 4 5 6 
#
# 1 0.016376 -0.004987 -0.008850 0.000000 0.001240 0.000000
# 2 -0.004987 0.027274 -0.000421 0.000000 -0.000218 0.000000
# 3 -0.008850 -0.000421 0.020612 0.000000 0.003258 0.000000
# 4 0.000000 0.000000 0.000000 0.037075 0.000000 0.004668
# 5 0.001240 -0.000218 0.003258 0.000000 0.025166 0.000000
# 6 0.000000 0.000000 0.000000 0.004668 0.000000 0.033590
#
#
# Mechanical properties :
#
#
# Convention : Reuss Voigt Hill
#
# Bulk Modulus (GPa) = 27.97358 36.09950 32.03654
# Shear Modulus (GPa) = 24.93455 28.59108 26.76282
#
# Velocity S-wave (km/s) = 3.39815 3.63879 3.52053
# Velocity P-wave (km/s) = 5.32460 5.86280 5.60017
#
# Compressibility (1/GPa) = 0.03574802
#
# Stress axis : x y z
#
# Youngs Moduli (GPa) = 61.06344 36.66429 48.51436
#
# Poissons Ratio (x) = 0.18284 0.42935
# Poissons Ratio (y) = 0.30452 0.02041
# Poissons Ratio (z) = 0.54041 0.01543
#
# Static dielectric constant tensor:
#      x y z
#    x 4.137040 0.000000 0.096650 
#    y 0.000000 3.823650 0.000000 
#    z 0.096650 0.000000 3.811880 
# 
# 
# High freq. dielectric constant tensor:
#      x y z
#    x 1.857430 0.000000 0.002250 
#    y 0.000000 1.843020 0.000000 
#    z 0.002250 0.000000 1.838160 
# 
# From -- ./inp_files/40294.got.cif
#   From: 2010.03.12/outbox.cif.g09.slc.cpg/sg14_21_cif.got.tgz:40294.got - 2010.03.31 13:35:05.
