data_PCOD8126722
_publ_section_title
;
Structure prediction by ZEFSAII (Michael W. Deem and Ramdas Pophale) SiO2 
 PCOD8126722
Probable space group: P 21/C
;
_chemical_formula_sum "Si O2"
_cell_formula_units_Z 20
_cell_length_a 6.354425
_cell_length_b 11.410704
_cell_length_c 20.338608
_cell_angle_alpha 90.000000
_cell_angle_beta 43.411369
_cell_angle_gamma 90.000000
_cell_volume 1013.475112
_symmetry_space_group_name_H-M "P 21/C"
_symmetry_group_IT_number 14
_symmetry_cell_setting 'monoclinic'
loop_
_space_group_symop_operation_xyz
x,y,z
-x,1/2+y,1/2-z
-x,-y,-z
x,1/2-y,1/2+z
loop_
_atom_site_type_symbol
_atom_site_label
_atom_site_fract_x
_atom_site_fract_y
_atom_site_fract_z
Si Si1 0.505250 0.863297 0.983275
Si Si2 0.485554 0.706055 0.115992
Si Si3 0.808512 0.219132 0.549222
Si Si4 0.101657 0.768617 0.324053
Si Si5 0.345416 0.465965 0.101738
O O1 0.253790 0.829953 0.984905
O O2 0.832058 0.827314 0.878180
O O3 0.431033 0.792344 0.066834
O O4 0.500000 0.000000 0.000000
O O5 0.367958 0.760750 0.210137
O O6 0.288427 0.586776 0.153271
O O7 0.844126 0.676677 0.040706
O O8 0.751373 0.252778 0.637936
O O9 0.575870 0.114771 0.589560
O O10 0.968321 0.899451 0.343994
O O11 0.500000 0.500000 0.000000
#
# Coordination Sequence:
#
# PCOD8126722 Si02
#       5
#     4   4   4   4   4
#     4  10  23  43  62  83 129 165 193 247 310 359
#     4  11  23  39  64  93 119 162 205 248 307 360
#     4  10  21  42  62  87 125 155 206 251 302 360
#     4  10  24  39  59  97 118 157 210 248 302 361
#     4  11  20  42  65  86 123 161 201 256 309 361
#
# _framework density 19.734079000000001
#
# number of rings (size 3 to 8) (size 9 to 14) (size 15 to 20)
#    0.000    1.600    6.000    0.600    2.800    6.400 
#    3.600    0.000    0.000    0.000    0.000    0.000 
#    0.000    0.000    0.000    0.000    0.000    0.000 
#
# Total GULP energy -247939.513447 kJ/mol
# GULP energy per Si atom -12396.975672 kJ/mol
# Density = 1.968916 g / cm^3
# Si number density = 19.734079 Si / 1000 Ang^3
#
#
#
# Elastic Constant Matrix: (Units=GPa)
#
#
# Indices 1 2 3 4 5 6 
#
# 1 105.9802 37.9021 33.0503 0.0000 29.2901 0.0000
# 2 37.9021 141.2200 18.2941 0.0000 13.2695 0.0000
# 3 33.0503 18.2941 124.0653 0.0000 24.2310 0.0000
# 4 0.0000 0.0000 0.0000 24.1398 0.0000 2.3918
# 5 29.2901 13.2695 24.2310 0.0000 19.1064 0.0000
# 6 0.0000 0.0000 0.0000 2.3918 0.0000 27.4925
#
#
#
# Elastic Compliance Matrix: (Units=1/GPa)
#
#
# Indices 1 2 3 4 5 6 
#
# 1 0.017081 -0.002281 0.000785 0.000000 -0.025597 0.000000
# 2 -0.002281 0.007881 -0.000224 0.000000 -0.001693 0.000000
# 3 0.000785 -0.000224 0.010752 0.000000 -0.014684 0.000000
# 4 0.000000 0.000000 0.000000 0.041786 0.000000 -0.003635
# 5 -0.025597 -0.001693 -0.014684 0.000000 0.111377 0.000000
# 6 0.000000 0.000000 0.000000 -0.003635 0.000000 0.036690
#
#
# Mechanical properties :
#
#
# Convention : Reuss Voigt Hill
#
# Bulk Modulus (GPa) = 30.98325 61.08428 46.03377
# Shear Modulus (GPa) = 20.85383 32.94901 26.90142
#
# Velocity S-wave (km/s) = 3.25428 4.09057 3.69615
# Velocity P-wave (km/s) = 5.46397 7.30282 6.44927
#
# Compressibility (1/GPa) = 0.03227550
#
# Stress axis : x y z
#
# Youngs Moduli (GPa) = 58.54525 126.88076 93.00552
#
# Poissons Ratio (x) = 0.28940 -0.07304
# Poissons Ratio (y) = 0.13354 0.02082
# Poissons Ratio (z) = -0.04598 0.02840
#
# Static dielectric constant tensor:
#      x y z
#    x 3.703580 0.000000 0.227680 
#    y 0.000000 3.267160 0.000000 
#    z 0.227680 0.000000 3.424680 
# 
# 
# High freq. dielectric constant tensor:
#      x y z
#    x 1.776870 0.000000 0.015570 
#    y 0.000000 1.767920 0.000000 
#    z 0.015570 0.000000 1.761410 
# 
# From -- ./inp_files/36813.got.cif
#   From: 2010.03.12/outbox.cif.g09.slc.cpg/sg14_19_cif.got.tgz:36813.got - 2010.03.31 13:35:05.
