data_PCOD8126155
_publ_section_title
;
Structure prediction by ZEFSAII (Michael W. Deem and Ramdas Pophale) SiO2 
 PCOD8126155
Probable space group: P 21/C
;
_chemical_formula_sum "Si O2"
_cell_formula_units_Z 32
_cell_length_a 28.872371
_cell_length_b 8.725429
_cell_length_c 22.011701
_cell_angle_alpha 90.000000
_cell_angle_beta 163.589403
_cell_angle_gamma 90.000000
_cell_volume 1566.643996
_symmetry_space_group_name_H-M "P 21/C"
_symmetry_group_IT_number 14
_symmetry_cell_setting 'monoclinic'
loop_
_space_group_symop_operation_xyz
x,y,z
-x,1/2+y,1/2-z
-x,-y,-z
x,1/2-y,1/2+z
loop_
_atom_site_type_symbol
_atom_site_label
_atom_site_fract_x
_atom_site_fract_y
_atom_site_fract_z
Si Si1 0.344117 0.807351 0.556588
Si Si2 0.105443 0.882934 0.838260
Si Si3 0.600872 0.610811 0.806261
Si Si4 0.503497 0.851566 0.045666
Si Si5 0.942206 0.148786 0.892891
Si Si6 0.848920 0.157905 0.386355
Si Si7 0.175236 0.177711 0.605740
Si Si8 0.938341 0.775810 0.231721
O O1 0.254807 0.681814 0.486480
O O2 0.493822 0.728675 0.710451
O O3 0.217814 0.880633 0.349315
O O4 0.419381 0.940850 0.692441
O O5 0.931942 0.864769 0.587282
O O6 0.087485 0.790221 0.878577
O O7 0.132084 0.063985 0.883472
O O8 0.539508 0.605125 0.660392
O O9 0.791385 0.655280 0.049952
O O10 0.652941 0.755056 0.204108
O O11 0.328388 0.763921 0.821129
O O12 0.500000 0.000000 0.000000
O O13 0.907198 0.289698 0.893639
O O14 0.096339 0.187360 0.044805
O O15 0.000000 0.000000 0.000000
O O16 0.989012 0.203347 0.609805
O O17 0.813278 0.975801 0.338669
#
# Coordination Sequence:
#
# PCOD8126155 Si02
#       8
#     4   4   4   4   4   4   4   4
#     4  11  25  41  64  93 128 173 209 271 327 381
#     4  10  21  38  63  94 128 164 220 260 317 378
#     4  12  23  45  66  92 133 166 221 269 320 385
#     4  10  21  41  66  93 120 167 216 261 306 379
#     4  11  22  41  61  95 132 161 204 266 324 374
#     4  10  21  40  64  91 125 169 212 251 314 389
#     4   9  20  39  64  89 120 171 211 248 312 379
#     4  11  22  39  66  94 128 172 215 262 315 387
#
# _framework density 20.425827000000002
#
# number of rings (size 3 to 8) (size 9 to 14) (size 15 to 20)
#    0.000    1.500    2.500    2.625    3.500    1.000 
#    9.000    1.875    0.000    0.000    0.000    0.000 
#    0.000    0.000    0.000    0.000    0.000    0.000 
#
# Total GULP energy -396786.943972 kJ/mol
# GULP energy per Si atom -12399.591999 kJ/mol
# Density = 2.037934 g / cm^3
# Si number density = 20.425827 Si / 1000 Ang^3
#
#
#
# Elastic Constant Matrix: (Units=GPa)
#
#
# Indices 1 2 3 4 5 6 
#
# 1 97.3061 27.8693 29.8460 0.0000 4.1780 0.0000
# 2 27.8693 72.9145 13.3691 0.0000 -4.9167 0.0000
# 3 29.8460 13.3691 83.8375 0.0000 6.8429 0.0000
# 4 0.0000 0.0000 0.0000 25.2161 0.0000 -1.7550
# 5 4.1780 -4.9167 6.8429 0.0000 29.6002 0.0000
# 6 0.0000 0.0000 0.0000 -1.7550 0.0000 30.7650
#
#
#
# Elastic Compliance Matrix: (Units=1/GPa)
#
#
# Indices 1 2 3 4 5 6 
#
# 1 0.012714 -0.004291 -0.003707 0.000000 -0.001650 0.000000
# 2 -0.004291 0.015829 -0.001285 0.000000 0.003532 0.000000
# 3 -0.003707 -0.001285 0.013685 0.000000 -0.002854 0.000000
# 4 0.000000 0.000000 0.000000 0.039815 0.000000 0.002271
# 5 -0.001650 0.003532 -0.002854 0.000000 0.035263 0.000000
# 6 0.000000 0.000000 0.000000 0.002271 0.000000 0.032634
#
#
# Mechanical properties :
#
#
# Convention : Reuss Voigt Hill
#
# Bulk Modulus (GPa) = 42.26208 44.02520 43.14364
# Shear Modulus (GPa) = 28.34578 29.31448 28.83013
#
# Velocity S-wave (km/s) = 3.72928 3.79247 3.76101
# Velocity P-wave (km/s) = 6.26728 6.38573 6.32679
#
# Compressibility (1/GPa) = 0.02366187
#
# Stress axis : x y z
#
# Youngs Moduli (GPa) = 78.65508 63.17713 73.07070
#
# Poissons Ratio (x) = 0.27109 0.27088
# Poissons Ratio (y) = 0.33751 0.09388
# Poissons Ratio (z) = 0.29158 0.08117
#
# Static dielectric constant tensor:
#      x y z
#    x 3.939400 0.000000 0.263920 
#    y 0.000000 3.708250 0.000000 
#    z 0.263920 0.000000 4.117880 
# 
# 
# High freq. dielectric constant tensor:
#      x y z
#    x 1.815410 0.000000 0.008770 
#    y 0.000000 1.778180 0.000000 
#    z 0.008770 0.000000 1.802660 
# 
# From -- ./inp_files/70512.got.cif
#   From: 2010.03.12/outbox.cif.g09.slc.cpg/sg14_36_cif.got.tgz:70512.got - 2010.03.31 13:35:05.
