data_PCOD8126349
_publ_section_title
;
Structure prediction by ZEFSAII (Michael W. Deem and Ramdas Pophale) SiO2 
 PCOD8126349
Probable space group: P 21/C
;
_chemical_formula_sum "Si O2"
_cell_formula_units_Z 24
_cell_length_a 28.097087
_cell_length_b 8.212204
_cell_length_c 9.030170
_cell_angle_alpha 90.000000
_cell_angle_beta 147.516510
_cell_angle_gamma 90.000000
_cell_volume 1119.017754
_symmetry_space_group_name_H-M "P 21/C"
_symmetry_group_IT_number 14
_symmetry_cell_setting 'monoclinic'
loop_
_space_group_symop_operation_xyz
x,y,z
-x,1/2+y,1/2-z
-x,-y,-z
x,1/2-y,1/2+z
loop_
_atom_site_type_symbol
_atom_site_label
_atom_site_fract_x
_atom_site_fract_y
_atom_site_fract_z
Si Si1 0.537749 0.136282 0.204836
Si Si2 0.810795 0.341143 0.134528
Si Si3 0.989578 0.242952 0.441794
Si Si4 0.427417 0.436226 0.919626
Si Si5 0.700440 0.137850 0.061928
Si Si6 0.935420 0.944101 0.112086
O O1 0.618027 0.235887 0.341052
O O2 0.577311 0.049673 0.450466
O O3 0.453479 0.250855 0.027992
O O4 0.500000 0.000000 0.000000
O O5 0.895773 0.267380 0.274803
O O6 0.836731 0.498250 0.303928
O O7 0.777711 0.202215 0.158938
O O8 0.735383 0.390410 0.819715
O O9 0.016805 0.400358 0.418291
O O10 0.063217 0.201291 0.762713
O O11 0.987602 0.095433 0.319711
O O12 0.332728 0.462199 0.588310
O O13 0.500000 0.500000 0.000000
#
# Coordination Sequence:
#
# PCOD8126349 Si02
#       6
#     4   4   4   4   4   4
#     4  11  23  42  71  96 130 173 225 267 325 408
#     4  12  22  42  67  97 134 178 219 284 349 391
#     4  11  23  41  70  96 129 181 237 277 338 408
#     4  10  21  39  66  97 126 175 221 262 320 402
#     4  11  23  41  67  96 136 176 221 274 347 395
#     4  11  23  41  68  96 129 176 234 279 338 408
#
# _framework density 21.447382000000001
#
# number of rings (size 3 to 8) (size 9 to 14) (size 15 to 20)
#    0.000    1.000    5.000    2.500    2.333    0.000 
#    0.000    1.667    0.000    0.000    0.000    0.000 
#    0.000    0.000    0.000    0.000    0.000    0.000 
#
# Total GULP energy -297457.106451 kJ/mol
# GULP energy per Si atom -12394.046102 kJ/mol
# Density = 2.139857 g / cm^3
# Si number density = 21.447382 Si / 1000 Ang^3
#
#
#
# Elastic Constant Matrix: (Units=GPa)
#
#
# Indices 1 2 3 4 5 6 
#
# 1 88.4562 27.8462 29.8391 0.0000 -4.5851 0.0000
# 2 27.8462 76.3136 46.6363 0.0000 1.5599 0.0000
# 3 29.8391 46.6363 153.6330 0.0000 -23.5428 0.0000
# 4 0.0000 0.0000 0.0000 49.4019 0.0000 -8.1684
# 5 -4.5851 1.5599 -23.5428 0.0000 35.6412 0.0000
# 6 0.0000 0.0000 0.0000 -8.1684 0.0000 37.2900
#
#
#
# Elastic Compliance Matrix: (Units=1/GPa)
#
#
# Indices 1 2 3 4 5 6 
#
# 1 0.013029 -0.004095 -0.001116 0.000000 0.001118 0.000000
# 2 -0.004095 0.018012 -0.005423 0.000000 -0.004897 0.000000
# 3 -0.001116 -0.005423 0.009331 0.000000 0.006257 0.000000
# 4 0.000000 0.000000 0.000000 0.021003 0.000000 0.004601
# 5 0.001118 -0.004897 0.006257 0.000000 0.032549 0.000000
# 6 0.000000 0.000000 0.000000 0.004601 0.000000 0.027825
#
#
# Mechanical properties :
#
#
# Convention : Reuss Voigt Hill
#
# Bulk Modulus (GPa) = 52.34524 58.56066 55.45295
# Shear Modulus (GPa) = 33.47101 38.73869 36.10485
#
# Velocity S-wave (km/s) = 3.95474 4.25458 4.10740
# Velocity P-wave (km/s) = 6.73147 7.17627 6.95742
#
# Compressibility (1/GPa) = 0.01910393
#
# Stress axis : x y z
#
# Youngs Moduli (GPa) = 76.75463 55.51844 107.17217
#
# Poissons Ratio (x) = 0.22734 0.11962
# Poissons Ratio (y) = 0.31429 0.58117
# Poissons Ratio (z) = 0.08567 0.30107
#
# Static dielectric constant tensor:
#      x y z
#    x 3.857920 0.000000 -0.182790 
#    y 0.000000 4.263570 0.000000 
#    z -0.182790 0.000000 4.316160 
# 
# 
# High freq. dielectric constant tensor:
#      x y z
#    x 1.840840 0.000000 -0.031400 
#    y 0.000000 1.829820 0.000000 
#    z -0.031400 0.000000 1.850600 
# 
# From -- ./inp_files/17451.got.cif
#   From: 2010.03.12/outbox.cif.g09.slc.cpg/sg14_9_cif.got.tgz:17451.got - 2010.03.31 13:35:05.
