data_PCOD8126528
_publ_section_title
;
Structure prediction by ZEFSAII (Michael W. Deem and Ramdas Pophale) SiO2 
 PCOD8126528
Probable space group: P 21/C
;
_chemical_formula_sum "Si O2"
_cell_formula_units_Z 28
_cell_length_a 11.819629
_cell_length_b 8.951558
_cell_length_c 14.004190
_cell_angle_alpha 90.000000
_cell_angle_beta 68.534753
_cell_angle_gamma 90.000000
_cell_volume 1378.929441
_symmetry_space_group_name_H-M "P 21/C"
_symmetry_group_IT_number 14
_symmetry_cell_setting 'monoclinic'
loop_
_space_group_symop_operation_xyz
x,y,z
-x,1/2+y,1/2-z
-x,-y,-z
x,1/2-y,1/2+z
loop_
_atom_site_type_symbol
_atom_site_label
_atom_site_fract_x
_atom_site_fract_y
_atom_site_fract_z
Si Si1 0.233638 0.843318 0.391023
Si Si2 0.821762 0.840872 0.674793
Si Si3 0.045303 0.865640 0.051817
Si Si4 0.656042 0.734765 0.566094
Si Si5 0.764363 0.977965 0.886165
Si Si6 0.639864 0.024266 0.475648
Si Si7 0.367807 0.741073 0.667561
O O1 0.131277 0.735275 0.461072
O O2 0.335503 0.876036 0.438737
O O3 0.308875 0.753538 0.288990
O O4 0.166923 0.991241 0.370834
O O5 0.713837 0.754913 0.652927
O O6 0.793844 0.852976 0.796643
O O7 0.942021 0.743682 0.623571
O O8 0.112975 0.934627 0.122997
O O9 0.000000 0.000000 0.000000
O O10 0.704470 0.585567 0.501626
O O11 0.512957 0.743077 0.627404
O O12 0.700972 0.864131 0.477835
O O13 0.664626 0.089617 0.876219
O O14 0.689800 0.114331 0.368611
O O15 0.500000 0.000000 0.500000
#
# Coordination Sequence:
#
# PCOD8126528 Si02
#       7
#     4   4   4   4   4   4   4
#     4  10  22  42  65  93 131 169 214 270 330 384
#     4  10  24  44  64  93 131 175 215 268 329 386
#     4  12  24  44  67  95 128 169 229 271 322 387
#     4  10  21  41  63  97 134 166 211 266 325 395
#     4  11  23  42  65  98 128 169 218 271 331 381
#     4   9  19  38  60  89 126 167 210 253 315 389
#     4  10  21  40  67  97 127 168 213 265 331 389
#
# _framework density 20.305607999999999
#
# number of rings (size 3 to 8) (size 9 to 14) (size 15 to 20)
#    0.000    1.714    2.857    0.857    0.000    5.714 
#   15.429    0.000    0.000    0.000    0.000    0.000 
#    0.000    0.000    0.000    0.000    0.000    0.000 
#
# Total GULP energy -347062.724242 kJ/mol
# GULP energy per Si atom -12395.097294 kJ/mol
# Density = 2.025939 g / cm^3
# Si number density = 20.305608 Si / 1000 Ang^3
#
#
#
# Elastic Constant Matrix: (Units=GPa)
#
#
# Indices 1 2 3 4 5 6 
#
# 1 94.9980 21.1666 46.0879 0.0000 7.5552 0.0000
# 2 21.1666 48.7797 22.3764 0.0000 -5.3328 0.0000
# 3 46.0879 22.3764 75.7761 0.0000 1.8363 0.0000
# 4 0.0000 0.0000 0.0000 40.8519 0.0000 4.6523
# 5 7.5552 -5.3328 1.8363 0.0000 29.2215 0.0000
# 6 0.0000 0.0000 0.0000 4.6523 0.0000 27.5101
#
#
#
# Elastic Compliance Matrix: (Units=1/GPa)
#
#
# Indices 1 2 3 4 5 6 
#
# 1 0.015715 -0.003394 -0.008455 0.000000 -0.004151 0.000000
# 2 -0.003394 0.025130 -0.005497 0.000000 0.005809 0.000000
# 3 -0.008455 -0.005497 0.019964 0.000000 -0.000072 0.000000
# 4 0.000000 0.000000 0.000000 0.024959 0.000000 -0.004221
# 5 -0.004151 0.005809 -0.000072 0.000000 0.036359 0.000000
# 6 0.000000 0.000000 0.000000 -0.004221 0.000000 0.037064
#
#
# Mechanical properties :
#
#
# Convention : Reuss Voigt Hill
#
# Bulk Modulus (GPa) = 38.29050 44.31285 41.30167
# Shear Modulus (GPa) = 24.68037 28.17823 26.42930
#
# Velocity S-wave (km/s) = 3.49011 3.72924 3.61165
# Velocity P-wave (km/s) = 5.92783 6.35714 6.14624
#
# Compressibility (1/GPa) = 0.02611614
#
# Stress axis : x y z
#
# Youngs Moduli (GPa) = 63.63377 39.79314 50.08958
#
# Poissons Ratio (x) = 0.13507 0.42351
# Poissons Ratio (y) = 0.21600 0.27535
# Poissons Ratio (z) = 0.53803 0.21875
#
# Static dielectric constant tensor:
#      x y z
#    x 3.725670 0.000000 0.292670 
#    y 0.000000 3.998500 0.000000 
#    z 0.292670 0.000000 3.717290 
# 
# 
# High freq. dielectric constant tensor:
#      x y z
#    x 1.799470 0.000000 0.018910 
#    y 0.000000 1.805820 0.000000 
#    z 0.018910 0.000000 1.786040 
# 
# From -- ./inp_files/43365.got.cif
#   From: 2010.03.12/outbox.cif.g09.slc.cpg/sg14_22_cif.got.tgz:43365.got - 2010.03.31 13:35:05.
