data_PCOD8126287
_publ_section_title
;
Structure prediction by ZEFSAII (Michael W. Deem and Ramdas Pophale) SiO2 
 PCOD8126287
Probable space group: P 21/C
;
_chemical_formula_sum "Si O2"
_cell_formula_units_Z 24
_cell_length_a 14.853948
_cell_length_b 11.761831
_cell_length_c 21.447635
_cell_angle_alpha 90.000000
_cell_angle_beta 19.435706
_cell_angle_gamma 90.000000
_cell_volume 1246.846056
_symmetry_space_group_name_H-M "P 21/C"
_symmetry_group_IT_number 14
_symmetry_cell_setting 'monoclinic'
loop_
_space_group_symop_operation_xyz
x,y,z
-x,1/2+y,1/2-z
-x,-y,-z
x,1/2-y,1/2+z
loop_
_atom_site_type_symbol
_atom_site_label
_atom_site_fract_x
_atom_site_fract_y
_atom_site_fract_z
Si Si1 0.384220 0.330212 0.096459
Si Si2 0.038500 0.330184 0.442173
Si Si3 0.922601 0.456686 0.750374
Si Si4 0.890170 0.420327 0.018100
Si Si5 0.730682 0.956676 0.096324
Si Si6 0.242866 0.079688 0.165397
O O1 0.286417 0.331302 0.231791
O O2 0.219507 0.421343 0.163594
O O3 0.338805 0.209115 0.094064
O O4 0.702220 0.356905 0.888230
O O5 0.159540 0.356917 0.430892
O O6 0.892591 0.209124 0.540240
O O7 0.812972 0.421376 0.570170
O O8 0.150715 0.436890 0.549644
O O9 0.056192 0.455804 0.730272
O O10 0.589655 0.455805 0.196780
O O11 0.000000 0.500000 0.000000
O O12 0.076078 0.436691 0.836961
O O13 0.500000 0.000000 0.000000
#
# Coordination Sequence:
#
# PCOD8126287 Si02
#       6
#     4   4   4   4   4   4
#     4   9  21  41  62  84 118 159 194 239 298 351
#     4   9  21  41  62  84 118 159 194 239 298 351
#     4  10  21  39  63  90 117 152 198 244 294 352
#     4  11  24  40  60  88 122 158 197 243 296 348
#     4  10  21  39  63  90 117 152 198 244 294 352
#     4  11  24  40  60  88 122 158 197 243 296 348
#
# _framework density 19.248567999999999
#
# number of rings (size 3 to 8) (size 9 to 14) (size 15 to 20)
#    0.000    2.000    0.000    2.000    4.667    4.000 
#    0.000    0.000    0.000    0.000    0.000    0.000 
#    0.000    0.000    0.000    0.000    0.000    0.000 
#
# Total GULP energy -297736.984525 kJ/mol
# GULP energy per Si atom -12405.707689 kJ/mol
# Density = 1.920476 g / cm^3
# Si number density = 19.248568 Si / 1000 Ang^3
#
#
#
# Elastic Constant Matrix: (Units=GPa)
#
#
# Indices 1 2 3 4 5 6 
#
# 1 143.9947 63.2003 49.0122 0.0000 -5.5422 0.0000
# 2 63.2003 114.8119 59.4089 0.0000 -4.7941 0.0000
# 3 49.0122 59.4089 124.6419 0.0000 -18.8583 0.0000
# 4 0.0000 0.0000 0.0000 28.4915 0.0000 6.3386
# 5 -5.5422 -4.7941 -18.8583 0.0000 28.4218 0.0000
# 6 0.0000 0.0000 0.0000 6.3386 0.0000 23.4780
#
#
#
# Elastic Compliance Matrix: (Units=1/GPa)
#
#
# Indices 1 2 3 4 5 6 
#
# 1 0.009401 -0.004331 -0.001629 0.000000 0.000022 0.000000
# 2 -0.004331 0.013649 -0.005093 0.000000 -0.001922 0.000000
# 3 -0.001629 -0.005093 0.012131 0.000000 0.006872 0.000000
# 4 0.000000 0.000000 0.000000 0.037341 0.000000 -0.010081
# 5 0.000022 -0.001922 0.006872 0.000000 0.039424 0.000000
# 6 0.000000 0.000000 0.000000 -0.010081 0.000000 0.045315
#
#
# Mechanical properties :
#
#
# Convention : Reuss Voigt Hill
#
# Bulk Modulus (GPa) = 76.48645 80.74346 78.61496
# Shear Modulus (GPa) = 27.21431 30.20006 28.70718
#
# Velocity S-wave (km/s) = 3.76418 3.96530 3.86605
# Velocity P-wave (km/s) = 7.66254 7.93748 7.80122
#
# Compressibility (1/GPa) = 0.01307421
#
# Stress axis : x y z
#
# Youngs Moduli (GPa) = 106.37201 73.26342 82.43293
#
# Poissons Ratio (x) = 0.31731 0.13429
# Poissons Ratio (y) = 0.46071 0.41987
# Poissons Ratio (z) = 0.17328 0.37317
#
# Static dielectric constant tensor:
#      x y z
#    x 3.038180 0.000000 0.387470 
#    y 0.000000 3.683140 0.000000 
#    z 0.387470 0.000000 3.339500 
# 
# 
# High freq. dielectric constant tensor:
#      x y z
#    x 1.757760 0.000000 0.000260 
#    y 0.000000 1.756330 0.000000 
#    z 0.000260 0.000000 1.757910 
# 
# From -- ./inp_files/24104.got.cif
#   From: 2010.03.12/outbox.cif.g09.slc.cpg/sg14_13_cif.got.tgz:24104.got - 2010.03.31 13:35:05.
