data_PCOD8126419
_publ_section_title
;
Structure prediction by ZEFSAII (Michael W. Deem and Ramdas Pophale) SiO2 
 PCOD8126419
Probable space group: P 21/C
;
_chemical_formula_sum "Si O2"
_cell_formula_units_Z 32
_cell_length_a 12.210349
_cell_length_b 8.688568
_cell_length_c 14.577237
_cell_angle_alpha 90.000000
_cell_angle_beta 102.082384
_cell_angle_gamma 90.000000
_cell_volume 1512.246848
_symmetry_space_group_name_H-M "P 21/C"
_symmetry_group_IT_number 14
_symmetry_cell_setting 'monoclinic'
loop_
_space_group_symop_operation_xyz
x,y,z
-x,1/2+y,1/2-z
-x,-y,-z
x,1/2-y,1/2+z
loop_
_atom_site_type_symbol
_atom_site_label
_atom_site_fract_x
_atom_site_fract_y
_atom_site_fract_z
Si Si1 0.780874 0.948009 0.074389
Si Si2 0.393285 0.295785 0.909243
Si Si3 0.143908 0.927456 0.312508
Si Si4 0.978577 0.362514 0.691435
Si Si5 0.372570 0.826337 0.066093
Si Si6 0.665382 0.963765 0.773438
Si Si7 0.260688 0.984365 0.515725
Si Si8 0.835700 0.735171 0.410348
O O1 0.881567 0.015579 0.151757
O O2 0.706042 0.829702 0.121145
O O3 0.701760 0.082216 0.020402
O O4 0.842712 0.854651 0.006392
O O5 0.506813 0.208973 0.958300
O O6 0.416113 0.383366 0.816014
O O7 0.358431 0.413636 0.984246
O O8 0.079010 0.778074 0.267623
O O9 0.253405 0.926910 0.269633
O O10 0.174055 0.923189 0.424509
O O11 0.066738 0.074277 0.279813
O O12 0.044259 0.294771 0.614803
O O13 0.394483 0.926519 0.162341
O O14 0.313041 0.662696 0.077003
O O15 0.732037 0.827965 0.834140
O O16 0.190418 0.084348 0.577040
#
# Coordination Sequence:
#
# PCOD8126419 Si02
#       8
#     4   4   4   4   4   4   4   4
#     4  10  21  40  62  89 120 158 201 254 302 367
#     4  10  22  40  65  86 121 164 204 250 313 361
#     4  10  23  39  58  88 121 157 203 244 303 369
#     4  11  22  38  61  87 121 163 200 244 311 365
#     4  11  21  41  63  92 119 159 209 257 303 357
#     4   9  22  42  55  87 126 153 202 254 299 363
#     4  10  21  41  61  91 124 156 205 259 300 367
#     4   9  21  37  61  85 122 158 197 247 310 365
#
# _framework density 21.160564999999998
#
# number of rings (size 3 to 8) (size 9 to 14) (size 15 to 20)
#    0.000    2.000    1.250    1.125    7.000    2.500 
#    2.250    2.500    0.000    0.000    0.000    0.000 
#    0.000    0.000    0.000    0.000    0.000    0.000 
#
# Total GULP energy -396714.384014 kJ/mol
# GULP energy per Si atom -12397.324500 kJ/mol
# Density = 2.111240 g / cm^3
# Si number density = 21.160565 Si / 1000 Ang^3
#
#
#
# Elastic Constant Matrix: (Units=GPa)
#
#
# Indices 1 2 3 4 5 6 
#
# 1 71.1585 16.4299 7.5563 0.0000 5.2709 0.0000
# 2 16.4299 91.7257 16.4186 0.0000 -6.9189 0.0000
# 3 7.5563 16.4186 52.4175 0.0000 -1.9586 0.0000
# 4 0.0000 0.0000 0.0000 20.1742 0.0000 -1.1176
# 5 5.2709 -6.9189 -1.9586 0.0000 10.7086 0.0000
# 6 0.0000 0.0000 0.0000 -1.1176 0.0000 39.0891
#
#
#
# Elastic Compliance Matrix: (Units=1/GPa)
#
#
# Indices 1 2 3 4 5 6 
#
# 1 0.015740 -0.003297 -0.001616 0.000000 -0.010173 0.000000
# 2 -0.003297 0.012762 -0.003175 0.000000 0.009288 0.000000
# 3 -0.001616 -0.003175 0.020398 0.000000 0.002475 0.000000
# 4 0.000000 0.000000 0.000000 0.049647 0.000000 0.001419
# 5 -0.010173 0.009288 0.002475 0.000000 0.104844 0.000000
# 6 0.000000 0.000000 0.000000 0.001419 0.000000 0.025623
#
#
# Mechanical properties :
#
#
# Convention : Reuss Voigt Hill
#
# Bulk Modulus (GPa) = 30.56076 32.90126 31.73101
# Shear Modulus (GPa) = 19.52383 25.65415 22.58899
#
# Velocity S-wave (km/s) = 3.04081 3.48567 3.27081
# Velocity P-wave (km/s) = 5.17710 5.63755 5.41223
#
# Compressibility (1/GPa) = 0.03272169
#
# Stress axis : x y z
#
# Youngs Moduli (GPa) = 63.53372 78.36039 49.02551
#
# Poissons Ratio (x) = 0.25838 0.07924
# Poissons Ratio (y) = 0.20949 0.15565
# Poissons Ratio (z) = 0.10269 0.24879
#
# Static dielectric constant tensor:
#      x y z
#    x 3.737230 0.000000 -0.027920 
#    y 0.000000 4.032410 0.000000 
#    z -0.027920 0.000000 3.728670 
# 
# 
# High freq. dielectric constant tensor:
#      x y z
#    x 1.824700 0.000000 0.004680 
#    y 0.000000 1.843060 0.000000 
#    z 0.004680 0.000000 1.811620 
# 
# From -- ./inp_files/43452.got.cif
#   From: 2010.03.12/outbox.cif.g09.slc.cpg/sg14_22_cif.got.tgz:43452.got - 2010.03.31 13:35:05.
