data_PCOD8126259
_publ_section_title
;
Structure prediction by ZEFSAII (Michael W. Deem and Ramdas Pophale) SiO2 
 PCOD8126259
Probable space group: P 21/C
;
_chemical_formula_sum "Si O2"
_cell_formula_units_Z 20
_cell_length_a 13.001229
_cell_length_b 8.629483
_cell_length_c 23.396202
_cell_angle_alpha 90.000000
_cell_angle_beta 21.412675
_cell_angle_gamma 90.000000
_cell_volume 958.309633
_symmetry_space_group_name_H-M "P 21/C"
_symmetry_group_IT_number 14
_symmetry_cell_setting 'monoclinic'
loop_
_space_group_symop_operation_xyz
x,y,z
-x,1/2+y,1/2-z
-x,-y,-z
x,1/2-y,1/2+z
loop_
_atom_site_type_symbol
_atom_site_label
_atom_site_fract_x
_atom_site_fract_y
_atom_site_fract_z
Si Si1 0.962133 0.250623 0.818349
Si Si2 0.044252 0.088224 0.661756
Si Si3 0.427595 0.402583 0.638599
Si Si4 0.805206 0.830506 0.539240
Si Si5 0.604900 0.437977 0.229862
O O1 0.819630 0.422071 0.890571
O O2 0.070562 0.210581 0.698949
O O3 0.229061 0.255835 0.723852
O O4 0.743397 0.121151 0.952771
O O5 0.208867 0.156667 0.522098
O O6 0.712197 0.056819 0.817960
O O7 0.427796 0.424458 0.706630
O O8 0.669911 0.669046 0.628773
O O9 0.124475 0.830924 0.397006
O O10 0.639122 0.978355 0.651126
#
# Coordination Sequence:
#
# PCOD8126259 Si02
#       5
#     4   4   4   4   4
#     4  10  21  39  62  86 127 163 199 251 298 362
#     4   9  22  38  61  92 122 160 206 245 300 362
#     4   9  22  39  61  89 124 158 204 253 300 358
#     4  10  23  42  64  92 122 161 203 255 299 366
#     4  10  23  43  65  88 126 156 207 253 305 357
#
# _framework density 20.870082
#
# number of rings (size 3 to 8) (size 9 to 14) (size 15 to 20)
#    1.200    1.200    0.000    0.600    5.600    3.200 
#    3.600    0.000    0.000    0.000    0.000    0.000 
#    0.000    0.000    0.000    0.000    0.000    0.000 
#
# Total GULP energy -247885.901456 kJ/mol
# GULP energy per Si atom -12394.295073 kJ/mol
# Density = 2.082258 g / cm^3
# Si number density = 20.870082 Si / 1000 Ang^3
#
#
#
# Elastic Constant Matrix: (Units=GPa)
#
#
# Indices 1 2 3 4 5 6 
#
# 1 88.9318 36.0348 60.0061 0.0000 17.9279 0.0000
# 2 36.0348 48.2334 33.9873 0.0000 5.2876 0.0000
# 3 60.0061 33.9873 103.2893 0.0000 21.0900 0.0000
# 4 0.0000 0.0000 0.0000 38.7707 0.0000 9.6639
# 5 17.9279 5.2876 21.0900 0.0000 22.6960 0.0000
# 6 0.0000 0.0000 0.0000 9.6639 0.0000 38.2975
#
#
#
# Elastic Compliance Matrix: (Units=1/GPa)
#
#
# Indices 1 2 3 4 5 6 
#
# 1 0.022386 -0.010191 -0.008054 0.000000 -0.007824 0.000000
# 2 -0.010191 0.031739 -0.005747 0.000000 0.005997 0.000000
# 3 -0.008054 -0.005747 0.018117 0.000000 -0.009134 0.000000
# 4 0.000000 0.000000 0.000000 0.027524 0.000000 -0.006945
# 5 -0.007824 0.005997 -0.009134 0.000000 0.057332 0.000000
# 6 0.000000 0.000000 0.000000 -0.006945 0.000000 0.027864
#
#
# Mechanical properties :
#
#
# Convention : Reuss Voigt Hill
#
# Bulk Modulus (GPa) = 41.22711 55.61234 48.41972
# Shear Modulus (GPa) = 20.74421 27.31460 24.02941
#
# Velocity S-wave (km/s) = 3.15615 3.62165 3.39688
# Velocity P-wave (km/s) = 5.75141 6.64780 6.21578
#
# Compressibility (1/GPa) = 0.02425588
#
# Stress axis : x y z
#
# Youngs Moduli (GPa) = 44.67134 31.50716 55.19783
#
# Poissons Ratio (x) = 0.32110 0.44456
# Poissons Ratio (y) = 0.45526 0.31724
# Poissons Ratio (z) = 0.35978 0.18108
#
# Static dielectric constant tensor:
#      x y z
#    x 3.653750 0.000000 0.156270 
#    y 0.000000 3.411480 0.000000 
#    z 0.156270 0.000000 3.593010 
# 
# 
# High freq. dielectric constant tensor:
#      x y z
#    x 1.810050 0.000000 0.018150 
#    y 0.000000 1.794310 0.000000 
#    z 0.018150 0.000000 1.812620 
# 
# From -- ./inp_files/33467.got.cif
#   From: 2010.03.12/outbox.cif.g09.slc.cpg/sg14_17_cif.got.tgz:33467.got - 2010.03.31 13:35:05.
