data_PCOD8126258
_publ_section_title
;
Structure prediction by ZEFSAII (Michael W. Deem and Ramdas Pophale) SiO2 
 PCOD8126258
Probable space group: P 21/C
;
_chemical_formula_sum "Si O2"
_cell_formula_units_Z 24
_cell_length_a 11.328667
_cell_length_b 18.730578
_cell_length_c 8.487449
_cell_angle_alpha 90.000000
_cell_angle_beta 41.478733
_cell_angle_gamma 90.000000
_cell_volume 1192.859976
_symmetry_space_group_name_H-M "P 21/C"
_symmetry_group_IT_number 14
_symmetry_cell_setting 'monoclinic'
loop_
_space_group_symop_operation_xyz
x,y,z
-x,1/2+y,1/2-z
-x,-y,-z
x,1/2-y,1/2+z
loop_
_atom_site_type_symbol
_atom_site_label
_atom_site_fract_x
_atom_site_fract_y
_atom_site_fract_z
Si Si1 0.521137 0.327222 0.664705
Si Si2 0.179185 0.920076 0.637446
Si Si3 0.801176 0.571710 0.382632
Si Si4 0.179185 0.920078 0.004181
Si Si5 0.521136 0.327220 0.293025
Si Si6 0.198825 0.071707 0.484981
O O1 0.704110 0.352520 0.561609
O O2 0.547404 0.325363 0.452597
O O3 0.469960 0.250002 0.780044
O O4 0.364014 0.380360 0.873465
O O5 0.295892 0.852518 0.469828
O O6 0.973699 0.902471 0.806291
O O7 0.244393 0.989457 0.476173
O O8 0.201731 0.935949 0.798267
O O9 0.755607 0.489460 0.464966
O O10 0.635988 0.619643 0.601491
O O11 0.841978 0.580264 0.158022
O O12 0.973698 0.902475 0.246310
#
# Coordination Sequence:
#
# PCOD8126258 Si02
#       6
#     4   4   4   4   4   4
#     4  11  24  40  59  84 116 154 192 235 287 342
#     4  11  22  37  61  89 117 150 191 238 286 341
#     4  10  21  39  62  86 115 151 194 241 287 337
#     4  11  22  37  61  89 117 150 191 238 286 341
#     4  11  24  40  59  84 116 154 192 235 287 342
#     4  10  21  39  62  86 115 151 194 241 287 337
#
# _framework density 20.119712
#
# number of rings (size 3 to 8) (size 9 to 14) (size 15 to 20)
#    0.000    1.333    0.000    8.000    0.000   10.667 
#    0.000    3.333    0.000    0.000    0.000    0.000 
#    0.000    0.000    0.000    0.000    0.000    0.000 
#
# Total GULP energy -297778.716771 kJ/mol
# GULP energy per Si atom -12407.446532 kJ/mol
# Density = 2.007392 g / cm^3
# Si number density = 20.119712 Si / 1000 Ang^3
#
#
#
# Elastic Constant Matrix: (Units=GPa)
#
#
# Indices 1 2 3 4 5 6 
#
# 1 75.9689 27.5317 36.5109 0.0000 -2.1093 0.0000
# 2 27.5317 73.2503 31.4743 0.0000 -13.0486 0.0000
# 3 36.5109 31.4743 77.6406 0.0000 -3.4269 0.0000
# 4 0.0000 0.0000 0.0000 17.9833 0.0000 14.7556
# 5 -2.1093 -13.0486 -3.4269 0.0000 24.4053 0.0000
# 6 0.0000 0.0000 0.0000 14.7556 0.0000 22.4405
#
#
#
# Elastic Compliance Matrix: (Units=1/GPa)
#
#
# Indices 1 2 3 4 5 6 
#
# 1 0.017874 -0.004068 -0.006827 0.000000 -0.001589 0.000000
# 2 -0.004068 0.019145 -0.005446 0.000000 0.009120 0.000000
# 3 -0.006827 -0.005446 0.018256 0.000000 -0.000938 0.000000
# 4 0.000000 0.000000 0.000000 0.120760 0.000000 -0.079405
# 5 -0.001589 0.009120 -0.000938 0.000000 0.045582 0.000000
# 6 0.000000 0.000000 0.000000 -0.079405 0.000000 0.096774
#
#
# Mechanical properties :
#
#
# Convention : Reuss Voigt Hill
#
# Bulk Modulus (GPa) = 44.25657 46.43263 45.34460
# Shear Modulus (GPa) = 13.94297 21.72203 17.83250
#
# Velocity S-wave (km/s) = 2.63535 3.28935 2.98034
# Velocity P-wave (km/s) = 5.59504 6.12819 5.86767
#
# Compressibility (1/GPa) = 0.02259552
#
# Stress axis : x y z
#
# Youngs Moduli (GPa) = 55.94628 52.23204 54.77579
#
# Poissons Ratio (x) = 0.21248 0.37393
# Poissons Ratio (y) = 0.22759 0.29829
# Poissons Ratio (z) = 0.38192 0.28444
#
# Static dielectric constant tensor:
#      x y z
#    x 3.711050 0.000000 -0.011390 
#    y 0.000000 3.153940 0.000000 
#    z -0.011390 0.000000 3.714490 
# 
# 
# High freq. dielectric constant tensor:
#      x y z
#    x 1.797310 0.000000 0.002300 
#    y 0.000000 1.778180 0.000000 
#    z 0.002300 0.000000 1.796620 
# 
# From -- ./inp_files/14082.got.cif
#   From: 2010.03.12/outbox.cif.g09.slc.cpg/sg14_8_cif.got.tgz:14082.got - 2010.03.31 13:35:05.
