data_PCOD8126146
_publ_section_title
;
Structure prediction by ZEFSAII (Michael W. Deem and Ramdas Pophale) SiO2 
 PCOD8126146
Probable space group: P 21/C
;
_chemical_formula_sum "Si O2"
_cell_formula_units_Z 32
_cell_length_a 14.184708
_cell_length_b 18.243971
_cell_length_c 11.227196
_cell_angle_alpha 90.000000
_cell_angle_beta 33.764561
_cell_angle_gamma 90.000000
_cell_volume 1614.786768
_symmetry_space_group_name_H-M "P 21/C"
_symmetry_group_IT_number 14
_symmetry_cell_setting 'monoclinic'
loop_
_space_group_symop_operation_xyz
x,y,z
-x,1/2+y,1/2-z
-x,-y,-z
x,1/2-y,1/2+z
loop_
_atom_site_type_symbol
_atom_site_label
_atom_site_fract_x
_atom_site_fract_y
_atom_site_fract_z
Si Si1 0.081501 0.317597 0.621015
Si Si2 0.846999 0.951135 0.113601
Si Si3 0.320978 0.983275 0.941352
Si Si4 0.695640 0.545603 0.019438
Si Si5 0.183213 0.338754 0.917490
Si Si6 0.742148 0.113844 0.565704
Si Si7 0.630734 0.636308 0.503763
Si Si8 0.897375 0.072079 0.636953
O O1 0.091180 0.373824 0.501741
O O2 0.118042 0.237034 0.537028
O O3 0.229271 0.326576 0.561375
O O4 0.892474 0.329569 0.873773
O O5 0.727416 0.932568 0.349859
O O6 0.742917 0.993340 0.121131
O O7 0.000000 0.000000 0.000000
O O8 0.497069 0.941231 0.746037
O O9 0.343603 0.049149 0.012358
O O10 0.185029 0.929843 0.144984
O O11 0.793771 0.601004 0.003131
O O12 0.751941 0.460597 0.976870
O O13 0.346896 0.335939 0.656938
O O14 0.030494 0.362355 0.992140
O O15 0.559549 0.154625 0.747663
O O16 0.754935 0.087427 0.688435
O O17 0.000000 0.000000 0.500000
#
# Coordination Sequence:
#
# PCOD8126146 Si02
#       8
#     4   4   4   4   4   4   4   4
#     4  11  25  44  61  90 136 171 208 270 329 383
#     4  11  21  39  64  89 128 170 215 260 322 382
#     4  10  21  38  62  98 124 157 216 275 310 375
#     4  11  22  37  66  96 122 167 222 262 314 386
#     4  12  24  39  66  95 128 169 210 267 333 384
#     4  11  21  42  70  92 124 168 216 267 315 377
#     4  10  22  43  65  89 124 167 211 267 323 371
#     4  12  19  37  66  96 124 159 212 263 320 380
#
# _framework density 19.816856999999999
#
# number of rings (size 3 to 8) (size 9 to 14) (size 15 to 20)
#    0.000    1.000    5.000    2.625    1.750    2.000 
#    4.500    0.000    0.000    0.000    0.000    0.000 
#    0.000    0.000    0.000    0.000    0.000    0.000 
#
# Total GULP energy -396698.489112 kJ/mol
# GULP energy per Si atom -12396.827785 kJ/mol
# Density = 1.977175 g / cm^3
# Si number density = 19.816857 Si / 1000 Ang^3
#
#
#
# Elastic Constant Matrix: (Units=GPa)
#
#
# Indices 1 2 3 4 5 6 
#
# 1 91.1760 25.0058 62.6519 0.0000 5.0154 0.0000
# 2 25.0058 86.3961 57.0961 0.0000 -1.0369 0.0000
# 3 62.6519 57.0961 143.5023 0.0000 0.5671 0.0000
# 4 0.0000 0.0000 0.0000 24.1158 0.0000 4.5843
# 5 5.0154 -1.0369 0.5671 0.0000 41.9626 0.0000
# 6 0.0000 0.0000 0.0000 4.5843 0.0000 18.7616
#
#
#
# Elastic Compliance Matrix: (Units=1/GPa)
#
#
# Indices 1 2 3 4 5 6 
#
# 1 0.015803 -0.000055 -0.006870 0.000000 -0.001797 0.000000
# 2 -0.000055 0.015713 -0.006230 0.000000 0.000479 0.000000
# 3 -0.006870 -0.006230 0.012445 0.000000 0.000499 0.000000
# 4 0.000000 0.000000 0.000000 0.043486 0.000000 -0.010626
# 5 -0.001797 0.000479 0.000499 0.000000 0.024051 0.000000
# 6 0.000000 0.000000 0.000000 -0.010626 0.000000 0.055897
#
#
# Mechanical properties :
#
#
# Convention : Reuss Voigt Hill
#
# Bulk Modulus (GPa) = 56.65569 67.84244 62.24906
# Shear Modulus (GPa) = 25.05156 28.72272 26.88714
#
# Velocity S-wave (km/s) = 3.55935 3.81124 3.68745
# Velocity P-wave (km/s) = 6.74861 7.32642 7.04344
#
# Compressibility (1/GPa) = 0.01765048
#
# Stress axis : x y z
#
# Youngs Moduli (GPa) = 63.28024 63.64017 80.35492
#
# Poissons Ratio (x) = 0.00350 0.55207
# Poissons Ratio (y) = 0.00348 0.50060
# Poissons Ratio (z) = 0.43476 0.39647
#
# Static dielectric constant tensor:
#      x y z
#    x 3.686180 0.000000 0.166610 
#    y 0.000000 3.359060 0.000000 
#    z 0.166610 0.000000 3.930160 
# 
# 
# High freq. dielectric constant tensor:
#      x y z
#    x 1.781870 0.000000 0.000760 
#    y 0.000000 1.739370 0.000000 
#    z 0.000760 0.000000 1.790540 
# 
# From -- ./inp_files/33045.got.cif
#   From: 2010.03.12/outbox.cif.g09.slc.cpg/sg14_17_cif.got.tgz:33045.got - 2010.03.31 13:35:05.
