data_PCOD8126481
_publ_section_title
;
Structure prediction by ZEFSAII (Michael W. Deem and Ramdas Pophale) SiO2 
 PCOD8126481
Probable space group: P 21/C
;
_chemical_formula_sum "Si O2"
_cell_formula_units_Z 28
_cell_length_a 20.462205
_cell_length_b 13.547495
_cell_length_c 9.055622
_cell_angle_alpha 90.000000
_cell_angle_beta 147.329272
_cell_angle_gamma 90.000000
_cell_volume 1355.098630
_symmetry_space_group_name_H-M "P 21/C"
_symmetry_group_IT_number 14
_symmetry_cell_setting 'monoclinic'
loop_
_space_group_symop_operation_xyz
x,y,z
-x,1/2+y,1/2-z
-x,-y,-z
x,1/2-y,1/2+z
loop_
_atom_site_type_symbol
_atom_site_label
_atom_site_fract_x
_atom_site_fract_y
_atom_site_fract_z
Si Si1 0.984381 0.500745 0.216606
Si Si2 0.140667 0.107192 0.781255
Si Si3 0.757467 0.689979 0.047381
Si Si4 0.597064 0.935237 0.601187
Si Si5 0.575252 0.445865 0.771397
Si Si6 0.166334 0.529385 0.793979
Si Si7 0.406849 0.228900 0.010772
O O1 0.898702 0.447970 0.174535
O O2 0.046690 0.419820 0.230808
O O3 0.083962 0.564873 0.498463
O O4 0.902482 0.571106 0.960484
O O5 0.141310 0.225585 0.774724
O O6 0.273476 0.061949 0.069826
O O7 0.818588 0.588374 0.211590
O O8 0.699211 0.670783 0.776304
O O9 0.648142 0.730012 0.942590
O O10 0.548684 0.822761 0.501043
O O11 0.500000 0.000000 0.500000
O O12 0.608932 0.973970 0.457900
O O13 0.500000 0.500000 0.500000
O O14 0.514248 0.350617 0.732095
O O15 0.705804 0.413325 0.954972
#
# Coordination Sequence:
#
# PCOD8126481 Si02
#       7
#     4   4   4   4   4   4   4
#     4  10  22  39  62  87 123 166 212 254 316 365
#     4  10  21  40  65  90 120 161 216 264 302 375
#     4  11  20  38  66  94 116 159 222 259 298 388
#     4  11  23  39  65  93 127 170 204 265 322 381
#     4  12  22  37  63  95 130 161 206 268 325 371
#     4  11  21  39  64  93 124 168 209 260 317 377
#     4  11  21  37  60  98 123 160 210 261 316 381
#
# _framework density 20.662704000000002
#
# number of rings (size 3 to 8) (size 9 to 14) (size 15 to 20)
#    0.000    1.143    4.286    3.429    2.000    0.000 
#    0.000    0.000   18.857    0.000    0.000    0.000 
#    0.000    0.000    0.000    0.000    0.000    0.000 
#
# Total GULP energy -347037.983020 kJ/mol
# GULP energy per Si atom -12394.213679 kJ/mol
# Density = 2.061568 g / cm^3
# Si number density = 20.662704 Si / 1000 Ang^3
#
#
#
# Elastic Constant Matrix: (Units=GPa)
#
#
# Indices 1 2 3 4 5 6 
#
# 1 102.5707 29.6957 35.6167 0.0000 9.4784 0.0000
# 2 29.6957 81.6316 41.5697 0.0000 4.1943 0.0000
# 3 35.6167 41.5697 125.5699 0.0000 0.9633 0.0000
# 4 0.0000 0.0000 0.0000 26.8496 0.0000 5.0203
# 5 9.4784 4.1943 0.9633 0.0000 36.5686 0.0000
# 6 0.0000 0.0000 0.0000 5.0203 0.0000 31.5289
#
#
#
# Elastic Compliance Matrix: (Units=1/GPa)
#
#
# Indices 1 2 3 4 5 6 
#
# 1 0.011641 -0.002921 -0.002315 0.000000 -0.002621 0.000000
# 2 -0.002921 0.015557 -0.004314 0.000000 -0.000913 0.000000
# 3 -0.002315 -0.004314 0.010042 0.000000 0.000830 0.000000
# 4 0.000000 0.000000 0.000000 0.038387 0.000000 -0.006112
# 5 -0.002621 -0.000913 0.000830 0.000000 0.028108 0.000000
# 6 0.000000 0.000000 0.000000 -0.006112 0.000000 0.032690
#
#
# Mechanical properties :
#
#
# Convention : Reuss Voigt Hill
#
# Bulk Modulus (GPa) = 55.12931 58.17071 56.65001
# Shear Modulus (GPa) = 30.94569 32.51542 31.73055
#
# Velocity S-wave (km/s) = 3.87416 3.97120 3.92298
# Velocity P-wave (km/s) = 6.83744 7.01719 6.92790
#
# Compressibility (1/GPa) = 0.01813917
#
# Stress axis : x y z
#
# Youngs Moduli (GPa) = 85.90230 64.28018 99.58025
#
# Poissons Ratio (x) = 0.18779 0.23050
# Poissons Ratio (y) = 0.25095 0.42963
# Poissons Ratio (z) = 0.19884 0.27733
#
# Static dielectric constant tensor:
#      x y z
#    x 3.983840 0.000000 -0.095100 
#    y 0.000000 3.687510 0.000000 
#    z -0.095100 0.000000 3.946840 
# 
# 
# High freq. dielectric constant tensor:
#      x y z
#    x 1.826080 0.000000 -0.011960 
#    y 0.000000 1.781880 0.000000 
#    z -0.011960 0.000000 1.814370 
# 
# From -- ./inp_files/19098.got.cif
#   From: 2010.03.12/outbox.cif.g09.slc.cpg/sg14_10_cif.got.tgz:19098.got - 2010.03.31 13:35:05.
