data_PCOD8126772
_publ_section_title
;
Structure prediction by ZEFSAII (Michael W. Deem and Ramdas Pophale) SiO2 
 PCOD8126772
Probable space group: P 21/C
;
_chemical_formula_sum "Si O2"
_cell_formula_units_Z 16
_cell_length_a 7.325948
_cell_length_b 8.641474
_cell_length_c 13.421428
_cell_angle_alpha 90.000000
_cell_angle_beta 142.107204
_cell_angle_gamma 90.000000
_cell_volume 521.855523
_symmetry_space_group_name_H-M "P 21/C"
_symmetry_group_IT_number 14
_symmetry_cell_setting 'monoclinic'
loop_
_space_group_symop_operation_xyz
x,y,z
-x,1/2+y,1/2-z
-x,-y,-z
x,1/2-y,1/2+z
loop_
_atom_site_type_symbol
_atom_site_label
_atom_site_fract_x
_atom_site_fract_y
_atom_site_fract_z
Si Si1 0.283681 0.552343 0.179047
Si Si2 0.720223 0.744588 0.958907
Si Si3 0.860927 0.496647 0.315236
Si Si4 0.878819 0.687509 0.735017
O O1 0.406216 0.721630 0.268236
O O2 0.505261 0.491661 0.186038
O O3 0.308300 0.437410 0.283279
O O4 0.930434 0.604588 0.999853
O O5 0.679939 0.734025 0.060633
O O6 0.904166 0.905851 0.010626
O O7 0.978934 0.673089 0.350810
O O8 0.856295 0.404252 0.206668
#
# Coordination Sequence:
#
# PCOD8126772 Si02
#       4
#     4   4   4   4
#     4  12  22  45  69  98 131 175 218 272 328 389
#     4  10  23  43  68  98 133 171 219 270 330 386
#     4  10  22  40  69  97 132 172 218 270 325 389
#     4  10  21  42  66  98 131 171 218 269 327 387
#
# _framework density 30.659825999999999
#
# number of rings (size 3 to 8) (size 9 to 14) (size 15 to 20)
#    1.500    0.000    2.500    3.000    0.000    0.000 
#    0.000   12.500    0.000    0.000    0.000    0.000 
#    0.000    0.000    0.000    0.000    0.000    0.000 
#
# Total GULP energy -198358.452984 kJ/mol
# GULP energy per Si atom -12397.403311 kJ/mol
# Density = 3.059004 g / cm^3
# Si number density = 30.659826 Si / 1000 Ang^3
#
#
#
# Elastic Constant Matrix: (Units=GPa)
#
#
# Indices 1 2 3 4 5 6 
#
# 1 188.5011 58.7064 37.7488 0.0000 14.5501 0.0000
# 2 58.7064 176.5414 45.0083 0.0000 8.7983 0.0000
# 3 37.7488 45.0083 140.6990 0.0000 3.8581 0.0000
# 4 0.0000 0.0000 0.0000 30.0811 0.0000 7.3018
# 5 14.5501 8.7983 3.8581 0.0000 29.2252 0.0000
# 6 0.0000 0.0000 0.0000 7.3018 0.0000 84.5129
#
#
#
# Elastic Compliance Matrix: (Units=1/GPa)
#
#
# Indices 1 2 3 4 5 6 
#
# 1 0.006231 -0.001677 -0.001068 0.000000 -0.002456 0.000000
# 2 -0.001677 0.006695 -0.001665 0.000000 -0.000961 0.000000
# 3 -0.001068 -0.001665 0.007927 0.000000 -0.000014 0.000000
# 4 0.000000 0.000000 0.000000 0.033956 0.000000 -0.002934
# 5 -0.002456 -0.000961 -0.000014 0.000000 0.035731 0.000000
# 6 0.000000 0.000000 0.000000 -0.002934 0.000000 0.012086
#
#
# Mechanical properties :
#
#
# Convention : Reuss Voigt Hill
#
# Bulk Modulus (GPa) = 83.11380 87.62983 85.37182
# Shear Modulus (GPa) = 43.30663 53.04906 48.17784
#
# Velocity S-wave (km/s) = 3.76239 4.16414 3.96835
# Velocity P-wave (km/s) = 6.78537 7.19468 6.99302
#
# Compressibility (1/GPa) = 0.01203170
#
# Stress axis : x y z
#
# Youngs Moduli (GPa) = 160.49281 149.37495 126.15279
#
# Poissons Ratio (x) = 0.25055 0.13470
# Poissons Ratio (y) = 0.26920 0.21007
# Poissons Ratio (z) = 0.17137 0.24873
#
# Static dielectric constant tensor:
#      x y z
#    x 5.758830 0.000000 0.045680 
#    y 0.000000 6.448380 0.000000 
#    z 0.045680 0.000000 5.243220 
# 
# 
# High freq. dielectric constant tensor:
#      x y z
#    x 2.273180 0.000000 0.009450 
#    y 0.000000 2.330240 0.000000 
#    z 0.009450 0.000000 2.256070 
# 
# From -- ./inp_files/22736.got.cif
#   From: 2010.03.12/outbox.cif.g09.slc.cpg/sg14_12_cif.got.tgz:22736.got - 2010.03.31 13:35:05.
