data_PCOD8126120
_publ_section_title
;
Structure prediction by ZEFSAII (Michael W. Deem and Ramdas Pophale) SiO2 
 PCOD8126120
Probable space group: P 21/C
;
_chemical_formula_sum "Si O2"
_cell_formula_units_Z 32
_cell_length_a 8.493495
_cell_length_b 11.601331
_cell_length_c 20.170842
_cell_angle_alpha 90.000000
_cell_angle_beta 122.421552
_cell_angle_gamma 90.000000
_cell_volume 1677.744095
_symmetry_space_group_name_H-M "P 21/C"
_symmetry_group_IT_number 14
_symmetry_cell_setting 'monoclinic'
loop_
_space_group_symop_operation_xyz
x,y,z
-x,1/2+y,1/2-z
-x,-y,-z
x,1/2-y,1/2+z
loop_
_atom_site_type_symbol
_atom_site_label
_atom_site_fract_x
_atom_site_fract_y
_atom_site_fract_z
Si Si1 0.794617 0.721866 0.172734
Si Si2 0.787007 0.766439 0.829136
Si Si3 0.505687 0.392758 0.192845
Si Si4 0.538297 0.963084 0.821855
Si Si5 0.496888 0.600358 0.555368
Si Si6 0.220722 0.690428 0.274569
Si Si7 0.368397 0.515513 0.910028
Si Si8 0.207269 0.748153 0.415610
O O1 0.756745 0.718606 0.243126
O O2 0.692692 0.832141 0.114873
O O3 0.738396 0.601598 0.127848
O O4 0.013892 0.724780 0.205111
O O5 0.700797 0.643723 0.830679
O O6 0.680962 0.856307 0.853065
O O7 0.001877 0.768078 0.898951
O O8 0.593892 0.473850 0.267695
O O9 0.648679 0.289420 0.222320
O O10 0.496306 0.456318 0.120721
O O11 0.317857 0.926381 0.769168
O O12 0.578689 0.042102 0.894815
O O13 0.500000 0.500000 0.500000
O O14 0.356120 0.703301 0.502809
O O15 0.229818 0.670117 0.355545
O O16 0.227991 0.619321 0.896461
O O17 0.500000 0.500000 0.000000
#
# Coordination Sequence:
#
# PCOD8126120 Si02
#       8
#     4   4   4   4   4   4   4   4
#     4  11  22  39  66  93 120 166 214 255 307 376
#     4  10  22  40  62  92 125 162 211 262 311 371
#     4  10  21  38  61  90 122 159 207 261 308 365
#     4  11  21  38  65  90 124 165 205 265 313 369
#     4  12  24  40  64  94 131 166 202 257 324 375
#     4   9  22  38  61  92 121 161 214 252 307 377
#     4  11  22  40  66  87 123 164 208 255 310 371
#     4  10  22  41  61  91 125 165 208 254 312 379
#
# _framework density 19.073229999999999
#
# number of rings (size 3 to 8) (size 9 to 14) (size 15 to 20)
#    0.000    1.500    5.000    0.000    1.750    2.500 
#    0.000    1.875    0.000    0.000    0.000    0.000 
#    0.000    0.000    0.000    0.000    0.000    0.000 
#
# Total GULP energy -396537.906067 kJ/mol
# GULP energy per Si atom -12391.809565 kJ/mol
# Density = 1.902982 g / cm^3
# Si number density = 19.073230 Si / 1000 Ang^3
#
#
#
# Elastic Constant Matrix: (Units=GPa)
#
#
# Indices 1 2 3 4 5 6 
#
# 1 115.6328 29.7537 44.7482 0.0000 4.8863 0.0000
# 2 29.7537 52.9167 32.1800 0.0000 -14.8974 0.0000
# 3 44.7482 32.1800 110.6368 0.0000 -2.8006 0.0000
# 4 0.0000 0.0000 0.0000 24.1580 0.0000 -31.3823
# 5 4.8863 -14.8974 -2.8006 0.0000 28.4190 0.0000
# 6 0.0000 0.0000 0.0000 -31.3823 0.0000 -29.2494
#
#
#
# Elastic Compliance Matrix: (Units=1/GPa)
#
#
# Indices 1 2 3 4 5 6 
#
# 1 0.011681 -0.006303 -0.003033 0.000000 -0.005611 0.000000
# 2 -0.006303 0.030753 -0.005975 0.000000 0.016616 0.000000
# 3 -0.003033 -0.005975 0.011967 0.000000 -0.001431 0.000000
# 4 0.000000 0.000000 0.000000 0.017292 0.000000 -0.018553
# 5 -0.005611 0.016616 -0.001431 0.000000 0.044722 0.000000
# 6 0.000000 0.000000 0.000000 -0.018553 0.000000 -0.014282
#
#
# Mechanical properties :
#
#
# Convention : Reuss Voigt Hill
#
# Bulk Modulus (GPa) = 42.05467 54.72778 48.39122
# Shear Modulus (GPa) = 35.54142 16.16580 25.85361
#
# Velocity S-wave (km/s) = 4.32142 2.91446 3.68570
# Velocity P-wave (km/s) = 6.85540 6.33097 6.59840
#
# Compressibility (1/GPa) = 0.02377857
#
# Stress axis : x y z
#
# Youngs Moduli (GPa) = 85.61047 32.51722 83.56299
#
# Poissons Ratio (x) = 0.20496 0.25346
# Poissons Ratio (y) = 0.53960 0.49928
# Poissons Ratio (z) = 0.25967 0.19429
#
# Static dielectric constant tensor:
#      x y z
#    x 3.477080 0.000000 0.005550 
#    y 0.000000 3.615320 0.000000 
#    z 0.005550 0.000000 3.485970 
# 
# 
# High freq. dielectric constant tensor:
#      x y z
#    x 1.741790 0.000000 -0.006960 
#    y 0.000000 1.755110 0.000000 
#    z -0.006960 0.000000 1.732420 
# 
# From -- ./inp_files/55572.got.cif
#   From: 2010.03.12/outbox.cif.g09.slc.cpg/sg14_28_cif.got.tgz:55572.got - 2010.03.31 13:35:05.
