data_PCOD8126529
_publ_section_title
;
Structure prediction by ZEFSAII (Michael W. Deem and Ramdas Pophale) SiO2 
 PCOD8126529
Probable space group: P 21/C
;
_chemical_formula_sum "Si O2"
_cell_formula_units_Z 28
_cell_length_a 8.408469
_cell_length_b 9.162942
_cell_length_c 19.991126
_cell_angle_alpha 90.000000
_cell_angle_beta 52.340327
_cell_angle_gamma 90.000000
_cell_volume 1219.338809
_symmetry_space_group_name_H-M "P 21/C"
_symmetry_group_IT_number 14
_symmetry_cell_setting 'monoclinic'
loop_
_space_group_symop_operation_xyz
x,y,z
-x,1/2+y,1/2-z
-x,-y,-z
x,1/2-y,1/2+z
loop_
_atom_site_type_symbol
_atom_site_label
_atom_site_fract_x
_atom_site_fract_y
_atom_site_fract_z
Si Si1 0.108346 0.002574 0.542929
Si Si2 0.474909 0.593204 0.107875
Si Si3 0.817651 0.276300 0.401852
Si Si4 0.830211 0.953403 0.225360
Si Si5 0.218428 0.571032 0.453460
Si Si6 0.560810 0.662032 0.679681
Si Si7 0.165169 0.758041 0.344427
O O1 0.350609 0.010647 0.476669
O O2 0.034049 0.144221 0.602355
O O3 0.058494 0.857532 0.597271
O O4 0.000000 0.000000 0.500000
O O5 0.372547 0.719927 0.090471
O O6 0.310044 0.472214 0.173163
O O7 0.576105 0.673629 0.146009
O O8 0.745267 0.383738 0.479471
O O9 0.964235 0.364941 0.312947
O O10 0.722665 0.858338 0.196121
O O11 0.883558 0.115178 0.186081
O O12 0.394242 0.456856 0.389491
O O13 0.234220 0.712812 0.401634
O O14 0.000000 0.500000 0.500000
O O15 0.338966 0.642163 0.767186
#
# Coordination Sequence:
#
# PCOD8126529 Si02
#       7
#     4   4   4   4   4   4   4
#     4  12  23  42  69  98 133 184 232 279 344 410
#     4  11  26  43  66 107 143 171 236 295 351 415
#     4  12  25  42  69 102 139 179 221 294 362 402
#     4  10  23  45  68  92 137 183 229 280 346 431
#     4  11  20  41  69 104 135 180 236 284 343 423
#     4  10  21  41  69  96 131 183 236 277 339 418
#     4  10  21  40  68 100 131 175 242 285 324 416
#
# _framework density 22.963265
#
# number of rings (size 3 to 8) (size 9 to 14) (size 15 to 20)
#    0.000    1.143    4.286    3.000    0.000    5.143 
#    0.000    0.000    0.000    0.000    0.000    0.000 
#    0.000    0.000    0.000    0.000    0.000    0.000 
#
# Total GULP energy -347241.444519 kJ/mol
# GULP energy per Si atom -12401.480161 kJ/mol
# Density = 2.291100 g / cm^3
# Si number density = 22.963265 Si / 1000 Ang^3
#
#
#
# Elastic Constant Matrix: (Units=GPa)
#
#
# Indices 1 2 3 4 5 6 
#
# 1 71.9159 29.0172 26.4694 0.0000 -14.0890 0.0000
# 2 29.0172 96.9931 60.7087 0.0000 -22.4932 0.0000
# 3 26.4694 60.7087 146.4332 0.0000 -35.7697 0.0000
# 4 0.0000 0.0000 0.0000 53.1520 0.0000 -10.3994
# 5 -14.0890 -22.4932 -35.7697 0.0000 27.3715 0.0000
# 6 0.0000 0.0000 0.0000 -10.3994 0.0000 40.3968
#
#
#
# Elastic Compliance Matrix: (Units=1/GPa)
#
#
# Indices 1 2 3 4 5 6 
#
# 1 0.016454 -0.003572 -0.000208 0.000000 0.005262 0.000000
# 2 -0.003572 0.015337 -0.004529 0.000000 0.004847 0.000000
# 3 -0.000208 -0.004529 0.011471 0.000000 0.011161 0.000000
# 4 0.000000 0.000000 0.000000 0.019812 0.000000 0.005100
# 5 0.005262 0.004847 0.011161 0.000000 0.057812 0.000000
# 6 0.000000 0.000000 0.000000 0.005100 0.000000 0.026067
#
#
# Mechanical properties :
#
#
# Convention : Reuss Voigt Hill
#
# Bulk Modulus (GPa) = 37.53180 60.85921 49.19551
# Shear Modulus (GPa) = 28.99356 37.46050 33.22703
#
# Velocity S-wave (km/s) = 3.55717 4.04335 3.80803
# Velocity P-wave (km/s) = 5.76637 6.95403 6.38787
#
# Compressibility (1/GPa) = 0.02664407
#
# Stress axis : x y z
#
# Youngs Moduli (GPa) = 60.77605 65.20029 87.17861
#
# Poissons Ratio (x) = 0.23289 0.01812
# Poissons Ratio (y) = 0.21709 0.39484
# Poissons Ratio (z) = 0.01263 0.29529
#
# Static dielectric constant tensor:
#      x y z
#    x 3.735520 0.000000 -0.012570 
#    y 0.000000 4.178180 0.000000 
#    z -0.012570 0.000000 4.570310 
# 
# 
# High freq. dielectric constant tensor:
#      x y z
#    x 1.875900 0.000000 -0.003760 
#    y 0.000000 1.909590 0.000000 
#    z -0.003760 0.000000 1.921610 
# 
# From -- ./inp_files/64962.got.cif
#   From: 2010.03.12/outbox.cif.g09.slc.cpg/sg14_33_cif.got.tgz:64962.got - 2010.03.31 13:35:05.
