data_PCOD8126357
_publ_section_title
;
Structure prediction by ZEFSAII (Michael W. Deem and Ramdas Pophale) SiO2 
 PCOD8126357
Probable space group: P 21/C
;
_chemical_formula_sum "Si O2"
_cell_formula_units_Z 32
_cell_length_a 12.356716
_cell_length_b 14.562827
_cell_length_c 8.111820
_cell_angle_alpha 90.000000
_cell_angle_beta 97.787797
_cell_angle_gamma 90.000000
_cell_volume 1446.248280
_symmetry_space_group_name_H-M "P 21/C"
_symmetry_group_IT_number 14
_symmetry_cell_setting 'monoclinic'
loop_
_space_group_symop_operation_xyz
x,y,z
-x,1/2+y,1/2-z
-x,-y,-z
x,1/2-y,1/2+z
loop_
_atom_site_type_symbol
_atom_site_label
_atom_site_fract_x
_atom_site_fract_y
_atom_site_fract_z
Si Si1 0.176171 0.038248 0.292631
Si Si2 0.685903 0.737869 0.953797
Si Si3 0.885498 0.646104 0.545908
Si Si4 0.734622 0.269465 0.557178
Si Si5 0.399398 0.383155 0.788688
Si Si6 0.874184 0.339629 0.312027
Si Si7 0.355815 0.613331 0.182398
Si Si8 0.784655 0.929911 0.338857
O O1 0.309463 0.037406 0.302516
O O2 0.149354 0.075484 0.472119
O O3 0.125431 0.938364 0.272124
O O4 0.125484 0.099800 0.136533
O O5 0.806607 0.766032 0.043937
O O6 0.610073 0.696480 0.078363
O O7 0.626184 0.830841 0.886390
O O8 0.703045 0.658349 0.817953
O O9 0.861568 0.575302 0.692874
O O10 0.008281 0.682776 0.587532
O O11 0.777106 0.338316 0.426219
O O12 0.844653 0.238977 0.675056
O O13 0.675190 0.177907 0.477969
O O14 0.651259 0.325741 0.653809
O O15 0.520720 0.424500 0.812184
O O16 0.278451 0.525965 0.179665
#
# Coordination Sequence:
#
# PCOD8126357 Si02
#       8
#     4   4   4   4   4   4   4   4
#     4  10  23  42  62 101 132 161 224 276 313 401
#     4  10  21  40  61 100 128 163 223 273 314 406
#     4  11  24  42  69  94 135 174 213 275 339 375
#     4  10  24  42  65  90 136 164 231 264 321 411
#     4  10  21  39  67  90 132 170 214 269 339 379
#     4  11  23  44  64  95 128 179 213 275 330 385
#     4  11  22  44  65  97 127 181 211 276 335 384
#     4  11  23  42  68  98 135 167 226 270 318 406
#
# _framework density 22.126213
#
# number of rings (size 3 to 8) (size 9 to 14) (size 15 to 20)
#    0.000    1.500    2.500    1.875    1.750    2.500 
#    6.750    3.125    0.000    0.000    0.000    0.000 
#    0.000    0.000    0.000    0.000    0.000    0.000 
#
# Total GULP energy -396668.082741 kJ/mol
# GULP energy per Si atom -12395.877586 kJ/mol
# Density = 2.207585 g / cm^3
# Si number density = 22.126213 Si / 1000 Ang^3
#
#
#
# Elastic Constant Matrix: (Units=GPa)
#
#
# Indices 1 2 3 4 5 6 
#
# 1 86.0704 2.5306 12.5614 0.0000 9.5149 0.0000
# 2 2.5306 66.4394 9.1156 0.0000 -2.3688 0.0000
# 3 12.5614 9.1156 94.1853 0.0000 2.1017 0.0000
# 4 0.0000 0.0000 0.0000 25.0891 0.0000 -0.1910
# 5 9.5149 -2.3688 2.1017 0.0000 23.0973 0.0000
# 6 0.0000 0.0000 0.0000 -0.1910 0.0000 24.3615
#
#
#
# Elastic Compliance Matrix: (Units=1/GPa)
#
#
# Indices 1 2 3 4 5 6 
#
# 1 0.012405 -0.000446 -0.001499 0.000000 -0.005020 0.000000
# 2 -0.000446 0.015337 -0.001467 0.000000 0.001890 0.000000
# 3 -0.001499 -0.001467 0.010971 0.000000 -0.000531 0.000000
# 4 0.000000 0.000000 0.000000 0.039860 0.000000 0.000312
# 5 -0.005020 0.001890 -0.000531 0.000000 0.045605 0.000000
# 6 0.000000 0.000000 0.000000 0.000312 0.000000 0.041051
#
#
# Mechanical properties :
#
#
# Convention : Reuss Voigt Hill
#
# Bulk Modulus (GPa) = 31.35876 32.79004 32.07440
# Shear Modulus (GPa) = 27.36973 29.34208 28.35590
#
# Velocity S-wave (km/s) = 3.52089 3.64555 3.58376
# Velocity P-wave (km/s) = 5.54368 5.70717 5.62601
#
# Compressibility (1/GPa) = 0.03188902
#
# Stress axis : x y z
#
# Youngs Moduli (GPa) = 80.61122 65.20194 91.14791
#
# Poissons Ratio (x) = 0.02906 0.13666
# Poissons Ratio (y) = 0.03593 0.13372
# Poissons Ratio (z) = 0.12086 0.09566
#
# Static dielectric constant tensor:
#      x y z
#    x 3.696220 0.000000 0.059810 
#    y 0.000000 3.824540 0.000000 
#    z 0.059810 0.000000 4.286970 
# 
# 
# High freq. dielectric constant tensor:
#      x y z
#    x 1.848190 0.000000 -0.000220 
#    y 0.000000 1.866750 0.000000 
#    z -0.000220 0.000000 1.885390 
# 
# From -- ./inp_files/13342.got.cif
#   From: 2010.03.12/outbox.cif.g09.slc.cpg/sg14_7_cif.got.tgz:13342.got - 2010.03.31 13:35:05.
