data_PCOD8126293
_publ_section_title
;
Structure prediction by ZEFSAII (Michael W. Deem and Ramdas Pophale) SiO2 
 PCOD8126293
Probable space group: P 21/C
;
_chemical_formula_sum "Si O2"
_cell_formula_units_Z 28
_cell_length_a 7.923888
_cell_length_b 12.419846
_cell_length_c 23.734675
_cell_angle_alpha 90.000000
_cell_angle_beta 33.401203
_cell_angle_gamma 90.000000
_cell_volume 1285.860294
_symmetry_space_group_name_H-M "P 21/C"
_symmetry_group_IT_number 14
_symmetry_cell_setting 'monoclinic'
loop_
_space_group_symop_operation_xyz
x,y,z
-x,1/2+y,1/2-z
-x,-y,-z
x,1/2-y,1/2+z
loop_
_atom_site_type_symbol
_atom_site_label
_atom_site_fract_x
_atom_site_fract_y
_atom_site_fract_z
Si Si1 0.736416 0.634665 0.644863
Si Si2 0.363907 0.750198 0.584460
Si Si3 0.573014 0.407478 0.522827
Si Si4 0.733254 0.447131 0.313235
Si Si5 0.770134 0.842713 0.567376
Si Si6 0.154601 0.969036 0.608048
Si Si7 0.705478 0.052531 0.639116
O O1 0.560755 0.576368 0.643544
O O2 0.757730 0.760919 0.623398
O O3 0.557041 0.616527 0.754091
O O4 0.073458 0.585649 0.556465
O O5 0.504959 0.706030 0.485836
O O6 0.198517 0.649448 0.661571
O O7 0.629882 0.795585 0.549334
O O8 0.124330 0.843263 0.634080
O O9 0.500000 0.500000 0.500000
O O10 0.347077 0.435796 0.637457
O O11 0.040036 0.457658 0.191654
O O12 0.123667 0.867410 0.452036
O O13 0.579011 0.950403 0.638277
O O14 0.500000 0.000000 0.500000
O O15 0.953726 0.994417 0.609821
#
# Coordination Sequence:
#
# PCOD8126293 Si02
#       7
#     4   4   4   4   4   4   4
#     4  10  21  42  65  91 125 164 217 255 307 378
#     4  10  21  39  63  92 127 159 209 257 311 369
#     4  10  21  41  61  92 124 158 205 260 312 362
#     4   9  22  40  62  93 125 167 209 256 316 362
#     4  10  21  42  62  91 125 167 207 251 315 375
#     4  11  21  39  61  91 126 163 206 257 306 369
#     4  10  22  42  64  90 126 166 209 254 310 377
#
# _framework density 21.775304999999999
#
# number of rings (size 3 to 8) (size 9 to 14) (size 15 to 20)
#    0.000    2.000    1.429    1.286    0.000    3.429 
#   18.000    0.000    0.000    0.000    0.000    0.000 
#    0.000    0.000    0.000    0.000    0.000    0.000 
#
# Total GULP energy -346996.725566 kJ/mol
# GULP energy per Si atom -12392.740199 kJ/mol
# Density = 2.172574 g / cm^3
# Si number density = 21.775305 Si / 1000 Ang^3
#
#
#
# Elastic Constant Matrix: (Units=GPa)
#
#
# Indices 1 2 3 4 5 6 
#
# 1 67.7288 39.0973 36.7422 0.0000 -0.3353 0.0000
# 2 39.0973 129.6616 59.2719 0.0000 13.6939 0.0000
# 3 36.7422 59.2719 126.8232 0.0000 15.5819 0.0000
# 4 0.0000 0.0000 0.0000 36.2889 0.0000 8.8442
# 5 -0.3353 13.6939 15.5819 0.0000 32.7786 0.0000
# 6 0.0000 0.0000 0.0000 8.8442 0.0000 38.8403
#
#
#
# Elastic Compliance Matrix: (Units=1/GPa)
#
#
# Indices 1 2 3 4 5 6 
#
# 1 0.019571 -0.004460 -0.004077 0.000000 0.004002 0.000000
# 2 -0.004460 0.010954 -0.003462 0.000000 -0.002976 0.000000
# 3 -0.004077 -0.003462 0.011163 0.000000 -0.003902 0.000000
# 4 0.000000 0.000000 0.000000 0.029176 0.000000 -0.006643
# 5 0.004002 -0.002976 -0.003902 0.000000 0.033647 0.000000
# 6 0.000000 0.000000 0.000000 -0.006643 0.000000 0.027259
#
#
# Mechanical properties :
#
#
# Convention : Reuss Voigt Hill
#
# Bulk Modulus (GPa) = 56.52686 66.04848 61.28767
# Shear Modulus (GPa) = 30.92808 34.18837 32.55823
#
# Velocity S-wave (km/s) = 3.77281 3.96669 3.87096
# Velocity P-wave (km/s) = 6.70778 7.16779 6.94160
#
# Compressibility (1/GPa) = 0.01769071
#
# Stress axis : x y z
#
# Youngs Moduli (GPa) = 51.09584 91.29071 89.57812
#
# Poissons Ratio (x) = 0.40717 0.36522
# Poissons Ratio (y) = 0.22790 0.31008
# Poissons Ratio (z) = 0.20832 0.31601
#
# Static dielectric constant tensor:
#      x y z
#    x 4.390850 0.000000 0.515600 
#    y 0.000000 7.910010 0.000000 
#    z 0.515600 0.000000 4.008920 
# 
# 
# High freq. dielectric constant tensor:
#      x y z
#    x 1.868350 0.000000 0.019700 
#    y 0.000000 1.860050 0.000000 
#    z 0.019700 0.000000 1.837040 
# 
# From -- ./inp_files/76643.got.cif
#   From: 2010.03.12/outbox.cif.g09.slc.cpg/sg14_39_cif.got.tgz:76643.got - 2010.03.31 13:35:05.
