data_PCOD8126494
_publ_section_title
;
Structure prediction by ZEFSAII (Michael W. Deem and Ramdas Pophale) SiO2 
 PCOD8126494
Probable space group: P 21/C
;
_chemical_formula_sum "Si O2"
_cell_formula_units_Z 24
_cell_length_a 8.315308
_cell_length_b 9.760341
_cell_length_c 29.881628
_cell_angle_alpha 90.000000
_cell_angle_beta 30.146802
_cell_angle_gamma 90.000000
_cell_volume 1217.977392
_symmetry_space_group_name_H-M "P 21/C"
_symmetry_group_IT_number 14
_symmetry_cell_setting 'monoclinic'
loop_
_space_group_symop_operation_xyz
x,y,z
-x,1/2+y,1/2-z
-x,-y,-z
x,1/2-y,1/2+z
loop_
_atom_site_type_symbol
_atom_site_label
_atom_site_fract_x
_atom_site_fract_y
_atom_site_fract_z
Si Si1 0.720091 0.392116 0.066108
Si Si2 0.440467 0.143222 0.537553
Si Si3 0.663492 0.549656 0.754216
Si Si4 0.759818 0.282173 0.681199
Si Si5 0.028054 0.127697 0.026130
Si Si6 0.632834 0.118689 0.936525
O O1 0.514550 0.383006 0.071044
O O2 0.468828 0.430506 0.164585
O O3 0.902599 0.250747 0.026912
O O4 0.000000 0.500000 0.000000
O O5 0.685149 0.248091 0.454954
O O6 0.087087 0.207726 0.617499
O O7 0.500000 0.000000 0.500000
O O8 0.614949 0.391114 0.751235
O O9 0.492085 0.659080 0.763107
O O10 0.038761 0.577044 0.665179
O O11 0.815783 0.373660 0.622798
O O12 0.395696 0.148119 0.952192
O O13 0.000000 0.000000 0.000000
O O14 0.500000 0.000000 0.000000
#
# Coordination Sequence:
#
# PCOD8126494 Si02
#       6
#     4   4   4   4   4   4
#     4  11  25  44  64  96 133 170 217 273 322 391
#     4  11  23  45  68  93 132 175 218 268 333 386
#     4  11  24  44  64 100 130 168 227 266 328 392
#     4  10  24  42  65  96 130 175 217 267 329 390
#     4  10  21  40  65  96 126 165 216 264 325 381
#     4  11  21  42  69  95 129 172 214 267 325 391
#
# _framework density 19.704799000000001
#
# number of rings (size 3 to 8) (size 9 to 14) (size 15 to 20)
#    0.000    1.333    3.333    4.000    4.667    0.000 
#    9.000    0.000    0.000    0.000    0.000    0.000 
#    0.000    0.000    0.000    0.000    0.000    0.000 
#
# Total GULP energy -297499.274786 kJ/mol
# GULP energy per Si atom -12395.803116 kJ/mol
# Density = 1.965995 g / cm^3
# Si number density = 19.704799 Si / 1000 Ang^3
#
#
#
# Elastic Constant Matrix: (Units=GPa)
#
#
# Indices 1 2 3 4 5 6 
#
# 1 141.7162 73.6402 60.2905 0.0000 10.7314 0.0000
# 2 73.6402 174.5492 71.5669 0.0000 15.6951 0.0000
# 3 60.2905 71.5669 124.1713 0.0000 -7.0397 0.0000
# 4 0.0000 0.0000 0.0000 43.3684 0.0000 0.1964
# 5 10.7314 15.6951 -7.0397 0.0000 26.5393 0.0000
# 6 0.0000 0.0000 0.0000 0.1964 0.0000 38.3730
#
#
#
# Elastic Compliance Matrix: (Units=1/GPa)
#
#
# Indices 1 2 3 4 5 6 
#
# 1 0.010197 -0.002429 -0.003760 0.000000 -0.003684 0.000000
# 2 -0.002429 0.009026 -0.004335 0.000000 -0.005506 0.000000
# 3 -0.003760 -0.004335 0.012802 0.000000 0.007480 0.000000
# 4 0.000000 0.000000 0.000000 0.023059 0.000000 -0.000118
# 5 -0.003684 -0.005506 0.007480 0.000000 0.044410 0.000000
# 6 0.000000 0.000000 0.000000 -0.000118 0.000000 0.026061
#
#
# Mechanical properties :
#
#
# Convention : Reuss Voigt Hill
#
# Bulk Modulus (GPa) = 91.10167 94.60356 92.85261
# Shear Modulus (GPa) = 33.27523 37.31875 35.29699
#
# Velocity S-wave (km/s) = 4.11382 4.35661 4.23695
# Velocity P-wave (km/s) = 8.30050 8.56863 8.43563
#
# Compressibility (1/GPa) = 0.01097675
#
# Stress axis : x y z
#
# Youngs Moduli (GPa) = 98.06581 110.78631 78.11508
#
# Poissons Ratio (x) = 0.26912 0.29371
# Poissons Ratio (y) = 0.23822 0.33864
# Poissons Ratio (z) = 0.36872 0.48027
#
# Static dielectric constant tensor:
#      x y z
#    x 3.796060 0.000000 0.184510 
#    y 0.000000 3.870350 0.000000 
#    z 0.184510 0.000000 4.204040 
# 
# 
# High freq. dielectric constant tensor:
#      x y z
#    x 1.775480 0.000000 -0.003520 
#    y 0.000000 1.789280 0.000000 
#    z -0.003520 0.000000 1.763340 
# 
# From -- ./inp_files/79427.got.cif
#   From: 2010.03.12/outbox.cif.g09.slc.cpg/sg14_40_cif.got.tgz:79427.got - 2010.03.31 13:35:05.
