data_PCOD8126083
_publ_section_title
;
Structure prediction by ZEFSAII (Michael W. Deem and Ramdas Pophale) SiO2 
 PCOD8126083
Probable space group: P 21/C
;
_chemical_formula_sum "Si O2"
_cell_formula_units_Z 24
_cell_length_a 8.684221
_cell_length_b 9.334063
_cell_length_c 14.424266
_cell_angle_alpha 90.000000
_cell_angle_beta 96.436844
_cell_angle_gamma 90.000000
_cell_volume 1161.846821
_symmetry_space_group_name_H-M "P 21/C"
_symmetry_group_IT_number 14
_symmetry_cell_setting 'monoclinic'
loop_
_space_group_symop_operation_xyz
x,y,z
-x,1/2+y,1/2-z
-x,-y,-z
x,1/2-y,1/2+z
loop_
_atom_site_type_symbol
_atom_site_label
_atom_site_fract_x
_atom_site_fract_y
_atom_site_fract_z
Si Si1 0.177556 0.467107 0.527408
Si Si2 0.680322 0.663002 0.287661
Si Si3 0.797908 0.254309 0.889357
Si Si4 0.836182 0.738803 0.111702
Si Si5 0.322196 0.964142 0.473200
Si Si6 0.389550 0.645468 0.788306
O O1 0.204314 0.367784 0.619539
O O2 0.259229 0.620058 0.550534
O O3 0.238270 0.381941 0.440721
O O4 0.000000 0.500000 0.500000
O O5 0.784249 0.731794 0.213951
O O6 0.595374 0.517706 0.247992
O O7 0.557219 0.782605 0.309450
O O8 0.714538 0.244364 0.784778
O O9 0.979429 0.254993 0.882151
O O10 0.745099 0.396009 0.938072
O O11 0.777978 0.604903 0.049158
O O12 0.307753 0.858801 0.383547
O O13 0.500000 0.000000 0.500000
#
# Coordination Sequence:
#
# PCOD8126083 Si02
#       6
#     4   4   4   4   4   4
#     4   9  20  38  58  85 116 149 190 239 290 343
#     4  10  21  39  60  85 118 152 194 238 288 346
#     4  10  21  38  59  85 120 154 193 241 289 339
#     4  10  21  38  61  88 115 153 195 240 288 341
#     4  11  22  39  60  86 118 154 196 238 286 348
#     4  10  22  38  57  85 117 152 191 238 288 345
#
# _framework density 20.656768
#
# number of rings (size 3 to 8) (size 9 to 14) (size 15 to 20)
#    0.000    2.000    0.000    3.500    0.000    4.000 
#    0.000   19.167    0.000    0.000    0.000    0.000 
#    0.000    0.000    0.000    0.000    0.000    0.000 
#
# Total GULP energy -297531.159842 kJ/mol
# GULP energy per Si atom -12397.131660 kJ/mol
# Density = 2.060975 g / cm^3
# Si number density = 20.656768 Si / 1000 Ang^3
#
#
#
# Elastic Constant Matrix: (Units=GPa)
#
#
# Indices 1 2 3 4 5 6 
#
# 1 83.6252 40.3930 36.0662 0.0000 9.2125 0.0000
# 2 40.3930 70.7666 31.5598 0.0000 1.2337 0.0000
# 3 36.0662 31.5598 92.9141 0.0000 22.1968 0.0000
# 4 0.0000 0.0000 0.0000 36.6466 0.0000 -4.6384
# 5 9.2125 1.2337 22.1968 0.0000 28.7723 0.0000
# 6 0.0000 0.0000 0.0000 -4.6384 0.0000 36.6615
#
#
#
# Elastic Compliance Matrix: (Units=1/GPa)
#
#
# Indices 1 2 3 4 5 6 
#
# 1 0.017895 -0.008679 -0.003332 0.000000 -0.002787 0.000000
# 2 -0.008679 0.021347 -0.005305 0.000000 0.005956 0.000000
# 3 -0.003332 -0.005305 0.016610 0.000000 -0.011520 0.000000
# 4 0.000000 0.000000 0.000000 0.027732 0.000000 0.003509
# 5 -0.002787 0.005956 -0.011520 0.000000 0.044279 0.000000
# 6 0.000000 0.000000 0.000000 0.003509 0.000000 0.027721
#
#
# Mechanical properties :
#
#
# Convention : Reuss Voigt Hill
#
# Bulk Modulus (GPa) = 47.12801 51.48265 49.30533
# Shear Modulus (GPa) = 25.34355 29.70187 27.52271
#
# Velocity S-wave (km/s) = 3.50650 3.79605 3.65414
# Velocity P-wave (km/s) = 6.26565 6.64758 6.45944
#
# Compressibility (1/GPa) = 0.02121881
#
# Stress axis : x y z
#
# Youngs Moduli (GPa) = 55.88268 46.84504 60.20511
#
# Poissons Ratio (x) = 0.40659 0.20062
# Poissons Ratio (y) = 0.48503 0.31937
# Poissons Ratio (z) = 0.18622 0.24850
#
# Static dielectric constant tensor:
#      x y z
#    x 3.489470 0.000000 0.128260 
#    y 0.000000 4.162710 0.000000 
#    z 0.128260 0.000000 4.012760 
# 
# 
# High freq. dielectric constant tensor:
#      x y z
#    x 1.791290 0.000000 0.015790 
#    y 0.000000 1.816080 0.000000 
#    z 0.015790 0.000000 1.824980 
# 
# From -- ./inp_files/39050.got.cif
#   From: 2010.03.12/outbox.cif.g09.slc.cpg/sg14_20_cif.got.tgz:39050.got - 2010.03.31 13:35:05.
