data_PCOD8126852
_publ_section_title
;
Structure prediction by ZEFSAII (Michael W. Deem and Ramdas Pophale) SiO2 
 PCOD8126852
Probable space group: P 21/C
;
_chemical_formula_sum "Si O2"
_cell_formula_units_Z 24
_cell_length_a 8.857844
_cell_length_b 21.095549
_cell_length_c 8.016488
_cell_angle_alpha 90.000000
_cell_angle_beta 128.669534
_cell_angle_gamma 90.000000
_cell_volume 1169.558895
_symmetry_space_group_name_H-M "P 21/C"
_symmetry_group_IT_number 14
_symmetry_cell_setting 'monoclinic'
loop_
_space_group_symop_operation_xyz
x,y,z
-x,1/2+y,1/2-z
-x,-y,-z
x,1/2-y,1/2+z
loop_
_atom_site_type_symbol
_atom_site_label
_atom_site_fract_x
_atom_site_fract_y
_atom_site_fract_z
Si Si1 0.530668 0.318377 0.881179
Si Si2 0.494687 0.934119 0.405595
Si Si3 0.292286 0.258018 0.451330
Si Si4 0.136100 0.376703 0.932932
Si Si5 0.962285 0.348519 0.143669
Si Si6 0.933955 0.072609 0.962976
O O1 0.384074 0.312715 0.627453
O O2 0.480888 0.384816 0.928276
O O3 0.473239 0.259600 0.959076
O O4 0.754867 0.314661 0.988940
O O5 0.680723 0.924253 0.415103
O O6 0.297030 0.924548 0.167065
O O7 0.500000 0.000000 0.500000
O O8 0.213154 0.195307 0.487786
O O9 0.111982 0.290787 0.238189
O O10 0.028503 0.391483 0.684310
O O11 0.997536 0.388645 0.997370
O O12 0.983967 0.392500 0.322589
O O13 0.000000 0.000000 0.000000
#
# Coordination Sequence:
#
# PCOD8126852 Si02
#       6
#     4   4   4   4   4   4
#     4  10  24  39  65  96 134 171 220 278 337 398
#     4  10  21  43  67  96 136 178 223 277 334 397
#     4  11  22  42  64  97 136 174 218 279 341 399
#     4  11  24  42  70  98 132 180 223 276 336 397
#     4  11  25  42  67 101 133 174 231 274 330 412
#     4  11  24  44  70  96 137 181 223 281 342 389
#
# _framework density 20.520558000000001
#
# number of rings (size 3 to 8) (size 9 to 14) (size 15 to 20)
#    0.000    1.333    3.333    2.000    2.333    4.667 
#    0.000    0.833    0.000    0.000    0.000    0.000 
#    0.000    0.000    0.000    0.000    0.000    0.000 
#
# Total GULP energy -297459.633795 kJ/mol
# GULP energy per Si atom -12394.151408 kJ/mol
# Density = 2.047385 g / cm^3
# Si number density = 20.520558 Si / 1000 Ang^3
#
#
#
# Elastic Constant Matrix: (Units=GPa)
#
#
# Indices 1 2 3 4 5 6 
#
# 1 136.6965 31.1391 74.9189 0.0000 3.5214 0.0000
# 2 31.1391 90.0144 32.2509 0.0000 10.4512 0.0000
# 3 74.9189 32.2509 108.0064 0.0000 13.2343 0.0000
# 4 0.0000 0.0000 0.0000 36.0709 0.0000 8.9382
# 5 3.5214 10.4512 13.2343 0.0000 36.4743 0.0000
# 6 0.0000 0.0000 0.0000 8.9382 0.0000 8.4845
#
#
#
# Elastic Compliance Matrix: (Units=1/GPa)
#
#
# Indices 1 2 3 4 5 6 
#
# 1 0.012108 -0.001502 -0.008225 0.000000 0.002246 0.000000
# 2 -0.001502 0.012817 -0.002462 0.000000 -0.002634 0.000000
# 3 -0.008225 -0.002462 0.016238 0.000000 -0.004392 0.000000
# 4 0.000000 0.000000 0.000000 0.037517 0.000000 -0.039523
# 5 0.002246 -0.002634 -0.004392 0.000000 0.029548 0.000000
# 6 0.000000 0.000000 0.000000 -0.039523 0.000000 0.159498
#
#
# Mechanical properties :
#
#
# Convention : Reuss Voigt Hill
#
# Bulk Modulus (GPa) = 59.58520 67.92614 63.75567
# Shear Modulus (GPa) = 16.79548 29.29985 23.04767
#
# Velocity S-wave (km/s) = 2.86400 3.78276 3.35498
# Velocity P-wave (km/s) = 6.32744 7.22858 6.79297
#
# Compressibility (1/GPa) = 0.01678269
#
# Stress axis : x y z
#
# Youngs Moduli (GPa) = 82.59131 78.02078 61.58556
#
# Poissons Ratio (x) = 0.11721 0.50655
# Poissons Ratio (y) = 0.12408 0.15165
# Poissons Ratio (z) = 0.67933 0.19212
#
# Static dielectric constant tensor:
#      x y z
#    x 4.195000 0.000000 0.299260 
#    y 0.000000 3.540940 0.000000 
#    z 0.299260 0.000000 3.960420 
# 
# 
# High freq. dielectric constant tensor:
#      x y z
#    x 1.809710 0.000000 0.013920 
#    y 0.000000 1.799470 0.000000 
#    z 0.013920 0.000000 1.807730 
# 
# From -- ./inp_files/10282.got.cif
#   From: 2010.03.12/outbox.cif.g09.slc.cpg/sg14_6_cif.got.tgz:10282.got - 2010.03.31 13:35:05.
