data_PCOD8126851
_publ_section_title
;
Structure prediction by ZEFSAII (Michael W. Deem and Ramdas Pophale) SiO2 
 PCOD8126851
Probable space group: P 21/C
;
_chemical_formula_sum "Si O2"
_cell_formula_units_Z 32
_cell_length_a 13.691714
_cell_length_b 9.630355
_cell_length_c 10.659700
_cell_angle_alpha 90.000000
_cell_angle_beta 92.172850
_cell_angle_gamma 90.000000
_cell_volume 1404.535515
_symmetry_space_group_name_H-M "P 21/C"
_symmetry_group_IT_number 14
_symmetry_cell_setting 'monoclinic'
loop_
_space_group_symop_operation_xyz
x,y,z
-x,1/2+y,1/2-z
-x,-y,-z
x,1/2-y,1/2+z
loop_
_atom_site_type_symbol
_atom_site_label
_atom_site_fract_x
_atom_site_fract_y
_atom_site_fract_z
Si Si1 0.976414 0.948225 0.362833
Si Si2 0.798138 0.753889 0.846138
Si Si3 0.900839 0.224656 0.268717
Si Si4 0.461944 0.063299 0.868788
Si Si5 0.804855 0.054105 0.894460
Si Si6 0.295697 0.633699 0.361710
Si Si7 0.638819 0.081322 0.686398
Si Si8 0.676987 0.798052 0.587809
O O1 0.872444 0.873548 0.350180
O O2 0.059509 0.839212 0.327240
O O3 0.974624 0.094459 0.285335
O O4 0.000000 0.000000 0.500000
O O5 0.751021 0.761122 0.705410
O O6 0.852160 0.900270 0.882975
O O7 0.719302 0.731416 0.952122
O O8 0.885331 0.320202 0.394204
O O9 0.797110 0.157515 0.230437
O O10 0.544223 0.072716 0.768233
O O11 0.423192 0.215596 0.898375
O O12 0.372649 0.973569 0.805245
O O13 0.500000 0.000000 0.000000
O O14 0.735885 0.074632 0.772873
O O15 0.739931 0.061709 0.013850
O O16 0.355709 0.775413 0.391189
O O17 0.643163 0.957505 0.587224
#
# Coordination Sequence:
#
# PCOD8126851 Si02
#       8
#     4   4   4   4   4   4   4   4
#     4  12  28  45  71 105 139 183 246 302 357 445
#     4  11  25  45  74 101 145 186 244 292 368 431
#     4  11  26  44  71 101 141 182 235 298 366 425
#     4  12  21  43  68  98 138 189 241 285 356 425
#     4  10  21  43  67  94 137 190 223 287 359 422
#     4  11  22  42  67  97 137 184 232 285 365 421
#     4  10  23  38  66  96 141 177 234 294 341 424
#     4  11  24  45  70 105 140 191 234 297 360 429
#
# _framework density 22.783332000000001
#
# number of rings (size 3 to 8) (size 9 to 14) (size 15 to 20)
#    0.000    1.000    2.500    3.750    8.750    0.000 
#    0.000    3.750    0.000    0.000    0.000    0.000 
#    0.000    0.000    0.000    0.000    0.000    0.000 
#
# Total GULP energy -396585.234276 kJ/mol
# GULP energy per Si atom -12393.288571 kJ/mol
# Density = 2.273148 g / cm^3
# Si number density = 22.783332 Si / 1000 Ang^3
#
#
#
# Elastic Constant Matrix: (Units=GPa)
#
#
# Indices 1 2 3 4 5 6 
#
# 1 70.2578 17.9923 9.3186 0.0000 -10.5260 0.0000
# 2 17.9923 131.1775 11.4375 0.0000 0.4666 0.0000
# 3 9.3186 11.4375 52.5066 0.0000 -3.7565 0.0000
# 4 0.0000 0.0000 0.0000 37.5608 0.0000 -9.3020
# 5 -10.5260 0.4666 -3.7565 0.0000 23.6920 0.0000
# 6 0.0000 0.0000 0.0000 -9.3020 0.0000 43.7085
#
#
#
# Elastic Compliance Matrix: (Units=1/GPa)
#
#
# Indices 1 2 3 4 5 6 
#
# 1 0.016042 -0.002058 -0.001907 0.000000 0.006865 0.000000
# 2 -0.002058 0.008039 -0.001479 0.000000 -0.001307 0.000000
# 3 -0.001907 -0.001479 0.019873 0.000000 0.002333 0.000000
# 4 0.000000 0.000000 0.000000 0.028105 0.000000 0.005981
# 5 0.006865 -0.001307 0.002333 0.000000 0.045654 0.000000
# 6 0.000000 0.000000 0.000000 0.005981 0.000000 0.024152
#
#
# Mechanical properties :
#
#
# Convention : Reuss Voigt Hill
#
# Bulk Modulus (GPa) = 30.24482 36.82649 33.53565
# Shear Modulus (GPa) = 30.52940 35.33850 32.93395
#
# Velocity S-wave (km/s) = 3.66456 3.94263 3.80613
# Velocity P-wave (km/s) = 5.58651 6.07657 5.83668
#
# Compressibility (1/GPa) = 0.03306352
#
# Stress axis : x y z
#
# Youngs Moduli (GPa) = 62.33637 124.38998 50.31977
#
# Poissons Ratio (x) = 0.25605 0.09598
# Poissons Ratio (y) = 0.12831 0.07444
# Poissons Ratio (z) = 0.11891 0.18402
#
# Static dielectric constant tensor:
#      x y z
#    x 4.184520 0.000000 -0.126030 
#    y 0.000000 5.283680 0.000000 
#    z -0.126030 0.000000 3.630630 
# 
# 
# High freq. dielectric constant tensor:
#      x y z
#    x 1.895100 0.000000 -0.015640 
#    y 0.000000 1.933730 0.000000 
#    z -0.015640 0.000000 1.880730 
# 
# From -- ./inp_files/31831.got.cif
#   From: 2010.03.12/outbox.cif.g09.slc.cpg/sg14_16_cif.got.tgz:31831.got - 2010.03.31 13:35:05.
