data_PCOD8126900
_publ_section_title
;
Structure prediction by ZEFSAII (Michael W. Deem and Ramdas Pophale) SiO2 
 PCOD8126900
Probable space group: P 21/C
;
_chemical_formula_sum "Si O2"
_cell_formula_units_Z 32
_cell_length_a 14.528878
_cell_length_b 17.532428
_cell_length_c 12.330173
_cell_angle_alpha 90.000000
_cell_angle_beta 152.689232
_cell_angle_gamma 90.000000
_cell_volume 1441.061072
_symmetry_space_group_name_H-M "P 21/C"
_symmetry_group_IT_number 14
_symmetry_cell_setting 'monoclinic'
loop_
_space_group_symop_operation_xyz
x,y,z
-x,1/2+y,1/2-z
-x,-y,-z
x,1/2-y,1/2+z
loop_
_atom_site_type_symbol
_atom_site_label
_atom_site_fract_x
_atom_site_fract_y
_atom_site_fract_z
Si Si1 0.449143 0.566148 0.103120
Si Si2 0.181315 0.970581 0.936336
Si Si3 0.655160 0.685739 0.649962
Si Si4 0.743674 0.845085 0.816207
Si Si5 0.080040 0.127199 0.764186
Si Si6 0.515202 0.149087 0.804655
Si Si7 0.656403 0.305189 0.849079
Si Si8 0.817103 0.571472 0.190668
O O1 0.644092 0.511796 0.313274
O O2 0.508915 0.625400 0.068851
O O3 0.415693 0.614298 0.177200
O O4 0.252852 0.516724 0.872912
O O5 0.026869 0.923770 0.848452
O O6 0.051346 0.034807 0.734911
O O7 0.294946 0.907563 0.982712
O O8 0.775785 0.760542 0.809125
O O9 0.794506 0.639387 0.713881
O O10 0.601731 0.641333 0.704006
O O11 0.449543 0.708867 0.376063
O O12 0.868162 0.898628 0.864693
O O13 0.806134 0.848928 0.007138
O O14 0.888697 0.182444 0.564029
O O15 0.602698 0.233910 0.872028
O O16 0.355392 0.123757 0.545395
#
# Coordination Sequence:
#
# PCOD8126900 Si02
#       8
#     4   4   4   4   4   4   4   4
#     4  10  21  44  68  98 135 176 226 277 349 407
#     4  10  23  44  68 102 137 178 227 282 341 408
#     4  12  24  46  68  99 138 188 224 287 338 409
#     4  11  23  43  71 101 140 172 228 290 347 408
#     4  11  26  45  69 102 138 179 229 282 351 407
#     4  11  26  43  71 101 136 179 241 276 340 411
#     4  12  23  46  70  97 139 182 227 282 342 408
#     4  11  23  44  70 102 139 177 222 295 340 408
#
# _framework density 22.205859
#
# number of rings (size 3 to 8) (size 9 to 14) (size 15 to 20)
#    0.000    1.000    6.250    0.375    1.750    4.500 
#    4.500    1.250    0.000    0.000    0.000    0.000 
#    0.000    0.000    0.000    0.000    0.000    0.000 
#
# Total GULP energy -396474.175434 kJ/mol
# GULP energy per Si atom -12389.817982 kJ/mol
# Density = 2.215532 g / cm^3
# Si number density = 22.205859 Si / 1000 Ang^3
#
#
#
# Elastic Constant Matrix: (Units=GPa)
#
#
# Indices 1 2 3 4 5 6 
#
# 1 138.5295 23.5744 28.4620 0.0000 11.1756 0.0000
# 2 23.5744 79.8253 9.0151 0.0000 9.2205 0.0000
# 3 28.4620 9.0151 41.3860 0.0000 16.2968 0.0000
# 4 0.0000 0.0000 0.0000 18.8879 0.0000 1.8870
# 5 11.1756 9.2205 16.2968 0.0000 35.0013 0.0000
# 6 0.0000 0.0000 0.0000 1.8870 0.0000 40.7483
#
#
#
# Elastic Compliance Matrix: (Units=1/GPa)
#
#
# Indices 1 2 3 4 5 6 
#
# 1 0.008694 -0.001969 -0.005708 0.000000 0.000400 0.000000
# 2 -0.001969 0.013478 -0.000528 0.000000 -0.002676 0.000000
# 3 -0.005708 -0.000528 0.033589 0.000000 -0.013678 0.000000
# 4 0.000000 0.000000 0.000000 0.053190 0.000000 -0.002463
# 5 0.000400 -0.002676 -0.013678 0.000000 0.035516 0.000000
# 6 0.000000 0.000000 0.000000 -0.002463 0.000000 0.024655
#
#
# Mechanical properties :
#
#
# Convention : Reuss Voigt Hill
#
# Bulk Modulus (GPa) = 25.41226 42.42709 33.91967
# Shear Modulus (GPa) = 25.17002 32.17344 28.67173
#
# Velocity S-wave (km/s) = 3.37038 3.81053 3.59720
# Velocity P-wave (km/s) = 5.15895 6.20548 5.70626
#
# Compressibility (1/GPa) = 0.03935109
#
# Stress axis : x y z
#
# Youngs Moduli (GPa) = 115.01873 74.19706 29.77146
#
# Poissons Ratio (x) = 0.14611 0.16993
# Poissons Ratio (y) = 0.22650 0.01571
# Poissons Ratio (z) = 0.65652 0.03916
#
# Static dielectric constant tensor:
#      x y z
#    x 4.112650 0.000000 0.162070 
#    y 0.000000 4.413550 0.000000 
#    z 0.162070 0.000000 3.797030 
# 
# 
# High freq. dielectric constant tensor:
#      x y z
#    x 1.888250 0.000000 0.014450 
#    y 0.000000 1.884930 0.000000 
#    z 0.014450 0.000000 1.845840 
# 
# From -- ./inp_files/33079.got.cif
#   From: 2010.03.12/outbox.cif.g09.slc.cpg/sg14_17_cif.got.tgz:33079.got - 2010.03.31 13:35:05.
