data_PCOD8126748
_publ_section_title
;
Structure prediction by ZEFSAII (Michael W. Deem and Ramdas Pophale) SiO2 
 PCOD8126748
Probable space group: P 21/C
;
_chemical_formula_sum "Si O2"
_cell_formula_units_Z 32
_cell_length_a 21.567311
_cell_length_b 10.829435
_cell_length_c 22.306126
_cell_angle_alpha 90.000000
_cell_angle_beta 17.430674
_cell_angle_gamma 90.000000
_cell_volume 1560.621603
_symmetry_space_group_name_H-M "P 21/C"
_symmetry_group_IT_number 14
_symmetry_cell_setting 'monoclinic'
loop_
_space_group_symop_operation_xyz
x,y,z
-x,1/2+y,1/2-z
-x,-y,-z
x,1/2-y,1/2+z
loop_
_atom_site_type_symbol
_atom_site_label
_atom_site_fract_x
_atom_site_fract_y
_atom_site_fract_z
Si Si1 0.249220 0.264058 0.488291
Si Si2 0.347215 0.735308 0.570796
Si Si3 0.626740 0.307296 0.715335
Si Si4 0.122451 0.646312 0.096982
Si Si5 0.026415 0.080499 0.619801
Si Si6 0.231423 0.097817 0.303048
Si Si7 0.511310 0.083882 0.659595
Si Si8 0.813336 0.317790 0.159495
O O1 0.411398 0.252956 0.392801
O O2 0.171075 0.131078 0.539520
O O3 0.333244 0.330016 0.351103
O O4 0.052068 0.338334 0.692735
O O5 0.557306 0.669483 0.395570
O O6 0.397690 0.858045 0.485940
O O7 0.232136 0.767304 0.739718
O O8 0.201544 0.642714 0.666472
O O9 0.796693 0.275726 0.506785
O O10 0.596117 0.452409 0.754030
O O11 0.694527 0.243094 0.714081
O O12 0.022448 0.565788 0.135466
O O13 0.309478 0.573410 0.956375
O O14 0.134351 0.105004 0.457950
O O15 0.060398 0.166820 0.418553
O O16 0.270755 0.955979 0.247642
#
# Coordination Sequence:
#
# PCOD8126748 Si02
#       8
#     4   4   4   4   4   4   4   4
#     4  11  24  39  65  93 128 165 202 258 320 373
#     4  11  23  39  68  90 123 168 210 255 317 370
#     4  11  25  42  61  94 131 166 207 261 314 382
#     4  11  24  40  61  95 129 163 209 260 316 382
#     4  11  21  39  67  94 121 161 210 260 312 373
#     4  10  21  42  64  91 125 156 214 270 305 365
#     4  11  24  40  62  93 130 166 208 256 317 382
#     4  10  23  41  62  92 124 164 211 262 310 369
#
# _framework density 20.504652
#
# number of rings (size 3 to 8) (size 9 to 14) (size 15 to 20)
#    0.000    1.250    5.000    0.375    3.500    1.500 
#    0.000    0.625    0.000    0.000    0.000    0.000 
#    0.000    0.000    0.000    0.000    0.000    0.000 
#
# Total GULP energy -396656.100383 kJ/mol
# GULP energy per Si atom -12395.503137 kJ/mol
# Density = 2.045798 g / cm^3
# Si number density = 20.504652 Si / 1000 Ang^3
#
#
#
# Elastic Constant Matrix: (Units=GPa)
#
#
# Indices 1 2 3 4 5 6 
#
# 1 109.7038 46.7912 30.5330 0.0000 -5.0829 0.0000
# 2 46.7912 94.7708 39.2616 0.0000 -14.0645 0.0000
# 3 30.5330 39.2616 80.5735 0.0000 -3.3971 0.0000
# 4 0.0000 0.0000 0.0000 26.4812 0.0000 -3.7812
# 5 -5.0829 -14.0645 -3.3971 0.0000 22.8101 0.0000
# 6 0.0000 0.0000 0.0000 -3.7812 0.0000 35.6352
#
#
#
# Elastic Compliance Matrix: (Units=1/GPa)
#
#
# Indices 1 2 3 4 5 6 
#
# 1 0.011825 -0.005124 -0.002019 0.000000 -0.000825 0.000000
# 2 -0.005124 0.016746 -0.005868 0.000000 0.008310 0.000000
# 3 -0.002019 -0.005868 0.015964 0.000000 -0.001690 0.000000
# 4 0.000000 0.000000 0.000000 0.038344 0.000000 0.004069
# 5 -0.000825 0.008310 -0.001690 0.000000 0.048528 0.000000
# 6 0.000000 0.000000 0.000000 0.004069 0.000000 0.028494
#
#
# Mechanical properties :
#
#
# Convention : Reuss Voigt Hill
#
# Bulk Modulus (GPa) = 54.01619 57.57996 55.79807
# Shear Modulus (GPa) = 26.02912 28.21615 27.12264
#
# Velocity S-wave (km/s) = 3.56676 3.71359 3.64092
# Velocity P-wave (km/s) = 6.58506 6.82129 6.70422
#
# Compressibility (1/GPa) = 0.01851297
#
# Stress axis : x y z
#
# Youngs Moduli (GPa) = 84.56846 59.71625 62.64123
#
# Poissons Ratio (x) = 0.30601 0.12646
# Poissons Ratio (y) = 0.43336 0.36756
# Poissons Ratio (z) = 0.17072 0.35039
#
# Static dielectric constant tensor:
#      x y z
#    x 3.890290 0.000000 -0.171280 
#    y 0.000000 3.613980 0.000000 
#    z -0.171280 0.000000 3.868170 
# 
# 
# High freq. dielectric constant tensor:
#      x y z
#    x 1.810730 0.000000 -0.008210 
#    y 0.000000 1.779730 0.000000 
#    z -0.008210 0.000000 1.806900 
# 
# From -- ./inp_files/69906.got.cif
#   From: 2010.03.12/outbox.cif.g09.slc.cpg/sg14_35_cif.got.tgz:69906.got - 2010.03.31 13:35:05.
