data_PCOD8126757
_publ_section_title
;
Structure prediction by ZEFSAII (Michael W. Deem and Ramdas Pophale) SiO2 
 PCOD8126757
Probable space group: P 21/C
;
_chemical_formula_sum "Si O2"
_cell_formula_units_Z 32
_cell_length_a 11.128596
_cell_length_b 9.462807
_cell_length_c 19.388924
_cell_angle_alpha 90.000000
_cell_angle_beta 51.709374
_cell_angle_gamma 90.000000
_cell_volume 1602.566613
_symmetry_space_group_name_H-M "P 21/C"
_symmetry_group_IT_number 14
_symmetry_cell_setting 'monoclinic'
loop_
_space_group_symop_operation_xyz
x,y,z
-x,1/2+y,1/2-z
-x,-y,-z
x,1/2-y,1/2+z
loop_
_atom_site_type_symbol
_atom_site_label
_atom_site_fract_x
_atom_site_fract_y
_atom_site_fract_z
Si Si1 0.119623 0.849466 0.880398
Si Si2 0.359450 0.408152 0.528460
Si Si3 0.517817 0.129702 0.445623
Si Si4 0.133426 0.978043 0.218660
Si Si5 0.419194 0.159809 0.333353
Si Si6 0.210244 0.102424 0.939620
Si Si7 0.678756 0.392356 0.216293
Si Si8 0.131790 0.666504 0.213243
O O1 0.185756 0.690924 0.873130
O O2 0.124320 0.876106 0.796624
O O3 0.214795 0.973624 0.884007
O O4 0.951267 0.857894 0.970530
O O5 0.500000 0.500000 0.500000
O O6 0.416799 0.249475 0.518111
O O7 0.212431 0.439495 0.627472
O O8 0.324797 0.439330 0.460549
O O9 0.441266 0.092364 0.400248
O O10 0.696069 0.165940 0.375686
O O11 0.500000 0.000000 0.500000
O O12 0.254001 0.959161 0.237669
O O13 0.071901 0.824189 0.219598
O O14 0.979911 0.065823 0.291767
O O15 0.267256 0.255532 0.381038
O O16 0.561885 0.263319 0.269368
O O17 0.404025 0.023111 0.290509
#
# Coordination Sequence:
#
# PCOD8126757 Si02
#       8
#     4   4   4   4   4   4   4   4
#     4  10  21  42  65  90 131 167 209 262 314 379
#     4  11  21  42  63  92 128 168 213 260 323 376
#     4  11  25  41  64  94 131 162 211 272 316 377
#     4  11  23  41  67  93 129 171 210 266 315 390
#     4  11  23  42  64  92 128 165 210 264 319 369
#     4  10  22  39  67  93 126 168 209 264 315 380
#     4  11  24  43  65  94 129 168 213 268 311 386
#     4  11  23  43  62  95 129 167 214 260 322 380
#
# _framework density 19.967967000000002
#
# number of rings (size 3 to 8) (size 9 to 14) (size 15 to 20)
#    0.000    1.250    5.000    1.500    1.750    4.500 
#    0.000    0.000    0.000    0.000    0.000    0.000 
#    0.000    0.000    0.000    0.000    0.000    0.000 
#
# Total GULP energy -396622.150958 kJ/mol
# GULP energy per Si atom -12394.442217 kJ/mol
# Density = 1.992252 g / cm^3
# Si number density = 19.967967 Si / 1000 Ang^3
#
#
#
# Elastic Constant Matrix: (Units=GPa)
#
#
# Indices 1 2 3 4 5 6 
#
# 1 97.8240 80.2416 26.3255 0.0000 -3.1095 0.0000
# 2 80.2416 156.6956 51.1117 0.0000 12.5885 0.0000
# 3 26.3255 51.1117 68.8508 0.0000 3.9737 0.0000
# 4 0.0000 0.0000 0.0000 42.0861 0.0000 -4.8199
# 5 -3.1095 12.5885 3.9737 0.0000 23.6153 0.0000
# 6 0.0000 0.0000 0.0000 -4.8199 0.0000 47.8953
#
#
#
# Elastic Compliance Matrix: (Units=1/GPa)
#
#
# Indices 1 2 3 4 5 6 
#
# 1 0.018978 -0.010351 -0.000035 0.000000 0.008023 0.000000
# 2 -0.010351 0.014358 -0.006241 0.000000 -0.007967 0.000000
# 3 -0.000035 -0.006241 0.019165 0.000000 0.000098 0.000000
# 4 0.000000 0.000000 0.000000 0.024038 0.000000 0.002419
# 5 0.008023 -0.007967 0.000098 0.000000 0.047632 0.000000
# 6 0.000000 0.000000 0.000000 0.002419 0.000000 0.021122
#
#
# Mechanical properties :
#
#
# Convention : Reuss Voigt Hill
#
# Bulk Modulus (GPa) = 51.95853 70.96978 61.46415
# Shear Modulus (GPa) = 27.03225 33.76545 30.39885
#
# Velocity S-wave (km/s) = 3.68337 4.11661 3.90600
# Velocity P-wave (km/s) = 6.64583 7.62983 7.15477
#
# Compressibility (1/GPa) = 0.01924612
#
# Stress axis : x y z
#
# Youngs Moduli (GPa) = 52.69342 69.64539 52.17802
#
# Poissons Ratio (x) = 0.72092 0.00182
# Poissons Ratio (y) = 0.54545 0.32566
# Poissons Ratio (z) = 0.00184 0.43468
#
# Static dielectric constant tensor:
#      x y z
#    x 3.807770 0.000000 -0.055260 
#    y 0.000000 3.629990 0.000000 
#    z -0.055260 0.000000 4.555280 
# 
# 
# High freq. dielectric constant tensor:
#      x y z
#    x 1.787850 0.000000 -0.015290 
#    y 0.000000 1.786760 0.000000 
#    z -0.015290 0.000000 1.776390 
# 
# From -- ./inp_files/67015.got.cif
#   From: 2010.03.12/outbox.cif.g09.slc.cpg/sg14_34_cif.got.tgz:67015.got - 2010.03.31 13:35:05.
