data_PCOD8126290
_publ_section_title
;
Structure prediction by ZEFSAII (Michael W. Deem and Ramdas Pophale) SiO2 
 PCOD8126290
Probable space group: P 21/C
;
_chemical_formula_sum "Si O2"
_cell_formula_units_Z 32
_cell_length_a 12.112926
_cell_length_b 18.349408
_cell_length_c 9.720777
_cell_angle_alpha 90.000000
_cell_angle_beta 127.759041
_cell_angle_gamma 90.000000
_cell_volume 1708.146218
_symmetry_space_group_name_H-M "P 21/C"
_symmetry_group_IT_number 14
_symmetry_cell_setting 'monoclinic'
loop_
_space_group_symop_operation_xyz
x,y,z
-x,1/2+y,1/2-z
-x,-y,-z
x,1/2-y,1/2+z
loop_
_atom_site_type_symbol
_atom_site_label
_atom_site_fract_x
_atom_site_fract_y
_atom_site_fract_z
Si Si1 0.810260 0.814642 0.324264
Si Si2 0.812625 0.675323 0.149233
Si Si3 0.619672 0.467367 0.183250
Si Si4 0.375340 0.968771 0.995490
Si Si5 0.507328 0.313428 0.104717
Si Si6 0.081898 0.034500 0.686309
Si Si7 0.490199 0.686978 0.587144
Si Si8 0.909873 0.518947 0.301427
O O1 0.860040 0.742033 0.282646
O O2 0.838123 0.805650 0.508449
O O3 0.897437 0.880711 0.328352
O O4 0.648899 0.833541 0.167674
O O5 0.904086 0.604965 0.260844
O O6 0.648994 0.659964 0.053484
O O7 0.611116 0.495323 0.335177
O O8 0.612474 0.380366 0.174601
O O9 0.757165 0.490183 0.210621
O O10 0.500000 0.500000 0.000000
O O11 0.227762 0.992846 0.821487
O O12 0.387155 0.881449 0.995676
O O13 0.500000 0.000000 0.000000
O O14 0.508144 0.280903 0.258278
O O15 0.566895 0.250616 0.052982
O O16 0.000000 0.000000 0.500000
O O17 0.979686 0.027695 0.735821
O O18 0.000000 0.500000 0.500000
#
# Coordination Sequence:
#
# PCOD8126290 Si02
#       8
#     4   4   4   4   4   4   4   4
#     4  10  21  39  63  92 123 169 212 262 319 387
#     4  10  21  39  63  91 126 164 216 260 319 386
#     4  11  23  40  65  92 125 163 213 261 316 375
#     4  11  23  40  65  93 123 163 214 263 314 377
#     4   9  19  37  60  90 120 157 203 263 312 368
#     4  12  25  43  65  93 133 171 216 265 322 383
#     4   9  19  37  60  90 123 152 207 262 312 368
#     4  12  25  43  63  95 133 172 215 267 321 388
#
# _framework density 18.733757000000001
#
# number of rings (size 3 to 8) (size 9 to 14) (size 15 to 20)
#    0.000    1.500    5.000    0.000    3.500    1.000 
#    0.000    2.500    0.000    0.000    0.000    0.000 
#    0.000    0.000    0.000    0.000    0.000    0.000 
#
# Total GULP energy -396787.004403 kJ/mol
# GULP energy per Si atom -12399.593888 kJ/mol
# Density = 1.869112 g / cm^3
# Si number density = 18.733757 Si / 1000 Ang^3
#
#
#
# Elastic Constant Matrix: (Units=GPa)
#
#
# Indices 1 2 3 4 5 6 
#
# 1 124.5152 53.3004 61.4047 0.0000 -11.1419 0.0000
# 2 53.3004 121.2324 60.0317 0.0000 -12.1520 0.0000
# 3 61.4047 60.0317 137.0352 0.0000 -8.9211 0.0000
# 4 0.0000 0.0000 0.0000 36.5516 0.0000 -5.4288
# 5 -11.1419 -12.1520 -8.9211 0.0000 30.7633 0.0000
# 6 0.0000 0.0000 0.0000 -5.4288 0.0000 32.5465
#
#
#
# Elastic Compliance Matrix: (Units=1/GPa)
#
#
# Indices 1 2 3 4 5 6 
#
# 1 0.011254 -0.002969 -0.003622 0.000000 0.001853 0.000000
# 2 -0.002969 0.011573 -0.003579 0.000000 0.002458 0.000000
# 3 -0.003622 -0.003579 0.010509 0.000000 0.000322 0.000000
# 4 0.000000 0.000000 0.000000 0.028054 0.000000 0.004679
# 5 0.001853 0.002458 0.000322 0.000000 0.034242 0.000000
# 6 0.000000 0.000000 0.000000 0.004679 0.000000 0.031506
#
#
# Mechanical properties :
#
#
# Convention : Reuss Voigt Hill
#
# Bulk Modulus (GPa) = 76.94536 81.36183 79.15360
# Shear Modulus (GPa) = 32.93629 33.84201 33.38915
#
# Velocity S-wave (km/s) = 4.19755 4.25487 4.22631
# Velocity P-wave (km/s) = 8.04082 8.22578 8.13383
#
# Compressibility (1/GPa) = 0.01299624
#
# Stress axis : x y z
#
# Youngs Moduli (GPa) = 88.85936 86.41045 95.15439
#
# Poissons Ratio (x) = 0.25652 0.34461
# Poissons Ratio (y) = 0.26380 0.34060
# Poissons Ratio (z) = 0.32181 0.30930
#
# Static dielectric constant tensor:
#      x y z
#    x 3.462460 0.000000 -0.153200 
#    y 0.000000 3.010130 0.000000 
#    z -0.153200 0.000000 3.547140 
# 
# 
# High freq. dielectric constant tensor:
#      x y z
#    x 1.723900 0.000000 -0.015980 
#    y 0.000000 1.728890 0.000000 
#    z -0.015980 0.000000 1.735670 
# 
# From -- ./inp_files/13893.got.cif
#   From: 2010.03.12/outbox.cif.g09.slc.cpg/sg14_7_cif.got.tgz:13893.got - 2010.03.31 13:35:05.
