data_PCOD8126097
_publ_section_title
;
Structure prediction by ZEFSAII (Michael W. Deem and Ramdas Pophale) SiO2 
 PCOD8126097
Probable space group: P 21/C
;
_chemical_formula_sum "Si O2"
_cell_formula_units_Z 32
_cell_length_a 5.986367
_cell_length_b 8.190817
_cell_length_c 30.423045
_cell_angle_alpha 90.000000
_cell_angle_beta 65.012920
_cell_angle_gamma 90.000000
_cell_volume 1352.118034
_symmetry_space_group_name_H-M "P 21/C"
_symmetry_group_IT_number 14
_symmetry_cell_setting 'monoclinic'
loop_
_space_group_symop_operation_xyz
x,y,z
-x,1/2+y,1/2-z
-x,-y,-z
x,1/2-y,1/2+z
loop_
_atom_site_type_symbol
_atom_site_label
_atom_site_fract_x
_atom_site_fract_y
_atom_site_fract_z
Si Si1 0.987669 0.093446 0.813078
Si Si2 0.621733 0.736856 0.504646
Si Si3 0.381015 0.571858 0.952779
Si Si4 0.806996 0.420849 0.784527
Si Si5 0.701776 0.803547 0.655525
Si Si6 0.515568 0.576365 0.600963
Si Si7 0.905130 0.567604 0.865133
Si Si8 0.096840 0.794867 0.915637
O O1 0.906543 0.248657 0.791966
O O2 0.761228 0.027349 0.861689
O O3 0.222173 0.141375 0.823502
O O4 0.069815 0.955003 0.772429
O O5 0.406830 0.787545 0.488265
O O6 0.518398 0.605743 0.548326
O O7 0.848322 0.648228 0.460928
O O8 0.721933 0.903332 0.518835
O O9 0.646374 0.540023 0.909806
O O10 0.196513 0.632343 0.930949
O O11 0.511778 0.407774 0.802522
O O12 0.876343 0.561492 0.814625
O O13 0.599340 0.745527 0.616803
O O14 0.940038 0.914002 0.630175
O O15 0.698600 0.433915 0.600924
O O16 0.030717 0.738023 0.870974
#
# Coordination Sequence:
#
# PCOD8126097 Si02
#       8
#     4   4   4   4   4   4   4   4
#     4  10  24  42  64  90 122 161 202 255 312 371
#     4  10  21  38  60  87 124 167 212 254 305 368
#     4  10  21  38  61  91 121 165 215 254 304 366
#     4  10  22  41  63  90 121 157 204 255 311 373
#     4  10  22  41  65  88 120 164 204 251 309 370
#     4  11  24  41  59  91 129 163 203 255 316 370
#     4  10  21  40  63  89 122 163 208 256 304 364
#     4  11  23  37  62  94 124 164 208 256 310 367
#
# _framework density 23.666571999999999
#
# number of rings (size 3 to 8) (size 9 to 14) (size 15 to 20)
#    0.000    1.750    0.000    4.500    0.000   12.500 
#    0.000    1.250    0.000    0.000    0.000    0.000 
#    0.000    0.000    0.000    0.000    0.000    0.000 
#
# Total GULP energy -396847.065907 kJ/mol
# GULP energy per Si atom -12401.470810 kJ/mol
# Density = 2.361271 g / cm^3
# Si number density = 23.666572 Si / 1000 Ang^3
#
#
#
# Elastic Constant Matrix: (Units=GPa)
#
#
# Indices 1 2 3 4 5 6 
#
# 1 87.2937 15.3438 37.1716 0.0000 -6.1549 0.0000
# 2 15.3438 53.3790 18.8935 0.0000 -11.8823 0.0000
# 3 37.1716 18.8935 108.7638 0.0000 -14.6948 0.0000
# 4 0.0000 0.0000 0.0000 34.9189 0.0000 -2.4622
# 5 -6.1549 -11.8823 -14.6948 0.0000 25.8816 0.0000
# 6 0.0000 0.0000 0.0000 -2.4622 0.0000 43.4737
#
#
#
# Elastic Compliance Matrix: (Units=1/GPa)
#
#
# Indices 1 2 3 4 5 6 
#
# 1 0.013698 -0.002490 -0.004293 0.000000 -0.000323 0.000000
# 2 -0.002490 0.021979 -0.001824 0.000000 0.008463 0.000000
# 3 -0.004293 -0.001824 0.011618 0.000000 0.004738 0.000000
# 4 0.000000 0.000000 0.000000 0.028753 0.000000 0.001628
# 5 -0.000323 0.008463 0.004738 0.000000 0.045137 0.000000
# 6 0.000000 0.000000 0.000000 0.001628 0.000000 0.023095
#
#
# Mechanical properties :
#
#
# Convention : Reuss Voigt Hill
#
# Bulk Modulus (GPa) = 33.24117 43.58381 38.41249
# Shear Modulus (GPa) = 29.15109 32.72333 30.93721
#
# Velocity S-wave (km/s) = 3.51342 3.72248 3.61946
# Velocity P-wave (km/s) = 5.52585 6.07713 5.80803
#
# Compressibility (1/GPa) = 0.03008318
#
# Stress axis : x y z
#
# Youngs Moduli (GPa) = 73.00101 45.49770 86.07104
#
# Poissons Ratio (x) = 0.11329 0.36948
# Poissons Ratio (y) = 0.18178 0.15696
# Poissons Ratio (z) = 0.31337 0.08297
#
# Static dielectric constant tensor:
#      x y z
#    x 4.557060 0.000000 0.191620 
#    y 0.000000 4.018320 0.000000 
#    z 0.191620 0.000000 4.329790 
# 
# 
# High freq. dielectric constant tensor:
#      x y z
#    x 1.944380 0.000000 0.005320 
#    y 0.000000 1.928040 0.000000 
#    z 0.005320 0.000000 1.933670 
# 
# From -- ./inp_files/78796.got.cif
#   From: 2010.03.12/outbox.cif.g09.slc.cpg/sg14_40_cif.got.tgz:78796.got - 2010.03.31 13:35:05.
