data_PCOD8126485
_publ_section_title
;
Structure prediction by ZEFSAII (Michael W. Deem and Ramdas Pophale) SiO2 
 PCOD8126485
Probable space group: P 21/C
;
_chemical_formula_sum "Si O2"
_cell_formula_units_Z 24
_cell_length_a 11.435224
_cell_length_b 15.560486
_cell_length_c 10.532084
_cell_angle_alpha 90.000000
_cell_angle_beta 35.500345
_cell_angle_gamma 90.000000
_cell_volume 1088.278001
_symmetry_space_group_name_H-M "P 21/C"
_symmetry_group_IT_number 14
_symmetry_cell_setting 'monoclinic'
loop_
_space_group_symop_operation_xyz
x,y,z
-x,1/2+y,1/2-z
-x,-y,-z
x,1/2-y,1/2+z
loop_
_atom_site_type_symbol
_atom_site_label
_atom_site_fract_x
_atom_site_fract_y
_atom_site_fract_z
Si Si1 0.301800 0.857352 0.858484
Si Si2 0.692670 0.617589 0.337799
Si Si3 0.337805 0.887131 0.540213
Si Si4 0.464245 0.501512 0.720857
Si Si5 0.610585 0.751897 0.213589
Si Si6 0.001478 0.275801 0.784983
O O1 0.306761 0.902412 0.716310
O O2 0.468887 0.782344 0.724091
O O3 0.355075 0.934071 0.909964
O O4 0.084869 0.812112 0.075021
O O5 0.562945 0.588187 0.574887
O O6 0.701084 0.536911 0.232340
O O7 0.577654 0.692842 0.366125
O O8 0.907880 0.656215 0.192667
O O9 0.338329 0.976415 0.460495
O O10 0.554605 0.845970 0.314496
O O11 0.171479 0.821372 0.640092
O O12 0.835203 0.747674 0.962729
#
# Coordination Sequence:
#
# PCOD8126485 Si02
#       6
#     4   4   4   4   4   4
#     4  10  23  41  64  92 130 167 214 261 317 379
#     4  10  21  42  66  90 128 165 213 259 312 381
#     4  11  22  38  65  92 129 169 211 259 319 376
#     4  10  22  43  64  94 130 169 205 266 325 366
#     4  10  21  40  65  92 124 173 213 262 311 374
#     4  11  22  40  64  99 122 169 218 258 314 382
#
# _framework density 22.053189
#
# number of rings (size 3 to 8) (size 9 to 14) (size 15 to 20)
#    0.000    1.667    1.667    2.500    2.333    0.667 
#   12.000    0.833    0.000    0.000    0.000    0.000 
#    0.000    0.000    0.000    0.000    0.000    0.000 
#
# Total GULP energy -297427.442646 kJ/mol
# GULP energy per Si atom -12392.810110 kJ/mol
# Density = 2.200299 g / cm^3
# Si number density = 22.053189 Si / 1000 Ang^3
#
#
#
# Elastic Constant Matrix: (Units=GPa)
#
#
# Indices 1 2 3 4 5 6 
#
# 1 109.1323 32.3102 42.7904 0.0000 20.9334 0.0000
# 2 32.3102 74.0935 44.0883 0.0000 8.3527 0.0000
# 3 42.7904 44.0883 110.8240 0.0000 7.1923 0.0000
# 4 0.0000 0.0000 0.0000 31.0738 0.0000 0.9287
# 5 20.9334 8.3527 7.1923 0.0000 25.6130 0.0000
# 6 0.0000 0.0000 0.0000 0.9287 0.0000 43.6844
#
#
#
# Elastic Compliance Matrix: (Units=1/GPa)
#
#
# Indices 1 2 3 4 5 6 
#
# 1 0.012956 -0.002650 -0.003379 0.000000 -0.008776 0.000000
# 2 -0.002650 0.018607 -0.006240 0.000000 -0.002150 0.000000
# 3 -0.003379 -0.006240 0.012731 0.000000 0.001221 0.000000
# 4 0.000000 0.000000 0.000000 0.032202 0.000000 -0.000685
# 5 -0.008776 -0.002150 0.001221 0.000000 0.046573 0.000000
# 6 0.000000 0.000000 0.000000 -0.000685 0.000000 0.022906
#
#
# Mechanical properties :
#
#
# Convention : Reuss Voigt Hill
#
# Bulk Modulus (GPa) = 50.61392 59.15862 54.88627
# Shear Modulus (GPa) = 28.23304 31.73166 29.98235
#
# Velocity S-wave (km/s) = 3.58190 3.79736 3.69120
# Velocity P-wave (km/s) = 6.33304 6.79045 6.56573
#
# Compressibility (1/GPa) = 0.01975741
#
# Stress axis : x y z
#
# Youngs Moduli (GPa) = 77.18521 53.74251 78.54921
#
# Poissons Ratio (x) = 0.14242 0.26539
# Poissons Ratio (y) = 0.20454 0.49012
# Poissons Ratio (z) = 0.26078 0.33533
#
# Static dielectric constant tensor:
#      x y z
#    x 4.123250 0.000000 0.051710 
#    y 0.000000 3.996590 0.000000 
#    z 0.051710 0.000000 3.704060 
# 
# 
# High freq. dielectric constant tensor:
#      x y z
#    x 1.881550 0.000000 0.013840 
#    y 0.000000 1.869130 0.000000 
#    z 0.013840 0.000000 1.840330 
# 
# From -- ./inp_files/30362.got.cif
#   From: 2010.03.12/outbox.cif.g09.slc.cpg/sg14_16_cif.got.tgz:30362.got - 2010.03.31 13:35:05.
