data_PCOD8126618
_publ_section_title
;
Structure prediction by ZEFSAII (Michael W. Deem and Ramdas Pophale) SiO2 
 PCOD8126618
Probable space group: P 21/C
;
_chemical_formula_sum "Si O2"
_cell_formula_units_Z 32
_cell_length_a 5.022504
_cell_length_b 24.092416
_cell_length_c 12.205718
_cell_angle_alpha 90.000000
_cell_angle_beta 106.915763
_cell_angle_gamma 90.000000
_cell_volume 1413.041737
_symmetry_space_group_name_H-M "P 21/C"
_symmetry_group_IT_number 14
_symmetry_cell_setting 'monoclinic'
loop_
_space_group_symop_operation_xyz
x,y,z
-x,1/2+y,1/2-z
-x,-y,-z
x,1/2-y,1/2+z
loop_
_atom_site_type_symbol
_atom_site_label
_atom_site_fract_x
_atom_site_fract_y
_atom_site_fract_z
Si Si1 0.823281 0.571700 0.786477
Si Si2 0.256015 0.457374 0.454539
Si Si3 0.667083 0.787537 0.718816
Si Si4 0.225439 0.836884 0.822019
Si Si5 0.920003 0.558276 0.341701
Si Si6 0.616341 0.007558 0.636884
Si Si7 0.724946 0.688545 0.876547
Si Si8 0.281659 0.765876 0.473899
O O1 0.717154 0.582689 0.648513
O O2 0.643272 0.522448 0.817299
O O3 0.756614 0.625420 0.848603
O O4 0.147759 0.555395 0.836480
O O5 0.500000 0.500000 0.500000
O O6 0.226261 0.420008 0.562266
O O7 0.994253 0.495666 0.387817
O O8 0.496429 0.828423 0.779713
O O9 0.757710 0.728772 0.777502
O O10 0.496827 0.769187 0.595640
O O11 0.945738 0.820833 0.721082
O O12 0.243620 0.798082 0.932176
O O13 0.184820 0.901500 0.850762
O O14 0.735774 0.549616 0.208378
O O15 0.500000 0.000000 0.500000
O O16 0.422843 0.698019 0.893566
O O17 0.993522 0.706689 0.981309
#
# Coordination Sequence:
#
# PCOD8126618 Si02
#       8
#     4   4   4   4   4   4   4   4
#     4  11  23  42  64  94 121 169 215 254 326 371
#     4  10  21  41  64  90 129 163 210 273 310 371
#     4  10  22  41  61  90 124 159 204 258 312 372
#     4  10  23  39  63  94 121 164 212 252 319 380
#     4  10  23  41  61  95 128 165 214 263 317 380
#     4  11  24  41  63  93 133 167 212 261 311 383
#     4  10  22  40  61  91 122 155 212 259 303 382
#     4  10  21  42  61  89 128 162 205 265 313 376
#
# _framework density 22.646183000000001
#
# number of rings (size 3 to 8) (size 9 to 14) (size 15 to 20)
#    0.000    1.750    1.250    1.875    1.750    4.000 
#   11.250    0.000    0.000    0.000    0.000    0.000 
#    0.000    0.000    0.000    0.000    0.000    0.000 
#
# Total GULP energy -396503.604839 kJ/mol
# GULP energy per Si atom -12390.737651 kJ/mol
# Density = 2.259464 g / cm^3
# Si number density = 22.646183 Si / 1000 Ang^3
#
#
#
# Elastic Constant Matrix: (Units=GPa)
#
#
# Indices 1 2 3 4 5 6 
#
# 1 102.1170 -4.9204 8.0455 0.0000 18.8351 0.0000
# 2 -4.9204 75.2677 19.3763 0.0000 -2.1138 0.0000
# 3 8.0455 19.3763 122.0397 0.0000 5.9611 0.0000
# 4 0.0000 0.0000 0.0000 9.1179 0.0000 0.1967
# 5 18.8351 -2.1138 5.9611 0.0000 34.1745 0.0000
# 6 0.0000 0.0000 0.0000 0.1967 0.0000 31.6191
#
#
#
# Elastic Compliance Matrix: (Units=1/GPa)
#
#
# Indices 1 2 3 4 5 6 
#
# 1 0.010957 0.000691 -0.000544 0.000000 -0.005902 0.000000
# 2 0.000691 0.013949 -0.002303 0.000000 0.000884 0.000000
# 3 -0.000544 -0.002303 0.008662 0.000000 -0.001354 0.000000
# 4 0.000000 0.000000 0.000000 0.109689 0.000000 -0.000682
# 5 -0.005902 0.000884 -0.001354 0.000000 0.032805 0.000000
# 6 0.000000 0.000000 0.000000 -0.000682 0.000000 0.031631
#
#
# Mechanical properties :
#
#
# Convention : Reuss Voigt Hill
#
# Bulk Modulus (GPa) = 34.18248 38.26969 36.22609
# Shear Modulus (GPa) = 22.54718 33.44383 27.99550
#
# Velocity S-wave (km/s) = 3.15878 3.84708 3.51980
# Velocity P-wave (km/s) = 5.33205 6.05550 5.70525
#
# Compressibility (1/GPa) = 0.02925475
#
# Stress axis : x y z
#
# Youngs Moduli (GPa) = 91.26322 71.69052 115.45039
#
# Poissons Ratio (x) = -0.04950 0.06278
# Poissons Ratio (y) = -0.06302 0.26592
# Poissons Ratio (z) = 0.04962 0.16513
#
# Static dielectric constant tensor:
#      x y z
#    x 4.419400 0.000000 0.188870 
#    y 0.000000 3.972680 0.000000 
#    z 0.188870 0.000000 4.641660 
# 
# 
# High freq. dielectric constant tensor:
#      x y z
#    x 1.907910 0.000000 0.007720 
#    y 0.000000 1.873470 0.000000 
#    z 0.007720 0.000000 1.894320 
# 
# From -- ./inp_files/22189.got.cif
#   From: 2010.03.12/outbox.cif.g09.slc.cpg/sg14_12_cif.got.tgz:22189.got - 2010.03.31 13:35:05.
