data_PCOD8126687
_publ_section_title
;
Structure prediction by ZEFSAII (Michael W. Deem and Ramdas Pophale) SiO2 
 PCOD8126687
Probable space group: P 21/C
;
_chemical_formula_sum "Si O2"
_cell_formula_units_Z 32
_cell_length_a 15.977924
_cell_length_b 10.671229
_cell_length_c 13.578128
_cell_angle_alpha 90.000000
_cell_angle_beta 37.295610
_cell_angle_gamma 90.000000
_cell_volume 1402.798576
_symmetry_space_group_name_H-M "P 21/C"
_symmetry_group_IT_number 14
_symmetry_cell_setting 'monoclinic'
loop_
_space_group_symop_operation_xyz
x,y,z
-x,1/2+y,1/2-z
-x,-y,-z
x,1/2-y,1/2+z
loop_
_atom_site_type_symbol
_atom_site_label
_atom_site_fract_x
_atom_site_fract_y
_atom_site_fract_z
Si Si1 0.687598 0.384367 0.486694
Si Si2 0.187436 0.081195 0.003005
Si Si3 0.384947 0.444425 0.765030
Si Si4 0.375928 0.321070 0.179063
Si Si5 0.650422 0.401199 0.005456
Si Si6 0.159736 0.002911 0.324190
Si Si7 0.784467 0.751615 0.842457
Si Si8 0.078461 0.003512 0.823635
O O1 0.746899 0.449003 0.527918
O O2 0.547959 0.463313 0.586385
O O3 0.665182 0.239174 0.535333
O O4 0.799237 0.398163 0.294418
O O5 0.238348 0.193885 0.027261
O O6 0.021850 0.068391 0.159844
O O7 0.241149 0.101992 0.841294
O O8 0.368406 0.297601 0.759534
O O9 0.357713 0.490712 0.902788
O O10 0.270580 0.518769 0.808290
O O11 0.513591 0.401636 0.066608
O O12 0.357289 0.298494 0.078599
O O13 0.775869 0.431208 0.814335
O O14 0.168057 0.140824 0.274357
O O15 0.000000 0.000000 0.500000
O O16 0.901024 0.644772 0.735095
O O17 0.000000 0.000000 0.000000
#
# Coordination Sequence:
#
# PCOD8126687 Si02
#       8
#     4   4   4   4   4   4   4   4
#     4  10  23  42  65  98 136 179 230 284 337 404
#     4  11  23  44  71  95 143 177 232 280 346 410
#     4  10  21  41  68  97 135 177 231 283 343 403
#     4  10  21  46  70  99 135 181 232 283 343 412
#     4  11  25  42  68 102 137 176 233 285 340 411
#     4  10  23  39  70  98 130 179 232 283 343 409
#     4  10  24  45  68  98 134 188 224 280 354 405
#     4  12  27  44  66 101 141 179 222 291 346 410
#
# _framework density 22.811543
#
# number of rings (size 3 to 8) (size 9 to 14) (size 15 to 20)
#    0.000    1.500    2.500    1.125    7.000    1.500 
#    0.000    0.000    0.000    0.000    0.000    0.000 
#    0.000    0.000    0.000    0.000    0.000    0.000 
#
# Total GULP energy -396430.138767 kJ/mol
# GULP energy per Si atom -12388.441836 kJ/mol
# Density = 2.275962 g / cm^3
# Si number density = 22.811543 Si / 1000 Ang^3
#
#
#
# Elastic Constant Matrix: (Units=GPa)
#
#
# Indices 1 2 3 4 5 6 
#
# 1 103.7055 30.5726 42.4843 0.0000 -12.0299 0.0000
# 2 30.5726 55.8589 20.5595 0.0000 -3.1508 0.0000
# 3 42.4843 20.5595 124.1600 0.0000 -19.4858 0.0000
# 4 0.0000 0.0000 0.0000 22.9451 0.0000 -6.6311
# 5 -12.0299 -3.1508 -19.4858 0.0000 37.5119 0.0000
# 6 0.0000 0.0000 0.0000 -6.6311 0.0000 39.0957
#
#
#
# Elastic Compliance Matrix: (Units=1/GPa)
#
#
# Indices 1 2 3 4 5 6 
#
# 1 0.012860 -0.005773 -0.003128 0.000000 0.002014 0.000000
# 2 -0.005773 0.021656 -0.001759 0.000000 -0.000946 0.000000
# 3 -0.003128 -0.001759 0.010055 0.000000 0.004072 0.000000
# 4 0.000000 0.000000 0.000000 0.045829 0.000000 0.007773
# 5 0.002014 -0.000946 0.004072 0.000000 0.029340 0.000000
# 6 0.000000 0.000000 0.000000 0.007773 0.000000 0.026897
#
#
# Mechanical properties :
#
#
# Convention : Reuss Voigt Hill
#
# Bulk Modulus (GPa) = 43.01142 52.32859 47.67000
# Shear Modulus (GPa) = 28.45640 32.58441 30.52040
#
# Velocity S-wave (km/s) = 3.53577 3.78354 3.66175
# Velocity P-wave (km/s) = 5.96363 6.48662 6.23062
#
# Compressibility (1/GPa) = 0.02324964
#
# Stress axis : x y z
#
# Youngs Moduli (GPa) = 77.76131 46.17614 99.45440
#
# Poissons Ratio (x) = 0.26660 0.31111
# Poissons Ratio (y) = 0.44895 0.17494
# Poissons Ratio (z) = 0.24325 0.08122
#
# Static dielectric constant tensor:
#      x y z
#    x 4.472810 0.000000 -0.352340 
#    y 0.000000 4.290600 0.000000 
#    z -0.352340 0.000000 4.028990 
# 
# 
# High freq. dielectric constant tensor:
#      x y z
#    x 1.907960 0.000000 -0.012540 
#    y 0.000000 1.901100 0.000000 
#    z -0.012540 0.000000 1.894130 
# 
# From -- ./inp_files/48903.got.cif
#   From: 2010.03.12/outbox.cif.g09.slc.cpg/sg14_25_cif.got.tgz:48903.got - 2010.03.31 13:35:05.
