data_PCOD8126035
_publ_section_title
;
Structure prediction by ZEFSAII (Michael W. Deem and Ramdas Pophale) SiO2 
 PCOD8126035
Probable space group: P 21/C
;
_chemical_formula_sum "Si O2"
_cell_formula_units_Z 32
_cell_length_a 11.373178
_cell_length_b 8.808111
_cell_length_c 21.880940
_cell_angle_alpha 90.000000
_cell_angle_beta 49.402878
_cell_angle_gamma 90.000000
_cell_volume 1664.356190
_symmetry_space_group_name_H-M "P 21/C"
_symmetry_group_IT_number 14
_symmetry_cell_setting 'monoclinic'
loop_
_space_group_symop_operation_xyz
x,y,z
-x,1/2+y,1/2-z
-x,-y,-z
x,1/2-y,1/2+z
loop_
_atom_site_type_symbol
_atom_site_label
_atom_site_fract_x
_atom_site_fract_y
_atom_site_fract_z
Si Si1 0.063107 0.169395 0.039935
Si Si2 0.332683 0.377777 0.945615
Si Si3 0.670830 0.603315 0.733066
Si Si4 0.999862 0.160041 0.928613
Si Si5 0.140205 0.928216 0.597747
Si Si6 0.384408 0.069588 0.287308
Si Si7 0.315117 0.877997 0.663224
Si Si8 0.857157 0.349994 0.194178
O O1 0.921416 0.213085 0.131625
O O2 0.102056 0.991295 0.029863
O O3 0.226283 0.240050 0.004196
O O4 0.012079 0.236149 0.991034
O O5 0.324528 0.395948 0.875569
O O6 0.505338 0.339319 0.909278
O O7 0.257688 0.524046 0.004055
O O8 0.609169 0.777609 0.756139
O O9 0.555359 0.500782 0.731642
O O10 0.688943 0.531119 0.794339
O O11 0.831957 0.600097 0.645088
O O12 0.934580 0.270577 0.899070
O O13 0.238177 0.909849 0.625089
O O14 0.002454 0.043769 0.662131
O O15 0.268747 0.948947 0.297931
O O16 0.226765 0.731759 0.720737
#
# Coordination Sequence:
#
# PCOD8126035 Si02
#       8
#     4   4   4   4   4   4   4   4
#     4  10  21  37  63  89 122 148 206 255 321 358
#     4  10  21  42  62  88 118 167 202 263 306 371
#     4  11  22  38  61  93 127 159 202 257 321 362
#     4  11  21  39  62  90 122 158 197 264 306 374
#     4  11  24  41  63  87 126 169 214 244 307 376
#     4  11  21  38  64  93 126 154 205 261 322 370
#     4  11  25  41  61  87 130 168 212 252 303 373
#     4  11  22  36  62  90 117 163 203 255 314 363
#
# _framework density 19.226652999999999
#
# number of rings (size 3 to 8) (size 9 to 14) (size 15 to 20)
#    0.000    1.250    3.750    2.625    1.750    2.000 
#    2.250    1.875    0.000    0.000    0.000    0.000 
#    0.000    0.000    0.000    0.000    0.000    0.000 
#
# Total GULP energy -396701.565529 kJ/mol
# GULP energy per Si atom -12396.923923 kJ/mol
# Density = 1.918289 g / cm^3
# Si number density = 19.226653 Si / 1000 Ang^3
#
#
#
# Elastic Constant Matrix: (Units=GPa)
#
#
# Indices 1 2 3 4 5 6 
#
# 1 82.2887 59.1155 44.2198 0.0000 13.9509 0.0000
# 2 59.1155 108.8164 40.1638 0.0000 -0.2794 0.0000
# 3 44.2198 40.1638 77.0194 0.0000 -14.6350 0.0000
# 4 0.0000 0.0000 0.0000 22.1029 0.0000 -2.2526
# 5 13.9509 -0.2794 -14.6350 0.0000 21.0217 0.0000
# 6 0.0000 0.0000 0.0000 -2.2526 0.0000 16.0862
#
#
#
# Elastic Compliance Matrix: (Units=1/GPa)
#
#
# Indices 1 2 3 4 5 6 
#
# 1 0.047865 -0.015246 -0.029508 0.000000 -0.052511 0.000000
# 2 -0.015246 0.016634 0.002356 0.000000 0.011979 0.000000
# 3 -0.029508 0.002356 0.037368 0.000000 0.045629 0.000000
# 4 0.000000 0.000000 0.000000 0.045898 0.000000 0.006427
# 5 -0.052511 0.011979 0.045629 0.000000 0.114344 0.000000
# 6 0.000000 0.000000 0.000000 0.006427 0.000000 0.063065
#
#
# Mechanical properties :
#
#
# Convention : Reuss Voigt Hill
#
# Bulk Modulus (GPa) = 58.58955 61.68031 60.13493
# Shear Modulus (GPa) = 12.02904 20.15052 16.08978
#
# Velocity S-wave (km/s) = 2.50400 3.24087 2.89597
# Velocity P-wave (km/s) = 6.23693 6.79372 6.52127
#
# Compressibility (1/GPa) = 0.01706789
#
# Stress axis : x y z
#
# Youngs Moduli (GPa) = 20.89221 60.11852 26.76115
#
# Poissons Ratio (x) = 0.91659 0.78968
# Poissons Ratio (y) = 0.31853 -0.06304
# Poissons Ratio (z) = 0.61650 -0.14162
#
# Static dielectric constant tensor:
#      x y z
#    x 3.488000 0.000000 -0.194450 
#    y 0.000000 3.698880 0.000000 
#    z -0.194450 0.000000 3.620290 
# 
# 
# High freq. dielectric constant tensor:
#      x y z
#    x 1.745580 0.000000 -0.017390 
#    y 0.000000 1.755060 0.000000 
#    z -0.017390 0.000000 1.748690 
# 
# From -- ./inp_files/57106.got.cif
#   From: 2010.03.12/outbox.cif.g09.slc.cpg/sg14_29_cif.got.tgz:57106.got - 2010.03.31 13:35:05.
