data_PCOD8126040
_publ_section_title
;
Structure prediction by ZEFSAII (Michael W. Deem and Ramdas Pophale) SiO2 
 PCOD8126040
Probable space group: P 21/C
;
_chemical_formula_sum "Si O2"
_cell_formula_units_Z 28
_cell_length_a 8.638662
_cell_length_b 13.606832
_cell_length_c 20.377728
_cell_angle_alpha 90.000000
_cell_angle_beta 35.111277
_cell_angle_gamma 90.000000
_cell_volume 1377.693708
_symmetry_space_group_name_H-M "P 21/C"
_symmetry_group_IT_number 14
_symmetry_cell_setting 'monoclinic'
loop_
_space_group_symop_operation_xyz
x,y,z
-x,1/2+y,1/2-z
-x,-y,-z
x,1/2-y,1/2+z
loop_
_atom_site_type_symbol
_atom_site_label
_atom_site_fract_x
_atom_site_fract_y
_atom_site_fract_z
Si Si1 0.812519 0.518578 0.384422
Si Si2 0.923592 0.118886 0.083656
Si Si3 0.364921 0.424568 0.329208
Si Si4 0.775564 0.851545 0.260108
Si Si5 0.050021 0.681230 0.216142
Si Si6 0.574513 0.888941 0.469657
Si Si7 0.878196 0.307196 0.180092
O O1 0.500000 0.500000 0.500000
O O2 0.900231 0.573198 0.419631
O O3 0.952291 0.414260 0.327157
O O4 0.896501 0.582501 0.291663
O O5 0.832480 0.229250 0.135748
O O6 0.670877 0.044125 0.158145
O O7 0.109454 0.124639 0.954436
O O8 0.383474 0.383299 0.249075
O O9 0.645226 0.390173 0.264015
O O10 0.589156 0.864996 0.387928
O O11 0.857539 0.736869 0.230924
O O12 0.119363 0.748486 0.253722
O O13 0.332301 0.670737 0.083695
O O14 0.837494 0.864015 0.422375
O O15 0.500000 0.000000 0.500000
#
# Coordination Sequence:
#
# PCOD8126040 Si02
#       7
#     4   4   4   4   4   4   4
#     4  10  21  37  64  91 115 156 211 251 302 368
#     4   9  21  40  63  85 122 164 199 255 302 374
#     4  10  21  42  59  90 124 159 212 244 305 373
#     4  10  23  38  59  90 123 154 197 263 299 363
#     4  10  22  39  62  89 125 159 202 256 307 369
#     4  11  22  40  61  90 125 158 206 253 312 361
#     4  10  22  39  66  87 120 170 201 247 310 376
#
# _framework density 20.323822
#
# number of rings (size 3 to 8) (size 9 to 14) (size 15 to 20)
#    0.000    2.000    1.429    0.857   10.000    1.143 
#    7.714    0.714    0.000    0.000    0.000    0.000 
#    0.000    0.000    0.000    0.000    0.000    0.000 
#
# Total GULP energy -347081.947404 kJ/mol
# GULP energy per Si atom -12395.783836 kJ/mol
# Density = 2.027756 g / cm^3
# Si number density = 20.323822 Si / 1000 Ang^3
#
#
#
# Elastic Constant Matrix: (Units=GPa)
#
#
# Indices 1 2 3 4 5 6 
#
# 1 37.3726 20.6577 27.3446 0.0000 0.5029 0.0000
# 2 20.6577 74.6453 29.5264 0.0000 0.1087 0.0000
# 3 27.3446 29.5264 124.1345 0.0000 -12.0601 0.0000
# 4 0.0000 0.0000 0.0000 36.1487 0.0000 -7.7832
# 5 0.5029 0.1087 -12.0601 0.0000 13.4252 0.0000
# 6 0.0000 0.0000 0.0000 -7.7832 0.0000 31.5425
#
#
#
# Elastic Compliance Matrix: (Units=1/GPa)
#
#
# Indices 1 2 3 4 5 6 
#
# 1 0.035899 -0.007183 -0.006929 0.000000 -0.007511 0.000000
# 2 -0.007183 0.016385 -0.002522 0.000000 -0.002129 0.000000
# 3 -0.006929 -0.002522 0.011185 0.000000 0.010328 0.000000
# 4 0.000000 0.000000 0.000000 0.029216 0.000000 0.007209
# 5 -0.007511 -0.002129 0.010328 0.000000 0.084063 0.000000
# 6 0.000000 0.000000 0.000000 0.007209 0.000000 0.033482
#
#
# Mechanical properties :
#
#
# Convention : Reuss Voigt Hill
#
# Bulk Modulus (GPa) = 33.11099 43.46775 38.28937
# Shear Modulus (GPa) = 19.71875 26.79819 23.25847
#
# Velocity S-wave (km/s) = 3.11823 3.63514 3.38656
# Velocity P-wave (km/s) = 5.41217 6.24924 5.84571
#
# Compressibility (1/GPa) = 0.03020145
#
# Stress axis : x y z
#
# Youngs Moduli (GPa) = 27.85601 61.03065 89.40250
#
# Poissons Ratio (x) = 0.43839 0.61947
# Poissons Ratio (y) = 0.20009 0.22546
# Poissons Ratio (z) = 0.19302 0.15391
#
# Static dielectric constant tensor:
#      x y z
#    x 3.598530 0.000000 0.232430 
#    y 0.000000 3.648320 0.000000 
#    z 0.232430 0.000000 3.589820 
# 
# 
# High freq. dielectric constant tensor:
#      x y z
#    x 1.778080 0.000000 0.011700 
#    y 0.000000 1.802020 0.000000 
#    z 0.011700 0.000000 1.800680 
# 
# From -- ./inp_files/65874.got.cif
#   From: 2010.03.12/outbox.cif.g09.slc.cpg/sg14_33_cif.got.tgz:65874.got - 2010.03.31 13:35:05.
