data_PCOD8126304
_publ_section_title
;
Structure prediction by ZEFSAII (Michael W. Deem and Ramdas Pophale) SiO2 
 PCOD8126304
Probable space group: P 21/C
;
_chemical_formula_sum "Si O2"
_cell_formula_units_Z 20
_cell_length_a 6.040637
_cell_length_b 11.652530
_cell_length_c 13.379420
_cell_angle_alpha 90.000000
_cell_angle_beta 118.624654
_cell_angle_gamma 90.000000
_cell_volume 826.655217
_symmetry_space_group_name_H-M "P 21/C"
_symmetry_group_IT_number 14
_symmetry_cell_setting 'monoclinic'
loop_
_space_group_symop_operation_xyz
x,y,z
-x,1/2+y,1/2-z
-x,-y,-z
x,1/2-y,1/2+z
loop_
_atom_site_type_symbol
_atom_site_label
_atom_site_fract_x
_atom_site_fract_y
_atom_site_fract_z
Si Si1 0.734066 0.181509 0.167866
Si Si2 0.652077 0.447915 0.842008
Si Si3 0.046347 0.860372 0.417559
Si Si4 0.882314 0.001737 0.828221
Si Si5 0.193962 0.341833 0.510251
O O1 0.655172 0.163281 0.267431
O O2 0.864100 0.303499 0.167892
O O3 0.486052 0.176884 0.042812
O O4 0.922789 0.080155 0.183863
O O5 0.377955 0.509148 0.791039
O O6 0.856222 0.539156 0.845315
O O7 0.717906 0.409393 0.968536
O O8 0.906074 0.771426 0.458723
O O9 0.800551 0.951886 0.917133
O O10 0.017240 0.125768 0.876655
#
# Coordination Sequence:
#
# PCOD8126304 Si02
#       5
#     4   4   4   4   4
#     4  10  21  39  64  90 119 164 205 247 305 360
#     4  10  23  41  60  89 126 160 201 251 304 362
#     4  10  23  41  60  89 126 160 201 253 303 361
#     4   9  19  37  61  89 120 157 201 249 297 354
#     4   9  19  36  59  89 122 156 201 249 296 356
#
# _framework density 24.193881999999999
#
# number of rings (size 3 to 8) (size 9 to 14) (size 15 to 20)
#    0.000    2.400    0.000    0.600    0.000   11.200 
#    0.000    4.000    0.000    0.000    0.000    0.000 
#    0.000    0.000    0.000    0.000    0.000    0.000 
#
# Total GULP energy -247886.765782 kJ/mol
# GULP energy per Si atom -12394.338289 kJ/mol
# Density = 2.413882 g / cm^3
# Si number density = 24.193882 Si / 1000 Ang^3
#
#
#
# Elastic Constant Matrix: (Units=GPa)
#
#
# Indices 1 2 3 4 5 6 
#
# 1 65.8038 9.5286 47.6594 0.0000 21.3237 0.0000
# 2 9.5286 74.7394 43.4758 0.0000 1.0783 0.0000
# 3 47.6594 43.4758 146.9351 0.0000 37.3270 0.0000
# 4 0.0000 0.0000 0.0000 23.9355 0.0000 3.3374
# 5 21.3237 1.0783 37.3270 0.0000 41.5357 0.0000
# 6 0.0000 0.0000 0.0000 3.3374 0.0000 21.0658
#
#
#
# Elastic Compliance Matrix: (Units=1/GPa)
#
#
# Indices 1 2 3 4 5 6 
#
# 1 0.020988 0.000610 -0.005503 0.000000 -0.005845 0.000000
# 2 0.000610 0.017031 -0.006538 0.000000 0.005120 0.000000
# 3 -0.005503 -0.006538 0.012653 0.000000 -0.008376 0.000000
# 4 0.000000 0.000000 0.000000 0.042723 0.000000 -0.006769
# 5 -0.005845 0.005120 -0.008376 0.000000 0.034471 0.000000
# 6 0.000000 0.000000 0.000000 -0.006769 0.000000 0.048543
#
#
# Mechanical properties :
#
#
# Convention : Reuss Voigt Hill
#
# Bulk Modulus (GPa) = 35.95825 54.31177 45.13501
# Shear Modulus (GPa) = 23.97608 29.76169 26.86888
#
# Velocity S-wave (km/s) = 3.15143 3.51113 3.33613
# Velocity P-wave (km/s) = 5.30441 6.23977 5.79100
#
# Compressibility (1/GPa) = 0.02781003
#
# Stress axis : x y z
#
# Youngs Moduli (GPa) = 47.64553 58.71562 79.03312
#
# Poissons Ratio (x) = -0.03580 0.43493
# Poissons Ratio (y) = -0.02905 0.51670
# Poissons Ratio (z) = 0.26220 0.38387
#
# Static dielectric constant tensor:
#      x y z
#    x 4.128660 0.000000 0.325170 
#    y 0.000000 4.314060 0.000000 
#    z 0.325170 0.000000 4.555610 
# 
# 
# High freq. dielectric constant tensor:
#      x y z
#    x 1.950520 0.000000 0.018240 
#    y 0.000000 1.954360 0.000000 
#    z 0.018240 0.000000 1.967230 
# 
# From -- ./inp_files/48734.got.cif
#   From: 2010.03.12/outbox.cif.g09.slc.cpg/sg14_25_cif.got.tgz:48734.got - 2010.03.31 13:35:05.
