data_PCOD8126689
_publ_section_title
;
Structure prediction by ZEFSAII (Michael W. Deem and Ramdas Pophale) SiO2 
 PCOD8126689
Probable space group: P 21/C
;
_chemical_formula_sum "Si O2"
_cell_formula_units_Z 32
_cell_length_a 11.146044
_cell_length_b 15.816606
_cell_length_c 9.051347
_cell_angle_alpha 90.000000
_cell_angle_beta 72.675000
_cell_angle_gamma 90.000000
_cell_volume 1523.290651
_symmetry_space_group_name_H-M "P 21/C"
_symmetry_group_IT_number 14
_symmetry_cell_setting 'monoclinic'
loop_
_space_group_symop_operation_xyz
x,y,z
-x,1/2+y,1/2-z
-x,-y,-z
x,1/2-y,1/2+z
loop_
_atom_site_type_symbol
_atom_site_label
_atom_site_fract_x
_atom_site_fract_y
_atom_site_fract_z
Si Si1 0.468339 0.066883 0.388049
Si Si2 0.371042 0.506489 0.631412
Si Si3 0.210237 0.148866 0.152974
Si Si4 0.255099 0.188730 0.468405
Si Si5 0.953478 0.080039 0.320267
Si Si6 0.274413 0.844888 0.759960
Si Si7 0.232603 0.823982 0.113826
Si Si8 0.994769 0.108439 0.638657
O O1 0.378998 0.141179 0.484830
O O2 0.593798 0.107006 0.273428
O O3 0.500000 0.000000 0.500000
O O4 0.389378 0.016047 0.295308
O O5 0.500000 0.500000 0.500000
O O6 0.272657 0.441471 0.594562
O O7 0.317512 0.600243 0.642187
O O8 0.256942 0.185089 0.291595
O O9 0.256535 0.213038 0.010776
O O10 0.059658 0.139237 0.207612
O O11 0.134015 0.145096 0.584209
O O12 0.824874 0.091964 0.279156
O O13 0.932914 0.104841 0.498864
O O14 0.999885 0.984017 0.291360
O O15 0.292126 0.762271 0.652961
O O16 0.227327 0.819387 0.939281
O O17 0.090456 0.832706 0.225987
#
# Coordination Sequence:
#
# PCOD8126689 Si02
#       8
#     4   4   4   4   4   4   4   4
#     4  11  26  44  67  99 129 172 219 267 334 398
#     4  11  24  47  67  91 135 175 218 264 337 395
#     4  10  22  42  65  96 125 172 212 268 323 384
#     4  10  23  40  65  94 130 164 218 263 322 384
#     4  10  21  41  68  99 132 170 220 267 334 397
#     4  12  27  42  67 102 134 175 227 274 331 395
#     4  12  26  45  67  99 133 178 221 279 331 393
#     4  10  21  42  70  96 132 175 213 276 335 382
#
# _framework density 21.007152999999999
#
# number of rings (size 3 to 8) (size 9 to 14) (size 15 to 20)
#    0.000    1.250    2.500    2.250    7.000    4.500 
#    2.250    0.000    0.000    0.000    0.000    0.000 
#    0.000    0.000    0.000    0.000    0.000    0.000 
#
# Total GULP energy -397005.504856 kJ/mol
# GULP energy per Si atom -12406.422027 kJ/mol
# Density = 2.095934 g / cm^3
# Si number density = 21.007153 Si / 1000 Ang^3
#
#
#
# Elastic Constant Matrix: (Units=GPa)
#
#
# Indices 1 2 3 4 5 6 
#
# 1 103.3035 18.1177 23.1437 0.0000 -2.9729 0.0000
# 2 18.1177 70.8459 14.8396 0.0000 9.1719 0.0000
# 3 23.1437 14.8396 76.2719 0.0000 -4.1533 0.0000
# 4 0.0000 0.0000 0.0000 38.5214 0.0000 -2.4730
# 5 -2.9729 9.1719 -4.1533 0.0000 31.3252 0.0000
# 6 0.0000 0.0000 0.0000 -2.4730 0.0000 34.5796
#
#
#
# Elastic Compliance Matrix: (Units=1/GPa)
#
#
# Indices 1 2 3 4 5 6 
#
# 1 0.010742 -0.002350 -0.002729 0.000000 0.001346 0.000000
# 2 -0.002350 0.015957 -0.002677 0.000000 -0.005250 0.000000
# 3 -0.002729 -0.002677 0.014594 0.000000 0.002460 0.000000
# 4 0.000000 0.000000 0.000000 0.026079 0.000000 0.001865
# 5 0.001346 -0.005250 0.002460 0.000000 0.033914 0.000000
# 6 0.000000 0.000000 0.000000 0.001865 0.000000 0.029052
#
#
# Mechanical properties :
#
#
# Convention : Reuss Voigt Hill
#
# Bulk Modulus (GPa) = 38.78938 40.29149 39.54043
# Shear Modulus (GPa) = 32.37399 33.83993 33.10696
#
# Velocity S-wave (km/s) = 3.92994 4.01793 3.97417
# Velocity P-wave (km/s) = 6.25280 6.38330 6.31838
#
# Compressibility (1/GPa) = 0.02578025
#
# Stress axis : x y z
#
# Youngs Moduli (GPa) = 93.08825 62.67016 68.52131
#
# Poissons Ratio (x) = 0.14726 0.18701
# Poissons Ratio (y) = 0.21874 0.18346
# Poissons Ratio (z) = 0.25406 0.16779
#
# Static dielectric constant tensor:
#      x y z
#    x 4.002730 0.000000 -0.136510 
#    y 0.000000 3.896520 0.000000 
#    z -0.136510 0.000000 3.777180 
# 
# 
# High freq. dielectric constant tensor:
#      x y z
#    x 1.829230 0.000000 -0.010020 
#    y 0.000000 1.832950 0.000000 
#    z -0.010020 0.000000 1.819800 
# 
# From -- ./inp_files/13281.got.cif
#   From: 2010.03.12/outbox.cif.g09.slc.cpg/sg14_7_cif.got.tgz:13281.got - 2010.03.31 13:35:05.
