data_PCOD8126042
_publ_section_title
;
Structure prediction by ZEFSAII (Michael W. Deem and Ramdas Pophale) SiO2 
 PCOD8126042
Probable space group: P 21/C
;
_chemical_formula_sum "Si O2"
_cell_formula_units_Z 28
_cell_length_a 9.738059
_cell_length_b 11.390145
_cell_length_c 13.900626
_cell_angle_alpha 90.000000
_cell_angle_beta 121.817964
_cell_angle_gamma 90.000000
_cell_volume 1310.133806
_symmetry_space_group_name_H-M "P 21/C"
_symmetry_group_IT_number 14
_symmetry_cell_setting 'monoclinic'
loop_
_space_group_symop_operation_xyz
x,y,z
-x,1/2+y,1/2-z
-x,-y,-z
x,1/2-y,1/2+z
loop_
_atom_site_type_symbol
_atom_site_label
_atom_site_fract_x
_atom_site_fract_y
_atom_site_fract_z
Si Si1 0.751833 0.207676 0.267204
Si Si2 0.253759 0.202150 0.373890
Si Si3 0.550916 0.365845 0.529505
Si Si4 0.128520 0.425968 0.647242
Si Si5 0.800203 0.365102 0.456041
Si Si6 0.037184 0.037392 0.406925
Si Si7 0.973696 0.379669 0.259129
O O1 0.591046 0.156444 0.157392
O O2 0.727581 0.257824 0.365638
O O3 0.886975 0.109028 0.311708
O O4 0.806959 0.316390 0.222291
O O5 0.426150 0.263511 0.452750
O O6 0.246262 0.147670 0.262268
O O7 0.204982 0.106427 0.439708
O O8 0.129374 0.306125 0.340695
O O9 0.500000 0.500000 0.500000
O O10 0.710558 0.354905 0.523757
O O11 0.228090 0.508280 0.608791
O O12 0.011686 0.503741 0.671250
O O13 0.995480 0.345765 0.541526
O O14 0.000000 0.000000 0.500000
O O15 0.037892 0.911203 0.356578
#
# Coordination Sequence:
#
# PCOD8126042 Si02
#       7
#     4   4   4   4   4   4   4
#     4  10  23  40  62  91 120 166 204 254 320 367
#     4  10  21  39  63  91 127 168 202 263 321 384
#     4  12  25  43  60  85 134 170 202 257 329 390
#     4   9  19  38  67  94 115 162 218 256 316 377
#     4  10  21  40  65  90 124 162 208 267 312 379
#     4  10  21  37  64  96 118 155 218 266 306 365
#     4   9  18  39  62  88 122 151 210 261 302 364
#
# _framework density 21.371863999999999
#
# number of rings (size 3 to 8) (size 9 to 14) (size 15 to 20)
#    0.000    2.000    0.000    4.286    4.000    2.286 
#    5.143    6.429    0.000    0.000    0.000    0.000 
#    0.000    0.000    0.000    0.000    0.000    0.000 
#
# Total GULP energy -346874.295026 kJ/mol
# GULP energy per Si atom -12388.367679 kJ/mol
# Density = 2.132322 g / cm^3
# Si number density = 21.371864 Si / 1000 Ang^3
#
#
#
# Elastic Constant Matrix: (Units=GPa)
#
#
# Indices 1 2 3 4 5 6 
#
# 1 57.4087 12.4885 21.8855 0.0000 -5.7125 0.0000
# 2 12.4885 66.0320 38.0899 0.0000 2.3013 0.0000
# 3 21.8855 38.0899 117.0307 0.0000 -3.4266 0.0000
# 4 0.0000 0.0000 0.0000 34.1834 0.0000 -1.5879
# 5 -5.7125 2.3013 -3.4266 0.0000 37.0151 0.0000
# 6 0.0000 0.0000 0.0000 -1.5879 0.0000 24.6665
#
#
#
# Elastic Compliance Matrix: (Units=1/GPa)
#
#
# Indices 1 2 3 4 5 6 
#
# 1 0.019238 -0.002105 -0.002829 0.000000 0.002838 0.000000
# 2 -0.002105 0.018986 -0.005845 0.000000 -0.002046 0.000000
# 3 -0.002829 -0.005845 0.011004 0.000000 0.000945 0.000000
# 4 0.000000 0.000000 0.000000 0.029342 0.000000 0.001889
# 5 0.002838 -0.002046 0.000945 0.000000 0.027669 0.000000
# 6 0.000000 0.000000 0.000000 0.001889 0.000000 0.040662
#
#
# Mechanical properties :
#
#
# Convention : Reuss Voigt Hill
#
# Bulk Modulus (GPa) = 36.14350 42.82212 39.48281
# Shear Modulus (GPa) = 28.14002 30.37351 29.25676
#
# Velocity S-wave (km/s) = 3.63255 3.77396 3.70393
# Velocity P-wave (km/s) = 5.87727 6.25064 6.06683
#
# Compressibility (1/GPa) = 0.02766750
#
# Stress axis : x y z
#
# Youngs Moduli (GPa) = 51.98060 52.67166 90.87555
#
# Poissons Ratio (x) = 0.11089 0.25712
# Poissons Ratio (y) = 0.10943 0.53121
# Poissons Ratio (z) = 0.14707 0.30789
#
# Static dielectric constant tensor:
#      x y z
#    x 3.911810 0.000000 -0.311340 
#    y 0.000000 5.405090 0.000000 
#    z -0.311340 0.000000 3.926620 
# 
# 
# High freq. dielectric constant tensor:
#      x y z
#    x 1.813630 0.000000 -0.023470 
#    y 0.000000 1.849400 0.000000 
#    z -0.023470 0.000000 1.835480 
# 
# From -- ./inp_files/40393.got.cif
#   From: 2010.03.12/outbox.cif.g09.slc.cpg/sg14_21_cif.got.tgz:40393.got - 2010.03.31 13:35:05.
