data_PCOD8126436
_publ_section_title
;
Structure prediction by ZEFSAII (Michael W. Deem and Ramdas Pophale) SiO2 
 PCOD8126436
Probable space group: P 21/C
;
_chemical_formula_sum "Si O2"
_cell_formula_units_Z 32
_cell_length_a 8.624121
_cell_length_b 11.177771
_cell_length_c 20.312183
_cell_angle_alpha 90.000000
_cell_angle_beta 51.743640
_cell_angle_gamma 90.000000
_cell_volume 1537.565416
_symmetry_space_group_name_H-M "P 21/C"
_symmetry_group_IT_number 14
_symmetry_cell_setting 'monoclinic'
loop_
_space_group_symop_operation_xyz
x,y,z
-x,1/2+y,1/2-z
-x,-y,-z
x,1/2-y,1/2+z
loop_
_atom_site_type_symbol
_atom_site_label
_atom_site_fract_x
_atom_site_fract_y
_atom_site_fract_z
Si Si1 0.766227 0.638684 0.275067
Si Si2 0.650851 0.825098 0.207032
Si Si3 0.580435 0.769962 0.595849
Si Si4 0.432829 0.995905 0.943881
Si Si5 0.073571 0.663927 0.564206
Si Si6 0.836950 0.247297 0.313394
Si Si7 0.988686 0.635423 0.980504
Si Si8 0.237532 0.910505 0.292913
O O1 0.682809 0.764162 0.269571
O O2 0.602182 0.580822 0.363917
O O3 0.823204 0.548904 0.200291
O O4 0.975120 0.666416 0.256713
O O5 0.600547 0.717183 0.169425
O O6 0.467477 0.915398 0.254885
O O7 0.852498 0.891249 0.129743
O O8 0.586613 0.627619 0.579728
O O9 0.370540 0.827288 0.628740
O O10 0.765196 0.836860 0.514715
O O11 0.220061 0.932167 0.993650
O O12 0.500000 0.000000 0.000000
O O13 0.141063 0.697826 0.619916
O O14 0.065740 0.779316 0.518555
O O15 0.802337 0.347733 0.266872
O O16 0.118379 0.655690 0.881348
O O17 0.000000 0.500000 0.000000
#
# Coordination Sequence:
#
# PCOD8126436 Si02
#       8
#     4   4   4   4   4   4   4   4
#     4  11  22  40  65  88 127 167 204 265 310 373
#     4   9  20  39  60  90 123 160 204 253 308 373
#     4  10  21  42  63  93 129 162 208 267 314 373
#     4  12  22  39  66  97 130 161 206 271 326 370
#     4  10  21  40  64  96 127 166 205 262 322 373
#     4  10  21  40  63  91 127 161 210 256 314 379
#     4  11  24  42  65  90 128 171 214 257 309 380
#     4  11  21  42  60  92 123 164 213 249 312 377
#
# _framework density 20.812121999999999
#
# number of rings (size 3 to 8) (size 9 to 14) (size 15 to 20)
#    0.000    1.500    3.750    3.000    1.750    2.000 
#    2.250   11.250    0.000    0.000    0.000    0.000 
#    0.000    0.000    0.000    0.000    0.000    0.000 
#
# Total GULP energy -396515.719655 kJ/mol
# GULP energy per Si atom -12391.116239 kJ/mol
# Density = 2.076475 g / cm^3
# Si number density = 20.812122 Si / 1000 Ang^3
#
#
#
# Elastic Constant Matrix: (Units=GPa)
#
#
# Indices 1 2 3 4 5 6 
#
# 1 147.5359 40.2983 55.8477 0.0000 -32.1219 0.0000
# 2 40.2983 81.6925 29.3555 0.0000 -16.2103 0.0000
# 3 55.8477 29.3555 114.4711 0.0000 -18.5315 0.0000
# 4 0.0000 0.0000 0.0000 27.0622 0.0000 -7.2639
# 5 -32.1219 -16.2103 -18.5315 0.0000 53.2973 0.0000
# 6 0.0000 0.0000 0.0000 -7.2639 0.0000 27.2339
#
#
#
# Elastic Compliance Matrix: (Units=1/GPa)
#
#
# Indices 1 2 3 4 5 6 
#
# 1 0.009643 -0.002792 -0.003375 0.000000 0.003789 0.000000
# 2 -0.002792 0.014784 -0.002091 0.000000 0.002087 0.000000
# 3 -0.003375 -0.002091 0.011112 0.000000 0.001193 0.000000
# 4 0.000000 0.000000 0.000000 0.039801 0.000000 0.010616
# 5 0.003789 0.002087 0.001193 0.000000 0.022096 0.000000
# 6 0.000000 0.000000 0.000000 0.010616 0.000000 0.039550
#
#
# Mechanical properties :
#
#
# Convention : Reuss Voigt Hill
#
# Bulk Modulus (GPa) = 52.57122 66.07804 59.32463
# Shear Modulus (GPa) = 31.28031 36.06522 33.67276
#
# Velocity S-wave (km/s) = 3.88104 4.16732 4.02673
# Velocity P-wave (km/s) = 6.73781 7.41445 7.08421
#
# Compressibility (1/GPa) = 0.01902181
#
# Stress axis : x y z
#
# Youngs Moduli (GPa) = 103.69853 67.64122 89.99261
#
# Poissons Ratio (x) = 0.18887 0.30375
# Poissons Ratio (y) = 0.28955 0.18819
# Poissons Ratio (z) = 0.35001 0.14145
#
# Static dielectric constant tensor:
#      x y z
#    x 5.104360 0.000000 0.448900 
#    y 0.000000 3.538860 0.000000 
#    z 0.448900 0.000000 4.747710 
# 
# 
# High freq. dielectric constant tensor:
#      x y z
#    x 1.833720 0.000000 -0.010760 
#    y 0.000000 1.783300 0.000000 
#    z -0.010760 0.000000 1.826770 
# 
# From -- ./inp_files/65598.got.cif
#   From: 2010.03.12/outbox.cif.g09.slc.cpg/sg14_33_cif.got.tgz:65598.got - 2010.03.31 13:35:05.
