data_PCOD8126850
_publ_section_title
;
Structure prediction by ZEFSAII (Michael W. Deem and Ramdas Pophale) SiO2 
 PCOD8126850
Probable space group: P 21/C
;
_chemical_formula_sum "Si O2"
_cell_formula_units_Z 16
_cell_length_a 7.283525
_cell_length_b 10.282941
_cell_length_c 7.377087
_cell_angle_alpha 90.000000
_cell_angle_beta 75.389909
_cell_angle_gamma 90.000000
_cell_volume 534.649039
_symmetry_space_group_name_H-M "P 21/C"
_symmetry_group_IT_number 14
_symmetry_cell_setting 'monoclinic'
loop_
_space_group_symop_operation_xyz
x,y,z
-x,1/2+y,1/2-z
-x,-y,-z
x,1/2-y,1/2+z
loop_
_atom_site_type_symbol
_atom_site_label
_atom_site_fract_x
_atom_site_fract_y
_atom_site_fract_z
Si Si1 0.124601 0.114697 0.212797
Si Si2 0.366261 0.944695 0.367954
Si Si3 0.779841 0.990306 0.172537
Si Si4 0.193572 0.782899 0.102730
O O1 0.981048 0.985560 0.232509
O O2 0.025452 0.254307 0.277428
O O3 0.266582 0.082796 0.344510
O O4 0.232314 0.113042 0.990675
O O5 0.335641 0.858111 0.197369
O O6 0.271454 0.866017 0.558050
O O7 0.594132 0.962831 0.346212
O O8 0.795244 0.141198 0.092838
#
# Coordination Sequence:
#
# PCOD8126850 Si02
#       4
#     4   4   4   4
#     4  10  21  43  67  94 131 166 217 269 319 383
#     4  11  24  45  66  96 134 169 216 270 318 385
#     4  10  23  46  63  98 135 165 216 275 313 386
#     4  11  21  44  67  95 130 171 213 268 320 383
#
# _framework density 29.926174
#
# number of rings (size 3 to 8) (size 9 to 14) (size 15 to 20)
#    0.000    1.500    2.500    3.750    0.000    1.000 
#   27.000    0.000    0.000    0.000    0.000    0.000 
#    0.000    0.000    0.000    0.000    0.000    0.000 
#
# Total GULP energy -198344.065911 kJ/mol
# GULP energy per Si atom -12396.504119 kJ/mol
# Density = 2.985806 g / cm^3
# Si number density = 29.926174 Si / 1000 Ang^3
#
#
#
# Elastic Constant Matrix: (Units=GPa)
#
#
# Indices 1 2 3 4 5 6 
#
# 1 134.7709 -14.1471 1.0938 0.0000 -2.5880 0.0000
# 2 -14.1471 80.1325 1.0786 0.0000 -5.0245 0.0000
# 3 1.0938 1.0786 118.6823 0.0000 -35.9662 0.0000
# 4 0.0000 0.0000 0.0000 41.9456 0.0000 -2.7535
# 5 -2.5880 -5.0245 -35.9662 0.0000 58.4727 0.0000
# 6 0.0000 0.0000 0.0000 -2.7535 0.0000 38.5256
#
#
#
# Elastic Compliance Matrix: (Units=1/GPa)
#
#
# Indices 1 2 3 4 5 6 
#
# 1 0.007572 0.001367 0.000068 0.000000 0.000494 0.000000
# 2 0.001367 0.012800 0.000274 0.000000 0.001329 0.000000
# 3 0.000068 0.000274 0.010362 0.000000 0.006400 0.000000
# 4 0.000000 0.000000 0.000000 0.023953 0.000000 0.001712
# 5 0.000494 0.001329 0.006400 0.000000 0.021175 0.000000
# 6 0.000000 0.000000 0.000000 0.001712 0.000000 0.026079
#
#
# Mechanical properties :
#
#
# Convention : Reuss Voigt Hill
#
# Bulk Modulus (GPa) = 29.28122 34.40405 31.84263
# Shear Modulus (GPa) = 45.49212 50.82615 48.15913
#
# Velocity S-wave (km/s) = 3.90313 4.12562 4.01592
# Velocity P-wave (km/s) = 5.48802 5.84941 5.67159
#
# Compressibility (1/GPa) = 0.03415158
#
# Stress axis : x y z
#
# Youngs Moduli (GPa) = 132.05798 78.12322 96.50331
#
# Poissons Ratio (x) = -0.10679 -0.00652
# Poissons Ratio (y) = -0.18052 -0.02642
# Poissons Ratio (z) = -0.00892 -0.02139
#
# Static dielectric constant tensor:
#      x y z
#    x 5.492710 0.000000 0.377220 
#    y 0.000000 5.810470 0.000000 
#    z 0.377220 0.000000 5.797210 
# 
# 
# High freq. dielectric constant tensor:
#      x y z
#    x 2.214380 0.000000 0.023880 
#    y 0.000000 2.236660 0.000000 
#    z 0.023880 0.000000 2.248120 
# 
# From -- ./inp_files/7812.got.cif
#   From: 2010.03.12/outbox.cif.g09.slc.cpg/sg14_4_cif.got.tgz:7812.got - 2010.03.31 13:35:05.
