data_PCOD8126225
_publ_section_title
;
Structure prediction by ZEFSAII (Michael W. Deem and Ramdas Pophale) SiO2 
 PCOD8126225
Probable space group: P 21/C
;
_chemical_formula_sum "Si O2"
_cell_formula_units_Z 16
_cell_length_a 9.204126
_cell_length_b 8.596342
_cell_length_c 18.908682
_cell_angle_alpha 90.000000
_cell_angle_beta 29.268240
_cell_angle_gamma 90.000000
_cell_volume 731.436493
_symmetry_space_group_name_H-M "P 21/C"
_symmetry_group_IT_number 14
_symmetry_cell_setting 'monoclinic'
loop_
_space_group_symop_operation_xyz
x,y,z
-x,1/2+y,1/2-z
-x,-y,-z
x,1/2-y,1/2+z
loop_
_atom_site_type_symbol
_atom_site_label
_atom_site_fract_x
_atom_site_fract_y
_atom_site_fract_z
Si Si1 0.692241 0.579747 0.713108
Si Si2 0.884595 0.242265 0.070066
Si Si3 0.217224 0.318093 0.069425
Si Si4 0.852020 0.059799 0.286875
O O1 0.350432 0.630936 0.856207
O O2 0.714880 0.412779 0.666270
O O3 0.794161 0.569409 0.751124
O O4 0.897098 0.706036 0.587355
O O5 0.070906 0.316161 0.054752
O O6 0.097450 0.471008 0.160964
O O7 0.140064 0.161926 0.145815
O O8 0.572091 0.322798 0.910774
#
# Coordination Sequence:
#
# PCOD8126225 Si02
#       4
#     4   4   4   4
#     4  10  22  38  60  88 118 156 197 241 292 344
#     4  10  21  39  60  86 120 155 196 243 290 345
#     4  10  22  41  61  87 120 153 195 242 292 349
#     4  10  23  40  61  88 118 156 196 240 294 348
#
# _framework density 21.874765
#
# number of rings (size 3 to 8) (size 9 to 14) (size 15 to 20)
#    0.000    2.000    0.000    3.000    0.000   11.000 
#    0.000    0.000    0.000    0.000    0.000    0.000 
#    0.000    0.000    0.000    0.000    0.000    0.000 
#
# Total GULP energy -198487.625833 kJ/mol
# GULP energy per Si atom -12405.476615 kJ/mol
# Density = 2.182498 g / cm^3
# Si number density = 21.874765 Si / 1000 Ang^3
#
#
#
# Elastic Constant Matrix: (Units=GPa)
#
#
# Indices 1 2 3 4 5 6 
#
# 1 86.3274 60.9149 55.3709 0.0000 5.2971 0.0000
# 2 60.9149 78.0322 39.3632 0.0000 -0.8282 0.0000
# 3 55.3709 39.3632 88.9892 0.0000 22.2309 0.0000
# 4 0.0000 0.0000 0.0000 42.9494 0.0000 1.1374
# 5 5.2971 -0.8282 22.2309 0.0000 25.2774 0.0000
# 6 0.0000 0.0000 0.0000 1.1374 0.0000 41.3480
#
#
#
# Elastic Compliance Matrix: (Units=1/GPa)
#
#
# Indices 1 2 3 4 5 6 
#
# 1 0.033628 -0.019499 -0.013301 0.000000 0.004012 0.000000
# 2 -0.019499 0.029536 -0.002812 0.000000 0.007527 0.000000
# 3 -0.013301 -0.002812 0.025740 0.000000 -0.019942 0.000000
# 4 0.000000 0.000000 0.000000 0.023300 0.000000 -0.000641
# 5 0.004012 0.007527 -0.019942 0.000000 0.056506 0.000000
# 6 0.000000 0.000000 0.000000 -0.000641 0.000000 0.024203
#
#
# Mechanical properties :
#
#
# Convention : Reuss Voigt Hill
#
# Bulk Modulus (GPa) = 56.56830 62.73853 59.65342
# Shear Modulus (GPa) = 18.51645 28.42827 23.47236
#
# Velocity S-wave (km/s) = 2.91258 3.60890 3.27927
# Velocity P-wave (km/s) = 6.10140 6.79033 6.45506
#
# Compressibility (1/GPa) = 0.01767774
#
# Stress axis : x y z
#
# Youngs Moduli (GPa) = 29.73692 33.85753 38.85058
#
# Poissons Ratio (x) = 0.66019 0.51677
# Poissons Ratio (y) = 0.57984 0.10926
# Poissons Ratio (z) = 0.39554 0.09522
#
# Static dielectric constant tensor:
#      x y z
#    x 3.779740 0.000000 0.222660 
#    y 0.000000 3.835340 0.000000 
#    z 0.222660 0.000000 4.123680 
# 
# 
# High freq. dielectric constant tensor:
#      x y z
#    x 1.849830 0.000000 0.014240 
#    y 0.000000 1.857450 0.000000 
#    z 0.014240 0.000000 1.875580 
# 
# From -- ./inp_files/7199.got.cif
#   From: 2010.03.12/outbox.cif.g09.slc.cpg/sg14_4_cif.got.tgz:7199.got - 2010.03.31 13:35:05.
