data_PCOD8126723
_publ_section_title
;
Structure prediction by ZEFSAII (Michael W. Deem and Ramdas Pophale) SiO2 
 PCOD8126723
Probable space group: P 21/C
;
_chemical_formula_sum "Si O2"
_cell_formula_units_Z 16
_cell_length_a 5.044989
_cell_length_b 19.422069
_cell_length_c 6.749839
_cell_angle_alpha 90.000000
_cell_angle_beta 63.561347
_cell_angle_gamma 90.000000
_cell_volume 592.204693
_symmetry_space_group_name_H-M "P 21/C"
_symmetry_group_IT_number 14
_symmetry_cell_setting 'monoclinic'
loop_
_space_group_symop_operation_xyz
x,y,z
-x,1/2+y,1/2-z
-x,-y,-z
x,1/2-y,1/2+z
loop_
_atom_site_type_symbol
_atom_site_label
_atom_site_fract_x
_atom_site_fract_y
_atom_site_fract_z
Si Si1 0.674994 0.822316 0.362580
Si Si2 0.179919 0.466401 0.120278
Si Si3 0.651275 0.311834 0.412003
Si Si4 0.666425 0.448417 0.584625
O O1 0.702939 0.891348 0.487273
O O2 0.522829 0.759848 0.528034
O O3 0.453478 0.844903 0.259848
O O4 0.000261 0.795662 0.189562
O O5 0.391433 0.524611 0.164657
O O6 0.997694 0.448567 0.384421
O O7 0.000000 0.500000 0.000000
O O8 0.558629 0.368638 0.609177
O O9 0.500000 0.500000 0.500000
#
# Coordination Sequence:
#
# PCOD8126723 Si02
#       4
#     4   4   4   4
#     4  11  24  43  63  95 125 168 212 257 318 382
#     4  10  23  40  64  93 125 164 216 257 316 379
#     4  11  24  42  65  91 130 165 212 260 320 373
#     4  10  21  42  62  89 129 164 203 268 316 367
#
# _framework density 27.017686999999999
#
# number of rings (size 3 to 8) (size 9 to 14) (size 15 to 20)
#    0.000    1.500    2.500    1.500    3.500    3.000 
#    0.000    0.000    0.000    0.000    0.000    0.000 
#    0.000    0.000    0.000    0.000    0.000    0.000 
#
# Total GULP energy -198236.791299 kJ/mol
# GULP energy per Si atom -12389.799456 kJ/mol
# Density = 2.695619 g / cm^3
# Si number density = 27.017687 Si / 1000 Ang^3
#
#
#
# Elastic Constant Matrix: (Units=GPa)
#
#
# Indices 1 2 3 4 5 6 
#
# 1 125.2152 55.9289 28.2226 0.0000 11.9266 0.0000
# 2 55.9289 257.6706 55.1215 0.0000 -2.3939 0.0000
# 3 28.2226 55.1215 97.8324 0.0000 15.7133 0.0000
# 4 0.0000 0.0000 0.0000 46.7957 0.0000 2.5579
# 5 11.9266 -2.3939 15.7133 0.0000 56.4440 0.0000
# 6 0.0000 0.0000 0.0000 2.5579 0.0000 50.3537
#
#
#
# Elastic Compliance Matrix: (Units=1/GPa)
#
#
# Indices 1 2 3 4 5 6 
#
# 1 0.009229 -0.001711 -0.001438 0.000000 -0.001622 0.000000
# 2 -0.001711 0.004776 -0.002395 0.000000 0.001231 0.000000
# 3 -0.001438 -0.002395 0.012513 0.000000 -0.003281 0.000000
# 4 0.000000 0.000000 0.000000 0.021429 0.000000 -0.001089
# 5 -0.001622 0.001231 -0.003281 0.000000 0.019025 0.000000
# 6 0.000000 0.000000 0.000000 -0.001089 0.000000 0.019915
#
#
# Mechanical properties :
#
#
# Convention : Reuss Voigt Hill
#
# Bulk Modulus (GPa) = 64.80734 84.36269 74.58501
# Shear Modulus (GPa) = 48.48823 53.48169 50.98496
#
# Velocity S-wave (km/s) = 4.24097 4.45399 4.34878
# Velocity P-wave (km/s) = 6.92966 7.59891 7.27199
#
# Compressibility (1/GPa) = 0.01543035
#
# Stress axis : x y z
#
# Youngs Moduli (GPa) = 108.35448 209.37822 79.91761
#
# Poissons Ratio (x) = 0.35818 0.11492
# Poissons Ratio (y) = 0.18536 0.19141
# Poissons Ratio (z) = 0.15581 0.50149
#
# Static dielectric constant tensor:
#      x y z
#    x 4.269400 0.000000 2.482240 
#    y 0.000000 5.611020 0.000000 
#    z 2.482240 0.000000 -2.746320 
# 
# 
# High freq. dielectric constant tensor:
#      x y z
#    x 2.102240 0.000000 -0.017050 
#    y 0.000000 2.121580 0.000000 
#    z -0.017050 0.000000 2.103140 
# 
# From -- ./inp_files/270.got.cif
#   From: 2010.03.12/outbox.cif.g09.slc.cpg/sg14_1_cif.got.tgz:270.got - 2010.03.31 13:35:05.
