data_PCOD8126473
_publ_section_title
;
Structure prediction by ZEFSAII (Michael W. Deem and Ramdas Pophale) SiO2 
 PCOD8126473
Probable space group: P 21/C
;
_chemical_formula_sum "Si O2"
_cell_formula_units_Z 20
_cell_length_a 8.614039
_cell_length_b 11.148083
_cell_length_c 15.898662
_cell_angle_alpha 90.000000
_cell_angle_beta 144.885547
_cell_angle_gamma 90.000000
_cell_volume 878.203674
_symmetry_space_group_name_H-M "P 21/C"
_symmetry_group_IT_number 14
_symmetry_cell_setting 'monoclinic'
loop_
_space_group_symop_operation_xyz
x,y,z
-x,1/2+y,1/2-z
-x,-y,-z
x,1/2-y,1/2+z
loop_
_atom_site_type_symbol
_atom_site_label
_atom_site_fract_x
_atom_site_fract_y
_atom_site_fract_z
Si Si1 0.226151 0.734383 0.217507
Si Si2 0.773090 0.632241 0.416394
Si Si3 0.380884 0.815948 0.468017
Si Si4 0.093858 0.446251 0.837546
Si Si5 0.147141 0.914681 0.940683
O O1 0.520463 0.721610 0.305680
O O2 0.251263 0.791399 0.320275
O O3 0.044958 0.817676 0.079254
O O4 0.086307 0.604353 0.166035
O O5 0.690988 0.509805 0.429394
O O6 0.856697 0.610877 0.356579
O O7 0.698682 0.840446 0.598993
O O8 0.325239 0.706277 0.507457
O O9 0.239963 0.937053 0.439757
O O10 0.908660 0.475339 0.674455
#
# Coordination Sequence:
#
# PCOD8126473 Si02
#       5
#     4   4   4   4   4
#     4  11  22  41  65  90 130 165 210 259 315 375
#     4  11  24  43  62  96 127 168 207 265 319 377
#     4  10  21  40  65  94 127 165 213 261 313 373
#     4  10  21  40  64  96 124 167 213 264 306 377
#     4  10  24  41  65  90 129 167 214 258 314 382
#
# _framework density 22.773762000000001
#
# number of rings (size 3 to 8) (size 9 to 14) (size 15 to 20)
#    0.000    1.600    4.000    0.000    2.800    6.400 
#    3.600    1.000    0.000    0.000    0.000    0.000 
#    0.000    0.000    0.000    0.000    0.000    0.000 
#
# Total GULP energy -247999.263537 kJ/mol
# GULP energy per Si atom -12399.963177 kJ/mol
# Density = 2.272193 g / cm^3
# Si number density = 22.773762 Si / 1000 Ang^3
#
#
#
# Elastic Constant Matrix: (Units=GPa)
#
#
# Indices 1 2 3 4 5 6 
#
# 1 50.1184 21.4410 6.0789 0.0000 6.4838 0.0000
# 2 21.4410 95.6922 19.7619 0.0000 12.5565 0.0000
# 3 6.0789 19.7619 55.4494 0.0000 19.1795 0.0000
# 4 0.0000 0.0000 0.0000 27.0119 0.0000 10.3360
# 5 6.4838 12.5565 19.1795 0.0000 32.3790 0.0000
# 6 0.0000 0.0000 0.0000 10.3360 0.0000 28.2527
#
#
#
# Elastic Compliance Matrix: (Units=1/GPa)
#
#
# Indices 1 2 3 4 5 6 
#
# 1 0.022285 -0.004667 0.000173 0.000000 -0.002755 0.000000
# 2 -0.004667 0.012422 -0.003235 0.000000 -0.001966 0.000000
# 3 0.000173 -0.003235 0.023577 0.000000 -0.012746 0.000000
# 4 0.000000 0.000000 0.000000 0.043047 0.000000 -0.015748
# 5 -0.002755 -0.001966 -0.012746 0.000000 0.039748 0.000000
# 6 0.000000 0.000000 0.000000 -0.015748 0.000000 0.041156
#
#
# Mechanical properties :
#
#
# Convention : Reuss Voigt Hill
#
# Bulk Modulus (GPa) = 23.35072 32.86930 28.11001
# Shear Modulus (GPa) = 23.58825 27.79392 25.69109
#
# Velocity S-wave (km/s) = 3.22182 3.49726 3.36236
# Velocity P-wave (km/s) = 4.91078 5.54726 5.23870
#
# Compressibility (1/GPa) = 0.04282524
#
# Stress axis : x y z
#
# Youngs Moduli (GPa) = 44.87335 80.50140 42.41372
#
# Poissons Ratio (x) = 0.37574 -0.00735
# Poissons Ratio (y) = 0.20945 0.13723
# Poissons Ratio (z) = -0.00778 0.26046
#
# Static dielectric constant tensor:
#      x y z
#    x 4.025380 0.000000 0.137340 
#    y 0.000000 4.152160 0.000000 
#    z 0.137340 0.000000 3.818530 
# 
# 
# High freq. dielectric constant tensor:
#      x y z
#    x 1.890160 0.000000 0.009200 
#    y 0.000000 1.900140 0.000000 
#    z 0.009200 0.000000 1.884240 
# 
# From -- ./inp_files/7868.got.cif
#   From: 2010.03.12/outbox.cif.g09.slc.cpg/sg14_4_cif.got.tgz:7868.got - 2010.03.31 13:35:05.
