data_PCOD8126802
_publ_section_title
;
Structure prediction by ZEFSAII (Michael W. Deem and Ramdas Pophale) SiO2 
 PCOD8126802
Probable space group: P 21/C
;
_chemical_formula_sum "Si O2"
_cell_formula_units_Z 28
_cell_length_a 5.361730
_cell_length_b 19.849124
_cell_length_c 11.152590
_cell_angle_alpha 90.000000
_cell_angle_beta 105.888412
_cell_angle_gamma 90.000000
_cell_volume 1141.577245
_symmetry_space_group_name_H-M "P 21/C"
_symmetry_group_IT_number 14
_symmetry_cell_setting 'monoclinic'
loop_
_space_group_symop_operation_xyz
x,y,z
-x,1/2+y,1/2-z
-x,-y,-z
x,1/2-y,1/2+z
loop_
_atom_site_type_symbol
_atom_site_label
_atom_site_fract_x
_atom_site_fract_y
_atom_site_fract_z
Si Si1 0.026956 0.998275 0.201724
Si Si2 0.694093 0.704508 0.743922
Si Si3 0.381866 0.802759 0.573465
Si Si4 0.241828 0.626602 0.291213
Si Si5 0.958274 0.707291 0.442219
Si Si6 0.278837 0.072723 0.022193
Si Si7 0.751099 0.133930 0.687613
O O1 0.191912 0.946103 0.303590
O O2 0.951992 0.064640 0.268233
O O3 0.766494 0.962254 0.112777
O O4 0.207605 0.020402 0.116035
O O5 0.625326 0.750586 0.617375
O O6 0.701147 0.752994 0.863183
O O7 0.455048 0.652819 0.734977
O O8 0.972680 0.670853 0.760933
O O9 0.386163 0.851773 0.689366
O O10 0.389274 0.848418 0.456353
O O11 0.124391 0.757402 0.545531
O O12 0.430248 0.597420 0.419671
O O13 0.100615 0.689756 0.333863
O O14 0.903190 0.639011 0.506075
#
# Coordination Sequence:
#
# PCOD8126802 Si02
#       7
#     4   4   4   4   4   4   4
#     4  10  24  42  66  98 136 181 242 274 335 409
#     4  11  24  44  66 102 141 177 228 282 349 414
#     4  11  23  42  69  98 142 173 224 287 353 411
#     4  11  23  43  67  99 134 183 226 285 343 408
#     4  10  23  40  67 101 132 178 229 283 351 404
#     4  10  21  42  70  94 133 181 231 288 333 399
#     4  11  27  43  70 102 137 185 229 286 343 409
#
# _framework density 24.527469
#
# number of rings (size 3 to 8) (size 9 to 14) (size 15 to 20)
#    0.000    1.429    1.429    3.000    4.000    5.143 
#    0.000    0.714    0.000    0.000    0.000    0.000 
#    0.000    0.000    0.000    0.000    0.000    0.000 
#
# Total GULP energy -347099.804963 kJ/mol
# GULP energy per Si atom -12396.421606 kJ/mol
# Density = 2.447164 g / cm^3
# Si number density = 24.527469 Si / 1000 Ang^3
#
#
#
# Elastic Constant Matrix: (Units=GPa)
#
#
# Indices 1 2 3 4 5 6 
#
# 1 72.1448 11.3473 -4.2556 0.0000 18.1419 0.0000
# 2 11.3473 88.9665 11.9424 0.0000 4.8611 0.0000
# 3 -4.2556 11.9424 48.8891 0.0000 15.5071 0.0000
# 4 0.0000 0.0000 0.0000 35.1836 0.0000 1.3026
# 5 18.1419 4.8611 15.5071 0.0000 26.8138 0.0000
# 6 0.0000 0.0000 0.0000 1.3026 0.0000 18.7477
#
#
#
# Elastic Compliance Matrix: (Units=1/GPa)
#
#
# Indices 1 2 3 4 5 6 
#
# 1 0.018903 -0.002513 0.007558 0.000000 -0.016705 0.000000
# 2 -0.002513 0.011962 -0.003664 0.000000 0.001651 0.000000
# 3 0.007558 -0.003664 0.028680 0.000000 -0.021035 0.000000
# 4 0.000000 0.000000 0.000000 0.028496 0.000000 -0.001980
# 5 -0.016705 0.001651 -0.021035 0.000000 0.060462 0.000000
# 6 0.000000 0.000000 0.000000 -0.001980 0.000000 0.053478
#
#
# Mechanical properties :
#
#
# Convention : Reuss Voigt Hill
#
# Bulk Modulus (GPa) = 16.04986 27.56316 21.80651
# Shear Modulus (GPa) = 22.72858 28.88011 25.80435
#
# Velocity S-wave (km/s) = 3.04741 3.43514 3.24706
# Velocity P-wave (km/s) = 4.35202 5.19573 4.79248
#
# Compressibility (1/GPa) = 0.06230585
#
# Stress axis : x y z
#
# Youngs Moduli (GPa) = 52.90267 83.59553 34.86802
#
# Poissons Ratio (x) = 0.21005 -0.26352
# Poissons Ratio (y) = 0.13293 0.12777
# Poissons Ratio (z) = -0.39982 0.30632
#
# Static dielectric constant tensor:
#      x y z
#    x 4.172630 0.000000 0.235990 
#    y 0.000000 4.812610 0.000000 
#    z 0.235990 0.000000 4.296920 
# 
# 
# High freq. dielectric constant tensor:
#      x y z
#    x 1.966790 0.000000 0.014810 
#    y 0.000000 1.990020 0.000000 
#    z 0.014810 0.000000 1.958440 
# 
# From -- ./inp_files/21839.got.cif
#   From: 2010.03.12/outbox.cif.g09.slc.cpg/sg14_11_cif.got.tgz:21839.got - 2010.03.31 13:35:05.
