data_PCOD8126343
_publ_section_title
;
Structure prediction by ZEFSAII (Michael W. Deem and Ramdas Pophale) SiO2 
 PCOD8126343
Probable space group: P 21/C
;
_chemical_formula_sum "Si O2"
_cell_formula_units_Z 32
_cell_length_a 11.942062
_cell_length_b 9.352748
_cell_length_c 19.111529
_cell_angle_alpha 90.000000
_cell_angle_beta 129.512788
_cell_angle_gamma 90.000000
_cell_volume 1646.797206
_symmetry_space_group_name_H-M "P 21/C"
_symmetry_group_IT_number 14
_symmetry_cell_setting 'monoclinic'
loop_
_space_group_symop_operation_xyz
x,y,z
-x,1/2+y,1/2-z
-x,-y,-z
x,1/2-y,1/2+z
loop_
_atom_site_type_symbol
_atom_site_label
_atom_site_fract_x
_atom_site_fract_y
_atom_site_fract_z
Si Si1 0.761551 0.704555 0.969615
Si Si2 0.234264 0.879152 0.541216
Si Si3 0.239995 0.592695 0.201022
Si Si4 0.998940 0.279265 0.330441
Si Si5 0.497599 0.121821 0.092717
Si Si6 0.667065 0.148264 0.022040
Si Si7 0.089042 0.302998 0.113556
Si Si8 0.003017 0.602191 0.305675
O O1 0.772431 0.537858 0.992496
O O2 0.594686 0.749538 0.911420
O O3 0.806640 0.740861 0.908323
O O4 0.864846 0.791138 0.063426
O O5 0.297193 0.881733 0.644936
O O6 0.335391 0.782553 0.531855
O O7 0.071519 0.819921 0.481193
O O8 0.376794 0.573646 0.305234
O O9 0.142030 0.450771 0.169108
O O10 0.144072 0.727238 0.186137
O O11 0.963070 0.435709 0.285980
O O12 0.041611 0.172724 0.285100
O O13 0.560464 0.178499 0.044342
O O14 0.388902 0.989209 0.041474
O O15 0.826728 0.123490 0.115124
O O16 0.091743 0.177014 0.171452
#
# Coordination Sequence:
#
# PCOD8126343 Si02
#       8
#     4   4   4   4   4   4   4   4
#     4  11  22  40  65  91 127 163 204 252 316 363
#     4  10  21  39  66  93 120 162 208 264 303 355
#     4  11  21  40  65  90 129 163 205 252 311 372
#     4  12  22  39  62  97 121 159 209 260 298 362
#     4  11  24  40  60  88 128 173 201 245 317 378
#     4  10  23  41  60  88 125 169 200 246 319 370
#     4  10  21  41  64  95 120 160 207 262 309 356
#     4  11  24  37  66  95 122 155 210 262 302 358
#
# _framework density 19.431657999999999
#
# number of rings (size 3 to 8) (size 9 to 14) (size 15 to 20)
#    0.000    1.250    5.000    1.500    1.750    4.000 
#    0.000    1.250    0.000    0.000    0.000    0.000 
#    0.000    0.000    0.000    0.000    0.000    0.000 
#
# Total GULP energy -396974.551352 kJ/mol
# GULP energy per Si atom -12405.454730 kJ/mol
# Density = 1.938743 g / cm^3
# Si number density = 19.431658 Si / 1000 Ang^3
#
#
#
# Elastic Constant Matrix: (Units=GPa)
#
#
# Indices 1 2 3 4 5 6 
#
# 1 113.1265 54.4222 26.5856 0.0000 -9.4496 0.0000
# 2 54.4222 101.0122 15.1834 0.0000 -16.2526 0.0000
# 3 26.5856 15.1834 64.3673 0.0000 -11.1698 0.0000
# 4 0.0000 0.0000 0.0000 26.4788 0.0000 -3.4379
# 5 -9.4496 -16.2526 -11.1698 0.0000 25.9502 0.0000
# 6 0.0000 0.0000 0.0000 -3.4379 0.0000 40.3677
#
#
#
# Elastic Compliance Matrix: (Units=1/GPa)
#
#
# Indices 1 2 3 4 5 6 
#
# 1 0.012790 -0.006474 -0.003946 0.000000 -0.001096 0.000000
# 2 -0.006474 0.014424 0.000465 0.000000 0.006877 0.000000
# 3 -0.003946 0.000465 0.018218 0.000000 0.006696 0.000000
# 4 0.000000 0.000000 0.000000 0.038188 0.000000 0.003252
# 5 -0.001096 0.006877 0.006696 0.000000 0.045325 0.000000
# 6 0.000000 0.000000 0.000000 0.003252 0.000000 0.025049
#
#
# Mechanical properties :
#
#
# Convention : Reuss Voigt Hill
#
# Bulk Modulus (GPa) = 39.18138 52.32094 45.75116
# Shear Modulus (GPa) = 27.41050 30.71367 29.06209
#
# Velocity S-wave (km/s) = 3.75988 3.97999 3.87150
# Velocity P-wave (km/s) = 6.24951 6.93574 6.60155
#
# Compressibility (1/GPa) = 0.02552232
#
# Stress axis : x y z
#
# Youngs Moduli (GPa) = 78.18698 69.32729 54.89134
#
# Poissons Ratio (x) = 0.44882 0.21658
# Poissons Ratio (y) = 0.50618 -0.02551
# Poissons Ratio (z) = 0.30849 -0.03222
#
# Static dielectric constant tensor:
#      x y z
#    x 3.570730 0.000000 -0.128020 
#    y 0.000000 3.548630 0.000000 
#    z -0.128020 0.000000 3.491450 
# 
# 
# High freq. dielectric constant tensor:
#      x y z
#    x 1.758560 0.000000 -0.013330 
#    y 0.000000 1.756200 0.000000 
#    z -0.013330 0.000000 1.755880 
# 
# From -- ./inp_files/67063.got.cif
#   From: 2010.03.12/outbox.cif.g09.slc.cpg/sg14_34_cif.got.tgz:67063.got - 2010.03.31 13:35:05.
