data_PCOD8126780
_publ_section_title
;
Structure prediction by ZEFSAII (Michael W. Deem and Ramdas Pophale) SiO2 
 PCOD8126780
Probable space group: P 21/C
;
_chemical_formula_sum "Si O2"
_cell_formula_units_Z 24
_cell_length_a 20.023507
_cell_length_b 11.568399
_cell_length_c 13.957594
_cell_angle_alpha 90.000000
_cell_angle_beta 20.689943
_cell_angle_gamma 90.000000
_cell_volume 1142.301333
_symmetry_space_group_name_H-M "P 21/C"
_symmetry_group_IT_number 14
_symmetry_cell_setting 'monoclinic'
loop_
_space_group_symop_operation_xyz
x,y,z
-x,1/2+y,1/2-z
-x,-y,-z
x,1/2-y,1/2+z
loop_
_atom_site_type_symbol
_atom_site_label
_atom_site_fract_x
_atom_site_fract_y
_atom_site_fract_z
Si Si1 0.250714 0.875680 0.660993
Si Si2 0.262849 0.808775 0.995756
Si Si3 0.864327 0.763658 0.456621
Si Si4 0.884631 0.909900 0.252996
Si Si5 0.674160 0.923631 0.089660
Si Si6 0.329483 0.263491 0.585667
O O1 0.258343 0.745248 0.609354
O O2 0.457336 0.917574 0.416134
O O3 0.165565 0.955170 0.689055
O O4 0.110005 0.884994 0.940672
O O5 0.451993 0.766280 0.689204
O O6 0.253329 0.946423 0.017219
O O7 0.088646 0.761068 0.168439
O O8 0.807961 0.863000 0.456268
O O9 0.800443 0.639851 0.500554
O O10 0.759930 0.800108 0.693718
O O11 0.778117 0.849353 0.307423
O O12 0.696055 0.867149 0.955589
#
# Coordination Sequence:
#
# PCOD8126780 Si02
#       6
#     4   4   4   4   4   4
#     4  10  21  42  68  91 128 175 213 263 322 386
#     4  11  23  41  67  93 132 169 214 267 323 379
#     4  11  25  40  64  98 126 167 220 264 316 387
#     4  10  21  42  67  93 129 170 213 268 322 383
#     4  10  24  42  66  93 132 169 214 266 327 379
#     4  10  22  45  63  97 129 168 213 266 324 390
#
# _framework density 21.010217999999998
#
# number of rings (size 3 to 8) (size 9 to 14) (size 15 to 20)
#    0.000    1.667    3.333    0.000    4.667    1.333 
#    0.000    3.333    0.000    0.000    0.000    0.000 
#    0.000    0.000    0.000    0.000    0.000    0.000 
#
# Total GULP energy -297663.351624 kJ/mol
# GULP energy per Si atom -12402.639651 kJ/mol
# Density = 2.096240 g / cm^3
# Si number density = 21.010218 Si / 1000 Ang^3
#
#
#
# Elastic Constant Matrix: (Units=GPa)
#
#
# Indices 1 2 3 4 5 6 
#
# 1 96.0475 36.9072 63.8275 0.0000 7.0142 0.0000
# 2 36.9072 107.4990 55.1967 0.0000 -9.6285 0.0000
# 3 63.8275 55.1967 144.8738 0.0000 -12.3400 0.0000
# 4 0.0000 0.0000 0.0000 25.9909 0.0000 -4.0217
# 5 7.0142 -9.6285 -12.3400 0.0000 39.6367 0.0000
# 6 0.0000 0.0000 0.0000 -4.0217 0.0000 23.9824
#
#
#
# Elastic Compliance Matrix: (Units=1/GPa)
#
#
# Indices 1 2 3 4 5 6 
#
# 1 0.016242 -0.002683 -0.006609 0.000000 -0.005584 0.000000
# 2 -0.002683 0.012093 -0.003220 0.000000 0.002410 0.000000
# 3 -0.006609 -0.003220 0.011376 0.000000 0.003929 0.000000
# 4 0.000000 0.000000 0.000000 0.039500 0.000000 0.006624
# 5 -0.005584 0.002410 0.003929 0.000000 0.028026 0.000000
# 6 0.000000 0.000000 0.000000 0.006624 0.000000 0.042808
#
#
# Mechanical properties :
#
#
# Convention : Reuss Voigt Hill
#
# Bulk Modulus (GPa) = 68.08988 73.36480 70.72734
# Shear Modulus (GPa) = 27.78314 30.75458 29.26886
#
# Velocity S-wave (km/s) = 3.64038 3.83010 3.73644
# Velocity P-wave (km/s) = 7.08153 7.38607 7.23540
#
# Compressibility (1/GPa) = 0.01468647
#
# Stress axis : x y z
#
# Youngs Moduli (GPa) = 61.56711 82.69432 87.90437
#
# Poissons Ratio (x) = 0.22186 0.58100
# Poissons Ratio (y) = 0.16518 0.28306
# Poissons Ratio (z) = 0.40692 0.26628
#
# Static dielectric constant tensor:
#      x y z
#    x 3.619500 0.000000 -0.163050 
#    y 0.000000 3.778230 0.000000 
#    z -0.163050 0.000000 3.973610 
# 
# 
# High freq. dielectric constant tensor:
#      x y z
#    x 1.809060 0.000000 -0.012080 
#    y 0.000000 1.822270 0.000000 
#    z -0.012080 0.000000 1.835060 
# 
# From -- ./inp_files/50435.got.cif
#   From: 2010.03.12/outbox.cif.g09.slc.cpg/sg14_26_cif.got.tgz:50435.got - 2010.03.31 13:35:05.
