data_PCOD8126656
_publ_section_title
;
Structure prediction by ZEFSAII (Michael W. Deem and Ramdas Pophale) SiO2 
 PCOD8126656
Probable space group: P 21/C
;
_chemical_formula_sum "Si O2"
_cell_formula_units_Z 32
_cell_length_a 14.023480
_cell_length_b 15.973397
_cell_length_c 11.644475
_cell_angle_alpha 90.000000
_cell_angle_beta 32.314561
_cell_angle_gamma 90.000000
_cell_volume 1394.361108
_symmetry_space_group_name_H-M "P 21/C"
_symmetry_group_IT_number 14
_symmetry_cell_setting 'monoclinic'
loop_
_space_group_symop_operation_xyz
x,y,z
-x,1/2+y,1/2-z
-x,-y,-z
x,1/2-y,1/2+z
loop_
_atom_site_type_symbol
_atom_site_label
_atom_site_fract_x
_atom_site_fract_y
_atom_site_fract_z
Si Si1 0.247432 0.670897 0.720219
Si Si2 0.098818 0.846540 0.958266
Si Si3 0.444108 0.415735 0.206739
Si Si4 0.597542 0.633128 0.231609
Si Si5 0.034435 0.200579 0.673696
Si Si6 0.469412 0.599866 0.124191
Si Si7 0.959310 0.891127 0.864488
Si Si8 0.721906 0.444685 0.097022
O O1 0.197133 0.760954 0.822018
O O2 0.449347 0.667455 0.469125
O O3 0.226582 0.599791 0.837061
O O4 0.112944 0.652098 0.752128
O O5 0.255388 0.906560 0.841611
O O6 0.988680 0.893078 0.971400
O O7 0.960932 0.835348 0.202388
O O8 0.530115 0.505300 0.086746
O O9 0.243493 0.415781 0.459179
O O10 0.579063 0.386294 0.171004
O O11 0.457893 0.363760 0.072605
O O12 0.538940 0.654912 0.160246
O O13 0.636383 0.534850 0.212079
O O14 0.773546 0.686856 0.080062
O O15 0.992801 0.298433 0.727226
O O16 0.094846 0.954457 0.662884
#
# Coordination Sequence:
#
# PCOD8126656 Si02
#       8
#     4   4   4   4   4   4   4   4
#     4  11  25  44  64  91 131 172 209 266 316 375
#     4  11  22  42  65  89 134 164 206 270 321 371
#     4  10  23  40  65  98 128 163 214 259 324 378
#     4  11  25  42  70  94 126 170 221 257 317 383
#     4  11  25  43  63  96 126 167 216 262 318 381
#     4  10  21  41  66  96 126 166 209 266 319 379
#     4  11  24  40  65  93 129 168 208 265 323 378
#     4  11  24  44  64  96 130 171 213 263 316 378
#
# _framework density 22.949577000000001
#
# number of rings (size 3 to 8) (size 9 to 14) (size 15 to 20)
#    0.000    1.250    3.750    1.125    3.500    3.000 
#    0.000    0.000    0.000    0.000    0.000    0.000 
#    0.000    0.000    0.000    0.000    0.000    0.000 
#
# Total GULP energy -396772.857659 kJ/mol
# GULP energy per Si atom -12399.151802 kJ/mol
# Density = 2.289734 g / cm^3
# Si number density = 22.949577 Si / 1000 Ang^3
#
#
#
# Elastic Constant Matrix: (Units=GPa)
#
#
# Indices 1 2 3 4 5 6 
#
# 1 76.3432 8.3348 42.1542 0.0000 2.5428 0.0000
# 2 8.3348 35.4226 0.0695 0.0000 6.0797 0.0000
# 3 42.1542 0.0695 144.8187 0.0000 -11.1806 0.0000
# 4 0.0000 0.0000 0.0000 30.0572 0.0000 -4.8153
# 5 2.5428 6.0797 -11.1806 0.0000 43.0012 0.0000
# 6 0.0000 0.0000 0.0000 -4.8153 0.0000 19.1139
#
#
#
# Elastic Compliance Matrix: (Units=1/GPa)
#
#
# Indices 1 2 3 4 5 6 
#
# 1 0.016219 -0.003511 -0.004852 0.000000 -0.001724 0.000000
# 2 -0.003511 0.029709 0.000714 0.000000 -0.003807 0.000000
# 3 -0.004852 0.000714 0.008502 0.000000 0.002397 0.000000
# 4 0.000000 0.000000 0.000000 0.034669 0.000000 0.008734
# 5 -0.001724 -0.003807 0.002397 0.000000 0.024519 0.000000
# 6 0.000000 0.000000 0.000000 0.008734 0.000000 0.054518
#
#
# Mechanical properties :
#
#
# Convention : Reuss Voigt Hill
#
# Bulk Modulus (GPa) = 25.55530 39.74462 32.64996
# Shear Modulus (GPa) = 25.44809 32.16953 28.80881
#
# Velocity S-wave (km/s) = 3.33358 3.74805 3.54688
# Velocity P-wave (km/s) = 5.09673 6.00719 5.57059
#
# Compressibility (1/GPa) = 0.03913083
#
# Stress axis : x y z
#
# Youngs Moduli (GPa) = 61.65670 33.66026 117.61460
#
# Poissons Ratio (x) = 0.11817 0.57072
# Poissons Ratio (y) = 0.21646 -0.08394
# Poissons Ratio (z) = 0.29919 -0.02402
#
# Static dielectric constant tensor:
#      x y z
#    x 4.388410 0.000000 0.055790 
#    y 0.000000 3.777580 0.000000 
#    z 0.055790 0.000000 3.972260 
# 
# 
# High freq. dielectric constant tensor:
#      x y z
#    x 1.915840 0.000000 -0.002520 
#    y 0.000000 1.883160 0.000000 
#    z -0.002520 0.000000 1.911810 
# 
# From -- ./inp_files/33022.got.cif
#   From: 2010.03.12/outbox.cif.g09.slc.cpg/sg14_17_cif.got.tgz:33022.got - 2010.03.31 13:35:05.
