data_PCOD8126056
_publ_section_title
;
Structure prediction by ZEFSAII (Michael W. Deem and Ramdas Pophale) SiO2 
 PCOD8126056
Probable space group: P 21/C
;
_chemical_formula_sum "Si O2"
_cell_formula_units_Z 32
_cell_length_a 8.780285
_cell_length_b 16.317101
_cell_length_c 15.563588
_cell_angle_alpha 90.000000
_cell_angle_beta 136.894238
_cell_angle_gamma 90.000000
_cell_volume 1523.711549
_symmetry_space_group_name_H-M "P 21/C"
_symmetry_group_IT_number 14
_symmetry_cell_setting 'monoclinic'
loop_
_space_group_symop_operation_xyz
x,y,z
-x,1/2+y,1/2-z
-x,-y,-z
x,1/2-y,1/2+z
loop_
_atom_site_type_symbol
_atom_site_label
_atom_site_fract_x
_atom_site_fract_y
_atom_site_fract_z
Si Si1 0.636181 0.637553 0.703902
Si Si2 0.049148 0.054754 0.936054
Si Si3 0.954286 0.451895 0.066289
Si Si4 0.001005 0.948649 0.757892
Si Si5 0.379827 0.631590 0.173718
Si Si6 0.557105 0.461481 0.630443
Si Si7 0.824049 0.299785 0.424758
Si Si8 0.821753 0.805249 0.780226
O O1 0.584981 0.559351 0.622600
O O2 0.410050 0.653667 0.661568
O O3 0.723341 0.722116 0.696090
O O4 0.844808 0.613266 0.849060
O O5 0.956164 0.146226 0.909242
O O6 0.936129 0.009473 0.809171
O O7 0.306675 0.067320 0.016834
O O8 0.000000 0.000000 0.000000
O O9 0.929829 0.508936 0.139830
O O10 0.718578 0.405048 0.955744
O O11 0.000000 0.500000 0.000000
O O12 0.266036 0.924342 0.864918
O O13 0.870486 0.864164 0.719791
O O14 0.359563 0.563345 0.239923
O O15 0.227300 0.710472 0.135677
O O16 0.636162 0.656014 0.266800
O O17 0.957641 0.294036 0.570163
#
# Coordination Sequence:
#
# PCOD8126056 Si02
#       8
#     4   4   4   4   4   4   4   4
#     4  10  21  37  67  95 126 173 217 269 332 393
#     4  12  21  40  69  98 133 170 222 277 324 397
#     4  11  22  42  66  92 131 177 222 272 330 405
#     4  11  24  38  65  98 130 175 223 271 333 396
#     4  11  22  41  68  94 130 179 218 267 339 398
#     4  11  21  41  67  95 131 176 218 271 331 397
#     4  11  22  38  67  99 131 172 222 274 330 390
#     4  11  22  40  63  95 132 169 219 277 328 388
#
# _framework density 21.001349999999999
#
# number of rings (size 3 to 8) (size 9 to 14) (size 15 to 20)
#    0.000    1.000    7.500    0.375    0.000    1.500 
#    4.500    0.000    0.000    0.000    0.000    0.000 
#    0.000    0.000    0.000    0.000    0.000    0.000 
#
# Total GULP energy -396462.017394 kJ/mol
# GULP energy per Si atom -12389.438044 kJ/mol
# Density = 2.095355 g / cm^3
# Si number density = 21.001350 Si / 1000 Ang^3
#
#
#
# Elastic Constant Matrix: (Units=GPa)
#
#
# Indices 1 2 3 4 5 6 
#
# 1 97.3990 67.9276 34.8260 0.0000 -1.7012 0.0000
# 2 67.9276 141.4530 33.1191 0.0000 2.7448 0.0000
# 3 34.8260 33.1191 80.7419 0.0000 2.4200 0.0000
# 4 0.0000 0.0000 0.0000 20.9729 0.0000 6.6440
# 5 -1.7012 2.7448 2.4200 0.0000 34.7702 0.0000
# 6 0.0000 0.0000 0.0000 6.6440 0.0000 39.1398
#
#
#
# Elastic Compliance Matrix: (Units=1/GPa)
#
#
# Indices 1 2 3 4 5 6 
#
# 1 0.016800 -0.007071 -0.004396 0.000000 0.001686 0.000000
# 2 -0.007071 0.010802 -0.001348 0.000000 -0.001105 0.000000
# 3 -0.004396 -0.001348 0.014869 0.000000 -0.001144 0.000000
# 4 0.000000 0.000000 0.000000 0.050390 0.000000 -0.008554
# 5 0.001686 -0.001105 -0.001144 0.000000 0.029010 0.000000
# 6 0.000000 0.000000 0.000000 -0.008554 0.000000 0.027001
#
#
# Mechanical properties :
#
#
# Convention : Reuss Voigt Hill
#
# Bulk Modulus (GPa) = 59.38168 65.70436 62.54302
# Shear Modulus (GPa) = 27.75997 31.22464 29.49231
#
# Velocity S-wave (km/s) = 3.63963 3.86008 3.75147
# Velocity P-wave (km/s) = 6.78226 7.15686 6.97208
#
# Compressibility (1/GPa) = 0.01684021
#
# Stress axis : x y z
#
# Youngs Moduli (GPa) = 59.52453 92.57514 67.25606
#
# Poissons Ratio (x) = 0.65459 0.29568
# Poissons Ratio (y) = 0.42089 0.09065
# Poissons Ratio (z) = 0.26169 0.12478
#
# Static dielectric constant tensor:
#      x y z
#    x 3.923300 0.000000 0.237430 
#    y 0.000000 3.310050 0.000000 
#    z 0.237430 0.000000 4.120780 
# 
# 
# High freq. dielectric constant tensor:
#      x y z
#    x 1.813620 0.000000 0.026480 
#    y 0.000000 1.832850 0.000000 
#    z 0.026480 0.000000 1.816480 
# 
# From -- ./inp_files/41725.got.cif
#   From: 2010.03.12/outbox.cif.g09.slc.cpg/sg14_21_cif.got.tgz:41725.got - 2010.03.31 13:35:05.
