data_PCOD8126650
_publ_section_title
;
Structure prediction by ZEFSAII (Michael W. Deem and Ramdas Pophale) SiO2 
 PCOD8126650
Probable space group: P 21/C
;
_chemical_formula_sum "Si O2"
_cell_formula_units_Z 24
_cell_length_a 13.186235
_cell_length_b 5.386815
_cell_length_c 16.830316
_cell_angle_alpha 90.000000
_cell_angle_beta 123.538820
_cell_angle_gamma 90.000000
_cell_volume 996.453022
_symmetry_space_group_name_H-M "P 21/C"
_symmetry_group_IT_number 14
_symmetry_cell_setting 'monoclinic'
loop_
_space_group_symop_operation_xyz
x,y,z
-x,1/2+y,1/2-z
-x,-y,-z
x,1/2-y,1/2+z
loop_
_atom_site_type_symbol
_atom_site_label
_atom_site_fract_x
_atom_site_fract_y
_atom_site_fract_z
Si Si1 0.451123 0.376100 0.563114
Si Si2 0.140959 0.927987 0.394064
Si Si3 0.654028 0.367232 0.911682
Si Si4 0.332404 0.698305 0.760310
Si Si5 0.313777 0.272031 0.855466
Si Si6 0.114074 0.614521 0.238485
O O1 0.393797 0.639465 0.557723
O O2 0.596560 0.391768 0.649267
O O3 0.425494 0.341575 0.457266
O O4 0.403305 0.140990 0.596017
O O5 0.200394 0.871354 0.505525
O O6 0.098525 0.688542 0.324544
O O7 0.250849 0.051087 0.393232
O O8 0.019772 0.088586 0.356397
O O9 0.634564 0.282513 0.812915
O O10 0.375954 0.422384 0.808007
O O11 0.187142 0.688002 0.715547
O O12 0.201712 0.120668 0.770894
#
# Coordination Sequence:
#
# PCOD8126650 Si02
#       6
#     4   4   4   4   4   4
#     4  11  24  45  68  94 135 181 218 261 326 399
#     4  10  21  41  66  92 124 176 225 262 330 389
#     4  11  25  44  68  96 135 178 214 268 332 393
#     4  11  26  39  64 102 132 169 218 276 330 381
#     4  10  22  40  66  94 126 173 223 272 316 387
#     4  11  21  39  66  92 127 171 222 275 317 388
#
# _framework density 24.085432000000001
#
# number of rings (size 3 to 8) (size 9 to 14) (size 15 to 20)
#    0.000    1.333    3.333    1.500    4.667    1.333 
#    0.000    0.833    0.000    0.000    0.000    0.000 
#    0.000    0.000    0.000    0.000    0.000    0.000 
#
# Total GULP energy -297336.820964 kJ/mol
# GULP energy per Si atom -12389.034207 kJ/mol
# Density = 2.403061 g / cm^3
# Si number density = 24.085432 Si / 1000 Ang^3
#
#
#
# Elastic Constant Matrix: (Units=GPa)
#
#
# Indices 1 2 3 4 5 6 
#
# 1 89.4732 19.4003 55.7391 0.0000 18.9701 0.0000
# 2 19.4003 89.6781 39.6277 0.0000 3.5111 0.0000
# 3 55.7391 39.6277 149.8035 0.0000 4.4946 0.0000
# 4 0.0000 0.0000 0.0000 40.2735 0.0000 1.2379
# 5 18.9701 3.5111 4.4946 0.0000 51.0251 0.0000
# 6 0.0000 0.0000 0.0000 1.2379 0.0000 30.6521
#
#
#
# Elastic Compliance Matrix: (Units=1/GPa)
#
#
# Indices 1 2 3 4 5 6 
#
# 1 0.015958 -0.000780 -0.005570 0.000000 -0.005389 0.000000
# 2 -0.000780 0.012682 -0.003055 0.000000 -0.000314 0.000000
# 3 -0.005570 -0.003055 0.009513 0.000000 0.001443 0.000000
# 4 0.000000 0.000000 0.000000 0.024861 0.000000 -0.001004
# 5 -0.005389 -0.000314 0.001443 0.000000 0.021496 0.000000
# 6 0.000000 0.000000 0.000000 -0.001004 0.000000 0.032665
#
#
# Mechanical properties :
#
#
# Convention : Reuss Voigt Hill
#
# Bulk Modulus (GPa) = 51.69852 62.05431 56.87642
# Shear Modulus (GPa) = 35.10457 38.66933 36.88695
#
# Velocity S-wave (km/s) = 3.82187 4.01122 3.91769
# Velocity P-wave (km/s) = 6.40209 6.87557 6.64305
#
# Compressibility (1/GPa) = 0.01934291
#
# Stress axis : x y z
#
# Youngs Moduli (GPa) = 62.66516 78.85156 105.12346
#
# Poissons Ratio (x) = 0.06151 0.58549
# Poissons Ratio (y) = 0.04889 0.32117
# Poissons Ratio (z) = 0.34902 0.24090
#
# Static dielectric constant tensor:
#      x y z
#    x 4.493710 0.000000 0.423520 
#    y 0.000000 4.755270 0.000000 
#    z 0.423520 0.000000 4.453510 
# 
# 
# High freq. dielectric constant tensor:
#      x y z
#    x 1.955870 0.000000 0.026500 
#    y 0.000000 1.975100 0.000000 
#    z 0.026500 0.000000 1.953510 
# 
# From -- ./inp_files/46006.got.cif
#   From: 2010.03.12/outbox.cif.g09.slc.cpg/sg14_24_cif.got.tgz:46006.got - 2010.03.31 13:35:05.
