data_PCOD8126950
_publ_section_title
;
Structure prediction by ZEFSAII (Michael W. Deem and Ramdas Pophale) SiO2 
 PCOD8126950
Probable space group: P 21/C
;
_chemical_formula_sum "Si O2"
_cell_formula_units_Z 24
_cell_length_a 14.036959
_cell_length_b 7.756884
_cell_length_c 14.540706
_cell_angle_alpha 90.000000
_cell_angle_beta 137.991470
_cell_angle_gamma 90.000000
_cell_volume 1059.567221
_symmetry_space_group_name_H-M "P 21/C"
_symmetry_group_IT_number 14
_symmetry_cell_setting 'monoclinic'
loop_
_space_group_symop_operation_xyz
x,y,z
-x,1/2+y,1/2-z
-x,-y,-z
x,1/2-y,1/2+z
loop_
_atom_site_type_symbol
_atom_site_label
_atom_site_fract_x
_atom_site_fract_y
_atom_site_fract_z
Si Si1 0.406688 0.239433 0.749437
Si Si2 0.929599 0.264277 0.496787
Si Si3 0.366270 0.859703 0.727616
Si Si4 0.937365 0.974614 0.756489
Si Si5 0.110818 0.218363 0.452929
Si Si6 0.714640 0.043923 0.733112
O O1 0.550362 0.292913 0.801725
O O2 0.376882 0.374033 0.810185
O O3 0.279843 0.239728 0.584360
O O4 0.423058 0.045596 0.801988
O O5 0.801392 0.125721 0.422094
O O6 0.035501 0.185690 0.496619
O O7 0.852984 0.440752 0.401509
O O8 0.015471 0.304640 0.651224
O O9 0.380275 0.717968 0.820423
O O10 0.927367 0.941294 0.641051
O O11 0.056031 0.116462 0.858480
O O12 0.778903 0.033660 0.676822
#
# Coordination Sequence:
#
# PCOD8126950 Si02
#       6
#     4   4   4   4   4   4
#     4  12  20  39  64  95 118 171 209 253 313 374
#     4   9  19  42  61  88 127 163 201 267 306 362
#     4  10  22  34  66  88 120 167 211 247 316 370
#     4  11  21  40  62  93 131 158 205 271 305 370
#     4  11  23  37  66  92 125 164 207 254 321 366
#     4   9  19  40  60  86 127 156 201 263 304 359
#
# _framework density 22.650758
#
# number of rings (size 3 to 8) (size 9 to 14) (size 15 to 20)
#    1.000    0.667    5.000    1.000    2.333    2.000 
#    0.000    0.833    3.667    2.000    0.000    0.000 
#    0.000    0.000    0.000    0.000    0.000    0.000 
#
# Total GULP energy -297488.254365 kJ/mol
# GULP energy per Si atom -12395.343932 kJ/mol
# Density = 2.259920 g / cm^3
# Si number density = 22.650758 Si / 1000 Ang^3
#
#
#
# Elastic Constant Matrix: (Units=GPa)
#
#
# Indices 1 2 3 4 5 6 
#
# 1 102.0577 29.9379 18.5040 0.0000 23.5905 0.0000
# 2 29.9379 131.8327 -2.0898 0.0000 1.2346 0.0000
# 3 18.5040 -2.0898 36.1273 0.0000 1.0621 0.0000
# 4 0.0000 0.0000 0.0000 11.8983 0.0000 12.1511
# 5 23.5905 1.2346 1.0621 0.0000 14.0500 0.0000
# 6 0.0000 0.0000 0.0000 12.1511 0.0000 27.7765
#
#
#
# Elastic Compliance Matrix: (Units=1/GPa)
#
#
# Indices 1 2 3 4 5 6 
#
# 1 0.020680 -0.004538 -0.009868 0.000000 -0.033579 0.000000
# 2 -0.004538 0.008595 0.002626 0.000000 0.006666 0.000000
# 3 -0.009868 0.002626 0.032478 0.000000 0.013882 0.000000
# 4 0.000000 0.000000 0.000000 0.151914 0.000000 -0.066457
# 5 -0.033579 0.006666 0.013882 0.000000 0.125919 0.000000
# 6 0.000000 0.000000 0.000000 -0.066457 0.000000 0.065074
#
#
# Mechanical properties :
#
#
# Convention : Reuss Voigt Hill
#
# Bulk Modulus (GPa) = 26.18292 40.30244 33.24268
# Shear Modulus (GPa) = 11.33910 25.65600 18.49755
#
# Velocity S-wave (km/s) = 2.23985 3.36918 2.86079
# Velocity P-wave (km/s) = 4.27478 5.74167 5.06164
#
# Compressibility (1/GPa) = 0.03819284
#
# Stress axis : x y z
#
# Youngs Moduli (GPa) = 48.35497 116.34457 30.79029
#
# Poissons Ratio (x) = 0.52800 0.30383
# Poissons Ratio (y) = 0.21945 -0.08085
# Poissons Ratio (z) = 0.47715 -0.30548
#
# Static dielectric constant tensor:
#      x y z
#    x 4.066240 0.000000 0.133070 
#    y 0.000000 4.151040 0.000000 
#    z 0.133070 0.000000 3.484940 
# 
# 
# High freq. dielectric constant tensor:
#      x y z
#    x 1.900000 0.000000 0.012260 
#    y 0.000000 1.905750 0.000000 
#    z 0.012260 0.000000 1.838560 
# 
# From -- ./inp_files/46189.got.cif
#   From: 2010.03.12/outbox.cif.g09.slc.cpg/sg14_24_cif.got.tgz:46189.got - 2010.03.31 13:35:05.
