data_PCOD8126151
_publ_section_title
;
Structure prediction by ZEFSAII (Michael W. Deem and Ramdas Pophale) SiO2 
 PCOD8126151
Probable space group: P 21/C
;
_chemical_formula_sum "Si O2"
_cell_formula_units_Z 32
_cell_length_a 11.496318
_cell_length_b 18.224027
_cell_length_c 11.621374
_cell_angle_alpha 90.000000
_cell_angle_beta 42.416181
_cell_angle_gamma 90.000000
_cell_volume 1642.288964
_symmetry_space_group_name_H-M "P 21/C"
_symmetry_group_IT_number 14
_symmetry_cell_setting 'monoclinic'
loop_
_space_group_symop_operation_xyz
x,y,z
-x,1/2+y,1/2-z
-x,-y,-z
x,1/2-y,1/2+z
loop_
_atom_site_type_symbol
_atom_site_label
_atom_site_fract_x
_atom_site_fract_y
_atom_site_fract_z
Si Si1 0.816733 0.394381 0.367078
Si Si2 0.964012 0.017962 0.394761
Si Si3 0.636631 0.926553 0.601161
Si Si4 0.080003 0.396714 0.486172
Si Si5 0.134513 0.320226 0.202979
Si Si6 0.149000 0.153242 0.175244
Si Si7 0.261439 0.954563 0.839613
Si Si8 0.536625 0.582874 0.438307
O O1 0.748874 0.400031 0.545682
O O2 0.648343 0.375257 0.413726
O O3 0.894655 0.473773 0.280498
O O4 0.961847 0.331588 0.251513
O O5 0.997688 0.104333 0.345160
O O6 0.773791 0.993586 0.492302
O O7 0.000000 0.000000 0.500000
O O8 0.707163 0.853409 0.486029
O O9 0.463906 0.950611 0.657092
O O10 0.610072 0.910505 0.755426
O O11 0.115344 0.362516 0.336654
O O12 0.118911 0.340283 0.560289
O O13 0.214143 0.462621 0.405664
O O14 0.881286 0.425025 0.647371
O O15 0.152799 0.235349 0.220868
O O16 0.334721 0.118829 0.065721
O O17 0.500000 0.500000 0.500000
#
# Coordination Sequence:
#
# PCOD8126151 Si02
#       8
#     4   4   4   4   4   4   4   4
#     4   9  18  38  59  84 115 157 198 242 305 355
#     4  11  19  34  60  91 118 153 203 255 294 345
#     4  10  21  38  63  92 122 146 210 260 298 342
#     4  10  21  40  62  83 119 163 203 235 313 373
#     4  10  25  39  58  85 124 168 189 251 312 353
#     4  12  23  38  61  90 126 160 203 242 312 374
#     4   9  18  38  66  85 109 157 206 251 289 361
#     4  11  19  37  68  91 113 156 202 258 302 355
#
# _framework density 19.484999999999999
#
# number of rings (size 3 to 8) (size 9 to 14) (size 15 to 20)
#    0.000    1.750    3.750    0.750    3.500    0.500 
#    2.250    0.000   11.000    0.000    0.000    0.000 
#    0.000    0.000    0.000    0.000    0.000    0.000 
#
# Total GULP energy -396572.174135 kJ/mol
# GULP energy per Si atom -12392.880442 kJ/mol
# Density = 1.944065 g / cm^3
# Si number density = 19.485000 Si / 1000 Ang^3
#
#
#
# Elastic Constant Matrix: (Units=GPa)
#
#
# Indices 1 2 3 4 5 6 
#
# 1 112.2262 36.6398 52.1674 0.0000 -27.5309 0.0000
# 2 36.6398 103.6265 35.3969 0.0000 -15.3777 0.0000
# 3 52.1674 35.3969 94.9699 0.0000 -19.1158 0.0000
# 4 0.0000 0.0000 0.0000 19.7942 0.0000 -0.8662
# 5 -27.5309 -15.3777 -19.1158 0.0000 48.2952 0.0000
# 6 0.0000 0.0000 0.0000 -0.8662 0.0000 16.8356
#
#
#
# Elastic Compliance Matrix: (Units=1/GPa)
#
#
# Indices 1 2 3 4 5 6 
#
# 1 0.013364 -0.002110 -0.005603 0.000000 0.004729 0.000000
# 2 -0.002110 0.011581 -0.002888 0.000000 0.001342 0.000000
# 3 -0.005603 -0.002888 0.015055 0.000000 0.001846 0.000000
# 4 0.000000 0.000000 0.000000 0.050634 0.000000 0.002605
# 5 0.004729 0.001342 0.001846 0.000000 0.024560 0.000000
# 6 0.000000 0.000000 0.000000 0.002605 0.000000 0.059532
#
#
# Mechanical properties :
#
#
# Convention : Reuss Voigt Hill
#
# Bulk Modulus (GPa) = 53.19045 62.13677 57.66361
# Shear Modulus (GPa) = 24.72897 29.42624 27.07761
#
# Velocity S-wave (km/s) = 3.56635 3.89034 3.73186
# Velocity P-wave (km/s) = 6.65702 7.22070 6.94458
#
# Compressibility (1/GPa) = 0.01880037
#
# Stress axis : x y z
#
# Youngs Moduli (GPa) = 74.82966 86.34477 66.42321
#
# Poissons Ratio (x) = 0.18215 0.37214
# Poissons Ratio (y) = 0.15786 0.19181
# Poissons Ratio (z) = 0.41924 0.24933
#
# Static dielectric constant tensor:
#      x y z
#    x 3.637680 0.000000 -0.875960 
#    y 0.000000 3.137750 0.000000 
#    z -0.875960 0.000000 2.597750 
# 
# 
# High freq. dielectric constant tensor:
#      x y z
#    x 1.774780 0.000000 -0.010110 
#    y 0.000000 1.725690 0.000000 
#    z -0.010110 0.000000 1.755850 
# 
# From -- ./inp_files/30436.got.cif
#   From: 2010.03.12/outbox.cif.g09.slc.cpg/sg14_16_cif.got.tgz:30436.got - 2010.03.31 13:35:05.
