data_PCOD8126393
_publ_section_title
;
Structure prediction by ZEFSAII (Michael W. Deem and Ramdas Pophale) SiO2 
 PCOD8126393
Probable space group: P 21/C
;
_chemical_formula_sum "Si O2"
_cell_formula_units_Z 32
_cell_length_a 13.056882
_cell_length_b 19.270760
_cell_length_c 10.007052
_cell_angle_alpha 90.000000
_cell_angle_beta 142.097658
_cell_angle_gamma 90.000000
_cell_volume 1546.811289
_symmetry_space_group_name_H-M "P 21/C"
_symmetry_group_IT_number 14
_symmetry_cell_setting 'monoclinic'
loop_
_space_group_symop_operation_xyz
x,y,z
-x,1/2+y,1/2-z
-x,-y,-z
x,1/2-y,1/2+z
loop_
_atom_site_type_symbol
_atom_site_label
_atom_site_fract_x
_atom_site_fract_y
_atom_site_fract_z
Si Si1 0.177065 0.807087 0.074732
Si Si2 0.822245 0.463820 0.337354
Si Si3 0.656410 0.262995 0.989078
Si Si4 0.333352 0.582341 0.090633
Si Si5 0.699559 0.931565 0.913048
Si Si6 0.891615 0.713031 0.864516
Si Si7 0.707736 0.778924 0.909561
Si Si8 0.014500 0.932683 0.427961
O O1 0.156986 0.888770 0.074386
O O2 0.293501 0.768871 0.304413
O O3 0.239909 0.793808 0.988116
O O4 0.998369 0.773185 0.907425
O O5 0.726160 0.459065 0.099929
O O6 0.700371 0.509257 0.303088
O O7 0.000000 0.500000 0.500000
O O8 0.465400 0.238728 0.785856
O O9 0.685299 0.335866 0.947019
O O10 0.205464 0.563782 0.075964
O O11 0.526727 0.561305 0.321483
O O12 0.694886 0.856581 0.834439
O O13 0.873018 0.938084 0.170081
O O14 0.841221 0.735123 0.962347
O O15 0.741750 0.709288 0.602695
O O16 0.985303 0.639350 0.977085
O O17 0.000000 0.000000 0.500000
#
# Coordination Sequence:
#
# PCOD8126393 Si02
#       8
#     4   4   4   4   4   4   4   4
#     4  11  22  36  64  87 122 158 201 249 303 369
#     4  11  21  38  63  92 121 156 206 255 303 361
#     4  10  21  40  60  89 119 160 201 249 308 363
#     4  10  21  42  64  85 124 163 197 253 309 361
#     4  10  22  41  65  90 122 162 203 249 311 361
#     4  11  22  40  63  90 121 161 204 248 311 360
#     4  10  22  40  64  89 124 157 201 257 301 364
#     4  11  24  42  61  87 126 164 204 249 305 366
#
# _framework density 20.687721
#
# number of rings (size 3 to 8) (size 9 to 14) (size 15 to 20)
#    0.000    1.500    2.500    2.625    3.500    2.500 
#    4.500    0.000    0.000    0.000    0.000    0.000 
#    0.000    0.000    0.000    0.000    0.000    0.000 
#
# Total GULP energy -396666.636826 kJ/mol
# GULP energy per Si atom -12395.832401 kJ/mol
# Density = 2.064063 g / cm^3
# Si number density = 20.687721 Si / 1000 Ang^3
#
#
#
# Elastic Constant Matrix: (Units=GPa)
#
#
# Indices 1 2 3 4 5 6 
#
# 1 127.6966 49.1532 19.2046 0.0000 17.4685 0.0000
# 2 49.1532 89.6606 7.0168 0.0000 -2.4386 0.0000
# 3 19.2046 7.0168 41.1893 0.0000 14.7780 0.0000
# 4 0.0000 0.0000 0.0000 27.2930 0.0000 -4.3000
# 5 17.4685 -2.4386 14.7780 0.0000 35.6299 0.0000
# 6 0.0000 0.0000 0.0000 -4.3000 0.0000 40.0168
#
#
#
# Elastic Compliance Matrix: (Units=1/GPa)
#
#
# Indices 1 2 3 4 5 6 
#
# 1 0.011212 -0.006090 -0.002430 0.000000 -0.004906 0.000000
# 2 -0.006090 0.014716 -0.001292 0.000000 0.004529 0.000000
# 3 -0.002430 -0.001292 0.029647 0.000000 -0.011194 0.000000
# 4 0.000000 0.000000 0.000000 0.037270 0.000000 0.004005
# 5 -0.004906 0.004529 -0.011194 0.000000 0.035424 0.000000
# 6 0.000000 0.000000 0.000000 0.004005 0.000000 0.025420
#
#
# Mechanical properties :
#
#
# Convention : Reuss Voigt Hill
#
# Bulk Modulus (GPa) = 27.81575 45.47727 36.64651
# Shear Modulus (GPa) = 26.98364 32.79938 29.89151
#
# Velocity S-wave (km/s) = 3.61547 3.98609 3.80530
# Velocity P-wave (km/s) = 5.55910 6.57387 6.08766
#
# Compressibility (1/GPa) = 0.03595086
#
# Stress axis : x y z
#
# Youngs Moduli (GPa) = 89.19305 67.95358 33.72969
#
# Poissons Ratio (x) = 0.41381 0.08196
# Poissons Ratio (y) = 0.54315 0.04360
# Poissons Ratio (z) = 0.21673 0.08783
#
# Static dielectric constant tensor:
#      x y z
#    x 3.865900 0.000000 -0.062360 
#    y 0.000000 3.946970 0.000000 
#    z -0.062360 0.000000 2.810200 
# 
# 
# High freq. dielectric constant tensor:
#      x y z
#    x 1.810370 0.000000 0.015250 
#    y 0.000000 1.808740 0.000000 
#    z 0.015250 0.000000 1.806720 
# 
# From -- ./inp_files/14351.got.cif
#   From: 2010.03.12/outbox.cif.g09.slc.cpg/sg14_8_cif.got.tgz:14351.got - 2010.03.31 13:35:05.
