data_PCOD8126577
_publ_section_title
;
Structure prediction by ZEFSAII (Michael W. Deem and Ramdas Pophale) SiO2 
 PCOD8126577
Probable space group: P 21/C
;
_chemical_formula_sum "Si O2"
_cell_formula_units_Z 28
_cell_length_a 26.067972
_cell_length_b 7.588068
_cell_length_c 9.279749
_cell_angle_alpha 90.000000
_cell_angle_beta 40.230494
_cell_angle_gamma 90.000000
_cell_volume 1185.538979
_symmetry_space_group_name_H-M "P 21/C"
_symmetry_group_IT_number 14
_symmetry_cell_setting 'monoclinic'
loop_
_space_group_symop_operation_xyz
x,y,z
-x,1/2+y,1/2-z
-x,-y,-z
x,1/2-y,1/2+z
loop_
_atom_site_type_symbol
_atom_site_label
_atom_site_fract_x
_atom_site_fract_y
_atom_site_fract_z
Si Si1 0.436288 0.820471 0.173218
Si Si2 0.193455 0.032766 0.371987
Si Si3 0.909820 0.477436 0.517218
Si Si4 0.223489 0.197483 0.585766
Si Si5 0.600035 0.807754 0.703921
Si Si6 0.366463 0.545319 0.524311
Si Si7 0.056157 0.700354 0.268524
O O1 0.388661 0.654988 0.334157
O O2 0.422683 0.993823 0.305341
O O3 0.528531 0.759763 0.967292
O O4 0.411058 0.876069 0.065643
O O5 0.188598 0.192706 0.498969
O O6 0.202130 0.111374 0.194088
O O7 0.115426 0.917460 0.545782
O O8 0.272296 0.924440 0.246427
O O9 0.819198 0.543180 0.728091
O O10 0.928093 0.399896 0.319105
O O11 0.927049 0.322828 0.598008
O O12 0.966121 0.645190 0.425989
O O13 0.318353 0.168579 0.380418
O O14 0.611684 0.661491 0.554046
#
# Coordination Sequence:
#
# PCOD8126577 Si02
#       7
#     4   4   4   4   4   4   4
#     4  11  25  42  68  92 129 170 216 271 325 386
#     4  10  22  40  61  89 124 159 210 255 312 380
#     4  10  22  39  61  88 124 156 202 250 306 371
#     4  10  21  41  62  87 121 160 204 257 312 369
#     4  10  24  43  63  92 129 171 212 266 325 383
#     4  11  25  43  64  97 128 168 220 267 324 389
#     4  10  22  38  60  90 122 158 199 252 302 373
#
# _framework density 23.61795
#
# number of rings (size 3 to 8) (size 9 to 14) (size 15 to 20)
#    0.000    1.714    1.429    1.286    6.000    2.857 
#    2.571    0.000    0.000    0.000    0.000    0.000 
#    0.000    0.000    0.000    0.000    0.000    0.000 
#
# Total GULP energy -347042.026710 kJ/mol
# GULP energy per Si atom -12394.358097 kJ/mol
# Density = 2.356419 g / cm^3
# Si number density = 23.617950 Si / 1000 Ang^3
#
#
#
# Elastic Constant Matrix: (Units=GPa)
#
#
# Indices 1 2 3 4 5 6 
#
# 1 64.7260 21.9798 21.2043 0.0000 -7.9207 0.0000
# 2 21.9798 59.0003 18.6561 0.0000 2.9519 0.0000
# 3 21.2043 18.6561 91.0590 0.0000 -17.6983 0.0000
# 4 0.0000 0.0000 0.0000 49.8562 0.0000 8.9329
# 5 -7.9207 2.9519 -17.6983 0.0000 30.6357 0.0000
# 6 0.0000 0.0000 0.0000 8.9329 0.0000 19.7296
#
#
#
# Elastic Compliance Matrix: (Units=1/GPa)
#
#
# Indices 1 2 3 4 5 6 
#
# 1 0.018928 -0.006554 -0.002243 0.000000 0.004229 0.000000
# 2 -0.006554 0.020930 -0.003924 0.000000 -0.005978 0.000000
# 3 -0.002243 -0.003924 0.013821 0.000000 0.007783 0.000000
# 4 0.000000 0.000000 0.000000 0.021828 0.000000 -0.009883
# 5 0.004229 -0.005978 0.007783 0.000000 0.038807 0.000000
# 6 0.000000 0.000000 0.000000 -0.009883 0.000000 0.055160
#
#
# Mechanical properties :
#
#
# Convention : Reuss Voigt Hill
#
# Bulk Modulus (GPa) = 35.41352 37.60730 36.51041
# Shear Modulus (GPa) = 24.47050 30.24065 27.35557
#
# Velocity S-wave (km/s) = 3.22234 3.58216 3.40700
# Velocity P-wave (km/s) = 5.37322 5.75039 5.56500
#
# Compressibility (1/GPa) = 0.02823780
#
# Stress axis : x y z
#
# Youngs Moduli (GPa) = 52.83307 47.77734 72.35514
#
# Poissons Ratio (x) = 0.31312 0.16228
# Poissons Ratio (y) = 0.34625 0.28392
# Poissons Ratio (z) = 0.11849 0.18748
#
# Static dielectric constant tensor:
#      x y z
#    x 4.011370 0.000000 -0.207050 
#    y 0.000000 4.101700 0.000000 
#    z -0.207050 0.000000 4.443930 
# 
# 
# High freq. dielectric constant tensor:
#      x y z
#    x 1.923330 0.000000 -0.016290 
#    y 0.000000 1.914010 0.000000 
#    z -0.016290 0.000000 1.953410 
# 
# From -- ./inp_files/19717.got.cif
#   From: 2010.03.12/outbox.cif.g09.slc.cpg/sg14_10_cif.got.tgz:19717.got - 2010.03.31 13:35:05.
