data_PCOD8126189
_publ_section_title
;
Structure prediction by ZEFSAII (Michael W. Deem and Ramdas Pophale) SiO2 
 PCOD8126189
Probable space group: P 21/C
;
_chemical_formula_sum "Si O2"
_cell_formula_units_Z 16
_cell_length_a 10.370669
_cell_length_b 4.941333
_cell_length_c 17.110068
_cell_angle_alpha 90.000000
_cell_angle_beta 125.671112
_cell_angle_gamma 90.000000
_cell_volume 712.296142
_symmetry_space_group_name_H-M "P 21/C"
_symmetry_group_IT_number 14
_symmetry_cell_setting 'monoclinic'
loop_
_space_group_symop_operation_xyz
x,y,z
-x,1/2+y,1/2-z
-x,-y,-z
x,1/2-y,1/2+z
loop_
_atom_site_type_symbol
_atom_site_label
_atom_site_fract_x
_atom_site_fract_y
_atom_site_fract_z
Si Si1 0.601930 0.104775 0.376485
Si Si2 0.395658 0.596152 0.304444
Si Si3 0.055956 0.757108 0.469582
Si Si4 0.937597 0.951875 0.265873
O O1 0.459974 0.302374 0.346670
O O2 0.648146 0.125217 0.301926
O O3 0.755600 0.207001 0.478157
O O4 0.531695 0.812756 0.376543
O O5 0.232743 0.604405 0.295538
O O6 0.000000 0.500000 0.500000
O O7 0.971868 0.778203 0.356170
O O8 0.000000 0.000000 0.500000
O O9 0.944265 0.709996 0.203561
#
# Coordination Sequence:
#
# PCOD8126189 Si02
#       4
#     4   4   4   4
#     4  10  21  38  66  98 125 166 227 285 317 381
#     4  10  21  39  64  94 134 168 218 275 336 385
#     4  12  24  42  70 101 132 172 237 280 321 397
#     4  12  26  44  65  98 142 181 215 275 352 410
#
# _framework density 22.462565999999999
#
# number of rings (size 3 to 8) (size 9 to 14) (size 15 to 20)
#    0.000    1.000    2.500    4.500    7.000    0.000 
#    0.000    7.500    0.000    0.000    0.000    0.000 
#    0.000    0.000    0.000    0.000    0.000    0.000 
#
# Total GULP energy -198268.075799 kJ/mol
# GULP energy per Si atom -12391.754737 kJ/mol
# Density = 2.241144 g / cm^3
# Si number density = 22.462566 Si / 1000 Ang^3
#
#
#
# Elastic Constant Matrix: (Units=GPa)
#
#
# Indices 1 2 3 4 5 6 
#
# 1 118.3617 54.5228 32.8051 0.0000 20.4970 0.0000
# 2 54.5228 146.4272 11.9876 0.0000 1.6120 0.0000
# 3 32.8051 11.9876 65.9021 0.0000 18.0773 0.0000
# 4 0.0000 0.0000 0.0000 16.1875 0.0000 -8.2283
# 5 20.4970 1.6120 18.0773 0.0000 27.5030 0.0000
# 6 0.0000 0.0000 0.0000 -8.2283 0.0000 37.6407
#
#
#
# Elastic Compliance Matrix: (Units=1/GPa)
#
#
# Indices 1 2 3 4 5 6 
#
# 1 0.012622 -0.004327 -0.003642 0.000000 -0.006759 0.000000
# 2 -0.004327 0.008422 -0.000155 0.000000 0.002833 0.000000
# 3 -0.003642 -0.000155 0.019846 0.000000 -0.010321 0.000000
# 4 0.000000 0.000000 0.000000 0.069499 0.000000 0.015193
# 5 -0.006759 0.002833 -0.010321 0.000000 0.048015 0.000000
# 6 0.000000 0.000000 0.000000 0.015193 0.000000 0.029888
#
#
# Mechanical properties :
#
#
# Convention : Reuss Voigt Hill
#
# Bulk Modulus (GPa) = 40.58106 58.81356 49.69731
# Shear Modulus (GPa) = 23.50125 31.69127 27.59626
#
# Velocity S-wave (km/s) = 3.23807 3.76020 3.50886
# Velocity P-wave (km/s) = 5.66440 6.71505 6.21198
#
# Compressibility (1/GPa) = 0.02464203
#
# Stress axis : x y z
#
# Youngs Moduli (GPa) = 79.22742 118.73504 50.38733
#
# Poissons Ratio (x) = 0.51380 0.18350
# Poissons Ratio (y) = 0.34284 0.00782
# Poissons Ratio (z) = 0.28853 0.01842
#
# Static dielectric constant tensor:
#      x y z
#    x 4.044320 0.000000 0.198750 
#    y 0.000000 4.166420 0.000000 
#    z 0.198750 0.000000 3.558320 
# 
# 
# High freq. dielectric constant tensor:
#      x y z
#    x 1.887710 0.000000 0.020230 
#    y 0.000000 1.907420 0.000000 
#    z 0.020230 0.000000 1.856690 
# 
# From -- ./inp_files/38386.got.cif
#   From: 2010.03.12/outbox.cif.g09.slc.cpg/sg14_20_cif.got.tgz:38386.got - 2010.03.31 13:35:05.
