data_PCOD8126601
_publ_section_title
;
Structure prediction by ZEFSAII (Michael W. Deem and Ramdas Pophale) SiO2 
 PCOD8126601
Probable space group: P 21/C
;
_chemical_formula_sum "Si O2"
_cell_formula_units_Z 32
_cell_length_a 5.128090
_cell_length_b 11.857046
_cell_length_c 23.510592
_cell_angle_alpha 90.000000
_cell_angle_beta 69.858982
_cell_angle_gamma 90.000000
_cell_volume 1342.118884
_symmetry_space_group_name_H-M "P 21/C"
_symmetry_group_IT_number 14
_symmetry_cell_setting 'monoclinic'
loop_
_space_group_symop_operation_xyz
x,y,z
-x,1/2+y,1/2-z
-x,-y,-z
x,1/2-y,1/2+z
loop_
_atom_site_type_symbol
_atom_site_label
_atom_site_fract_x
_atom_site_fract_y
_atom_site_fract_z
Si Si1 0.726201 0.146842 0.501278
Si Si2 0.939384 0.757139 0.747434
Si Si3 0.306782 0.041441 0.912252
Si Si4 0.483317 0.374558 0.796321
Si Si5 0.208979 0.134518 0.132527
Si Si6 0.658428 0.923174 0.566992
Si Si7 0.050761 0.340929 0.527944
Si Si8 0.228937 0.041433 0.795866
O O1 0.494192 0.155680 0.469066
O O2 0.018842 0.107375 0.453243
O O3 0.784624 0.267743 0.527128
O O4 0.620179 0.054989 0.554720
O O5 0.801744 0.819478 0.703782
O O6 0.741322 0.780716 0.817914
O O7 0.941349 0.624679 0.732197
O O8 0.257396 0.790811 0.733319
O O9 0.316886 0.100606 0.849107
O O10 0.566184 0.960071 0.898486
O O11 0.283974 0.142387 0.960707
O O12 0.034782 0.965112 0.943159
O O13 0.480988 0.402403 0.862596
O O14 0.512848 0.492014 0.759235
O O15 0.176599 0.211367 0.077268
O O16 0.936674 0.069132 0.173192
#
# Coordination Sequence:
#
# PCOD8126601 Si02
#       8
#     4   4   4   4   4   4   4   4
#     4  10  23  44  64  97 129 175 219 274 329 391
#     4  11  25  42  68  98 128 177 220 267 338 395
#     4  10  21  41  63  93 134 167 224 275 337 396
#     4  11  24  44  65  98 130 170 221 272 330 399
#     4  10  22  44  61  96 138 170 227 281 324 414
#     4  10  23  43  65  93 136 167 223 276 325 397
#     4  10  23  38  65  96 128 178 220 276 339 395
#     4  10  24  42  63  96 132 171 218 279 327 397
#
# _framework density 23.842893
#
# number of rings (size 3 to 8) (size 9 to 14) (size 15 to 20)
#    0.000    1.750    1.250    1.125    7.000    1.000 
#    9.000    0.000    0.000    0.000    0.000    0.000 
#    0.000    0.000    0.000    0.000    0.000    0.000 
#
# Total GULP energy -396582.121020 kJ/mol
# GULP energy per Si atom -12393.191282 kJ/mol
# Density = 2.378863 g / cm^3
# Si number density = 23.842893 Si / 1000 Ang^3
#
#
#
# Elastic Constant Matrix: (Units=GPa)
#
#
# Indices 1 2 3 4 5 6 
#
# 1 57.0610 -5.5434 10.5102 0.0000 12.7915 0.0000
# 2 -5.5434 66.0053 41.9571 0.0000 16.5155 0.0000
# 3 10.5102 41.9571 123.3502 0.0000 38.5425 0.0000
# 4 0.0000 0.0000 0.0000 21.4004 0.0000 7.4802
# 5 12.7915 16.5155 38.5425 0.0000 32.1225 0.0000
# 6 0.0000 0.0000 0.0000 7.4802 0.0000 30.8819
#
#
#
# Elastic Compliance Matrix: (Units=1/GPa)
#
#
# Indices 1 2 3 4 5 6 
#
# 1 0.020238 0.004245 0.000051 0.000000 -0.010302 0.000000
# 2 0.004245 0.020438 -0.005603 0.000000 -0.005476 0.000000
# 3 0.000051 -0.005603 0.014581 0.000000 -0.014635 0.000000
# 4 0.000000 0.000000 0.000000 0.051050 0.000000 -0.012365
# 5 -0.010302 -0.005476 -0.014635 0.000000 0.055609 0.000000
# 6 0.000000 0.000000 0.000000 -0.012365 0.000000 0.035377
#
#
# Mechanical properties :
#
#
# Convention : Reuss Voigt Hill
#
# Bulk Modulus (GPa) = 18.99543 37.80713 28.40128
# Shear Modulus (GPa) = 22.99325 30.18047 26.58686
#
# Velocity S-wave (km/s) = 3.10879 3.56168 3.34291
# Velocity P-wave (km/s) = 4.56840 5.72759 5.18052
#
# Compressibility (1/GPa) = 0.05264425
#
# Stress axis : x y z
#
# Youngs Moduli (GPa) = 49.41277 48.92736 68.58054
#
# Poissons Ratio (x) = -0.20771 -0.00348
# Poissons Ratio (y) = -0.20977 0.38423
# Poissons Ratio (z) = -0.00251 0.27412
#
# Static dielectric constant tensor:
#      x y z
#    x 4.066190 0.000000 0.218070 
#    y 0.000000 4.165210 0.000000 
#    z 0.218070 0.000000 5.016410 
# 
# 
# High freq. dielectric constant tensor:
#      x y z
#    x 1.934850 0.000000 0.008260 
#    y 0.000000 1.930940 0.000000 
#    z 0.008260 0.000000 1.961750 
# 
# From -- ./inp_files/71298.got.cif
#   From: 2010.03.12/outbox.cif.g09.slc.cpg/sg14_36_cif.got.tgz:71298.got - 2010.03.31 13:35:05.
