data_PCOD8126443
_publ_section_title
;
Structure prediction by ZEFSAII (Michael W. Deem and Ramdas Pophale) SiO2 
 PCOD8126443
Probable space group: P 21/C
;
_chemical_formula_sum "Si O2"
_cell_formula_units_Z 32
_cell_length_a 12.045754
_cell_length_b 14.426028
_cell_length_c 12.510367
_cell_angle_alpha 90.000000
_cell_angle_beta 143.305732
_cell_angle_gamma 90.000000
_cell_volume 1299.036573
_symmetry_space_group_name_H-M "P 21/C"
_symmetry_group_IT_number 14
_symmetry_cell_setting 'monoclinic'
loop_
_space_group_symop_operation_xyz
x,y,z
-x,1/2+y,1/2-z
-x,-y,-z
x,1/2-y,1/2+z
loop_
_atom_site_type_symbol
_atom_site_label
_atom_site_fract_x
_atom_site_fract_y
_atom_site_fract_z
Si Si1 0.427702 0.405114 0.373391
Si Si2 0.627566 0.950952 0.512885
Si Si3 0.174933 0.969510 0.861102
Si Si4 0.205828 0.327894 0.395936
Si Si5 0.893054 0.221916 0.512523
Si Si6 0.990392 0.590392 0.417712
Si Si7 0.836150 0.483656 0.976883
Si Si8 0.493397 0.289521 0.224423
O O1 0.621985 0.463962 0.540919
O O2 0.357008 0.347409 0.419364
O O3 0.264396 0.468177 0.199464
O O4 0.488779 0.326810 0.339278
O O5 0.507207 0.870376 0.364921
O O6 0.794833 0.905874 0.707748
O O7 0.500000 0.000000 0.500000
O O8 0.700105 0.021696 0.476156
O O9 0.153346 0.906872 0.950905
O O10 0.140697 0.071557 0.886435
O O11 0.013539 0.953106 0.648598
O O12 0.309743 0.273353 0.569497
O O13 0.024173 0.269522 0.219283
O O14 0.967158 0.308334 0.493433
O O15 0.916408 0.114731 0.494501
O O16 0.673903 0.226551 0.357624
O O17 0.000000 0.500000 0.500000
#
# Coordination Sequence:
#
# PCOD8126443 Si02
#       8
#     4   4   4   4   4   4   4   4
#     4  11  23  42  70  97 131 185 220 276 351 403
#     4  10  21  40  63  94 131 172 222 278 333 402
#     4  10  22  43  66  91 137 173 219 281 336 406
#     4  11  25  42  67 102 133 170 231 280 334 411
#     4  11  22  43  64  95 134 172 224 281 337 404
#     4  11  22  40  67  95 132 179 223 271 344 404
#     4   9  23  40  67  93 129 178 223 277 340 407
#     4  11  23  41  64  95 137 172 219 281 331 402
#
# _framework density 24.633638999999999
#
# number of rings (size 3 to 8) (size 9 to 14) (size 15 to 20)
#    0.000    1.500    2.500    1.875    1.750    5.000 
#    0.000    2.500    8.250    0.000    0.000    0.000 
#    0.000    0.000    0.000    0.000    0.000    0.000 
#
# Total GULP energy -396463.130931 kJ/mol
# GULP energy per Si atom -12389.472842 kJ/mol
# Density = 2.457757 g / cm^3
# Si number density = 24.633639 Si / 1000 Ang^3
#
#
#
# Elastic Constant Matrix: (Units=GPa)
#
#
# Indices 1 2 3 4 5 6 
#
# 1 90.8478 1.3570 10.4393 0.0000 13.5745 0.0000
# 2 1.3570 65.5435 21.7564 0.0000 -3.0998 0.0000
# 3 10.4393 21.7564 130.1389 0.0000 20.6465 0.0000
# 4 0.0000 0.0000 0.0000 39.8743 0.0000 10.2403
# 5 13.5745 -3.0998 20.6465 0.0000 28.3587 0.0000
# 6 0.0000 0.0000 0.0000 10.2403 0.0000 24.6985
#
#
#
# Elastic Compliance Matrix: (Units=1/GPa)
#
#
# Indices 1 2 3 4 5 6 
#
# 1 0.011873 -0.000537 0.000055 0.000000 -0.005782 0.000000
# 2 -0.000537 0.016637 -0.003468 0.000000 0.004601 0.000000
# 3 0.000055 -0.003468 0.009411 0.000000 -0.007257 0.000000
# 4 0.000000 0.000000 0.000000 0.028067 0.000000 -0.011637
# 5 -0.005782 0.004601 -0.007257 0.000000 0.043816 0.000000
# 6 0.000000 0.000000 0.000000 -0.011637 0.000000 0.045313
#
#
# Mechanical properties :
#
#
# Convention : Reuss Voigt Hill
#
# Bulk Modulus (GPa) = 33.31207 39.29285 36.30246
# Shear Modulus (GPa) = 28.89741 35.45147 32.17444
#
# Velocity S-wave (km/s) = 3.42875 3.79773 3.61795
# Velocity P-wave (km/s) = 5.40624 5.93429 5.67641
#
# Compressibility (1/GPa) = 0.03001915
#
# Stress axis : x y z
#
# Youngs Moduli (GPa) = 84.22412 60.10708 106.26103
#
# Poissons Ratio (x) = 0.03230 -0.00582
# Poissons Ratio (y) = 0.04527 0.36853
# Poissons Ratio (z) = -0.00461 0.20846
#
# Static dielectric constant tensor:
#      x y z
#    x 4.331760 0.000000 0.204360 
#    y 0.000000 4.646060 0.000000 
#    z 0.204360 0.000000 4.706420 
# 
# 
# High freq. dielectric constant tensor:
#      x y z
#    x 1.958660 0.000000 0.017710 
#    y 0.000000 1.989210 0.000000 
#    z 0.017710 0.000000 2.000500 
# 
# From -- ./inp_files/47433.got.cif
#   From: 2010.03.12/outbox.cif.g09.slc.cpg/sg14_24_cif.got.tgz:47433.got - 2010.03.31 13:35:05.
