data_PCOD8126101
_publ_section_title
;
Structure prediction by ZEFSAII (Michael W. Deem and Ramdas Pophale) SiO2 
 PCOD8126101
Probable space group: P 21/C
;
_chemical_formula_sum "Si O2"
_cell_formula_units_Z 32
_cell_length_a 21.172257
_cell_length_b 11.033934
_cell_length_c 12.031919
_cell_angle_alpha 90.000000
_cell_angle_beta 31.520888
_cell_angle_gamma 90.000000
_cell_volume 1469.521021
_symmetry_space_group_name_H-M "P 21/C"
_symmetry_group_IT_number 14
_symmetry_cell_setting 'monoclinic'
loop_
_space_group_symop_operation_xyz
x,y,z
-x,1/2+y,1/2-z
-x,-y,-z
x,1/2-y,1/2+z
loop_
_atom_site_type_symbol
_atom_site_label
_atom_site_fract_x
_atom_site_fract_y
_atom_site_fract_z
Si Si1 0.414075 0.604259 0.805908
Si Si2 0.858607 0.351812 0.419788
Si Si3 0.250464 0.395773 0.403658
Si Si4 0.328421 0.149495 0.026996
Si Si5 0.414089 0.395733 0.951859
Si Si6 0.328407 0.649501 0.487774
Si Si7 0.250460 0.895779 0.344972
Si Si8 0.858606 0.648192 0.004374
O O1 0.558994 0.585308 0.577414
O O2 0.353508 0.499994 0.969750
O O3 0.376867 0.716843 0.938872
O O4 0.364101 0.616633 0.756350
O O5 0.824643 0.484365 0.523048
O O6 0.793325 0.342051 0.399992
O O7 0.823222 0.231979 0.545083
O O8 0.000002 0.348223 0.186881
O O9 0.297284 0.419970 0.459035
O O10 0.176768 0.268023 0.514785
O O11 0.364111 0.383354 0.151347
O O12 0.206693 0.157953 0.279962
O O13 0.376887 0.283150 0.930508
O O14 0.559009 0.414682 0.745585
O O15 0.297283 0.580026 0.649128
O O16 0.175345 0.015636 0.497014
#
# Coordination Sequence:
#
# PCOD8126101 Si02
#       8
#     4   4   4   4   4   4   4   4
#     4  10  21  38  60  90 124 156 198 252 310 368
#     4  11  24  41  62  89 121 162 209 251 296 358
#     4  11  23  41  64  90 123 162 201 251 311 359
#     4  10  23  38  60  91 121 159 204 251 302 365
#     4  10  21  38  60  90 124 156 198 252 310 368
#     4  10  23  38  60  91 121 159 204 251 302 365
#     4  11  23  41  64  90 123 162 201 251 311 359
#     4  11  24  41  62  89 121 162 209 251 296 358
#
# _framework density 21.775803
#
# number of rings (size 3 to 8) (size 9 to 14) (size 15 to 20)
#    0.000    1.500    0.000    4.500    0.000   15.000 
#    0.000    0.000    0.000    8.250    0.000    0.000 
#    0.000    0.000    0.000    0.000    0.000    0.000 
#
# Total GULP energy -396475.716336 kJ/mol
# GULP energy per Si atom -12389.866136 kJ/mol
# Density = 2.172624 g / cm^3
# Si number density = 21.775803 Si / 1000 Ang^3
#
#
#
# Elastic Constant Matrix: (Units=GPa)
#
#
# Indices 1 2 3 4 5 6 
#
# 1 80.9989 11.9570 62.1388 0.0000 -11.8096 0.0000
# 2 11.9570 149.4862 34.4453 0.0000 -20.2908 0.0000
# 3 62.1388 34.4453 126.1733 0.0000 -28.9564 0.0000
# 4 0.0000 0.0000 0.0000 30.7529 0.0000 -0.0484
# 5 -11.8096 -20.2908 -28.9564 0.0000 31.4400 0.0000
# 6 0.0000 0.0000 0.0000 -0.0484 0.0000 30.7021
#
#
#
# Elastic Compliance Matrix: (Units=1/GPa)
#
#
# Indices 1 2 3 4 5 6 
#
# 1 0.019981 0.000564 -0.010383 0.000000 -0.001693 0.000000
# 2 0.000564 0.007484 -0.001476 0.000000 0.003683 0.000000
# 3 -0.010383 -0.001476 0.015633 0.000000 0.009545 0.000000
# 4 0.000000 0.000000 0.000000 0.032517 0.000000 0.000051
# 5 -0.001693 0.003683 0.009545 0.000000 0.042338 0.000000
# 6 0.000000 0.000000 0.000000 0.000051 0.000000 0.032571
#
#
# Mechanical properties :
#
#
# Convention : Reuss Voigt Hill
#
# Bulk Modulus (GPa) = 48.75947 63.74895 56.25421
# Shear Modulus (GPa) = 27.78533 35.12016 31.45275
#
# Velocity S-wave (km/s) = 3.57595 4.02033 3.80464
# Velocity P-wave (km/s) = 6.28411 7.13368 6.72233
#
# Compressibility (1/GPa) = 0.02050884
#
# Stress axis : x y z
#
# Youngs Moduli (GPa) = 50.04715 133.61040 63.96837
#
# Poissons Ratio (x) = -0.07542 0.66420
# Poissons Ratio (y) = -0.02825 0.09442
# Poissons Ratio (z) = 0.51965 0.19721
#
# Static dielectric constant tensor:
#      x y z
#    x 3.595520 0.000000 -0.099690 
#    y 0.000000 4.735930 0.000000 
#    z -0.099690 0.000000 3.705990 
# 
# 
# High freq. dielectric constant tensor:
#      x y z
#    x 1.830960 0.000000 -0.008780 
#    y 0.000000 1.904560 0.000000 
#    z -0.008780 0.000000 1.840680 
# 
# From -- ./inp_files/35257.got.cif
#   From: 2010.03.12/outbox.cif.g09.slc.cpg/sg14_18_cif.got.tgz:35257.got - 2010.03.31 13:35:05.
