data_PCOD8126975
_publ_section_title
;
Structure prediction by ZEFSAII (Michael W. Deem and Ramdas Pophale) SiO2 
 PCOD8126975
Probable space group: P 21/C
;
_chemical_formula_sum "Si O2"
_cell_formula_units_Z 24
_cell_length_a 10.116635
_cell_length_b 11.173931
_cell_length_c 12.118332
_cell_angle_alpha 90.000000
_cell_angle_beta 115.283830
_cell_angle_gamma 90.000000
_cell_volume 1238.656584
_symmetry_space_group_name_H-M "P 21/C"
_symmetry_group_IT_number 14
_symmetry_cell_setting 'monoclinic'
loop_
_space_group_symop_operation_xyz
x,y,z
-x,1/2+y,1/2-z
-x,-y,-z
x,1/2-y,1/2+z
loop_
_atom_site_type_symbol
_atom_site_label
_atom_site_fract_x
_atom_site_fract_y
_atom_site_fract_z
Si Si1 0.045819 0.672152 0.087012
Si Si2 0.486059 0.813649 0.960675
Si Si3 0.192883 0.330842 0.407983
Si Si4 0.357025 0.519731 0.583378
Si Si5 0.730455 0.144950 0.733919
Si Si6 0.023485 0.575832 0.839676
O O1 0.182895 0.749883 0.174006
O O2 0.894991 0.744495 0.041628
O O3 0.035693 0.557139 0.162130
O O4 0.070481 0.638004 0.969502
O O5 0.408064 0.701427 0.877251
O O6 0.507000 0.925810 0.882140
O O7 0.647736 0.772789 0.059906
O O8 0.391475 0.857379 0.031246
O O9 0.212452 0.458587 0.477986
O O10 0.105912 0.348354 0.263047
O O11 0.330306 0.548138 0.701409
O O12 0.834097 0.073204 0.687087
#
# Coordination Sequence:
#
# PCOD8126975 Si02
#       6
#     4   4   4   4   4   4
#     4  10  22  37  58  88 117 153 192 244 292 337
#     4   9  20  40  58  88 111 155 191 237 294 340
#     4   9  20  39  60  84 113 155 197 232 291 348
#     4   9  20  37  59  85 114 153 193 232 293 342
#     4  11  21  38  61  87 116 154 194 241 293 348
#     4  10  22  38  57  85 121 151 194 242 288 345
#
# _framework density 19.375831000000002
#
# number of rings (size 3 to 8) (size 9 to 14) (size 15 to 20)
#    1.000    1.333    0.000    2.000    0.000    8.000 
#    6.000    0.833    0.000    0.000    0.000    0.000 
#    0.000    0.000    0.000    0.000    0.000    0.000 
#
# Total GULP energy -297538.640712 kJ/mol
# GULP energy per Si atom -12397.443363 kJ/mol
# Density = 1.933173 g / cm^3
# Si number density = 19.375831 Si / 1000 Ang^3
#
#
#
# Elastic Constant Matrix: (Units=GPa)
#
#
# Indices 1 2 3 4 5 6 
#
# 1 82.5425 14.4866 38.2574 0.0000 -9.2974 0.0000
# 2 14.4866 26.2134 13.0421 0.0000 -7.7652 0.0000
# 3 38.2574 13.0421 75.7774 0.0000 -9.3162 0.0000
# 4 0.0000 0.0000 0.0000 26.7897 0.0000 4.8867
# 5 -9.2974 -7.7652 -9.3162 0.0000 39.5309 0.0000
# 6 0.0000 0.0000 0.0000 4.8867 0.0000 28.7625
#
#
#
# Elastic Compliance Matrix: (Units=1/GPa)
#
#
# Indices 1 2 3 4 5 6 
#
# 1 0.016544 -0.005158 -0.007323 0.000000 0.001152 0.000000
# 2 -0.005158 0.045125 -0.004348 0.000000 0.006626 0.000000
# 3 -0.007323 -0.004348 0.017842 0.000000 0.001628 0.000000
# 4 0.000000 0.000000 0.000000 0.038522 0.000000 -0.006545
# 5 0.001152 0.006626 0.001628 0.000000 0.027253 0.000000
# 6 0.000000 0.000000 0.000000 -0.006545 0.000000 0.035879
#
#
# Mechanical properties :
#
#
# Convention : Reuss Voigt Hill
#
# Bulk Modulus (GPa) = 21.80857 35.12282 28.46569
# Shear Modulus (GPa) = 21.72890 26.93312 24.33101
#
# Velocity S-wave (km/s) = 3.35243 3.73236 3.54749
# Velocity P-wave (km/s) = 5.12494 6.06140 5.61273
#
# Compressibility (1/GPa) = 0.04585354
#
# Stress axis : x y z
#
# Youngs Moduli (GPa) = 60.44405 22.16057 56.04669
#
# Poissons Ratio (x) = 0.11431 0.41044
# Poissons Ratio (y) = 0.31178 0.24367
# Poissons Ratio (z) = 0.44264 0.09635
#
# Static dielectric constant tensor:
#      x y z
#    x 3.509380 0.000000 -0.030770 
#    y 0.000000 3.393850 0.000000 
#    z -0.030770 0.000000 3.307280 
# 
# 
# High freq. dielectric constant tensor:
#      x y z
#    x 1.759260 0.000000 -0.002960 
#    y 0.000000 1.743760 0.000000 
#    z -0.002960 0.000000 1.742420 
# 
# From -- ./inp_files/28721.got.cif
#   From: 2010.03.12/outbox.cif.g09.slc.cpg/sg14_15_cif.got.tgz:28721.got - 2010.03.31 13:35:05.
