data_PCOD8126479
_publ_section_title
;
Structure prediction by ZEFSAII (Michael W. Deem and Ramdas Pophale) SiO2 
 PCOD8126479
Probable space group: P 21/C
;
_chemical_formula_sum "Si O2"
_cell_formula_units_Z 24
_cell_length_a 10.642590
_cell_length_b 9.912580
_cell_length_c 10.348632
_cell_angle_alpha 90.000000
_cell_angle_beta 80.152733
_cell_angle_gamma 90.000000
_cell_volume 1075.650001
_symmetry_space_group_name_H-M "P 21/C"
_symmetry_group_IT_number 14
_symmetry_cell_setting 'monoclinic'
loop_
_space_group_symop_operation_xyz
x,y,z
-x,1/2+y,1/2-z
-x,-y,-z
x,1/2-y,1/2+z
loop_
_atom_site_type_symbol
_atom_site_label
_atom_site_fract_x
_atom_site_fract_y
_atom_site_fract_z
Si Si1 0.380882 0.589940 0.272436
Si Si2 0.231697 0.213507 0.537547
Si Si3 0.824392 0.134797 0.006066
Si Si4 0.038634 0.427318 0.659188
Si Si5 0.161935 0.583244 0.104089
Si Si6 0.612305 0.786076 0.236928
O O1 0.322295 0.610684 0.426346
O O2 0.269857 0.621605 0.189371
O O3 0.495237 0.690813 0.223447
O O4 0.436274 0.439618 0.253260
O O5 0.104353 0.288197 0.605828
O O6 0.278099 0.267452 0.390575
O O7 0.335707 0.245502 0.629553
O O8 0.200568 0.055390 0.527893
O O9 0.845922 0.294757 0.996005
O O10 0.862182 0.054282 0.867754
O O11 0.913045 0.056869 0.093413
O O12 0.981834 0.426186 0.813643
#
# Coordination Sequence:
#
# PCOD8126479 Si02
#       6
#     4   4   4   4   4   4
#     4  10  24  43  62  93 128 171 213 267 324 373
#     4  11  25  44  65  96 132 169 212 266 326 376
#     4  10  21  40  65  89 128 166 215 262 321 379
#     4  10  21  41  64  91 130 169 209 264 324 378
#     4  10  23  39  66  94 127 166 215 269 317 384
#     4  11  26  44  67  92 132 172 212 269 316 387
#
# _framework density 22.312092
#
# number of rings (size 3 to 8) (size 9 to 14) (size 15 to 20)
#    0.000    1.667    1.667    1.000    9.333    4.000 
#    3.000    0.000    0.000    0.000    0.000    0.000 
#    0.000    0.000    0.000    0.000    0.000    0.000 
#
# Total GULP energy -297561.150029 kJ/mol
# GULP energy per Si atom -12398.381251 kJ/mol
# Density = 2.226131 g / cm^3
# Si number density = 22.312092 Si / 1000 Ang^3
#
#
#
# Elastic Constant Matrix: (Units=GPa)
#
#
# Indices 1 2 3 4 5 6 
#
# 1 54.9120 29.6612 10.7684 0.0000 -20.5292 0.0000
# 2 29.6612 110.3231 13.9635 0.0000 -6.0861 0.0000
# 3 10.7684 13.9635 56.8530 0.0000 -12.0685 0.0000
# 4 0.0000 0.0000 0.0000 31.4860 0.0000 -5.6943
# 5 -20.5292 -6.0861 -12.0685 0.0000 25.5827 0.0000
# 6 0.0000 0.0000 0.0000 -5.6943 0.0000 42.2185
#
#
#
# Elastic Compliance Matrix: (Units=1/GPa)
#
#
# Indices 1 2 3 4 5 6 
#
# 1 0.030527 -0.007037 0.000879 0.000000 0.023237 0.000000
# 2 -0.007037 0.011014 -0.002239 0.000000 -0.004083 0.000000
# 3 0.000879 -0.002239 0.020013 0.000000 0.009614 0.000000
# 4 0.000000 0.000000 0.000000 0.032554 0.000000 0.004391
# 5 0.023237 -0.004083 0.009614 0.000000 0.061300 0.000000
# 6 0.000000 0.000000 0.000000 0.004391 0.000000 0.024279
#
#
# Mechanical properties :
#
#
# Convention : Reuss Voigt Hill
#
# Bulk Modulus (GPa) = 22.34083 36.76383 29.55233
# Shear Modulus (GPa) = 23.65165 31.03711 27.34438
#
# Velocity S-wave (km/s) = 3.25935 3.73372 3.50457
# Velocity P-wave (km/s) = 4.91926 5.92456 5.44516
#
# Compressibility (1/GPa) = 0.04476109
#
# Stress axis : x y z
#
# Youngs Moduli (GPa) = 32.75783 90.79076 49.96645
#
# Poissons Ratio (x) = 0.63887 -0.04392
# Poissons Ratio (y) = 0.23051 0.11188
# Poissons Ratio (z) = -0.02879 0.20328
#
# Static dielectric constant tensor:
#      x y z
#    x 3.810930 0.000000 -0.231120 
#    y 0.000000 3.996560 0.000000 
#    z -0.231120 0.000000 4.119140 
# 
# 
# High freq. dielectric constant tensor:
#      x y z
#    x 1.863540 0.000000 -0.020650 
#    y 0.000000 1.890580 0.000000 
#    z -0.020650 0.000000 1.873820 
# 
# From -- ./inp_files/28009.got.cif
#   From: 2010.03.12/outbox.cif.g09.slc.cpg/sg14_15_cif.got.tgz:28009.got - 2010.03.31 13:35:05.
