data_PCOD8126238
_publ_section_title
;
Structure prediction by ZEFSAII (Michael W. Deem and Ramdas Pophale) SiO2 
 PCOD8126238
Probable space group: P 21/C
;
_chemical_formula_sum "Si O2"
_cell_formula_units_Z 20
_cell_length_a 27.000900
_cell_length_b 7.463332
_cell_length_c 5.025388
_cell_angle_alpha 90.000000
_cell_angle_beta 69.057971
_cell_angle_gamma 90.000000
_cell_volume 945.803153
_symmetry_space_group_name_H-M "P 21/C"
_symmetry_group_IT_number 14
_symmetry_cell_setting 'monoclinic'
loop_
_space_group_symop_operation_xyz
x,y,z
-x,1/2+y,1/2-z
-x,-y,-z
x,1/2-y,1/2+z
loop_
_atom_site_type_symbol
_atom_site_label
_atom_site_fract_x
_atom_site_fract_y
_atom_site_fract_z
Si Si1 0.261865 0.868257 0.489229
Si Si2 0.048024 0.367326 0.359786
Si Si3 0.140602 0.866621 0.677088
Si Si4 0.645669 0.630153 0.264326
Si Si5 0.549017 0.370175 0.447751
O O1 0.274942 0.786097 0.751256
O O2 0.201110 0.931964 0.586602
O O3 0.296289 0.045307 0.378677
O O4 0.044190 0.200353 0.565628
O O5 0.103822 0.464093 0.303344
O O6 0.000000 0.500000 0.500000
O O7 0.128417 0.791799 0.407985
O O8 0.638144 0.708031 0.572902
O O9 0.603052 0.476159 0.294462
O O10 0.500000 0.500000 0.500000
O O11 0.546536 0.295778 0.751010
#
# Coordination Sequence:
#
# PCOD8126238 Si02
#       5
#     4   4   4   4   4
#     4  10  21  39  61  85 116 156 193 234 288 343
#     4  12  24  39  60  85 116 151 192 237 288 343
#     4  10  21  39  61  85 116 151 192 237 288 343
#     4  12  24  39  60  89 121 154 195 240 285 339
#     4  12  24  42  64  88 119 154 195 240 291 346
#
# _framework density 21.146049999999999
#
# number of rings (size 3 to 8) (size 9 to 14) (size 15 to 20)
#    0.000    0.800    0.000    8.400    0.000    1.600 
#    0.000    0.000    0.000    0.000    0.000    0.000 
#    0.000    0.000    0.000    0.000    0.000    0.000 
#
# Total GULP energy -248206.559112 kJ/mol
# GULP energy per Si atom -12410.327956 kJ/mol
# Density = 2.109792 g / cm^3
# Si number density = 21.146050 Si / 1000 Ang^3
#
#
#
# Elastic Constant Matrix: (Units=GPa)
#
#
# Indices 1 2 3 4 5 6 
#
# 1 98.0272 47.0890 33.0296 0.0000 -15.0068 0.0000
# 2 47.0890 84.7235 23.2712 0.0000 -20.2889 0.0000
# 3 33.0296 23.2712 89.1437 0.0000 -7.8063 0.0000
# 4 0.0000 0.0000 0.0000 59.4937 0.0000 -9.1492
# 5 -15.0068 -20.2889 -7.8063 0.0000 33.0648 0.0000
# 6 0.0000 0.0000 0.0000 -9.1492 0.0000 40.0139
#
#
#
# Elastic Compliance Matrix: (Units=1/GPa)
#
#
# Indices 1 2 3 4 5 6 
#
# 1 0.015012 -0.006948 -0.003600 0.000000 0.001700 0.000000
# 2 -0.006948 0.017844 -0.001431 0.000000 0.007458 0.000000
# 3 -0.003600 -0.001431 0.012973 0.000000 0.000551 0.000000
# 4 0.000000 0.000000 0.000000 0.017421 0.000000 0.003983
# 5 0.001700 0.007458 0.000551 0.000000 0.035722 0.000000
# 6 0.000000 0.000000 0.000000 0.003983 0.000000 0.025902
#
#
# Mechanical properties :
#
#
# Convention : Reuss Voigt Hill
#
# Bulk Modulus (GPa) = 45.71912 53.18600 49.45256
# Shear Modulus (GPa) = 32.02653 37.74812 34.88733
#
# Velocity S-wave (km/s) = 3.89593 4.22965 4.06621
# Velocity P-wave (km/s) = 6.47343 7.00425 6.74406
#
# Compressibility (1/GPa) = 0.02187269
#
# Stress axis : x y z
#
# Youngs Moduli (GPa) = 66.61414 56.04273 77.08111
#
# Poissons Ratio (x) = 0.38936 0.27746
# Poissons Ratio (y) = 0.46281 0.11028
# Poissons Ratio (z) = 0.23978 0.08018
#
# Static dielectric constant tensor:
#      x y z
#    x 4.053520 0.000000 0.062590 
#    y 0.000000 3.628620 0.000000 
#    z 0.062590 0.000000 4.159090 
# 
# 
# High freq. dielectric constant tensor:
#      x y z
#    x 1.843050 0.000000 -0.000670 
#    y 0.000000 1.824690 0.000000 
#    z -0.000670 0.000000 1.849790 
# 
# From -- ./inp_files/4505.got.cif
#   From: 2010.03.12/outbox.cif.g09.slc.cpg/sg14_3_cif.got.tgz:4505.got - 2010.03.31 13:35:05.
