data_PCOD8126589
_publ_section_title
;
Structure prediction by ZEFSAII (Michael W. Deem and Ramdas Pophale) SiO2 
 PCOD8126589
Probable space group: P 21/C
;
_chemical_formula_sum "Si O2"
_cell_formula_units_Z 20
_cell_length_a 16.848063
_cell_length_b 11.632152
_cell_length_c 8.507298
_cell_angle_alpha 90.000000
_cell_angle_beta 150.868727
_cell_angle_gamma 90.000000
_cell_volume 811.639492
_symmetry_space_group_name_H-M "P 21/C"
_symmetry_group_IT_number 14
_symmetry_cell_setting 'monoclinic'
loop_
_space_group_symop_operation_xyz
x,y,z
-x,1/2+y,1/2-z
-x,-y,-z
x,1/2-y,1/2+z
loop_
_atom_site_type_symbol
_atom_site_label
_atom_site_fract_x
_atom_site_fract_y
_atom_site_fract_z
Si Si1 0.862489 0.407783 0.710392
Si Si2 0.434975 0.254362 0.700948
Si Si3 0.103532 0.678037 0.902108
Si Si4 0.596471 0.108948 0.225347
Si Si5 0.744820 0.616270 0.362440
O O1 0.917366 0.312226 0.678824
O O2 0.720373 0.484253 0.380184
O O3 0.806271 0.340143 0.771186
O O4 0.000000 0.500000 0.000000
O O5 0.524973 0.359567 0.770586
O O6 0.381292 0.149663 0.493951
O O7 0.276981 0.300897 0.523257
O O8 0.565223 0.214583 0.053310
O O9 0.923780 0.626987 0.599393
O O10 0.206080 0.603183 0.948073
O O11 0.500000 0.000000 0.000000
#
# Coordination Sequence:
#
# PCOD8126589 Si02
#       5
#     4   4   4   4   4
#     4  10  22  39  62  94 126 159 207 267 314 365
#     4  10  23  40  61  90 126 163 208 260 318 379
#     4  11  22  40  65  91 121 163 214 254 307 382
#     4  11  24  42  62  91 128 166 207 260 319 377
#     4  10  21  41  63  88 123 163 206 261 315 369
#
# _framework density 24.641483000000001
#
# number of rings (size 3 to 8) (size 9 to 14) (size 15 to 20)
#    0.000    1.600    0.000    4.800    0.000    8.000 
#    0.000   11.000    0.000    0.000    0.000    0.000 
#    0.000    0.000    0.000    0.000    0.000    0.000 
#
# Total GULP energy -247813.681687 kJ/mol
# GULP energy per Si atom -12390.684084 kJ/mol
# Density = 2.458540 g / cm^3
# Si number density = 24.641483 Si / 1000 Ang^3
#
#
#
# Elastic Constant Matrix: (Units=GPa)
#
#
# Indices 1 2 3 4 5 6 
#
# 1 129.2622 31.8452 39.4544 0.0000 23.1858 0.0000
# 2 31.8452 97.3469 -3.6551 0.0000 -4.5088 0.0000
# 3 39.4544 -3.6551 32.9916 0.0000 0.3410 0.0000
# 4 0.0000 0.0000 0.0000 34.6964 0.0000 -14.8965
# 5 23.1858 -4.5088 0.3410 0.0000 40.0124 0.0000
# 6 0.0000 0.0000 0.0000 -14.8965 0.0000 45.9922
#
#
#
# Elastic Compliance Matrix: (Units=1/GPa)
#
#
# Indices 1 2 3 4 5 6 
#
# 1 0.018680 -0.007508 -0.023053 0.000000 -0.011474 0.000000
# 2 -0.007508 0.013386 0.010402 0.000000 0.005770 0.000000
# 3 -0.023053 0.010402 0.058887 0.000000 0.014029 0.000000
# 4 0.000000 0.000000 0.000000 0.033477 0.000000 0.010843
# 5 -0.011474 0.005770 0.014029 0.000000 0.032172 0.000000
# 6 0.000000 0.000000 0.000000 0.010843 0.000000 0.025255
#
#
# Mechanical properties :
#
#
# Convention : Reuss Voigt Hill
#
# Bulk Modulus (GPa) = 19.74864 43.87664 31.81264
# Shear Modulus (GPa) = 20.91581 36.93729 28.92655
#
# Velocity S-wave (km/s) = 2.91659 3.87588 3.42993
# Velocity P-wave (km/s) = 4.40156 6.15423 5.35015
#
# Compressibility (1/GPa) = 0.05063640
#
# Stress axis : x y z
#
# Youngs Moduli (GPa) = 53.53192 74.70224 16.98165
#
# Poissons Ratio (x) = 0.56086 0.39148
# Poissons Ratio (y) = 0.40192 -0.17665
# Poissons Ratio (z) = 1.23407 -0.77707
#
# Static dielectric constant tensor:
#      x y z
#    x 4.889530 0.000000 -0.231930 
#    y 0.000000 4.735500 0.000000 
#    z -0.231930 0.000000 4.354570 
# 
# 
# High freq. dielectric constant tensor:
#      x y z
#    x 1.997490 0.000000 -0.002670 
#    y 0.000000 1.978590 0.000000 
#    z -0.002670 0.000000 1.966830 
# 
# From -- ./inp_files/7835.got.cif
#   From: 2010.03.12/outbox.cif.g09.slc.cpg/sg14_4_cif.got.tgz:7835.got - 2010.03.31 13:35:05.
