data_PCOD8126371
_publ_section_title
;
Structure prediction by ZEFSAII (Michael W. Deem and Ramdas Pophale) SiO2 
 PCOD8126371
Probable space group: P 21/C
;
_chemical_formula_sum "Si O2"
_cell_formula_units_Z 24
_cell_length_a 8.710285
_cell_length_b 16.330162
_cell_length_c 8.690888
_cell_angle_alpha 90.000000
_cell_angle_beta 65.540075
_cell_angle_gamma 90.000000
_cell_volume 1125.247935
_symmetry_space_group_name_H-M "P 21/C"
_symmetry_group_IT_number 14
_symmetry_cell_setting 'monoclinic'
loop_
_space_group_symop_operation_xyz
x,y,z
-x,1/2+y,1/2-z
-x,-y,-z
x,1/2-y,1/2+z
loop_
_atom_site_type_symbol
_atom_site_label
_atom_site_fract_x
_atom_site_fract_y
_atom_site_fract_z
Si Si1 0.305537 0.356550 0.717402
Si Si2 0.615173 0.081452 0.263903
Si Si3 0.530083 0.092812 0.641583
Si Si4 0.736102 0.798622 0.096655
Si Si5 0.854793 0.475446 0.177725
Si Si6 0.046997 0.912541 0.041742
O O1 0.490847 0.385553 0.685443
O O2 0.302209 0.302982 0.566411
O O3 0.231719 0.297223 0.880477
O O4 0.198367 0.437578 0.729838
O O5 0.573031 0.117409 0.448832
O O6 0.600962 0.982849 0.286786
O O7 0.794270 0.113238 0.129004
O O8 0.435079 0.170926 0.749634
O O9 0.703926 0.071399 0.654824
O O10 0.900830 0.847215 0.080340
O O11 0.914975 0.417408 0.291454
O O12 0.000000 0.500000 0.000000
O O13 0.000000 0.000000 0.000000
#
# Coordination Sequence:
#
# PCOD8126371 Si02
#       6
#     4   4   4   4   4   4
#     4  11  25  43  64  94 135 176 216 270 336 389
#     4  10  21  41  66  96 126 170 216 265 323 400
#     4  10  21  39  69  93 128 169 215 262 328 397
#     4  12  25  43  67  96 136 173 218 278 334 390
#     4  11  24  41  69  98 131 174 229 270 325 396
#     4  12  22  41  69 100 130 169 228 276 327 390
#
# _framework density 21.328631999999999
#
# number of rings (size 3 to 8) (size 9 to 14) (size 15 to 20)
#    0.000    1.000    3.333    3.000    7.000    2.667 
#    3.000    1.667    0.000    0.000    0.000    0.000 
#    0.000    0.000    0.000    0.000    0.000    0.000 
#
# Total GULP energy -297593.061261 kJ/mol
# GULP energy per Si atom -12399.710886 kJ/mol
# Density = 2.128009 g / cm^3
# Si number density = 21.328632 Si / 1000 Ang^3
#
#
#
# Elastic Constant Matrix: (Units=GPa)
#
#
# Indices 1 2 3 4 5 6 
#
# 1 96.2253 20.0458 42.7600 0.0000 -7.4376 0.0000
# 2 20.0458 56.9609 3.0204 0.0000 -0.1707 0.0000
# 3 42.7600 3.0204 123.9114 0.0000 4.5392 0.0000
# 4 0.0000 0.0000 0.0000 34.5830 0.0000 5.0176
# 5 -7.4376 -0.1707 4.5392 0.0000 45.6512 0.0000
# 6 0.0000 0.0000 0.0000 5.0176 0.0000 16.5709
#
#
#
# Elastic Compliance Matrix: (Units=1/GPa)
#
#
# Indices 1 2 3 4 5 6 
#
# 1 0.013628 -0.004539 -0.004690 0.000000 0.002670 0.000000
# 2 -0.004539 0.019091 0.001130 0.000000 -0.000781 0.000000
# 3 -0.004690 0.001130 0.009725 0.000000 -0.001727 0.000000
# 4 0.000000 0.000000 0.000000 0.030245 0.000000 -0.009158
# 5 0.002670 -0.000781 -0.001727 0.000000 0.022509 0.000000
# 6 0.000000 0.000000 0.000000 -0.009158 0.000000 0.063120
#
#
# Mechanical properties :
#
#
# Convention : Reuss Voigt Hill
#
# Bulk Modulus (GPa) = 38.10331 45.41668 41.75999
# Shear Modulus (GPa) = 27.28280 33.44576 30.36428
#
# Velocity S-wave (km/s) = 3.58042 3.96424 3.77721
# Velocity P-wave (km/s) = 5.91576 6.50335 6.21650
#
# Compressibility (1/GPa) = 0.02624444
#
# Stress axis : x y z
#
# Youngs Moduli (GPa) = 73.37581 52.38017 102.83303
#
# Poissons Ratio (x) = 0.23778 0.48230
# Poissons Ratio (y) = 0.33309 -0.11617
# Poissons Ratio (z) = 0.34414 -0.05918
#
# Static dielectric constant tensor:
#      x y z
#    x 3.725760 0.000000 0.309800 
#    y 0.000000 3.930570 0.000000 
#    z 0.309800 0.000000 3.776120 
# 
# 
# High freq. dielectric constant tensor:
#      x y z
#    x 1.848200 0.000000 0.008810 
#    y 0.000000 1.821370 0.000000 
#    z 0.008810 0.000000 1.849820 
# 
# From -- ./inp_files/9072.got.cif
#   From: 2010.03.12/outbox.cif.g09.slc.cpg/sg14_5_cif.got.tgz:9072.got - 2010.03.31 13:35:05.
