data_PCOD8126050
_publ_section_title
;
Structure prediction by ZEFSAII (Michael W. Deem and Ramdas Pophale) SiO2 
 PCOD8126050
Probable space group: P 21/C
;
_chemical_formula_sum "Si O2"
_cell_formula_units_Z 32
_cell_length_a 6.152279
_cell_length_b 18.178275
_cell_length_c 15.502337
_cell_angle_alpha 90.000000
_cell_angle_beta 60.826800
_cell_angle_gamma 90.000000
_cell_volume 1513.821996
_symmetry_space_group_name_H-M "P 21/C"
_symmetry_group_IT_number 14
_symmetry_cell_setting 'monoclinic'
loop_
_space_group_symop_operation_xyz
x,y,z
-x,1/2+y,1/2-z
-x,-y,-z
x,1/2-y,1/2+z
loop_
_atom_site_type_symbol
_atom_site_label
_atom_site_fract_x
_atom_site_fract_y
_atom_site_fract_z
Si Si1 0.731607 0.634365 0.316789
Si Si2 0.566501 0.930682 0.676201
Si Si3 0.433313 0.195894 0.980219
Si Si4 0.031612 0.758235 0.646792
Si Si5 0.283738 0.120572 0.845602
Si Si6 0.876175 0.670321 0.008682
Si Si7 0.192235 0.926606 0.321046
Si Si8 0.052760 0.497953 0.286935
O O1 0.558888 0.612933 0.269027
O O2 0.548673 0.668006 0.424811
O O3 0.946246 0.692065 0.245114
O O4 0.849429 0.561671 0.338435
O O5 0.638624 0.877392 0.584250
O O6 0.300459 0.963219 0.703796
O O7 0.776815 0.993671 0.641078
O O8 0.695525 0.224297 0.891724
O O9 0.334983 0.130152 0.937484
O O10 0.226797 0.259086 0.020541
O O11 0.832341 0.693867 0.672233
O O12 0.040557 0.809228 0.560275
O O13 0.540805 0.108864 0.746502
O O14 0.109237 0.048338 0.863824
O O15 0.047808 0.627185 0.910727
O O16 0.036915 0.936479 0.263459
#
# Coordination Sequence:
#
# PCOD8126050 Si02
#       8
#     4   4   4   4   4   4   4   4
#     4  10  23  40  63  89 121 165 207 253 314 368
#     4   9  20  40  59  91 125 159 200 257 309 370
#     4  11  24  38  61  92 119 168 211 252 314 364
#     4  10  23  42  61  91 131 157 205 265 302 373
#     4  10  23  40  59  90 125 162 208 259 306 362
#     4  10  22  37  60  96 124 158 205 254 315 370
#     4  10  21  37  65  90 122 163 204 248 316 372
#     4  10  21  40  63  87 125 167 202 258 304 360
#
# _framework density 21.138548
#
# number of rings (size 3 to 8) (size 9 to 14) (size 15 to 20)
#    0.000    2.000    0.000    1.875    5.250    4.000 
#    0.000    8.750    0.000    0.000    0.000    0.000 
#    0.000    0.000    0.000    0.000    0.000    0.000 
#
# Total GULP energy -396827.046936 kJ/mol
# GULP energy per Si atom -12400.845217 kJ/mol
# Density = 2.109044 g / cm^3
# Si number density = 21.138548 Si / 1000 Ang^3
#
#
#
# Elastic Constant Matrix: (Units=GPa)
#
#
# Indices 1 2 3 4 5 6 
#
# 1 64.3303 20.3144 16.5798 0.0000 8.6253 0.0000
# 2 20.3144 86.3718 48.0004 0.0000 0.2254 0.0000
# 3 16.5798 48.0004 87.0394 0.0000 5.2434 0.0000
# 4 0.0000 0.0000 0.0000 35.3122 0.0000 -6.5375
# 5 8.6253 0.2254 5.2434 0.0000 8.9086 0.0000
# 6 0.0000 0.0000 0.0000 -6.5375 0.0000 27.6977
#
#
#
# Elastic Compliance Matrix: (Units=1/GPa)
#
#
# Indices 1 2 3 4 5 6 
#
# 1 0.019493 -0.004467 -0.000124 0.000000 -0.018687 0.000000
# 2 -0.004467 0.017952 -0.009624 0.000000 0.009535 0.000000
# 3 -0.000124 -0.009624 0.017415 0.000000 -0.009887 0.000000
# 4 0.000000 0.000000 0.000000 0.029613 0.000000 0.006990
# 5 -0.018687 0.009535 -0.009887 0.000000 0.135921 0.000000
# 6 0.000000 0.000000 0.000000 0.006990 0.000000 0.037754
#
#
# Mechanical properties :
#
#
# Convention : Reuss Voigt Hill
#
# Bulk Modulus (GPa) = 37.83424 45.28120 41.55772
# Shear Modulus (GPa) = 16.92693 24.57348 20.75020
#
# Velocity S-wave (km/s) = 2.83284 3.41324 3.13649
# Velocity P-wave (km/s) = 5.35136 6.08287 5.72880
#
# Compressibility (1/GPa) = 0.02643108
#
# Stress axis : x y z
#
# Youngs Moduli (GPa) = 51.30095 55.70462 57.42025
#
# Poissons Ratio (x) = 0.24884 0.00711
# Poissons Ratio (y) = 0.22916 0.55259
# Poissons Ratio (z) = 0.00636 0.53608
#
# Static dielectric constant tensor:
#      x y z
#    x 3.850290 0.000000 0.125980 
#    y 0.000000 4.121680 0.000000 
#    z 0.125980 0.000000 3.522130 
# 
# 
# High freq. dielectric constant tensor:
#      x y z
#    x 1.828190 0.000000 0.004440 
#    y 0.000000 1.846570 0.000000 
#    z 0.004440 0.000000 1.807880 
# 
# From -- ./inp_files/37851.got.cif
#   From: 2010.03.12/outbox.cif.g09.slc.cpg/sg14_19_cif.got.tgz:37851.got - 2010.03.31 13:35:05.
