data_PCOD8126486
_publ_section_title
;
Structure prediction by ZEFSAII (Michael W. Deem and Ramdas Pophale) SiO2 
 PCOD8126486
Probable space group: P 21/C
;
_chemical_formula_sum "Si O2"
_cell_formula_units_Z 20
_cell_length_a 17.688330
_cell_length_b 4.937802
_cell_length_c 28.365306
_cell_angle_alpha 90.000000
_cell_angle_beta 159.183134
_cell_angle_gamma 90.000000
_cell_volume 880.447696
_symmetry_space_group_name_H-M "P 21/C"
_symmetry_group_IT_number 14
_symmetry_cell_setting 'monoclinic'
loop_
_space_group_symop_operation_xyz
x,y,z
-x,1/2+y,1/2-z
-x,-y,-z
x,1/2-y,1/2+z
loop_
_atom_site_type_symbol
_atom_site_label
_atom_site_fract_x
_atom_site_fract_y
_atom_site_fract_z
Si Si1 0.410445 0.178506 0.673663
Si Si2 0.766436 0.466006 0.237113
Si Si3 0.986988 0.044954 0.595560
Si Si4 0.981840 0.010030 0.207694
Si Si5 0.341420 0.145355 0.530155
O O1 0.576600 0.955335 0.789428
O O2 0.170469 0.052011 0.538361
O O3 0.457618 0.248904 0.646191
O O4 0.513728 0.503713 0.097445
O O5 0.822020 0.163724 0.285071
O O6 0.824846 0.527420 0.217097
O O7 0.905731 0.666317 0.351671
O O8 0.846091 0.061993 0.562293
O O9 0.059068 0.804814 0.293845
O O10 0.762975 0.901379 0.057068
#
# Coordination Sequence:
#
# PCOD8126486 Si02
#       5
#     4   4   4   4   4
#     4  10  21  40  65  92 126 167 204 256 314 366
#     4  11  21  42  64  91 125 169 206 252 322 365
#     4   9  22  38  63  88 129 162 202 258 304 364
#     4  11  24  41  64  93 127 166 210 260 312 371
#     4   9  24  41  67  89 131 166 204 264 309 368
#
# _framework density 22.715714999999999
#
# number of rings (size 3 to 8) (size 9 to 14) (size 15 to 20)
#    1.200    0.800    0.000    3.600    0.000    8.000 
#    0.000    6.000    0.000    0.000    0.000    0.000 
#    0.000    0.000    0.000    0.000    0.000    0.000 
#
# Total GULP energy -247869.079946 kJ/mol
# GULP energy per Si atom -12393.453997 kJ/mol
# Density = 2.266401 g / cm^3
# Si number density = 22.715715 Si / 1000 Ang^3
#
#
#
# Elastic Constant Matrix: (Units=GPa)
#
#
# Indices 1 2 3 4 5 6 
#
# 1 59.9974 11.0786 31.9385 0.0000 -0.1132 0.0000
# 2 11.0786 59.8561 11.4813 0.0000 11.4159 0.0000
# 3 31.9385 11.4813 69.9249 0.0000 15.2818 0.0000
# 4 0.0000 0.0000 0.0000 26.1609 0.0000 -6.1353
# 5 -0.1132 11.4159 15.2818 0.0000 46.2019 0.0000
# 6 0.0000 0.0000 0.0000 -6.1353 0.0000 20.1454
#
#
#
# Elastic Compliance Matrix: (Units=1/GPa)
#
#
# Indices 1 2 3 4 5 6 
#
# 1 0.023103 -0.003009 -0.011031 0.000000 0.004449 0.000000
# 2 -0.003009 0.018211 -0.000680 0.000000 -0.004282 0.000000
# 3 -0.011031 -0.000680 0.020933 0.000000 -0.006783 0.000000
# 4 0.000000 0.000000 0.000000 0.041165 0.000000 0.012537
# 5 0.004449 -0.004282 -0.006783 0.000000 0.024957 0.000000
# 6 0.000000 0.000000 0.000000 0.012537 0.000000 0.053457
#
#
# Mechanical properties :
#
#
# Convention : Reuss Voigt Hill
#
# Bulk Modulus (GPa) = 30.47988 33.19726 31.83857
# Shear Modulus (GPa) = 22.50209 27.52032 25.01120
#
# Velocity S-wave (km/s) = 3.15079 3.48445 3.32181
# Velocity P-wave (km/s) = 5.16563 5.55288 5.36275
#
# Compressibility (1/GPa) = 0.03280853
#
# Stress axis : x y z
#
# Youngs Moduli (GPa) = 43.28374 54.91263 47.77046
#
# Poissons Ratio (x) = 0.16522 0.52694
# Poissons Ratio (y) = 0.13023 0.03249
# Poissons Ratio (z) = 0.47745 0.03734
#
# Static dielectric constant tensor:
#      x y z
#    x 3.900820 0.000000 -0.124110 
#    y 0.000000 3.842700 0.000000 
#    z -0.124110 0.000000 3.891150 
# 
# 
# High freq. dielectric constant tensor:
#      x y z
#    x 1.872280 0.000000 -0.011590 
#    y 0.000000 1.894790 0.000000 
#    z -0.011590 0.000000 1.890460 
# 
# From -- ./inp_files/45627.got.cif
#   From: 2010.03.12/outbox.cif.g09.slc.cpg/sg14_23_cif.got.tgz:45627.got - 2010.03.31 13:35:05.
