data_PCOD8126924
_publ_section_title
;
Structure prediction by ZEFSAII (Michael W. Deem and Ramdas Pophale) SiO2 
 PCOD8126924
Probable space group: P 21/C
;
_chemical_formula_sum "Si O2"
_cell_formula_units_Z 20
_cell_length_a 20.625652
_cell_length_b 8.927310
_cell_length_c 14.514866
_cell_angle_alpha 90.000000
_cell_angle_beta 161.216539
_cell_angle_gamma 90.000000
_cell_volume 860.571548
_symmetry_space_group_name_H-M "P 21/C"
_symmetry_group_IT_number 14
_symmetry_cell_setting 'monoclinic'
loop_
_space_group_symop_operation_xyz
x,y,z
-x,1/2+y,1/2-z
-x,-y,-z
x,1/2-y,1/2+z
loop_
_atom_site_type_symbol
_atom_site_label
_atom_site_fract_x
_atom_site_fract_y
_atom_site_fract_z
Si Si1 0.849775 0.161654 0.369837
Si Si2 0.295932 0.404145 0.219372
Si Si3 0.733863 0.776784 0.519927
Si Si4 0.562572 0.338627 0.114018
Si Si5 0.636728 0.063743 0.901134
O O1 0.677477 0.261928 0.183883
O O2 0.054327 0.255771 0.642861
O O3 0.877474 0.005384 0.465421
O O4 0.789718 0.115305 0.185943
O O5 0.500000 0.500000 0.500000
O O6 0.355698 0.254340 0.356503
O O7 0.224442 0.354967 0.022256
O O8 0.592724 0.891277 0.384765
O O9 0.631501 0.613600 0.374992
O O10 0.696384 0.348360 0.387140
O O11 0.500000 0.500000 0.000000
#
# Coordination Sequence:
#
# PCOD8126924 Si02
#       5
#     4   4   4   4   4
#     4  11  26  47  71 106 147 195 243 297 370 439
#     4  10  21  45  72  95 144 191 232 298 365 420
#     4  12  26  45  75 104 143 198 240 302 366 434
#     4  11  22  44  75 105 146 192 244 295 365 433
#     4  12  24  47  71 108 149 191 240 304 368 429
#
# _framework density 23.240368
#
# number of rings (size 3 to 8) (size 9 to 14) (size 15 to 20)
#    0.000    0.800    6.000    1.800    5.600    0.000 
#    0.000    6.000    0.000    0.000    0.000    0.000 
#    0.000    0.000    0.000    0.000    0.000    0.000 
#
# Total GULP energy -247881.709695 kJ/mol
# GULP energy per Si atom -12394.085485 kJ/mol
# Density = 2.318747 g / cm^3
# Si number density = 23.240368 Si / 1000 Ang^3
#
#
#
# Elastic Constant Matrix: (Units=GPa)
#
#
# Indices 1 2 3 4 5 6 
#
# 1 96.9603 30.9255 29.0109 0.0000 -38.8027 0.0000
# 2 30.9255 121.6136 31.5401 0.0000 -10.5797 0.0000
# 3 29.0109 31.5401 98.3874 0.0000 -13.6749 0.0000
# 4 0.0000 0.0000 0.0000 35.5733 0.0000 -4.4516
# 5 -38.8027 -10.5797 -13.6749 0.0000 39.4124 0.0000
# 6 0.0000 0.0000 0.0000 -4.4516 0.0000 43.5732
#
#
#
# Elastic Compliance Matrix: (Units=1/GPa)
#
#
# Indices 1 2 3 4 5 6 
#
# 1 0.018555 -0.002667 -0.002287 0.000000 0.016759 0.000000
# 2 -0.002667 0.009435 -0.002365 0.000000 -0.000914 0.000000
# 3 -0.002287 -0.002365 0.011762 0.000000 0.001195 0.000000
# 4 0.000000 0.000000 0.000000 0.028475 0.000000 0.002909
# 5 0.016759 -0.000914 0.001195 0.000000 0.042041 0.000000
# 6 0.000000 0.000000 0.000000 0.002909 0.000000 0.023247
#
#
# Mechanical properties :
#
#
# Convention : Reuss Voigt Hill
#
# Bulk Modulus (GPa) = 39.81875 55.54604 47.68239
# Shear Modulus (GPa) = 31.94356 38.74411 35.34383
#
# Velocity S-wave (km/s) = 3.71143 4.08745 3.90397
# Velocity P-wave (km/s) = 5.96128 6.79918 6.39397
#
# Compressibility (1/GPa) = 0.02511380
#
# Stress axis : x y z
#
# Youngs Moduli (GPa) = 53.89320 105.98914 85.01620
#
# Poissons Ratio (x) = 0.28272 0.19442
# Poissons Ratio (y) = 0.14376 0.20107
# Poissons Ratio (z) = 0.12325 0.25067
#
# Static dielectric constant tensor:
#      x y z
#    x 4.428180 0.000000 -0.084830 
#    y 0.000000 4.834510 0.000000 
#    z -0.084830 0.000000 4.081130 
# 
# 
# High freq. dielectric constant tensor:
#      x y z
#    x 1.921010 0.000000 -0.015130 
#    y 0.000000 1.935490 0.000000 
#    z -0.015130 0.000000 1.906620 
# 
# From -- ./inp_files/50003.got.cif
#   From: 2010.03.12/outbox.cif.g09.slc.cpg/sg14_26_cif.got.tgz:50003.got - 2010.03.31 13:35:05.
