data_PCOD8126402
_publ_section_title
;
Structure prediction by ZEFSAII (Michael W. Deem and Ramdas Pophale) SiO2 
 PCOD8126402
Probable space group: P 21/C
;
_chemical_formula_sum "Si O2"
_cell_formula_units_Z 24
_cell_length_a 8.843014
_cell_length_b 8.942337
_cell_length_c 30.537998
_cell_angle_alpha 90.000000
_cell_angle_beta 30.227589
_cell_angle_gamma 90.000000
_cell_volume 1215.727446
_symmetry_space_group_name_H-M "P 21/C"
_symmetry_group_IT_number 14
_symmetry_cell_setting 'monoclinic'
loop_
_space_group_symop_operation_xyz
x,y,z
-x,1/2+y,1/2-z
-x,-y,-z
x,1/2-y,1/2+z
loop_
_atom_site_type_symbol
_atom_site_label
_atom_site_fract_x
_atom_site_fract_y
_atom_site_fract_z
Si Si1 0.613808 0.929402 0.264596
Si Si2 0.843315 0.904263 0.076495
Si Si3 0.205331 0.595689 0.573403
Si Si4 0.662067 0.412021 0.921258
Si Si5 0.683999 0.919900 0.581906
Si Si6 0.335817 0.426373 0.753297
O O1 0.595539 0.750378 0.264451
O O2 0.948092 0.983178 0.167260
O O3 0.540206 0.983910 0.331661
O O4 0.377946 0.009745 0.291586
O O5 0.725572 0.747216 0.088502
O O6 0.080818 0.876976 0.055808
O O7 0.553603 0.994972 0.164567
O O8 0.000000 0.000000 0.000000
O O9 0.500000 0.500000 0.500000
O O10 0.303791 0.746210 0.570876
O O11 0.455055 0.417428 0.930980
O O12 0.995353 0.470431 0.825748
O O13 0.500000 0.500000 0.000000
O O14 0.000000 0.000000 0.500000
#
# Coordination Sequence:
#
# PCOD8126402 Si02
#       6
#     4   4   4   4   4   4
#     4  10  21  40  61  89 122 158 198 246 302 359
#     4  11  23  40  64  92 122 160 201 248 302 360
#     4  10  22  40  62  89 122 157 198 246 300 359
#     4  11  24  40  61  87 119 159 203 250 301 357
#     4  12  24  40  62  88 121 160 204 253 301 358
#     4  10  22  40  62  89 122 158 198 247 304 361
#
# _framework density 19.741268000000002
#
# number of rings (size 3 to 8) (size 9 to 14) (size 15 to 20)
#    0.000    1.333    0.000    7.000    0.000    9.333 
#    0.000    0.000    0.000    0.000    0.000    0.000 
#    0.000    0.000    0.000    0.000    0.000    0.000 
#
# Total GULP energy -297630.243284 kJ/mol
# GULP energy per Si atom -12401.260137 kJ/mol
# Density = 1.969634 g / cm^3
# Si number density = 19.741268 Si / 1000 Ang^3
#
#
#
# Elastic Constant Matrix: (Units=GPa)
#
#
# Indices 1 2 3 4 5 6 
#
# 1 184.6945 62.8335 87.8767 0.0000 -2.5551 0.0000
# 2 62.8335 100.1452 57.2264 0.0000 -2.5903 0.0000
# 3 87.8767 57.2264 148.4714 0.0000 -1.4698 0.0000
# 4 0.0000 0.0000 0.0000 39.4367 0.0000 2.3005
# 5 -2.5551 -2.5903 -1.4698 0.0000 41.6726 0.0000
# 6 0.0000 0.0000 0.0000 2.3005 0.0000 38.6698
#
#
#
# Elastic Compliance Matrix: (Units=1/GPa)
#
#
# Indices 1 2 3 4 5 6 
#
# 1 0.008202 -0.003037 -0.003682 0.000000 0.000184 0.000000
# 2 -0.003037 0.013947 -0.003572 0.000000 0.000555 0.000000
# 3 -0.003682 -0.003572 0.010291 0.000000 -0.000085 0.000000
# 4 0.000000 0.000000 0.000000 0.025445 0.000000 -0.001514
# 5 0.000184 0.000555 -0.000085 0.000000 0.024039 0.000000
# 6 0.000000 0.000000 0.000000 -0.001514 0.000000 0.025950
#
#
# Mechanical properties :
#
#
# Convention : Reuss Voigt Hill
#
# Bulk Modulus (GPa) = 84.34522 94.35382 89.34952
# Shear Modulus (GPa) = 37.76133 38.98079 38.37106
#
# Velocity S-wave (km/s) = 4.37832 4.44845 4.41352
# Velocity P-wave (km/s) = 8.26908 8.61881 8.44575
#
# Compressibility (1/GPa) = 0.01185604
#
# Stress axis : x y z
#
# Youngs Moduli (GPa) = 121.91925 71.70004 97.17445
#
# Poissons Ratio (x) = 0.21778 0.35781
# Poissons Ratio (y) = 0.37031 0.34715
# Poissons Ratio (z) = 0.44892 0.25614
#
# Static dielectric constant tensor:
#      x y z
#    x 3.503720 0.000000 0.090490 
#    y 0.000000 3.682160 0.000000 
#    z 0.090490 0.000000 3.772330 
# 
# 
# High freq. dielectric constant tensor:
#      x y z
#    x 1.775560 0.000000 -0.000390 
#    y 0.000000 1.780090 0.000000 
#    z -0.000390 0.000000 1.791550 
# 
# From -- ./inp_files/61679.got.cif
#   From: 2010.03.12/outbox.cif.g09.slc.cpg/sg14_31_cif.got.tgz:61679.got - 2010.03.31 13:35:05.
