data_PCOD8126556
_publ_section_title
;
Structure prediction by ZEFSAII (Michael W. Deem and Ramdas Pophale) SiO2 
 PCOD8126556
Probable space group: P 21/C
;
_chemical_formula_sum "Si O2"
_cell_formula_units_Z 28
_cell_length_a 23.054324
_cell_length_b 5.172374
_cell_length_c 21.924951
_cell_angle_alpha 90.000000
_cell_angle_beta 149.647139
_cell_angle_gamma 90.000000
_cell_volume 1321.146105
_symmetry_space_group_name_H-M "P 21/C"
_symmetry_group_IT_number 14
_symmetry_cell_setting 'monoclinic'
loop_
_space_group_symop_operation_xyz
x,y,z
-x,1/2+y,1/2-z
-x,-y,-z
x,1/2-y,1/2+z
loop_
_atom_site_type_symbol
_atom_site_label
_atom_site_fract_x
_atom_site_fract_y
_atom_site_fract_z
Si Si1 0.409197 0.645088 0.102966
Si Si2 0.550031 0.346685 0.719094
Si Si3 0.058538 0.932813 0.647995
Si Si4 0.941355 0.212761 0.125060
Si Si5 0.154905 0.649452 0.835369
Si Si6 0.121882 0.235249 0.596685
Si Si7 0.216566 0.715219 0.625605
O O1 0.401605 0.639757 0.168856
O O2 0.486997 0.418457 0.148465
O O3 0.464150 0.913330 0.128321
O O4 0.284609 0.568155 0.965124
O O5 0.657435 0.331481 0.771130
O O6 0.101380 0.188700 0.650214
O O7 0.967421 0.004811 0.619823
O O8 0.164530 0.817775 0.782154
O O9 0.000052 0.716674 0.549566
O O10 0.888965 0.199032 0.144695
O O11 0.844326 0.099991 0.990901
O O12 0.065184 0.076433 0.239192
O O13 0.213066 0.465708 0.668239
O O14 0.152152 0.951595 0.598213
#
# Coordination Sequence:
#
# PCOD8126556 Si02
#       7
#     4   4   4   4   4   4   4
#     4  10  23  37  62  87 124 161 200 250 310 363
#     4  10  21  41  60  89 117 162 210 253 295 363
#     4  10  23  38  56  90 130 161 205 240 309 376
#     4  11  23  35  60  94 124 162 189 252 319 378
#     4  12  22  38  58  94 131 161 191 254 320 384
#     4  10  23  38  63  89 121 168 206 252 291 364
#     4  11  21  41  65  89 121 156 212 257 298 354
#
# _framework density 21.193719999999999
#
# number of rings (size 3 to 8) (size 9 to 14) (size 15 to 20)
#    0.000    1.429    4.286    0.857    4.000    1.714 
#    2.571    0.000    0.000    5.143    0.000    0.000 
#    0.000    0.000    0.000    0.000    0.000    0.000 
#
# Total GULP energy -346866.146244 kJ/mol
# GULP energy per Si atom -12388.076652 kJ/mol
# Density = 2.114548 g / cm^3
# Si number density = 21.193720 Si / 1000 Ang^3
#
#
#
# Elastic Constant Matrix: (Units=GPa)
#
#
# Indices 1 2 3 4 5 6 
#
# 1 53.4059 -8.4123 21.9483 0.0000 -0.1659 0.0000
# 2 -8.4123 60.2003 0.4511 0.0000 -0.8997 0.0000
# 3 21.9483 0.4511 88.8663 0.0000 5.5820 0.0000
# 4 0.0000 0.0000 0.0000 20.9622 0.0000 6.6505
# 5 -0.1659 -0.8997 5.5820 0.0000 32.5868 0.0000
# 6 0.0000 0.0000 0.0000 6.6505 0.0000 24.9625
#
#
#
# Elastic Compliance Matrix: (Units=1/GPa)
#
#
# Indices 1 2 3 4 5 6 
#
# 1 0.021417 0.003050 -0.005375 0.000000 0.001114 0.000000
# 2 0.003050 0.017053 -0.000880 0.000000 0.000637 0.000000
# 3 -0.005375 -0.000880 0.012725 0.000000 -0.002231 0.000000
# 4 0.000000 0.000000 0.000000 0.052109 0.000000 -0.013883
# 5 0.001114 0.000637 -0.002231 0.000000 0.031093 0.000000
# 6 0.000000 0.000000 0.000000 -0.013883 0.000000 0.043759
#
#
# Mechanical properties :
#
#
# Convention : Reuss Voigt Hill
#
# Bulk Modulus (GPa) = 22.32864 25.60520 23.96692
# Shear Modulus (GPa) = 25.06319 28.26800 26.66559
#
# Velocity S-wave (km/s) = 3.44259 3.65607 3.55094
# Velocity P-wave (km/s) = 5.13423 5.47085 5.30521
#
# Compressibility (1/GPa) = 0.04478553
#
# Stress axis : x y z
#
# Youngs Moduli (GPa) = 46.69096 58.63903 78.58516
#
# Poissons Ratio (x) = -0.17884 0.42241
# Poissons Ratio (y) = -0.14240 0.06914
# Poissons Ratio (z) = 0.25097 0.05159
#
# Static dielectric constant tensor:
#      x y z
#    x 3.929510 0.000000 -0.170660 
#    y 0.000000 3.754250 0.000000 
#    z -0.170660 0.000000 3.838840 
# 
# 
# High freq. dielectric constant tensor:
#      x y z
#    x 1.828880 0.000000 -0.005660 
#    y 0.000000 1.830480 0.000000 
#    z -0.005660 0.000000 1.809730 
# 
# From -- ./inp_files/66523.got.cif
#   From: 2010.03.12/outbox.cif.g09.slc.cpg/sg14_34_cif.got.tgz:66523.got - 2010.03.31 13:35:05.
