data_PCOD8126865
_publ_section_title
;
Structure prediction by ZEFSAII (Michael W. Deem and Ramdas Pophale) SiO2 
 PCOD8126865
Probable space group: P 21/C
;
_chemical_formula_sum "Si O2"
_cell_formula_units_Z 32
_cell_length_a 21.951750
_cell_length_b 5.076877
_cell_length_c 18.025860
_cell_angle_alpha 90.000000
_cell_angle_beta 40.533784
_cell_angle_gamma 90.000000
_cell_volume 1305.587098
_symmetry_space_group_name_H-M "P 21/C"
_symmetry_group_IT_number 14
_symmetry_cell_setting 'monoclinic'
loop_
_space_group_symop_operation_xyz
x,y,z
-x,1/2+y,1/2-z
-x,-y,-z
x,1/2-y,1/2+z
loop_
_atom_site_type_symbol
_atom_site_label
_atom_site_fract_x
_atom_site_fract_y
_atom_site_fract_z
Si Si1 0.749221 0.471693 0.273024
Si Si2 0.078613 0.067838 0.102482
Si Si3 0.210986 0.510779 0.349798
Si Si4 0.719484 0.717109 0.453311
Si Si5 0.350044 0.909104 0.850195
Si Si6 0.444537 0.757100 0.025305
Si Si7 0.440341 0.557989 0.876514
Si Si8 0.881414 0.435579 0.842202
O O1 0.754701 0.746203 0.223477
O O2 0.758569 0.528537 0.351915
O O3 0.656096 0.295707 0.343848
O O4 0.821399 0.250123 0.175574
O O5 0.124217 0.856663 0.117959
O O6 0.965949 0.033218 0.204709
O O7 0.101447 0.361692 0.106869
O O8 0.117918 0.041058 0.983411
O O9 0.296102 0.619383 0.323036
O O10 0.720307 0.574042 0.532143
O O11 0.784112 0.980570 0.393324
O O12 0.610497 0.801975 0.539570
O O13 0.374432 0.630444 0.866764
O O14 0.452165 0.040385 0.746876
O O15 0.500000 0.500000 0.000000
O O16 0.435900 0.778792 0.944167
O O17 0.500000 0.000000 0.000000
#
# Coordination Sequence:
#
# PCOD8126865 Si02
#       8
#     4   4   4   4   4   4   4   4
#     4  12  27  44  65 100 139 186 226 284 349 423
#     4  10  21  43  70 108 138 173 233 297 343 429
#     4  12  26  45  69 100 139 181 231 285 351 409
#     4  12  25  45  67  99 139 185 230 291 353 418
#     4  12  25  41  69  95 134 178 233 289 345 397
#     4  12  25  45  66  91 135 186 232 280 344 412
#     4  12  25  42  65 101 133 177 237 293 335 412
#     4  10  22  41  74 105 136 179 231 289 363 410
#
# _framework density 24.510045999999999
#
# number of rings (size 3 to 8) (size 9 to 14) (size 15 to 20)
#    0.000    0.500    3.750    5.250    1.750    1.000 
#    0.000    1.250    0.000    0.000    0.000    0.000 
#    0.000    0.000    0.000    0.000    0.000    0.000 
#
# Total GULP energy -396568.792653 kJ/mol
# GULP energy per Si atom -12392.774770 kJ/mol
# Density = 2.445426 g / cm^3
# Si number density = 24.510046 Si / 1000 Ang^3
#
#
#
# Elastic Constant Matrix: (Units=GPa)
#
#
# Indices 1 2 3 4 5 6 
#
# 1 42.9414 14.4328 40.8405 0.0000 6.6615 0.0000
# 2 14.4328 102.5527 32.3281 0.0000 11.2129 0.0000
# 3 40.8405 32.3281 156.0808 0.0000 10.0074 0.0000
# 4 0.0000 0.0000 0.0000 42.8551 0.0000 0.4787
# 5 6.6615 11.2129 10.0074 0.0000 39.7614 0.0000
# 6 0.0000 0.0000 0.0000 0.4787 0.0000 33.4102
#
#
#
# Elastic Compliance Matrix: (Units=1/GPa)
#
#
# Indices 1 2 3 4 5 6 
#
# 1 0.031678 -0.001700 -0.007753 0.000000 -0.002877 0.000000
# 2 -0.001700 0.010761 -0.001634 0.000000 -0.002339 0.000000
# 3 -0.007753 -0.001634 0.008803 0.000000 -0.000456 0.000000
# 4 0.000000 0.000000 0.000000 0.023338 0.000000 -0.000334
# 5 -0.002877 -0.002339 -0.000456 0.000000 0.026406 0.000000
# 6 0.000000 0.000000 0.000000 -0.000334 0.000000 0.029936
#
#
# Mechanical properties :
#
#
# Convention : Reuss Voigt Hill
#
# Bulk Modulus (GPa) = 34.40016 52.97531 43.68774
# Shear Modulus (GPa) = 30.71520 37.47025 34.09273
#
# Velocity S-wave (km/s) = 3.54385 3.91419 3.73362
# Velocity P-wave (km/s) = 5.55075 6.48757 6.03735
#
# Compressibility (1/GPa) = 0.02906963
#
# Stress axis : x y z
#
# Youngs Moduli (GPa) = 31.56729 92.92683 113.59528
#
# Poissons Ratio (x) = 0.15796 0.88065
# Poissons Ratio (y) = 0.05366 0.18563
# Poissons Ratio (z) = 0.24473 0.15186
#
# Static dielectric constant tensor:
#      x y z
#    x 4.046120 0.000000 -0.109730 
#    y 0.000000 4.323460 0.000000 
#    z -0.109730 0.000000 4.696970 
# 
# 
# High freq. dielectric constant tensor:
#      x y z
#    x 1.942120 0.000000 -0.000190 
#    y 0.000000 1.986620 0.000000 
#    z -0.000190 0.000000 2.000110 
# 
# From -- ./inp_files/61591.got.cif
#   From: 2010.03.12/outbox.cif.g09.slc.cpg/sg14_31_cif.got.tgz:61591.got - 2010.03.31 13:35:05.
