data_PCOD8126971
_publ_section_title
;
Structure prediction by ZEFSAII (Michael W. Deem and Ramdas Pophale) SiO2 
 PCOD8126971
Probable space group: P 21/C
;
_chemical_formula_sum "Si O2"
_cell_formula_units_Z 28
_cell_length_a 18.793962
_cell_length_b 7.790708
_cell_length_c 18.388603
_cell_angle_alpha 90.000000
_cell_angle_beta 28.806264
_cell_angle_gamma 90.000000
_cell_volume 1297.344750
_symmetry_space_group_name_H-M "P 21/C"
_symmetry_group_IT_number 14
_symmetry_cell_setting 'monoclinic'
loop_
_space_group_symop_operation_xyz
x,y,z
-x,1/2+y,1/2-z
-x,-y,-z
x,1/2-y,1/2+z
loop_
_atom_site_type_symbol
_atom_site_label
_atom_site_fract_x
_atom_site_fract_y
_atom_site_fract_z
Si Si1 0.193678 0.415942 0.289575
Si Si2 0.862223 0.686921 0.889883
Si Si3 0.294092 0.741953 0.775037
Si Si4 0.173282 0.545073 0.757303
Si Si5 0.363722 0.290672 0.521578
Si Si6 0.930042 0.336174 0.908961
Si Si7 0.030796 0.354851 0.575213
O O1 0.272810 0.588401 0.246509
O O2 0.316660 0.308080 0.137687
O O3 0.129063 0.310621 0.416182
O O4 0.053692 0.463316 0.361752
O O5 0.708191 0.704360 0.985037
O O6 0.867651 0.503605 0.923829
O O7 0.867314 0.843288 0.944496
O O8 0.000409 0.706297 0.711555
O O9 0.234203 0.576306 0.784084
O O10 0.462876 0.714100 0.644375
O O11 0.203897 0.759499 0.930778
O O12 0.308161 0.487696 0.583050
O O13 0.054350 0.388003 0.858645
O O14 0.097144 0.715103 0.795102
#
# Coordination Sequence:
#
# PCOD8126971 Si02
#       7
#     4   4   4   4   4   4   4
#     4  10  22  36  67  89 121 161 212 258 297 363
#     4  10  22  39  60  90 122 157 202 254 309 363
#     4  11  23  40  58  93 123 164 200 254 314 376
#     4   9  21  37  62  88 117 150 207 258 300 355
#     4  11  23  39  61  92 127 160 198 254 321 375
#     4  10  22  38  64  84 119 158 208 255 298 362
#     4   9  20  38  63  92 115 160 211 257 300 352
#
# _framework density 21.582545
#
# number of rings (size 3 to 8) (size 9 to 14) (size 15 to 20)
#    0.000    2.000    0.000    2.143   18.000    0.000 
#    2.571    0.000    0.000    0.000    0.000    0.000 
#    0.000    0.000    0.000    0.000    0.000    0.000 
#
# Total GULP energy -347137.010122 kJ/mol
# GULP energy per Si atom -12397.750361 kJ/mol
# Density = 2.153342 g / cm^3
# Si number density = 21.582545 Si / 1000 Ang^3
#
#
#
# Elastic Constant Matrix: (Units=GPa)
#
#
# Indices 1 2 3 4 5 6 
#
# 1 119.4873 20.6308 56.7122 0.0000 -1.1412 0.0000
# 2 20.6308 44.8164 14.3399 0.0000 0.5377 0.0000
# 3 56.7122 14.3399 123.6828 0.0000 -9.4172 0.0000
# 4 0.0000 0.0000 0.0000 29.5137 0.0000 5.8597
# 5 -1.1412 0.5377 -9.4172 0.0000 29.7599 0.0000
# 6 0.0000 0.0000 0.0000 5.8597 0.0000 26.0982
#
#
#
# Elastic Compliance Matrix: (Units=1/GPa)
#
#
# Indices 1 2 3 4 5 6 
#
# 1 0.011279 -0.003635 -0.004829 0.000000 -0.001030 0.000000
# 2 -0.003635 0.024393 -0.001236 0.000000 -0.000971 0.000000
# 3 -0.004829 -0.001236 0.010688 0.000000 0.003219 0.000000
# 4 0.000000 0.000000 0.000000 0.035463 0.000000 -0.007962
# 5 -0.001030 -0.000971 0.003219 0.000000 0.034599 0.000000
# 6 0.000000 0.000000 0.000000 -0.007962 0.000000 0.040105
#
#
# Mechanical properties :
#
#
# Convention : Reuss Voigt Hill
#
# Bulk Modulus (GPa) = 37.08913 52.37249 44.73081
# Shear Modulus (GPa) = 27.03996 30.16126 28.60061
#
# Velocity S-wave (km/s) = 3.54342 3.74235 3.64424
# Velocity P-wave (km/s) = 5.82779 6.55686 6.20305
#
# Compressibility (1/GPa) = 0.02696208
#
# Stress axis : x y z
#
# Youngs Moduli (GPa) = 88.66344 40.99469 93.56644
#
# Poissons Ratio (x) = 0.14900 0.45179
# Poissons Ratio (y) = 0.32226 0.11561
# Poissons Ratio (z) = 0.42812 0.05065
#
# Static dielectric constant tensor:
#      x y z
#    x 4.124160 0.000000 0.064860 
#    y 0.000000 3.996360 0.000000 
#    z 0.064860 0.000000 3.679130 
# 
# 
# High freq. dielectric constant tensor:
#      x y z
#    x 1.850040 0.000000 0.008550 
#    y 0.000000 1.854480 0.000000 
#    z 0.008550 0.000000 1.822010 
# 
# From -- ./inp_files/60303.got.cif
#   From: 2010.03.12/outbox.cif.g09.slc.cpg/sg14_31_cif.got.tgz:60303.got - 2010.03.31 13:35:05.
