data_PCOD8126742
_publ_section_title
;
Structure prediction by ZEFSAII (Michael W. Deem and Ramdas Pophale) SiO2 
 PCOD8126742
Probable space group: P 21/C
;
_chemical_formula_sum "Si O2"
_cell_formula_units_Z 28
_cell_length_a 14.025402
_cell_length_b 13.137704
_cell_length_c 13.649135
_cell_angle_alpha 90.000000
_cell_angle_beta 29.686895
_cell_angle_gamma 90.000000
_cell_volume 1245.584380
_symmetry_space_group_name_H-M "P 21/C"
_symmetry_group_IT_number 14
_symmetry_cell_setting 'monoclinic'
loop_
_space_group_symop_operation_xyz
x,y,z
-x,1/2+y,1/2-z
-x,-y,-z
x,1/2-y,1/2+z
loop_
_atom_site_type_symbol
_atom_site_label
_atom_site_fract_x
_atom_site_fract_y
_atom_site_fract_z
Si Si1 0.857119 0.339216 0.470434
Si Si2 0.912011 0.892118 0.417763
Si Si3 0.018260 0.816458 0.921389
Si Si4 0.693727 0.943587 0.120729
Si Si5 0.350820 0.815796 0.481880
Si Si6 0.234840 0.460686 0.653952
Si Si7 0.565874 0.624224 0.344461
O O1 0.932751 0.309511 0.508486
O O2 0.709729 0.434023 0.609309
O O3 0.748097 0.242189 0.521387
O O4 0.038061 0.371675 0.240488
O O5 0.683918 0.907418 0.640511
O O6 0.974025 0.797025 0.428070
O O7 0.021398 0.993499 0.357996
O O8 0.196971 0.857876 0.697376
O O9 0.839654 0.893059 0.067833
O O10 0.472552 0.913095 0.337890
O O11 0.751346 0.900723 0.961315
O O12 0.500758 0.740551 0.401099
O O13 0.378406 0.556435 0.522210
O O14 0.288666 0.385844 0.693577
#
# Coordination Sequence:
#
# PCOD8126742 Si02
#       7
#     4   4   4   4   4   4   4
#     4  10  24  45  64  94 136 167 217 274 312 390
#     4  10  21  42  63  95 127 162 215 264 320 381
#     4  11  23  42  63  91 133 171 213 259 323 393
#     4  11  23  43  63  97 130 171 220 257 327 390
#     4  11  24  43  64  96 129 166 220 268 315 392
#     4  10  23  39  68  98 125 163 215 277 320 379
#     4  11  20  40  65  94 128 159 211 273 323 374
#
# _framework density 22.479406999999998
#
# number of rings (size 3 to 8) (size 9 to 14) (size 15 to 20)
#    0.000    1.429    5.714    0.857    2.000    5.143 
#    2.571    0.000    0.000    0.000    0.000    0.000 
#    0.000    0.000    0.000    0.000    0.000    0.000 
#
# Total GULP energy -347209.604038 kJ/mol
# GULP energy per Si atom -12400.343001 kJ/mol
# Density = 2.242824 g / cm^3
# Si number density = 22.479407 Si / 1000 Ang^3
#
#
#
# Elastic Constant Matrix: (Units=GPa)
#
#
# Indices 1 2 3 4 5 6 
#
# 1 115.9685 15.1882 8.4184 0.0000 24.6210 0.0000
# 2 15.1882 30.7311 0.4364 0.0000 12.4377 0.0000
# 3 8.4184 0.4364 91.0014 0.0000 3.7694 0.0000
# 4 0.0000 0.0000 0.0000 23.9242 0.0000 4.3122
# 5 24.6210 12.4377 3.7694 0.0000 25.9357 0.0000
# 6 0.0000 0.0000 0.0000 4.3122 0.0000 19.3128
#
#
#
# Elastic Compliance Matrix: (Units=1/GPa)
#
#
# Indices 1 2 3 4 5 6 
#
# 1 0.010887 -0.001520 -0.000606 0.000000 -0.009518 0.000000
# 2 -0.001520 0.040623 0.000697 0.000000 -0.018140 0.000000
# 3 -0.000606 0.000697 0.011098 0.000000 -0.001372 0.000000
# 4 0.000000 0.000000 0.000000 0.043551 0.000000 -0.009724
# 5 -0.009518 -0.018140 -0.001372 0.000000 0.056491 0.000000
# 6 0.000000 0.000000 0.000000 -0.009724 0.000000 0.053950
#
#
# Mechanical properties :
#
#
# Convention : Reuss Voigt Hill
#
# Bulk Modulus (GPa) = 16.73584 31.75411 24.24497
# Shear Modulus (GPa) = 20.88774 28.07841 24.48308
#
# Velocity S-wave (km/s) = 3.05158 3.53806 3.30378
# Velocity P-wave (km/s) = 4.45839 5.55401 5.03608
#
# Compressibility (1/GPa) = 0.05975200
#
# Stress axis : x y z
#
# Youngs Moduli (GPa) = 91.85425 24.61651 90.10335
#
# Poissons Ratio (x) = 0.03741 0.05456
# Poissons Ratio (y) = 0.13959 -0.06281
# Poissons Ratio (z) = 0.05563 -0.01716
#
# Static dielectric constant tensor:
#      x y z
#    x 4.173860 0.000000 0.101800 
#    y 0.000000 3.836340 0.000000 
#    z 0.101800 0.000000 4.439510 
# 
# 
# High freq. dielectric constant tensor:
#      x y z
#    x 1.881920 0.000000 -0.000600 
#    y 0.000000 1.873610 0.000000 
#    z -0.000600 0.000000 1.894890 
# 
# From -- ./inp_files/47341.got.cif
#   From: 2010.03.12/outbox.cif.g09.slc.cpg/sg14_24_cif.got.tgz:47341.got - 2010.03.31 13:35:05.
