data_PCOD8126249
_publ_section_title
;
Structure prediction by ZEFSAII (Michael W. Deem and Ramdas Pophale) SiO2 
 PCOD8126249
Probable space group: P 21/C
;
_chemical_formula_sum "Si O2"
_cell_formula_units_Z 24
_cell_length_a 14.302173
_cell_length_b 15.651929
_cell_length_c 5.123468
_cell_angle_alpha 90.000000
_cell_angle_beta 86.563155
_cell_angle_gamma 90.000000
_cell_volume 1144.859350
_symmetry_space_group_name_H-M "P 21/C"
_symmetry_group_IT_number 14
_symmetry_cell_setting 'monoclinic'
loop_
_space_group_symop_operation_xyz
x,y,z
-x,1/2+y,1/2-z
-x,-y,-z
x,1/2-y,1/2+z
loop_
_atom_site_type_symbol
_atom_site_label
_atom_site_fract_x
_atom_site_fract_y
_atom_site_fract_z
Si Si1 0.351100 0.404414 0.690094
Si Si2 0.936267 0.804936 0.200243
Si Si3 0.541245 0.306593 0.647877
Si Si4 0.758281 0.589896 0.779023
Si Si5 0.703670 0.428986 0.525301
Si Si6 0.147992 0.805572 0.212009
O O1 0.454809 0.369437 0.706188
O O2 0.298691 0.363578 0.447230
O O3 0.355827 0.507817 0.655294
O O4 0.290046 0.379005 0.949331
O O5 0.918462 0.730920 0.414334
O O6 0.866654 0.883625 0.260545
O O7 0.041896 0.840132 0.208267
O O8 0.539373 0.268998 0.357395
O O9 0.636018 0.360228 0.670958
O O10 0.752661 0.486864 0.742505
O O11 0.783541 0.384883 0.339581
O O12 0.167506 0.767632 0.494451
#
# Coordination Sequence:
#
# PCOD8126249 Si02
#       6
#     4   4   4   4   4   4
#     4  10  24  41  60  91 119 157 193 249 293 353
#     4  10  21  39  61  89 121 157 199 244 290 346
#     4  12  26  41  65  89 117 157 201 245 295 353
#     4  10  23  38  64  87 121 161 190 248 293 352
#     4  10  25  41  63  87 124 154 199 243 300 348
#     4  10  22  39  63  89 119 156 200 245 291 348
#
# _framework density 20.963276
#
# number of rings (size 3 to 8) (size 9 to 14) (size 15 to 20)
#    1.000    0.667    0.000    3.500    4.667    5.333 
#    0.000    0.833    0.000    0.000    0.000    0.000 
#    0.000    0.000    0.000    0.000    0.000    0.000 
#
# Total GULP energy -297601.119090 kJ/mol
# GULP energy per Si atom -12400.046629 kJ/mol
# Density = 2.091556 g / cm^3
# Si number density = 20.963276 Si / 1000 Ang^3
#
#
#
# Elastic Constant Matrix: (Units=GPa)
#
#
# Indices 1 2 3 4 5 6 
#
# 1 118.9300 66.7985 21.6700 0.0000 -32.0021 0.0000
# 2 66.7985 84.9834 15.3110 0.0000 -15.4155 0.0000
# 3 21.6700 15.3110 105.6734 0.0000 -16.7122 0.0000
# 4 0.0000 0.0000 0.0000 9.1315 0.0000 -4.5202
# 5 -32.0021 -15.4155 -16.7122 0.0000 34.5202 0.0000
# 6 0.0000 0.0000 0.0000 -4.5202 0.0000 44.4763
#
#
#
# Elastic Compliance Matrix: (Units=1/GPa)
#
#
# Indices 1 2 3 4 5 6 
#
# 1 0.018535 -0.012444 -0.000172 0.000000 0.011542 0.000000
# 2 -0.012444 0.021263 -0.000922 0.000000 -0.002487 0.000000
# 3 -0.000172 -0.000922 0.010333 0.000000 0.004431 0.000000
# 4 0.000000 0.000000 0.000000 0.115313 0.000000 0.011719
# 5 0.011542 -0.002487 0.004431 0.000000 0.040703 0.000000
# 6 0.000000 0.000000 0.000000 0.011719 0.000000 0.023675
#
#
# Mechanical properties :
#
#
# Convention : Reuss Voigt Hill
#
# Bulk Modulus (GPa) = 43.37776 57.46067 50.41922
# Shear Modulus (GPa) = 18.89759 31.34606 25.12183
#
# Velocity S-wave (km/s) = 3.00569 3.87109 3.46551
# Velocity P-wave (km/s) = 5.72562 6.88840 6.33375
#
# Compressibility (1/GPa) = 0.02305329
#
# Stress axis : x y z
#
# Youngs Moduli (GPa) = 53.95224 47.02963 96.77893
#
# Poissons Ratio (x) = 0.58524 0.01669
# Poissons Ratio (y) = 0.67138 0.08927
# Poissons Ratio (z) = 0.00930 0.04338
#
# Static dielectric constant tensor:
#      x y z
#    x 3.801780 0.000000 -0.112150 
#    y 0.000000 3.489310 0.000000 
#    z -0.112150 0.000000 3.828850 
# 
# 
# High freq. dielectric constant tensor:
#      x y z
#    x 1.826470 0.000000 -0.010360 
#    y 0.000000 1.801980 0.000000 
#    z -0.010360 0.000000 1.832610 
# 
# From -- ./inp_files/2666.got.cif
#   From: 2010.03.12/outbox.cif.g09.slc.cpg/sg14_2_cif.got.tgz:2666.got - 2010.03.31 13:35:05.
