data_PCOD8126497
_publ_section_title
;
Structure prediction by ZEFSAII (Michael W. Deem and Ramdas Pophale) SiO2 
 PCOD8126497
Probable space group: P 21/C
;
_chemical_formula_sum "Si O2"
_cell_formula_units_Z 28
_cell_length_a 5.379271
_cell_length_b 8.883399
_cell_length_c 24.314084
_cell_angle_alpha 90.000000
_cell_angle_beta 96.843685
_cell_angle_gamma 90.000000
_cell_volume 1153.599492
_symmetry_space_group_name_H-M "P 21/C"
_symmetry_group_IT_number 14
_symmetry_cell_setting 'monoclinic'
loop_
_space_group_symop_operation_xyz
x,y,z
-x,1/2+y,1/2-z
-x,-y,-z
x,1/2-y,1/2+z
loop_
_atom_site_type_symbol
_atom_site_label
_atom_site_fract_x
_atom_site_fract_y
_atom_site_fract_z
Si Si1 0.566406 0.789116 0.651851
Si Si2 0.086966 0.652491 0.918797
Si Si3 0.490401 0.139448 0.039024
Si Si4 0.697903 0.836107 0.854751
Si Si5 0.910445 0.122349 0.811987
Si Si6 0.677489 0.615658 0.034556
Si Si7 0.668553 0.389764 0.191995
O O1 0.316234 0.701982 0.662176
O O2 0.550342 0.823491 0.586964
O O3 0.818013 0.690682 0.669014
O O4 0.562555 0.940311 0.688993
O O5 0.249826 0.768341 0.959582
O O6 0.073402 0.483302 0.944202
O O7 0.210060 0.642078 0.862462
O O8 0.812741 0.711857 0.899412
O O9 0.460328 0.078844 0.101260
O O10 0.268790 0.247740 0.006586
O O11 0.500000 0.000000 0.000000
O O12 0.542438 0.741521 0.805151
O O13 0.895907 0.946832 0.830817
O O14 0.869475 0.128996 0.745658
O O15 0.500000 0.500000 0.000000
#
# Coordination Sequence:
#
# PCOD8126497 Si02
#       7
#     4   4   4   4   4   4   4
#     4  11  27  48  69 111 139 189 245 297 347 444
#     4   9  22  41  64  98 133 180 241 288 348 435
#     4  10  21  40  65  97 139 179 233 294 365 416
#     4  11  25  43  69 102 139 184 237 297 355 434
#     4  12  28  44  74 104 149 181 238 302 364 414
#     4   9  20  45  68  95 140 186 239 291 355 428
#     4  10  25  45  71  95 142 189 237 285 362 431
#
# _framework density 24.271856
#
# number of rings (size 3 to 8) (size 9 to 14) (size 15 to 20)
#    0.000    1.714    0.000    2.571   14.000    1.143 
#    5.143    0.000    0.000    0.000    0.000    0.000 
#    0.000    0.000    0.000    0.000    0.000    0.000 
#
# Total GULP energy -346884.644128 kJ/mol
# GULP energy per Si atom -12388.737290 kJ/mol
# Density = 2.421661 g / cm^3
# Si number density = 24.271856 Si / 1000 Ang^3
#
#
#
# Elastic Constant Matrix: (Units=GPa)
#
#
# Indices 1 2 3 4 5 6 
#
# 1 53.4205 12.6853 2.9402 0.0000 8.3406 0.0000
# 2 12.6853 119.7585 39.8888 0.0000 6.9118 0.0000
# 3 2.9402 39.8888 75.9769 0.0000 29.9552 0.0000
# 4 0.0000 0.0000 0.0000 43.4155 0.0000 8.0863
# 5 8.3406 6.9118 29.9552 0.0000 21.5110 0.0000
# 6 0.0000 0.0000 0.0000 8.0863 0.0000 29.0403
#
#
#
# Elastic Compliance Matrix: (Units=1/GPa)
#
#
# Indices 1 2 3 4 5 6 
#
# 1 0.022445 -0.004367 0.009540 0.000000 -0.020585 0.000000
# 2 -0.004367 0.011862 -0.011583 0.000000 0.014012 0.000000
# 3 0.009540 -0.011583 0.041833 0.000000 -0.058232 0.000000
# 4 0.000000 0.000000 0.000000 0.024293 0.000000 -0.006764
# 5 -0.020585 0.014012 -0.058232 0.000000 0.131058 0.000000
# 6 0.000000 0.000000 0.000000 -0.006764 0.000000 0.036318
#
#
# Mechanical properties :
#
#
# Convention : Reuss Voigt Hill
#
# Bulk Modulus (GPa) = 15.79289 40.02049 27.90669
# Shear Modulus (GPa) = 16.57071 31.70280 24.13676
#
# Velocity S-wave (km/s) = 2.61571 3.61800 3.15689
# Velocity P-wave (km/s) = 3.95517 5.82902 4.98101
#
# Compressibility (1/GPa) = 0.06331965
#
# Stress axis : x y z
#
# Youngs Moduli (GPa) = 44.55289 84.30184 23.90456
#
# Poissons Ratio (x) = 0.36815 -0.22805
# Poissons Ratio (y) = 0.19456 0.27689
# Poissons Ratio (z) = -0.42503 0.97649
#
# Static dielectric constant tensor:
#      x y z
#    x 4.499640 0.000000 0.378030 
#    y 0.000000 5.506060 0.000000 
#    z 0.378030 0.000000 4.858310 
# 
# 
# High freq. dielectric constant tensor:
#      x y z
#    x 1.934740 0.000000 0.002340 
#    y 0.000000 1.977530 0.000000 
#    z 0.002340 0.000000 1.988100 
# 
# From -- ./inp_files/75704.got.cif
#   From: 2010.03.12/outbox.cif.g09.slc.cpg/sg14_38_cif.got.tgz:75704.got - 2010.03.31 13:35:05.
