data_PCOD8126377
_publ_section_title
;
Structure prediction by ZEFSAII (Michael W. Deem and Ramdas Pophale) SiO2 
 PCOD8126377
Probable space group: P 21/C
;
_chemical_formula_sum "Si O2"
_cell_formula_units_Z 20
_cell_length_a 8.443580
_cell_length_b 19.383815
_cell_length_c 5.552056
_cell_angle_alpha 90.000000
_cell_angle_beta 117.449053
_cell_angle_gamma 90.000000
_cell_volume 806.398016
_symmetry_space_group_name_H-M "P 21/C"
_symmetry_group_IT_number 14
_symmetry_cell_setting 'monoclinic'
loop_
_space_group_symop_operation_xyz
x,y,z
-x,1/2+y,1/2-z
-x,-y,-z
x,1/2-y,1/2+z
loop_
_atom_site_type_symbol
_atom_site_label
_atom_site_fract_x
_atom_site_fract_y
_atom_site_fract_z
Si Si1 0.962267 0.076999 0.878555
Si Si2 0.683836 0.911277 0.142883
Si Si3 0.406624 0.269009 0.283155
Si Si4 0.014332 0.282201 0.588084
Si Si5 0.608748 0.041831 0.384770
O O1 0.961783 0.136349 0.083263
O O2 0.772196 0.082421 0.615768
O O3 0.117608 0.102138 0.810283
O O4 0.000000 0.000000 0.000000
O O5 0.638185 0.849867 0.295643
O O6 0.687813 0.987867 0.249944
O O7 0.530005 0.905344 0.831809
O O8 0.510293 0.258467 0.615668
O O9 0.227662 0.225668 0.217570
O O10 0.935346 0.246545 0.775892
O O11 0.500000 0.000000 0.500000
#
# Coordination Sequence:
#
# PCOD8126377 Si02
#       5
#     4   4   4   4   4
#     4  12  24  42  76 102 136 193 234 294 365 418
#     4  11  24  45  69  99 140 186 232 297 351 426
#     4  10  21  39  72  98 133 184 239 284 353 427
#     4  10  22  41  68 104 138 177 242 294 347 435
#     4  11  26  43  65 106 141 175 242 291 352 428
#
# _framework density 24.801646999999999
#
# number of rings (size 3 to 8) (size 9 to 14) (size 15 to 20)
#    0.000    1.200    6.000    0.600    8.400    1.600 
#    0.000    2.000    0.000    0.000    0.000    0.000 
#    0.000    0.000    0.000    0.000    0.000    0.000 
#
# Total GULP energy -247811.753791 kJ/mol
# GULP energy per Si atom -12390.587690 kJ/mol
# Density = 2.474520 g / cm^3
# Si number density = 24.801647 Si / 1000 Ang^3
#
#
#
# Elastic Constant Matrix: (Units=GPa)
#
#
# Indices 1 2 3 4 5 6 
#
# 1 67.9452 -0.6914 36.6135 0.0000 12.9408 0.0000
# 2 -0.6914 122.6412 28.5760 0.0000 0.5773 0.0000
# 3 36.6135 28.5760 120.2008 0.0000 -11.8724 0.0000
# 4 0.0000 0.0000 0.0000 42.7102 0.0000 -2.6611
# 5 12.9408 0.5773 -11.8724 0.0000 49.9983 0.0000
# 6 0.0000 0.0000 0.0000 -2.6611 0.0000 5.8082
#
#
#
# Elastic Compliance Matrix: (Units=1/GPa)
#
#
# Indices 1 2 3 4 5 6 
#
# 1 0.019914 0.001817 -0.007177 0.000000 -0.006880 0.000000
# 2 0.001817 0.008815 -0.002771 0.000000 -0.001230 0.000000
# 3 -0.007177 -0.002771 0.011624 0.000000 0.004650 0.000000
# 4 0.000000 0.000000 0.000000 0.024102 0.000000 0.011043
# 5 -0.006880 -0.001230 0.004650 0.000000 0.022900 0.000000
# 6 0.000000 0.000000 0.000000 0.011043 0.000000 0.177230
#
#
# Mechanical properties :
#
#
# Convention : Reuss Voigt Hill
#
# Bulk Modulus (GPa) = 41.50903 48.86481 45.18692
# Shear Modulus (GPa) = 17.30837 36.12262 26.71550
#
# Velocity S-wave (km/s) = 2.64459 3.82050 3.28558
# Velocity P-wave (km/s) = 5.10861 6.26152 5.71422
#
# Compressibility (1/GPa) = 0.02409114
#
# Stress axis : x y z
#
# Youngs Moduli (GPa) = 50.21544 113.43664 86.03161
#
# Poissons Ratio (x) = -0.20612 0.61748
# Poissons Ratio (y) = -0.09124 0.23837
# Poissons Ratio (z) = 0.36042 0.31430
#
# Static dielectric constant tensor:
#      x y z
#    x 3.247840 0.000000 0.118160 
#    y 0.000000 3.059610 0.000000 
#    z 0.118160 0.000000 4.529310 
# 
# 
# High freq. dielectric constant tensor:
#      x y z
#    x 1.950290 0.000000 -0.008180 
#    y 0.000000 2.002790 0.000000 
#    z -0.008180 0.000000 1.993360 
# 
# From -- ./inp_files/1184.got.cif
#   From: 2010.03.12/outbox.cif.g09.slc.cpg/sg14_1_cif.got.tgz:1184.got - 2010.03.31 13:35:05.
