data_PCOD8126707
_publ_section_title
;
Structure prediction by ZEFSAII (Michael W. Deem and Ramdas Pophale) SiO2 
 PCOD8126707
Probable space group: P 21/C
;
_chemical_formula_sum "Si O2"
_cell_formula_units_Z 24
_cell_length_a 13.126652
_cell_length_b 14.162280
_cell_length_c 10.963498
_cell_angle_alpha 90.000000
_cell_angle_beta 146.887802
_cell_angle_gamma 90.000000
_cell_volume 1113.401560
_symmetry_space_group_name_H-M "P 21/C"
_symmetry_group_IT_number 14
_symmetry_cell_setting 'monoclinic'
loop_
_space_group_symop_operation_xyz
x,y,z
-x,1/2+y,1/2-z
-x,-y,-z
x,1/2-y,1/2+z
loop_
_atom_site_type_symbol
_atom_site_label
_atom_site_fract_x
_atom_site_fract_y
_atom_site_fract_z
Si Si1 0.214493 0.653874 0.482828
Si Si2 0.059816 0.003657 0.199750
Si Si3 0.381866 0.086736 0.025959
Si Si4 0.722044 0.399075 0.711528
Si Si5 0.476429 0.464623 0.112518
Si Si6 0.007884 0.656254 0.824685
O O1 0.260283 0.670928 0.386468
O O2 0.407561 0.632578 0.749303
O O3 0.100293 0.740760 0.421939
O O4 0.089480 0.559911 0.369680
O O5 0.258503 0.054490 0.416885
O O6 0.063111 0.896994 0.254920
O O7 0.000000 0.000000 0.000000
O O8 0.216297 0.161876 0.884929
O O9 0.309702 0.005028 0.864694
O O10 0.552878 0.138062 0.128229
O O11 0.452087 0.045664 0.224669
O O12 0.911356 0.400147 0.978809
O O13 0.500000 0.500000 0.000000
#
# Coordination Sequence:
#
# PCOD8126707 Si02
#       6
#     4   4   4   4   4   4
#     4  11  27  41  68 109 133 186 241 283 354 418
#     4  12  24  45  72  97 141 191 230 287 359 414
#     4  10  21  41  71  98 128 188 223 287 362 407
#     4  10  22  41  67  98 136 176 237 284 352 420
#     4  11  21  43  70  95 138 180 234 283 346 421
#     4  12  24  43  70 100 141 178 233 297 345 418
#
# _framework density 21.555565999999999
#
# number of rings (size 3 to 8) (size 9 to 14) (size 15 to 20)
#    0.000    1.000    6.667    0.500    2.333    1.333 
#    0.000    0.000    7.333    0.000    0.000    0.000 
#    0.000    0.000    0.000    0.000    0.000    0.000 
#
# Total GULP energy -297614.269768 kJ/mol
# GULP energy per Si atom -12400.594574 kJ/mol
# Density = 2.150650 g / cm^3
# Si number density = 21.555566 Si / 1000 Ang^3
#
#
#
# Elastic Constant Matrix: (Units=GPa)
#
#
# Indices 1 2 3 4 5 6 
#
# 1 138.1110 29.0885 64.8627 0.0000 -1.9111 0.0000
# 2 29.0885 61.7523 32.5661 0.0000 3.8711 0.0000
# 3 64.8627 32.5661 158.4901 0.0000 3.5942 0.0000
# 4 0.0000 0.0000 0.0000 20.3562 0.0000 10.8011
# 5 -1.9111 3.8711 3.5942 0.0000 56.9015 0.0000
# 6 0.0000 0.0000 0.0000 10.8011 0.0000 28.7656
#
#
#
# Elastic Compliance Matrix: (Units=1/GPa)
#
#
# Indices 1 2 3 4 5 6 
#
# 1 0.009369 -0.002722 -0.003291 0.000000 0.000708 0.000000
# 2 -0.002722 0.019010 -0.002765 0.000000 -0.001210 0.000000
# 3 -0.003291 -0.002765 0.008235 0.000000 -0.000443 0.000000
# 4 0.000000 0.000000 0.000000 0.061348 0.000000 -0.023035
# 5 0.000708 -0.001210 -0.000443 0.000000 0.017708 0.000000
# 6 0.000000 0.000000 0.000000 -0.023035 0.000000 0.043413
#
#
# Mechanical properties :
#
#
# Convention : Reuss Voigt Hill
#
# Bulk Modulus (GPa) = 52.47165 67.93199 60.20182
# Shear Modulus (GPa) = 27.32371 36.66042 31.99207
#
# Velocity S-wave (km/s) = 3.56419 4.12848 3.85667
# Velocity P-wave (km/s) = 6.42910 7.36946 6.91528
#
# Compressibility (1/GPa) = 0.01905791
#
# Stress axis : x y z
#
# Youngs Moduli (GPa) = 106.73115 52.60446 121.43958
#
# Poissons Ratio (x) = 0.14320 0.39968
# Poissons Ratio (y) = 0.29054 0.33573
# Poissons Ratio (z) = 0.35127 0.14543
#
# Static dielectric constant tensor:
#      x y z
#    x 4.225420 0.000000 0.228070 
#    y 0.000000 3.470260 0.000000 
#    z 0.228070 0.000000 4.255700 
# 
# 
# High freq. dielectric constant tensor:
#      x y z
#    x 1.865600 0.000000 0.005400 
#    y 0.000000 1.802890 0.000000 
#    z 0.005400 0.000000 1.866390 
# 
# From -- ./inp_files/32637.got.cif
#   From: 2010.03.12/outbox.cif.g09.slc.cpg/sg14_17_cif.got.tgz:32637.got - 2010.03.31 13:35:05.
