data_PCOD8126630
_publ_section_title
;
Structure prediction by ZEFSAII (Michael W. Deem and Ramdas Pophale) SiO2 
 PCOD8126630
Probable space group: P 21/C
;
_chemical_formula_sum "Si O2"
_cell_formula_units_Z 32
_cell_length_a 12.232576
_cell_length_b 18.283704
_cell_length_c 14.633760
_cell_angle_alpha 90.000000
_cell_angle_beta 152.318131
_cell_angle_gamma 90.000000
_cell_volume 1520.483001
_symmetry_space_group_name_H-M "P 21/C"
_symmetry_group_IT_number 14
_symmetry_cell_setting 'monoclinic'
loop_
_space_group_symop_operation_xyz
x,y,z
-x,1/2+y,1/2-z
-x,-y,-z
x,1/2-y,1/2+z
loop_
_atom_site_type_symbol
_atom_site_label
_atom_site_fract_x
_atom_site_fract_y
_atom_site_fract_z
Si Si1 0.778791 0.032630 0.433931
Si Si2 0.742478 0.459206 0.701128
Si Si3 0.963030 0.320912 0.414578
Si Si4 0.494918 0.151343 0.328291
Si Si5 0.458464 0.584914 0.945426
Si Si6 0.057558 0.685896 0.216314
Si Si7 0.804843 0.213545 0.991061
Si Si8 0.400223 0.113662 0.645531
O O1 0.770746 0.066351 0.327111
O O2 0.645212 0.082668 0.406503
O O3 0.632861 0.958337 0.319650
O O4 0.045064 0.015574 0.665875
O O5 0.500000 0.500000 0.500000
O O6 0.760992 0.382207 0.660857
O O7 0.807814 0.394576 0.285180
O O8 0.856063 0.261419 0.264841
O O9 0.946447 0.279582 0.500981
O O10 0.231428 0.344136 0.592594
O O11 0.471321 0.139358 0.419883
O O12 0.636837 0.220270 0.395875
O O13 0.623803 0.600052 0.980989
O O14 0.500000 0.500000 0.000000
O O15 0.017740 0.699396 0.294687
O O16 0.809060 0.669253 0.984569
O O17 0.647642 0.142439 0.861000
#
# Coordination Sequence:
#
# PCOD8126630 Si02
#       8
#     4   4   4   4   4   4   4   4
#     4  10  22  40  63  93 130 167 214 275 325 392
#     4  10  22  41  64  96 126 169 222 269 338 395
#     4  11  25  42  66 100 129 175 229 269 335 406
#     4  12  23  43  66  98 133 174 221 277 333 397
#     4  11  23  43  65  95 133 174 218 273 333 404
#     4  11  21  42  64  90 129 170 215 272 333 399
#     4  11  23  41  65  93 128 174 218 270 334 384
#     4  10  21  41  65  88 131 168 211 267 331 393
#
# _framework density 21.045943999999999
#
# number of rings (size 3 to 8) (size 9 to 14) (size 15 to 20)
#    0.000    1.250    3.750    2.250    0.000    1.500 
#    4.500    0.000    0.000    0.000    0.000    0.000 
#    0.000    0.000    0.000    0.000    0.000    0.000 
#
# Total GULP energy -396591.880702 kJ/mol
# GULP energy per Si atom -12393.496272 kJ/mol
# Density = 2.099804 g / cm^3
# Si number density = 21.045944 Si / 1000 Ang^3
#
#
#
# Elastic Constant Matrix: (Units=GPa)
#
#
# Indices 1 2 3 4 5 6 
#
# 1 88.2212 27.4757 21.8270 0.0000 -7.9485 0.0000
# 2 27.4757 88.3535 39.0507 0.0000 1.5375 0.0000
# 3 21.8270 39.0507 81.5771 0.0000 6.4943 0.0000
# 4 0.0000 0.0000 0.0000 27.6411 0.0000 -0.8240
# 5 -7.9485 1.5375 6.4943 0.0000 37.5500 0.0000
# 6 0.0000 0.0000 0.0000 -0.8240 0.0000 36.9309
#
#
#
# Elastic Compliance Matrix: (Units=1/GPa)
#
#
# Indices 1 2 3 4 5 6 
#
# 1 0.013179 -0.003147 -0.002284 0.000000 0.003313 0.000000
# 2 -0.003147 0.015120 -0.006382 0.000000 -0.000181 0.000000
# 3 -0.002284 -0.006382 0.016165 0.000000 -0.003018 0.000000
# 4 0.000000 0.000000 0.000000 0.036202 0.000000 0.000808
# 5 0.003313 -0.000181 -0.003018 0.000000 0.027862 0.000000
# 6 0.000000 0.000000 0.000000 0.000808 0.000000 0.027096
#
#
# Mechanical properties :
#
#
# Convention : Reuss Voigt Hill
#
# Bulk Modulus (GPa) = 47.98534 48.31762 48.15148
# Shear Modulus (GPa) = 30.08538 31.74431 30.91484
#
# Velocity S-wave (km/s) = 3.78499 3.88794 3.83681
# Velocity P-wave (km/s) = 6.47698 6.56984 6.52357
#
# Compressibility (1/GPa) = 0.02083970
#
# Stress axis : x y z
#
# Youngs Moduli (GPa) = 75.88033 66.13555 61.86376
#
# Poissons Ratio (x) = 0.20810 0.14128
# Poissons Ratio (y) = 0.23876 0.39480
# Poissons Ratio (z) = 0.17328 0.42206
#
# Static dielectric constant tensor:
#      x y z
#    x 4.048410 0.000000 -0.030240 
#    y 0.000000 1.239470 0.000000 
#    z -0.030240 0.000000 3.740180 
# 
# 
# High freq. dielectric constant tensor:
#      x y z
#    x 1.837290 0.000000 -0.001080 
#    y 0.000000 1.824190 0.000000 
#    z -0.001080 0.000000 1.816190 
# 
# From -- ./inp_files/45466.got.cif
#   From: 2010.03.12/outbox.cif.g09.slc.cpg/sg14_23_cif.got.tgz:45466.got - 2010.03.31 13:35:05.
