data_PCOD8126886
_publ_section_title
;
Structure prediction by ZEFSAII (Michael W. Deem and Ramdas Pophale) SiO2 
 PCOD8126886
Probable space group: P 21/C
;
_chemical_formula_sum "Si O2"
_cell_formula_units_Z 28
_cell_length_a 21.859595
_cell_length_b 11.998464
_cell_length_c 26.871416
_cell_angle_alpha 90.000000
_cell_angle_beta 168.930573
_cell_angle_gamma 90.000000
_cell_volume 1353.180558
_symmetry_space_group_name_H-M "P 21/C"
_symmetry_group_IT_number 14
_symmetry_cell_setting 'monoclinic'
loop_
_space_group_symop_operation_xyz
x,y,z
-x,1/2+y,1/2-z
-x,-y,-z
x,1/2-y,1/2+z
loop_
_atom_site_type_symbol
_atom_site_label
_atom_site_fract_x
_atom_site_fract_y
_atom_site_fract_z
Si Si1 0.903873 0.521867 0.867584
Si Si2 0.338589 0.668378 0.150334
Si Si3 0.296775 0.021787 0.130777
Si Si4 0.206166 0.154312 0.446207
Si Si5 0.330083 0.891176 0.344187
Si Si6 0.064682 0.349046 0.724066
Si Si7 0.709453 0.340181 0.637599
O O1 0.803066 0.404481 0.762901
O O2 0.626191 0.612982 0.648581
O O3 0.000000 0.500000 0.000000
O O4 0.200062 0.569190 0.072867
O O5 0.519202 0.624302 0.246259
O O6 0.589469 0.734090 0.384555
O O7 0.052469 0.743284 0.900788
O O8 0.546726 0.948065 0.360674
O O9 0.033986 0.073294 0.959424
O O10 0.118271 0.956234 0.943616
O O11 0.997126 0.160991 0.228959
O O12 0.971884 0.135017 0.305212
O O13 0.548108 0.852842 0.471906
O O14 0.318231 0.791894 0.375408
O O15 0.500000 0.000000 0.500000
#
# Coordination Sequence:
#
# PCOD8126886 Si02
#       7
#     4   4   4   4   4   4   4
#     4  11  26  41  68  94 132 174 214 266 325 389
#     4  11  22  41  61  94 130 161 213 273 315 382
#     4  10  22  42  63  89 129 166 211 271 313 384
#     4  11  24  39  65  94 127 169 210 265 330 383
#     4  10  21  44  66  88 130 171 208 267 322 372
#     4  10  24  41  63  91 129 168 212 266 327 388
#     4  11  23  44  63  98 133 167 214 272 321 385
#
# _framework density 20.691991000000002
#
# number of rings (size 3 to 8) (size 9 to 14) (size 15 to 20)
#    0.000    1.429    4.286    0.000    4.000    1.714 
#    0.000    0.000    0.000    0.000    0.000    0.000 
#    0.000    0.000    0.000    0.000    0.000    0.000 
#
# Total GULP energy -347178.943848 kJ/mol
# GULP energy per Si atom -12399.247995 kJ/mol
# Density = 2.064490 g / cm^3
# Si number density = 20.691991 Si / 1000 Ang^3
#
#
#
# Elastic Constant Matrix: (Units=GPa)
#
#
# Indices 1 2 3 4 5 6 
#
# 1 80.2306 10.3675 25.5669 0.0000 -5.3871 0.0000
# 2 10.3675 88.4367 16.2706 0.0000 6.9757 0.0000
# 3 25.5669 16.2706 75.8262 0.0000 17.6323 0.0000
# 4 0.0000 0.0000 0.0000 28.4154 0.0000 12.5240
# 5 -5.3871 6.9757 17.6323 0.0000 40.3664 0.0000
# 6 0.0000 0.0000 0.0000 12.5240 0.0000 24.6823
#
#
#
# Elastic Compliance Matrix: (Units=1/GPa)
#
#
# Indices 1 2 3 4 5 6 
#
# 1 0.014780 -0.001026 -0.005858 0.000000 0.004709 0.000000
# 2 -0.001026 0.011883 -0.001886 0.000000 -0.001367 0.000000
# 3 -0.005858 -0.001886 0.017446 0.000000 -0.008076 0.000000
# 4 0.000000 0.000000 0.000000 0.045330 0.000000 -0.023001
# 5 0.004709 -0.001367 -0.008076 0.000000 0.029165 0.000000
# 6 0.000000 0.000000 0.000000 -0.023001 0.000000 0.052185
#
#
# Mechanical properties :
#
#
# Convention : Reuss Voigt Hill
#
# Bulk Modulus (GPa) = 37.63968 38.76708 38.20338
# Shear Modulus (GPa) = 25.35688 31.51207 28.43448
#
# Velocity S-wave (km/s) = 3.50443 3.90668 3.71101
# Velocity P-wave (km/s) = 5.88257 6.25504 6.07166
#
# Compressibility (1/GPa) = 0.02656771
#
# Stress axis : x y z
#
# Youngs Moduli (GPa) = 67.66082 84.15670 57.31980
#
# Poissons Ratio (x) = 0.08637 0.33578
# Poissons Ratio (y) = 0.06944 0.10810
# Poissons Ratio (z) = 0.39636 0.15871
#
# Static dielectric constant tensor:
#      x y z
#    x 3.479720 0.000000 0.360540 
#    y 0.000000 4.080700 0.000000 
#    z 0.360540 0.000000 4.052750 
# 
# 
# High freq. dielectric constant tensor:
#      x y z
#    x 1.789990 0.000000 0.023530 
#    y 0.000000 1.821210 0.000000 
#    z 0.023530 0.000000 1.821260 
# 
# From -- ./inp_files/61258.got.cif
#   From: 2010.03.12/outbox.cif.g09.slc.cpg/sg14_31_cif.got.tgz:61258.got - 2010.03.31 13:35:05.
