data_PCOD8126864
_publ_section_title
;
Structure prediction by ZEFSAII (Michael W. Deem and Ramdas Pophale) SiO2 
 PCOD8126864
Probable space group: P 21/C
;
_chemical_formula_sum "Si O2"
_cell_formula_units_Z 32
_cell_length_a 24.564416
_cell_length_b 9.222021
_cell_length_c 14.898030
_cell_angle_alpha 90.000000
_cell_angle_beta 154.017419
_cell_angle_gamma 90.000000
_cell_volume 1478.538176
_symmetry_space_group_name_H-M "P 21/C"
_symmetry_group_IT_number 14
_symmetry_cell_setting 'monoclinic'
loop_
_space_group_symop_operation_xyz
x,y,z
-x,1/2+y,1/2-z
-x,-y,-z
x,1/2-y,1/2+z
loop_
_atom_site_type_symbol
_atom_site_label
_atom_site_fract_x
_atom_site_fract_y
_atom_site_fract_z
Si Si1 0.126587 0.438121 0.293197
Si Si2 0.762068 0.386491 0.089893
Si Si3 0.990840 0.776410 0.539629
Si Si4 0.626608 0.483387 0.058169
Si Si5 0.373473 0.595303 0.612729
Si Si6 0.690912 0.552169 0.820577
Si Si7 0.433938 0.845412 0.002798
Si Si8 0.817360 0.822812 0.934765
O O1 0.086961 0.312512 0.164923
O O2 0.268448 0.479295 0.482506
O O3 0.112274 0.375770 0.371837
O O4 0.035513 0.575224 0.152320
O O5 0.705452 0.485780 0.083758
O O6 0.891847 0.320373 0.315941
O O7 0.666029 0.258515 0.922346
O O8 0.780381 0.484789 0.029149
O O9 0.911400 0.680923 0.490874
O O10 0.703042 0.569015 0.246820
O O11 0.496078 0.563715 0.851536
O O12 0.604695 0.321224 0.059184
O O13 0.399232 0.579759 0.545219
O O14 0.641975 0.422780 0.687355
O O15 0.580532 0.639479 0.705436
O O16 0.768794 0.660083 0.874741
#
# Coordination Sequence:
#
# PCOD8126864 Si02
#       8
#     4   4   4   4   4   4   4   4
#     4  10  24  46  69  99 134 185 231 280 351 405
#     4  10  24  44  68  96 137 183 227 285 338 408
#     4  10  25  47  69  96 139 185 231 287 337 409
#     4  11  25  42  70 105 133 178 225 284 351 407
#     4  10  21  43  69  98 140 179 224 281 347 413
#     4  11  24  41  63 103 135 180 226 277 345 411
#     4  10  23  40  66  97 144 180 216 278 347 417
#     4  12  28  41  72 102 134 181 230 290 337 416
#
# _framework density 21.642999
#
# number of rings (size 3 to 8) (size 9 to 14) (size 15 to 20)
#    0.000    1.500    1.250    1.500   10.500    5.500 
#    0.000    0.000    0.000    0.000    0.000    0.000 
#    0.000    0.000    0.000    0.000    0.000    0.000 
#
# Total GULP energy -397022.755014 kJ/mol
# GULP energy per Si atom -12406.961094 kJ/mol
# Density = 2.159374 g / cm^3
# Si number density = 21.642999 Si / 1000 Ang^3
#
#
#
# Elastic Constant Matrix: (Units=GPa)
#
#
# Indices 1 2 3 4 5 6 
#
# 1 67.8166 27.6953 41.7142 0.0000 -6.7484 0.0000
# 2 27.6953 75.5170 43.8195 0.0000 -8.7975 0.0000
# 3 41.7142 43.8195 123.0957 0.0000 -14.1327 0.0000
# 4 0.0000 0.0000 0.0000 27.1525 0.0000 -2.7658
# 5 -6.7484 -8.7975 -14.1327 0.0000 35.5569 0.0000
# 6 0.0000 0.0000 0.0000 -2.7658 0.0000 38.3946
#
#
#
# Elastic Compliance Matrix: (Units=1/GPa)
#
#
# Indices 1 2 3 4 5 6 
#
# 1 0.019651 -0.004171 -0.005098 0.000000 0.000672 0.000000
# 2 -0.004171 0.017692 -0.004687 0.000000 0.001723 0.000000
# 3 -0.005098 -0.004687 0.011815 0.000000 0.002569 0.000000
# 4 0.000000 0.000000 0.000000 0.037101 0.000000 0.002673
# 5 0.000672 0.001723 0.002569 0.000000 0.029699 0.000000
# 6 0.000000 0.000000 0.000000 0.002673 0.000000 0.026238
#
#
# Mechanical properties :
#
#
# Convention : Reuss Voigt Hill
#
# Bulk Modulus (GPa) = 47.06432 54.76524 50.91478
# Shear Modulus (GPa) = 28.21857 30.43414 29.32635
#
# Velocity S-wave (km/s) = 3.61476 3.75399 3.68503
# Velocity P-wave (km/s) = 6.26218 6.64445 6.45615
#
# Compressibility (1/GPa) = 0.02124752
#
# Stress axis : x y z
#
# Youngs Moduli (GPa) = 50.88728 56.52293 84.64171
#
# Poissons Ratio (x) = 0.23575 0.43146
# Poissons Ratio (y) = 0.21224 0.39669
# Poissons Ratio (z) = 0.25940 0.26491
#
# Static dielectric constant tensor:
#      x y z
#    x 3.889890 0.000000 0.029400 
#    y 0.000000 3.860460 0.000000 
#    z 0.029400 0.000000 3.876760 
# 
# 
# High freq. dielectric constant tensor:
#      x y z
#    x 1.855180 0.000000 -0.001700 
#    y 0.000000 1.855160 0.000000 
#    z -0.001700 0.000000 1.852710 
# 
# From -- ./inp_files/51281.got.cif
#   From: 2010.03.12/outbox.cif.g09.slc.cpg/sg14_26_cif.got.tgz:51281.got - 2010.03.31 13:35:05.
