data_PCOD8126603
_publ_section_title
;
Structure prediction by ZEFSAII (Michael W. Deem and Ramdas Pophale) SiO2 
 PCOD8126603
Probable space group: P 21/C
;
_chemical_formula_sum "Si O2"
_cell_formula_units_Z 24
_cell_length_a 9.753186
_cell_length_b 4.948525
_cell_length_c 22.233141
_cell_angle_alpha 90.000000
_cell_angle_beta 76.584719
_cell_angle_gamma 90.000000
_cell_volume 1043.778339
_symmetry_space_group_name_H-M "P 21/C"
_symmetry_group_IT_number 14
_symmetry_cell_setting 'monoclinic'
loop_
_space_group_symop_operation_xyz
x,y,z
-x,1/2+y,1/2-z
-x,-y,-z
x,1/2-y,1/2+z
loop_
_atom_site_type_symbol
_atom_site_label
_atom_site_fract_x
_atom_site_fract_y
_atom_site_fract_z
Si Si1 0.910969 0.486989 0.764483
Si Si2 0.710633 0.229240 0.700690
Si Si3 0.123060 0.761205 0.546714
Si Si4 0.309303 0.902078 0.626296
Si Si5 0.584257 0.920147 0.818476
Si Si6 0.064453 0.727853 0.421684
O O1 0.777308 0.474448 0.732860
O O2 0.852082 0.369645 0.833178
O O3 0.961244 0.793267 0.768579
O O4 0.571208 0.339249 0.684150
O O5 0.826010 0.156543 0.638747
O O6 0.677323 0.973283 0.748156
O O7 0.279748 0.815459 0.560124
O O8 0.148992 0.664473 0.475159
O O9 0.022559 0.539191 0.590184
O O10 0.050380 0.048973 0.553851
O O11 0.423173 0.702971 0.644789
O O12 0.352351 0.206396 0.640327
#
# Coordination Sequence:
#
# PCOD8126603 Si02
#       6
#     4   4   4   4   4   4
#     4  11  21  32  54  83 109 145 188 242 302 348
#     4  11  23  42  59  88 123 158 206 248 300 373
#     4  10  21  41  63  95 124 158 207 255 310 370
#     4  11  22  39  57  84 122 157 198 251 298 356
#     4  11  25  38  60  84 119 166 200 245 300 356
#     4  10  22  38  67  92 123 164 201 257 314 361
#
# _framework density 22.993387999999999
#
# number of rings (size 3 to 8) (size 9 to 14) (size 15 to 20)
#    0.000    1.333    0.000    7.000    0.000    6.667 
#    0.000    1.667    0.000    0.000    0.000    0.000 
#    0.000    0.000    0.000    0.000    0.000    0.000 
#
# Total GULP energy -297357.398530 kJ/mol
# GULP energy per Si atom -12389.891605 kJ/mol
# Density = 2.294105 g / cm^3
# Si number density = 22.993388 Si / 1000 Ang^3
#
#
#
# Elastic Constant Matrix: (Units=GPa)
#
#
# Indices 1 2 3 4 5 6 
#
# 1 85.7240 14.9473 12.2270 0.0000 25.5644 0.0000
# 2 14.9473 95.3690 -0.0222 0.0000 9.8612 0.0000
# 3 12.2270 -0.0222 54.1980 0.0000 14.1245 0.0000
# 4 0.0000 0.0000 0.0000 24.2335 0.0000 5.9587
# 5 25.5644 9.8612 14.1245 0.0000 31.4600 0.0000
# 6 0.0000 0.0000 0.0000 5.9587 0.0000 25.7341
#
#
#
# Elastic Compliance Matrix: (Units=1/GPa)
#
#
# Indices 1 2 3 4 5 6 
#
# 1 0.015527 -0.001184 -0.000353 0.000000 -0.012088 0.000000
# 2 -0.001184 0.010976 0.001039 0.000000 -0.002945 0.000000
# 3 -0.000353 0.001039 0.020998 0.000000 -0.009466 0.000000
# 4 0.000000 0.000000 0.000000 0.043757 0.000000 -0.010132
# 5 -0.012088 -0.002945 -0.009466 0.000000 0.046782 0.000000
# 6 0.000000 0.000000 0.000000 -0.010132 0.000000 0.041205
#
#
# Mechanical properties :
#
#
# Convention : Reuss Voigt Hill
#
# Bulk Modulus (GPa) = 21.50317 32.17725 26.84021
# Shear Modulus (GPa) = 25.54390 30.16143 27.85267
#
# Velocity S-wave (km/s) = 3.33667 3.62573 3.48420
# Velocity P-wave (km/s) = 4.92104 5.61715 5.28058
#
# Compressibility (1/GPa) = 0.04650477
#
# Stress axis : x y z
#
# Youngs Moduli (GPa) = 64.40456 91.10894 47.62374
#
# Poissons Ratio (x) = 0.10785 0.01682
# Poissons Ratio (y) = 0.07624 -0.04948
# Poissons Ratio (z) = 0.02275 -0.09466
#
# Static dielectric constant tensor:
#      x y z
#    x 4.048650 0.000000 0.337680 
#    y 0.000000 4.059120 0.000000 
#    z 0.337680 0.000000 4.572040 
# 
# 
# High freq. dielectric constant tensor:
#      x y z
#    x 1.894380 0.000000 0.035830 
#    y 0.000000 1.916420 0.000000 
#    z 0.035830 0.000000 1.895780 
# 
# From -- ./inp_files/75888.got.cif
#   From: 2010.03.12/outbox.cif.g09.slc.cpg/sg14_38_cif.got.tgz:75888.got - 2010.03.31 13:35:05.
