data_PCOD8126661
_publ_section_title
;
Structure prediction by ZEFSAII (Michael W. Deem and Ramdas Pophale) SiO2 
 PCOD8126661
Probable space group: P 21/C
;
_chemical_formula_sum "Si O2"
_cell_formula_units_Z 32
_cell_length_a 24.389292
_cell_length_b 5.383038
_cell_length_c 13.027846
_cell_angle_alpha 90.000000
_cell_angle_beta 63.772027
_cell_angle_gamma 90.000000
_cell_volume 1534.307389
_symmetry_space_group_name_H-M "P 21/C"
_symmetry_group_IT_number 14
_symmetry_cell_setting 'monoclinic'
loop_
_space_group_symop_operation_xyz
x,y,z
-x,1/2+y,1/2-z
-x,-y,-z
x,1/2-y,1/2+z
loop_
_atom_site_type_symbol
_atom_site_label
_atom_site_fract_x
_atom_site_fract_y
_atom_site_fract_z
Si Si1 0.522563 0.858493 0.578592
Si Si2 0.213398 0.542056 0.143388
Si Si3 0.635784 0.929030 0.023519
Si Si4 0.742771 0.974694 0.795754
Si Si5 0.573166 0.325003 0.208367
Si Si6 0.981357 0.504548 0.133082
Si Si7 0.298503 0.443458 0.895087
Si Si8 0.926366 0.005645 0.262571
O O1 0.590413 0.755728 0.499614
O O2 0.463609 0.690489 0.654147
O O3 0.500000 0.000000 0.500000
O O4 0.528317 0.009867 0.678307
O O5 0.231425 0.282515 0.181175
O O6 0.145441 0.510486 0.156909
O O7 0.215586 0.780958 0.217943
O O8 0.258052 0.598950 0.010154
O O9 0.683278 0.816014 0.067092
O O10 0.587114 0.090460 0.125135
O O11 0.677038 0.048918 0.899949
O O12 0.739550 0.918033 0.677558
O O13 0.638894 0.424838 0.185190
O O14 0.943644 0.253348 0.185486
O O15 0.041872 0.505454 0.152777
O O16 0.942752 0.754994 0.186424
O O17 0.000000 0.500000 0.000000
#
# Coordination Sequence:
#
# PCOD8126661 Si02
#       8
#     4   4   4   4   4   4   4   4
#     4  11  25  37  61  87 117 157 204 265 329 392
#     4  11  24  43  62 100 128 165 221 263 306 375
#     4  10  23  42  57  87 121 156 208 266 319 390
#     4  11  25  42  67  89 127 171 216 259 327 379
#     4  11  22  41  57  86 118 151 208 258 319 388
#     4  10  21  41  66  98 133 178 210 254 317 370
#     4  10  25  41  64  85 121 169 204 267 318 379
#     4  10  22  39  65  96 137 168 213 267 305 364
#
# _framework density 20.856317000000001
#
# number of rings (size 3 to 8) (size 9 to 14) (size 15 to 20)
#    0.000    1.500    2.500    1.125    5.250    2.500 
#    0.000    0.000    0.000    0.000    0.000    0.000 
#    0.000    0.000    0.000    0.000    0.000    0.000 
#
# Total GULP energy -396491.661185 kJ/mol
# GULP energy per Si atom -12390.364412 kJ/mol
# Density = 2.080885 g / cm^3
# Si number density = 20.856317 Si / 1000 Ang^3
#
#
#
# Elastic Constant Matrix: (Units=GPa)
#
#
# Indices 1 2 3 4 5 6 
#
# 1 81.4677 22.5643 43.4933 0.0000 18.5099 0.0000
# 2 22.5643 110.2055 22.7086 0.0000 6.1331 0.0000
# 3 43.4933 22.7086 82.7395 0.0000 4.9119 0.0000
# 4 0.0000 0.0000 0.0000 7.7251 0.0000 -36.0781
# 5 18.5099 6.1331 4.9119 0.0000 5.6648 0.0000
# 6 0.0000 0.0000 0.0000 -36.0781 0.0000 -35.1615
#
#
#
# Elastic Compliance Matrix: (Units=1/GPa)
#
#
# Indices 1 2 3 4 5 6 
#
# 1 0.088795 0.003168 -0.031752 0.000000 -0.266040 0.000000
# 2 0.003168 0.010142 -0.003355 0.000000 -0.018422 0.000000
# 3 -0.031752 -0.003355 0.024589 0.000000 0.086064 0.000000
# 4 0.000000 0.000000 0.000000 0.022350 0.000000 -0.022932
# 5 -0.266040 -0.018422 0.086064 0.000000 0.991149 0.000000
# 6 0.000000 0.000000 0.000000 -0.022932 0.000000 -0.004910
#
#
# Mechanical properties :
#
#
# Convention : Reuss Voigt Hill
#
# Bulk Modulus (GPa) = 16.76545 50.21611 33.49078
# Shear Modulus (GPa) = 4.11226 8.02211 6.06719
#
# Velocity S-wave (km/s) = 1.40570 1.96334 1.70744
# Velocity P-wave (km/s) = 3.26966 5.41009 4.46988
#
# Compressibility (1/GPa) = 0.05964649
#
# Stress axis : x y z
#
# Youngs Moduli (GPa) = 11.26193 98.60054 40.66896
#
# Poissons Ratio (x) = -0.31235 1.29133
# Poissons Ratio (y) = -0.03568 0.13645
# Poissons Ratio (z) = 0.35759 0.33082
#
# Static dielectric constant tensor:
#      x y z
#    x 3.764100 0.000000 -0.081260 
#    y 0.000000 4.004640 0.000000 
#    z -0.081260 0.000000 3.581950 
# 
# 
# High freq. dielectric constant tensor:
#      x y z
#    x 1.822520 0.000000 -0.003080 
#    y 0.000000 1.819900 0.000000 
#    z -0.003080 0.000000 1.813650 
# 
# From -- ./inp_files/34728.got.cif
#   From: 2010.03.12/outbox.cif.g09.slc.cpg/sg14_18_cif.got.tgz:34728.got - 2010.03.31 13:35:05.
