data_PCOD8126233
_publ_section_title
;
Structure prediction by ZEFSAII (Michael W. Deem and Ramdas Pophale) SiO2 
 PCOD8126233
Probable space group: P 21/C
;
_chemical_formula_sum "Si O2"
_cell_formula_units_Z 32
_cell_length_a 8.134175
_cell_length_b 13.617697
_cell_length_c 26.318803
_cell_angle_alpha 90.000000
_cell_angle_beta 148.843417
_cell_angle_gamma 90.000000
_cell_volume 1508.314305
_symmetry_space_group_name_H-M "P 21/C"
_symmetry_group_IT_number 14
_symmetry_cell_setting 'monoclinic'
loop_
_space_group_symop_operation_xyz
x,y,z
-x,1/2+y,1/2-z
-x,-y,-z
x,1/2-y,1/2+z
loop_
_atom_site_type_symbol
_atom_site_label
_atom_site_fract_x
_atom_site_fract_y
_atom_site_fract_z
Si Si1 0.425753 0.852035 0.502365
Si Si2 0.166885 0.238477 0.142366
Si Si3 0.477654 0.610945 0.830687
Si Si4 0.241878 0.895910 0.029573
Si Si5 0.119825 0.570653 0.605525
Si Si6 0.850691 0.821426 0.134308
Si Si7 0.523918 0.063580 0.278629
Si Si8 0.242521 0.044738 0.495049
O O1 0.744841 0.792545 0.602337
O O2 0.479894 0.914918 0.466753
O O3 0.148329 0.776764 0.412808
O O4 0.304334 0.926454 0.515130
O O5 0.361172 0.332030 0.173726
O O6 0.378991 0.173648 0.237504
O O7 0.049228 0.173487 0.064145
O O8 0.402577 0.497558 0.795533
O O9 0.144283 0.667393 0.751812
O O10 0.717617 0.602205 0.941304
O O11 0.279380 0.871916 0.099876
O O12 0.560406 0.879714 0.081800
O O13 0.163943 0.008600 0.995420
O O14 0.400648 0.499064 0.698276
O O15 0.966706 0.637964 0.609605
O O16 0.903997 0.069630 0.380968
#
# Coordination Sequence:
#
# PCOD8126233 Si02
#       8
#     4   4   4   4   4   4   4   4
#     4  10  23  41  62  90 128 169 214 266 327 385
#     4  10  21  41  63  94 126 168 219 265 325 394
#     4  11  23  41  62  95 126 168 221 265 324 392
#     4   9  19  36  62  94 126 163 214 263 319 391
#     4   9  19  36  64  94 126 168 204 266 327 378
#     4  10  21  39  60  91 128 164 209 271 315 381
#     4  10  21  40  67  91 130 169 211 267 331 386
#     4  11  23  42  63  89 128 174 210 268 324 389
#
# _framework density 21.215738999999999
#
# number of rings (size 3 to 8) (size 9 to 14) (size 15 to 20)
#    0.000    2.000    1.250    1.500    1.750    3.000 
#    2.250    1.250    0.000    0.000    0.000    0.000 
#    0.000    0.000    0.000    0.000    0.000    0.000 
#
# Total GULP energy -396420.331898 kJ/mol
# GULP energy per Si atom -12388.135372 kJ/mol
# Density = 2.116745 g / cm^3
# Si number density = 21.215739 Si / 1000 Ang^3
#
#
#
# Elastic Constant Matrix: (Units=GPa)
#
#
# Indices 1 2 3 4 5 6 
#
# 1 91.0541 35.7030 46.2792 0.0000 4.5520 0.0000
# 2 35.7030 108.4592 49.4068 0.0000 10.1905 0.0000
# 3 46.2792 49.4068 123.9732 0.0000 10.9928 0.0000
# 4 0.0000 0.0000 0.0000 34.1579 0.0000 7.3295
# 5 4.5520 10.1905 10.9928 0.0000 24.5066 0.0000
# 6 0.0000 0.0000 0.0000 7.3295 0.0000 28.3506
#
#
#
# Elastic Compliance Matrix: (Units=1/GPa)
#
#
# Indices 1 2 3 4 5 6 
#
# 1 0.014204 -0.002789 -0.004228 0.000000 0.000418 0.000000
# 2 -0.002789 0.011998 -0.003482 0.000000 -0.002909 0.000000
# 3 -0.004228 -0.003482 0.011283 0.000000 -0.002828 0.000000
# 4 0.000000 0.000000 0.000000 0.030995 0.000000 -0.008013
# 5 0.000418 -0.002909 -0.002828 0.000000 0.043206 0.000000
# 6 0.000000 0.000000 0.000000 -0.008013 0.000000 0.037344
#
#
# Mechanical properties :
#
#
# Convention : Reuss Voigt Hill
#
# Bulk Modulus (GPa) = 60.65644 65.14049 62.89847
# Shear Modulus (GPa) = 28.48607 30.20953 29.34780
#
# Velocity S-wave (km/s) = 3.66824 3.77758 3.72331
# Velocity P-wave (km/s) = 6.82596 7.05672 6.94230
#
# Compressibility (1/GPa) = 0.01648630
#
# Stress axis : x y z
#
# Youngs Moduli (GPa) = 70.40225 83.34842 88.62804
#
# Poissons Ratio (x) = 0.23246 0.37471
# Poissons Ratio (y) = 0.19636 0.30864
# Poissons Ratio (z) = 0.29766 0.29025
#
# Static dielectric constant tensor:
#      x y z
#    x 3.679490 0.000000 0.054640 
#    y 0.000000 4.103780 0.000000 
#    z 0.054640 0.000000 3.954840 
# 
# 
# High freq. dielectric constant tensor:
#      x y z
#    x 1.814130 0.000000 0.013120 
#    y 0.000000 1.837410 0.000000 
#    z 0.013120 0.000000 1.832870 
# 
# From -- ./inp_files/76732.got.cif
#   From: 2010.03.12/outbox.cif.g09.slc.cpg/sg14_39_cif.got.tgz:76732.got - 2010.03.31 13:35:05.
