data_PCOD8126823
_publ_section_title
;
Structure prediction by ZEFSAII (Michael W. Deem and Ramdas Pophale) SiO2 
 PCOD8126823
Probable space group: P 21/C
;
_chemical_formula_sum "Si O2"
_cell_formula_units_Z 32
_cell_length_a 10.737790
_cell_length_b 13.420265
_cell_length_c 16.530139
_cell_angle_alpha 90.000000
_cell_angle_beta 34.647586
_cell_angle_gamma 90.000000
_cell_volume 1354.265277
_symmetry_space_group_name_H-M "P 21/C"
_symmetry_group_IT_number 14
_symmetry_cell_setting 'monoclinic'
loop_
_space_group_symop_operation_xyz
x,y,z
-x,1/2+y,1/2-z
-x,-y,-z
x,1/2-y,1/2+z
loop_
_atom_site_type_symbol
_atom_site_label
_atom_site_fract_x
_atom_site_fract_y
_atom_site_fract_z
Si Si1 0.825103 0.869183 0.509032
Si Si2 0.309803 0.633222 0.578115
Si Si3 0.021898 0.568996 0.349285
Si Si4 0.398525 0.306016 0.433754
Si Si5 0.316844 0.334283 0.742147
Si Si6 0.793459 0.260674 0.640885
Si Si7 0.978266 0.531715 0.197960
Si Si8 0.025413 0.338602 0.366319
O O1 0.747717 0.792840 0.480942
O O2 0.668431 0.870967 0.672261
O O3 0.061211 0.833344 0.411975
O O4 0.848538 0.973740 0.451080
O O5 0.440847 0.694907 0.575008
O O6 0.465052 0.624873 0.416705
O O7 0.239730 0.528856 0.656239
O O8 0.079284 0.680096 0.667752
O O9 0.761470 0.599445 0.492881
O O10 0.098219 0.572017 0.214472
O O11 0.053461 0.457245 0.366807
O O12 0.173916 0.645111 0.316550
O O13 0.549049 0.285364 0.274147
O O14 0.102282 0.378629 0.813710
O O15 0.259660 0.215858 0.759498
O O16 0.842945 0.296231 0.524852
#
# Coordination Sequence:
#
# PCOD8126823 Si02
#       8
#     4   4   4   4   4   4   4   4
#     4  10  23  40  62  91 130 161 208 259 324 368
#     4  11  23  37  65  92 123 158 216 253 309 373
#     4  10  23  38  67  93 126 165 216 257 317 380
#     4  11  22  39  65  93 122 168 205 262 314 378
#     4  11  23  41  64  91 127 168 209 263 314 376
#     4  10  21  43  63  91 128 168 205 262 321 372
#     4  11  22  39  63  97 121 166 211 263 315 376
#     4  10  24  40  64  95 127 167 213 259 314 378
#
# _framework density 23.629048000000001
#
# number of rings (size 3 to 8) (size 9 to 14) (size 15 to 20)
#    0.000    1.500    2.500    1.875    7.000    0.000 
#    0.000    1.875    0.000    0.000    0.000    0.000 
#    0.000    0.000    0.000    0.000    0.000    0.000 
#
# Total GULP energy -396452.264207 kJ/mol
# GULP energy per Si atom -12389.133256 kJ/mol
# Density = 2.357527 g / cm^3
# Si number density = 23.629048 Si / 1000 Ang^3
#
#
#
# Elastic Constant Matrix: (Units=GPa)
#
#
# Indices 1 2 3 4 5 6 
#
# 1 75.5781 21.6592 0.7521 0.0000 5.9413 0.0000
# 2 21.6592 50.7133 13.3169 0.0000 16.3407 0.0000
# 3 0.7521 13.3169 82.3728 0.0000 16.8902 0.0000
# 4 0.0000 0.0000 0.0000 28.4787 0.0000 9.3000
# 5 5.9413 16.3407 16.8902 0.0000 24.4075 0.0000
# 6 0.0000 0.0000 0.0000 9.3000 0.0000 28.1352
#
#
#
# Elastic Compliance Matrix: (Units=1/GPa)
#
#
# Indices 1 2 3 4 5 6 
#
# 1 0.015148 -0.006780 0.000913 0.000000 0.000220 0.000000
# 2 -0.006780 0.028214 -0.001124 0.000000 -0.016461 0.000000
# 3 0.000913 -0.001124 0.014223 0.000000 -0.009312 0.000000
# 4 0.000000 0.000000 0.000000 0.039363 0.000000 -0.013011
# 5 0.000220 -0.016461 -0.009312 0.000000 0.058382 0.000000
# 6 0.000000 0.000000 0.000000 -0.013011 0.000000 0.039843
#
#
# Mechanical properties :
#
#
# Convention : Reuss Voigt Hill
#
# Bulk Modulus (GPa) = 22.93541 31.12453 27.02997
# Shear Modulus (GPa) = 22.35244 27.73334 25.04289
#
# Velocity S-wave (km/s) = 3.07900 3.42964 3.25904
# Velocity P-wave (km/s) = 4.72947 5.37438 5.06221
#
# Compressibility (1/GPa) = 0.04360070
#
# Stress axis : x y z
#
# Youngs Moduli (GPa) = 66.01517 35.44399 70.31028
#
# Poissons Ratio (x) = 0.24032 -0.06417
# Poissons Ratio (y) = 0.44760 0.07904
# Poissons Ratio (z) = -0.06025 0.03984
#
# Static dielectric constant tensor:
#      x y z
#    x 4.367490 0.000000 0.281290 
#    y 0.000000 4.152810 0.000000 
#    z 0.281290 0.000000 4.259140 
# 
# 
# High freq. dielectric constant tensor:
#      x y z
#    x 1.941300 0.000000 0.014300 
#    y 0.000000 1.926520 0.000000 
#    z 0.014300 0.000000 1.923980 
# 
# From -- ./inp_files/57980.got.cif
#   From: 2010.03.12/outbox.cif.g09.slc.cpg/sg14_29_cif.got.tgz:57980.got - 2010.03.31 13:35:05.
