data_PCOD8126683
_publ_section_title
;
Structure prediction by ZEFSAII (Michael W. Deem and Ramdas Pophale) SiO2 
 PCOD8126683
Probable space group: P 21/C
;
_chemical_formula_sum "Si O2"
_cell_formula_units_Z 24
_cell_length_a 18.518629
_cell_length_b 12.373148
_cell_length_c 13.770127
_cell_angle_alpha 90.000000
_cell_angle_beta 20.293804
_cell_angle_gamma 90.000000
_cell_volume 1094.331579
_symmetry_space_group_name_H-M "P 21/C"
_symmetry_group_IT_number 14
_symmetry_cell_setting 'monoclinic'
loop_
_space_group_symop_operation_xyz
x,y,z
-x,1/2+y,1/2-z
-x,-y,-z
x,1/2-y,1/2+z
loop_
_atom_site_type_symbol
_atom_site_label
_atom_site_fract_x
_atom_site_fract_y
_atom_site_fract_z
Si Si1 0.614463 0.949504 0.641866
Si Si2 0.055183 0.742293 0.501778
Si Si3 0.740057 0.583964 0.475716
Si Si4 0.274338 0.134440 0.701324
Si Si5 0.067671 0.968863 0.095768
Si Si6 0.473415 0.253612 0.620549
O O1 0.593679 0.892281 0.561989
O O2 0.630355 0.862557 0.708436
O O3 0.833200 0.014342 0.372854
O O4 0.413620 0.026709 0.908443
O O5 0.070043 0.660070 0.574529
O O6 0.915382 0.845769 0.702583
O O7 0.950192 0.682001 0.543520
O O8 0.282394 0.778409 0.183694
O O9 0.860935 0.493049 0.385112
O O10 0.588138 0.654331 0.733882
O O11 0.398918 0.224773 0.605645
O O12 0.231303 0.025350 0.816059
#
# Coordination Sequence:
#
# PCOD8126683 Si02
#       6
#     4   4   4   4   4   4
#     4  11  22  41  65  95 133 167 212 266 319 380
#     4  11  22  41  65  96 130 166 215 265 320 380
#     4  11  23  41  66  96 130 169 213 263 322 379
#     4  10  21  41  68  96 124 164 223 270 309 372
#     4  10  21  41  68  97 123 165 225 271 309 371
#     4  11  23  41  66  96 128 169 212 263 321 380
#
# _framework density 21.931196
#
# number of rings (size 3 to 8) (size 9 to 14) (size 15 to 20)
#    0.000    1.333    3.333    5.000    0.000    6.000 
#    9.000    1.667    0.000    0.000    0.000    0.000 
#    0.000    0.000    0.000    0.000    0.000    0.000 
#
# Total GULP energy -297586.852291 kJ/mol
# GULP energy per Si atom -12399.452179 kJ/mol
# Density = 2.188128 g / cm^3
# Si number density = 21.931196 Si / 1000 Ang^3
#
#
#
# Elastic Constant Matrix: (Units=GPa)
#
#
# Indices 1 2 3 4 5 6 
#
# 1 36.4827 18.6441 19.4039 0.0000 -16.9614 0.0000
# 2 18.6441 78.0024 31.0357 0.0000 -8.2687 0.0000
# 3 19.4039 31.0357 114.0161 0.0000 -17.6158 0.0000
# 4 0.0000 0.0000 0.0000 35.5065 0.0000 -11.4533
# 5 -16.9614 -8.2687 -17.6158 0.0000 23.4078 0.0000
# 6 0.0000 0.0000 0.0000 -11.4533 0.0000 28.0536
#
#
#
# Elastic Compliance Matrix: (Units=1/GPa)
#
#
# Indices 1 2 3 4 5 6 
#
# 1 0.045465 -0.007263 -0.001207 0.000000 0.029470 0.000000
# 2 -0.007263 0.015659 -0.003378 0.000000 -0.002273 0.000000
# 3 -0.001207 -0.003378 0.010836 0.000000 0.006087 0.000000
# 4 0.000000 0.000000 0.000000 0.032435 0.000000 0.013242
# 5 0.029470 -0.002273 0.006087 0.000000 0.067852 0.000000
# 6 0.000000 0.000000 0.000000 0.013242 0.000000 0.041052
#
#
# Mechanical properties :
#
#
# Convention : Reuss Voigt Hill
#
# Bulk Modulus (GPa) = 20.71913 40.74097 30.73005
# Shear Modulus (GPa) = 19.75634 28.02141 23.88887
#
# Velocity S-wave (km/s) = 3.00464 3.57837 3.30398
# Velocity P-wave (km/s) = 4.63735 5.97411 5.34766
#
# Compressibility (1/GPa) = 0.04826458
#
# Stress axis : x y z
#
# Youngs Moduli (GPa) = 21.99502 63.86115 92.28507
#
# Poissons Ratio (x) = 0.46380 0.11143
# Poissons Ratio (y) = 0.15974 0.31170
# Poissons Ratio (z) = 0.02656 0.21570
#
# Static dielectric constant tensor:
#      x y z
#    x 3.976940 0.000000 -0.212110 
#    y 0.000000 3.833380 0.000000 
#    z -0.212110 0.000000 3.945990 
# 
# 
# High freq. dielectric constant tensor:
#      x y z
#    x 1.852930 0.000000 -0.020240 
#    y 0.000000 1.847450 0.000000 
#    z -0.020240 0.000000 1.867130 
# 
# From -- ./inp_files/50422.got.cif
#   From: 2010.03.12/outbox.cif.g09.slc.cpg/sg14_26_cif.got.tgz:50422.got - 2010.03.31 13:35:05.
