data_PCOD8126051
_publ_section_title
;
Structure prediction by ZEFSAII (Michael W. Deem and Ramdas Pophale) SiO2 
 PCOD8126051
Probable space group: P 21/C
;
_chemical_formula_sum "Si O2"
_cell_formula_units_Z 32
_cell_length_a 27.229107
_cell_length_b 11.643623
_cell_length_c 14.681394
_cell_angle_alpha 90.000000
_cell_angle_beta 19.469972
_cell_angle_gamma 90.000000
_cell_volume 1551.460784
_symmetry_space_group_name_H-M "P 21/C"
_symmetry_group_IT_number 14
_symmetry_cell_setting 'monoclinic'
loop_
_space_group_symop_operation_xyz
x,y,z
-x,1/2+y,1/2-z
-x,-y,-z
x,1/2-y,1/2+z
loop_
_atom_site_type_symbol
_atom_site_label
_atom_site_fract_x
_atom_site_fract_y
_atom_site_fract_z
Si Si1 0.906362 0.264359 0.144592
Si Si2 0.341675 0.487763 0.180439
Si Si3 0.155230 0.515964 0.335124
Si Si4 0.375140 0.858709 0.187029
Si Si5 0.627199 0.358355 0.703670
Si Si6 0.859560 0.786926 0.903034
Si Si7 0.949669 0.173205 0.261959
Si Si8 0.684112 0.593295 0.109592
O O1 0.765551 0.350087 0.392462
O O2 0.960454 0.251109 0.153422
O O3 0.880668 0.137788 0.146517
O O4 0.029921 0.328192 0.869795
O O5 0.274983 0.535287 0.204064
O O6 0.342471 0.592649 0.248461
O O7 0.252476 0.388518 0.385734
O O8 0.502056 0.435428 0.875405
O O9 0.010164 0.455414 0.632273
O O10 0.220092 0.426811 0.147923
O O11 0.413174 0.773866 0.204860
O O12 0.221059 0.829149 0.405133
O O13 0.345552 0.979374 0.284126
O O14 0.520579 0.857631 0.868086
O O15 0.952806 0.763620 0.831986
O O16 0.771550 0.675442 0.025443
#
# Coordination Sequence:
#
# PCOD8126051 Si02
#       8
#     4   4   4   4   4   4   4   4
#     4  11  22  38  66  92 122 165 218 262 307 381
#     4  10  24  42  63  89 132 176 204 260 325 388
#     4  11  21  39  65  95 123 163 217 265 318 374
#     4  10  21  37  65  91 124 164 209 265 315 373
#     4  10  21  44  63  87 131 172 213 250 325 386
#     4  11  23  38  65  96 132 165 208 264 327 379
#     4  10  21  38  59  97 126 169 204 257 326 376
#     4  11  20  39  66  96 126 158 213 277 314 366
#
# _framework density 20.625722
#
# number of rings (size 3 to 8) (size 9 to 14) (size 15 to 20)
#    0.000    1.500    5.000    1.125    3.500    1.500 
#    0.000    0.000   11.000    0.000    0.000    0.000 
#    0.000    0.000    0.000    0.000    0.000    0.000 
#
# Total GULP energy -396598.600655 kJ/mol
# GULP energy per Si atom -12393.706270 kJ/mol
# Density = 2.057878 g / cm^3
# Si number density = 20.625722 Si / 1000 Ang^3
#
#
#
# Elastic Constant Matrix: (Units=GPa)
#
#
# Indices 1 2 3 4 5 6 
#
# 1 118.4433 30.2345 17.0006 0.0000 -12.8654 0.0000
# 2 30.2345 52.5882 20.1860 0.0000 2.9135 0.0000
# 3 17.0006 20.1860 167.5528 0.0000 -5.5159 0.0000
# 4 0.0000 0.0000 0.0000 40.6888 0.0000 18.6838
# 5 -12.8654 2.9135 -5.5159 0.0000 25.4778 0.0000
# 6 0.0000 0.0000 0.0000 18.6838 0.0000 33.8779
#
#
#
# Elastic Compliance Matrix: (Units=1/GPa)
#
#
# Indices 1 2 3 4 5 6 
#
# 1 0.010788 -0.006503 -0.000108 0.000000 0.006168 0.000000
# 2 -0.006503 0.024060 -0.002455 0.000000 -0.006567 0.000000
# 3 -0.000108 -0.002455 0.006328 0.000000 0.001596 0.000000
# 4 0.000000 0.000000 0.000000 0.032911 0.000000 -0.018151
# 5 0.006168 -0.006567 0.001596 0.000000 0.043461 0.000000
# 6 0.000000 0.000000 0.000000 -0.018151 0.000000 0.039528
#
#
# Mechanical properties :
#
#
# Convention : Reuss Voigt Hill
#
# Bulk Modulus (GPa) = 43.39447 52.60294 47.99871
# Shear Modulus (GPa) = 27.33887 38.08644 32.71265
#
# Velocity S-wave (km/s) = 3.64466 4.30181 3.98680
# Velocity P-wave (km/s) = 6.22865 7.08753 6.67192
#
# Compressibility (1/GPa) = 0.02304441
#
# Stress axis : x y z
#
# Youngs Moduli (GPa) = 92.69339 41.56202 158.03878
#
# Poissons Ratio (x) = 0.27026 0.01709
# Poissons Ratio (y) = 0.60276 0.38800
# Poissons Ratio (z) = 0.01003 0.10204
#
# Static dielectric constant tensor:
#      x y z
#    x 3.629600 0.000000 -0.146200 
#    y 0.000000 3.791120 0.000000 
#    z -0.146200 0.000000 4.544740 
# 
# 
# High freq. dielectric constant tensor:
#      x y z
#    x 1.786700 0.000000 -0.009820 
#    y 0.000000 1.801130 0.000000 
#    z -0.009820 0.000000 1.827070 
# 
# From -- ./inp_files/52039.got.cif
#   From: 2010.03.12/outbox.cif.g09.slc.cpg/sg14_27_cif.got.tgz:52039.got - 2010.03.31 13:35:05.
