data_PCOD8126705
_publ_section_title
;
Structure prediction by ZEFSAII (Michael W. Deem and Ramdas Pophale) SiO2 
 PCOD8126705
Probable space group: P 21/C
;
_chemical_formula_sum "Si O2"
_cell_formula_units_Z 24
_cell_length_a 11.692152
_cell_length_b 11.000467
_cell_length_c 8.676810
_cell_angle_alpha 90.000000
_cell_angle_beta 65.681491
_cell_angle_gamma 90.000000
_cell_volume 1016.981084
_symmetry_space_group_name_H-M "P 21/C"
_symmetry_group_IT_number 14
_symmetry_cell_setting 'monoclinic'
loop_
_space_group_symop_operation_xyz
x,y,z
-x,1/2+y,1/2-z
-x,-y,-z
x,1/2-y,1/2+z
loop_
_atom_site_type_symbol
_atom_site_label
_atom_site_fract_x
_atom_site_fract_y
_atom_site_fract_z
Si Si1 0.333178 0.157183 0.921289
Si Si2 0.850118 0.411238 0.110639
Si Si3 0.706668 0.398928 0.644422
Si Si4 0.613907 0.311841 0.375810
Si Si5 0.818741 0.825162 0.694697
Si Si6 0.935293 0.292280 0.372260
O O1 0.471264 0.174514 0.907688
O O2 0.292954 0.276977 0.850844
O O3 0.326389 0.040010 0.813493
O O4 0.236946 0.132078 0.112536
O O5 0.700704 0.404304 0.228700
O O6 0.886432 0.554647 0.083721
O O7 0.923490 0.334230 0.202531
O O8 0.880402 0.345422 0.931047
O O9 0.626753 0.341247 0.548136
O O10 0.663678 0.325786 0.819889
O O11 0.855914 0.382565 0.527362
O O12 0.918090 0.715181 0.662776
#
# Coordination Sequence:
#
# PCOD8126705 Si02
#       6
#     4   4   4   4   4   4
#     4  12  25  43  65  99 132 173 211 271 328 378
#     4  10  22  44  68  95 128 174 217 271 322 381
#     4  10  22  44  66  94 125 175 213 267 326 383
#     4  10  21  41  71  90 128 168 219 260 326 384
#     4  12  25  43  63 101 132 171 216 272 320 386
#     4  10  21  43  68  93 128 173 219 261 328 379
#
# _framework density 23.599259
#
# number of rings (size 3 to 8) (size 9 to 14) (size 15 to 20)
#    0.000    1.333    3.333    3.000    2.333    0.667 
#   21.000    1.667    0.000    0.000    0.000    0.000 
#    0.000    0.000    0.000    0.000    0.000    0.000 
#
# Total GULP energy -297574.177421 kJ/mol
# GULP energy per Si atom -12398.924059 kJ/mol
# Density = 2.354555 g / cm^3
# Si number density = 23.599259 Si / 1000 Ang^3
#
#
#
# Elastic Constant Matrix: (Units=GPa)
#
#
# Indices 1 2 3 4 5 6 
#
# 1 132.7199 19.2457 9.0962 0.0000 -5.0583 0.0000
# 2 19.2457 112.6419 32.5600 0.0000 26.1466 0.0000
# 3 9.0962 32.5600 43.6433 0.0000 2.1316 0.0000
# 4 0.0000 0.0000 0.0000 26.9887 0.0000 3.9383
# 5 -5.0583 26.1466 2.1316 0.0000 24.3922 0.0000
# 6 0.0000 0.0000 0.0000 3.9383 0.0000 31.8273
#
#
#
# Elastic Compliance Matrix: (Units=1/GPa)
#
#
# Indices 1 2 3 4 5 6 
#
# 1 0.008034 -0.002280 -0.000175 0.000000 0.004125 0.000000
# 2 -0.002280 0.016389 -0.010917 0.000000 -0.017087 0.000000
# 3 -0.000175 -0.010917 0.030656 0.000000 0.008987 0.000000
# 4 0.000000 0.000000 0.000000 0.037734 0.000000 -0.004669
# 5 0.004125 -0.017087 0.008987 0.000000 0.059382 0.000000
# 6 0.000000 0.000000 0.000000 -0.004669 0.000000 0.031997
#
#
# Mechanical properties :
#
#
# Convention : Reuss Voigt Hill
#
# Bulk Modulus (GPa) = 35.29277 45.64544 40.46911
# Shear Modulus (GPa) = 22.68789 31.84853 27.26821
#
# Velocity S-wave (km/s) = 3.10398 3.67762 3.40291
# Velocity P-wave (km/s) = 5.27577 6.11695 5.71186
#
# Compressibility (1/GPa) = 0.02833441
#
# Stress axis : x y z
#
# Youngs Moduli (GPa) = 124.46398 61.01625 32.62054
#
# Poissons Ratio (x) = 0.13909 0.00572
# Poissons Ratio (y) = 0.28372 0.35613
# Poissons Ratio (z) = 0.02183 0.66614
#
# Static dielectric constant tensor:
#      x y z
#    x 4.263080 0.000000 -0.131300 
#    y 0.000000 4.305870 0.000000 
#    z -0.131300 0.000000 4.106970 
# 
# 
# High freq. dielectric constant tensor:
#      x y z
#    x 1.939410 0.000000 -0.014640 
#    y 0.000000 1.925910 0.000000 
#    z -0.014640 0.000000 1.920560 
# 
# From -- ./inp_files/12385.got.cif
#   From: 2010.03.12/outbox.cif.g09.slc.cpg/sg14_7_cif.got.tgz:12385.got - 2010.03.31 13:35:05.
