data_PCOD8126370
_publ_section_title
;
Structure prediction by ZEFSAII (Michael W. Deem and Ramdas Pophale) SiO2 
 PCOD8126370
Probable space group: P 21/C
;
_chemical_formula_sum "Si O2"
_cell_formula_units_Z 28
_cell_length_a 9.874563
_cell_length_b 9.189860
_cell_length_c 19.268685
_cell_angle_alpha 90.000000
_cell_angle_beta 42.490010
_cell_angle_gamma 90.000000
_cell_volume 1181.080643
_symmetry_space_group_name_H-M "P 21/C"
_symmetry_group_IT_number 14
_symmetry_cell_setting 'monoclinic'
loop_
_space_group_symop_operation_xyz
x,y,z
-x,1/2+y,1/2-z
-x,-y,-z
x,1/2-y,1/2+z
loop_
_atom_site_type_symbol
_atom_site_label
_atom_site_fract_x
_atom_site_fract_y
_atom_site_fract_z
Si Si1 0.865895 0.688433 0.036220
Si Si2 0.492954 0.633786 0.261327
Si Si3 0.166859 0.903039 0.523641
Si Si4 0.070660 0.222654 0.265043
Si Si5 0.570493 0.604861 0.806513
Si Si6 0.236224 0.552342 0.633099
Si Si7 0.366124 0.458967 0.441991
O O1 0.720087 0.612035 0.148143
O O2 0.779342 0.837382 0.036495
O O3 0.073805 0.709171 0.000492
O O4 0.902698 0.569614 0.962515
O O5 0.363025 0.553481 0.249811
O O6 0.462468 0.807712 0.282246
O O7 0.455913 0.564581 0.350283
O O8 0.410830 0.901073 0.429529
O O9 0.091811 0.863380 0.627941
O O10 0.232205 0.307979 0.249596
O O11 0.940914 0.342755 0.272772
O O12 0.185601 0.114628 0.170649
O O13 0.248342 0.556176 0.543963
O O14 0.442633 0.609315 0.589748
#
# Coordination Sequence:
#
# PCOD8126370 Si02
#       7
#     4   4   4   4   4   4   4
#     4  10  21  39  69 104 128 173 213 281 351 396
#     4  11  19  40  67  98 128 168 205 283 340 395
#     4  10  22  40  68  98 136 166 218 282 340 400
#     4  12  25  48  63  98 132 184 227 278 323 401
#     4  11  23  39  69  97 134 165 219 277 346 390
#     4  11  28  43  70  91 139 188 230 270 327 392
#     4  11  22  45  69  97 135 178 230 274 333 400
#
# _framework density 23.707101999999999
#
# number of rings (size 3 to 8) (size 9 to 14) (size 15 to 20)
#    0.000    1.143    4.286    0.857    4.000    3.429 
#    0.000    4.286    0.000    0.000    0.000    0.000 
#    0.000    0.000    0.000    0.000    0.000    0.000 
#
# Total GULP energy -346922.021465 kJ/mol
# GULP energy per Si atom -12390.072195 kJ/mol
# Density = 2.365314 g / cm^3
# Si number density = 23.707102 Si / 1000 Ang^3
#
#
#
# Elastic Constant Matrix: (Units=GPa)
#
#
# Indices 1 2 3 4 5 6 
#
# 1 45.8329 10.7956 9.7558 0.0000 -4.0988 0.0000
# 2 10.7956 42.1620 -12.4705 0.0000 -7.5770 0.0000
# 3 9.7558 -12.4705 77.9503 0.0000 0.9426 0.0000
# 4 0.0000 0.0000 0.0000 36.3976 0.0000 -5.5989
# 5 -4.0988 -7.5770 0.9426 0.0000 24.3001 0.0000
# 6 0.0000 0.0000 0.0000 -5.5989 0.0000 28.9963
#
#
#
# Elastic Compliance Matrix: (Units=1/GPa)
#
#
# Indices 1 2 3 4 5 6 
#
# 1 0.024602 -0.007185 -0.004253 0.000000 0.002074 0.000000
# 2 -0.007185 0.028486 0.005366 0.000000 0.007462 0.000000
# 3 -0.004253 0.005366 0.014215 0.000000 0.000404 0.000000
# 4 0.000000 0.000000 0.000000 0.028315 0.000000 0.005467
# 5 0.002074 0.007462 0.000404 0.000000 0.043813 0.000000
# 6 0.000000 0.000000 0.000000 0.005467 0.000000 0.035543
#
#
# Mechanical properties :
#
#
# Convention : Reuss Voigt Hill
#
# Bulk Modulus (GPa) = 18.12963 20.23411 19.18187
# Shear Modulus (GPa) = 24.33051 28.46308 26.39679
#
# Velocity S-wave (km/s) = 3.20706 3.46875 3.34047
# Velocity P-wave (km/s) = 4.62359 4.95949 4.79448
#
# Compressibility (1/GPa) = 0.05515831
#
# Stress axis : x y z
#
# Youngs Moduli (GPa) = 40.64780 35.10512 70.35012
#
# Poissons Ratio (x) = 0.25221 0.29923
# Poissons Ratio (y) = 0.29204 -0.37751
# Poissons Ratio (z) = 0.17289 -0.18838
#
# Static dielectric constant tensor:
#      x y z
#    x 3.980960 0.000000 -0.078530 
#    y 0.000000 4.519890 0.000000 
#    z -0.078530 0.000000 4.362030 
# 
# 
# High freq. dielectric constant tensor:
#      x y z
#    x 1.907720 0.000000 -0.007920 
#    y 0.000000 1.939570 0.000000 
#    z -0.007920 0.000000 1.951600 
# 
# From -- ./inp_files/66982.got.cif
#   From: 2010.03.12/outbox.cif.g09.slc.cpg/sg14_34_cif.got.tgz:66982.got - 2010.03.31 13:35:05.
