data_PCOD8126530
_publ_section_title
;
Structure prediction by ZEFSAII (Michael W. Deem and Ramdas Pophale) SiO2 
 PCOD8126530
Probable space group: P 21/C
;
_chemical_formula_sum "Si O2"
_cell_formula_units_Z 24
_cell_length_a 23.779099
_cell_length_b 9.785735
_cell_length_c 9.881571
_cell_angle_alpha 90.000000
_cell_angle_beta 149.353254
_cell_angle_gamma 90.000000
_cell_volume 1172.105055
_symmetry_space_group_name_H-M "P 21/C"
_symmetry_group_IT_number 14
_symmetry_cell_setting 'monoclinic'
loop_
_space_group_symop_operation_xyz
x,y,z
-x,1/2+y,1/2-z
-x,-y,-z
x,1/2-y,1/2+z
loop_
_atom_site_type_symbol
_atom_site_label
_atom_site_fract_x
_atom_site_fract_y
_atom_site_fract_z
Si Si1 0.424600 0.222425 0.623202
Si Si2 0.018922 0.382564 0.883784
Si Si3 0.184788 0.007848 0.917433
Si Si4 0.062064 0.133696 0.167592
Si Si5 0.425069 0.947421 0.466515
Si Si6 0.287957 0.207505 0.606694
O O1 0.536491 0.298007 0.902322
O O2 0.334531 0.230943 0.554653
O O3 0.384990 0.317288 0.415330
O O4 0.439035 0.063559 0.612189
O O5 0.898250 0.453417 0.638670
O O6 0.042086 0.328971 0.782507
O O7 0.115632 0.489344 0.132212
O O8 0.017281 0.256009 0.983167
O O9 0.222790 0.160661 0.030414
O O10 0.299555 0.922373 0.154258
O O11 0.191367 0.095350 0.407371
O O12 0.000000 0.000000 0.000000
O O13 0.500000 0.000000 0.500000
#
# Coordination Sequence:
#
# PCOD8126530 Si02
#       6
#     4   4   4   4   4   4
#     4  11  22  43  70  95 129 178 224 267 338 394
#     4  10  23  42  64  98 128 176 212 280 333 394
#     4   9  20  41  70  83 134 171 217 264 338 384
#     4  11  25  39  66  98 130 166 232 263 337 397
#     4  11  23  44  66 100 131 175 223 277 328 390
#     4  10  21  40  68  90 126 181 214 267 324 408
#
# _framework density 20.475981000000001
#
# number of rings (size 3 to 8) (size 9 to 14) (size 15 to 20)
#    0.000    1.667    3.333    2.000   11.667    0.667 
#    6.000    0.000    0.000    0.000    0.000    0.000 
#    0.000    0.000    0.000    0.000    0.000    0.000 
#
# Total GULP energy -297365.795245 kJ/mol
# GULP energy per Si atom -12390.241469 kJ/mol
# Density = 2.042938 g / cm^3
# Si number density = 20.475981 Si / 1000 Ang^3
#
#
#
# Elastic Constant Matrix: (Units=GPa)
#
#
# Indices 1 2 3 4 5 6 
#
# 1 118.3926 45.3729 62.8904 0.0000 -3.4050 0.0000
# 2 45.3729 67.6467 32.0191 0.0000 1.2745 0.0000
# 3 62.8904 32.0191 111.9381 0.0000 15.5075 0.0000
# 4 0.0000 0.0000 0.0000 44.4209 0.0000 4.3576
# 5 -3.4050 1.2745 15.5075 0.0000 43.6723 0.0000
# 6 0.0000 0.0000 0.0000 4.3576 0.0000 30.5904
#
#
#
# Elastic Compliance Matrix: (Units=1/GPa)
#
#
# Indices 1 2 3 4 5 6 
#
# 1 0.014814 -0.006730 -0.006926 0.000000 0.003811 0.000000
# 2 -0.006730 0.020226 -0.001945 0.000000 -0.000424 0.000000
# 3 -0.006926 -0.001945 0.014144 0.000000 -0.005506 0.000000
# 4 0.000000 0.000000 0.000000 0.022831 0.000000 -0.003252
# 5 0.003811 -0.000424 -0.005506 0.000000 0.025162 0.000000
# 6 0.000000 0.000000 0.000000 -0.003252 0.000000 0.033153
#
#
# Mechanical properties :
#
#
# Convention : Reuss Voigt Hill
#
# Bulk Modulus (GPa) = 55.61468 64.28247 59.94857
# Shear Modulus (GPa) = 29.84587 34.24973 32.04780
#
# Velocity S-wave (km/s) = 3.82200 4.09428 3.96048
# Velocity P-wave (km/s) = 6.83351 7.33574 7.08907
#
# Compressibility (1/GPa) = 0.01798086
#
# Stress axis : x y z
#
# Youngs Moduli (GPa) = 67.50165 49.44235 70.70127
#
# Poissons Ratio (x) = 0.33275 0.48968
# Poissons Ratio (y) = 0.45429 0.13755
# Poissons Ratio (z) = 0.46752 0.09619
#
# Static dielectric constant tensor:
#      x y z
#    x 3.992210 0.000000 0.189010 
#    y 0.000000 4.005740 0.000000 
#    z 0.189010 0.000000 4.311190 
# 
# 
# High freq. dielectric constant tensor:
#      x y z
#    x 1.804610 0.000000 0.005440 
#    y 0.000000 1.771610 0.000000 
#    z 0.005440 0.000000 1.814210 
# 
# From -- ./inp_files/19499.got.cif
#   From: 2010.03.12/outbox.cif.g09.slc.cpg/sg14_10_cif.got.tgz:19499.got - 2010.03.31 13:35:05.
