data_PCOD8126329
_publ_section_title
;
Structure prediction by ZEFSAII (Michael W. Deem and Ramdas Pophale) SiO2 
 PCOD8126329
Probable space group: P 21/C
;
_chemical_formula_sum "Si O2"
_cell_formula_units_Z 28
_cell_length_a 8.489011
_cell_length_b 9.406339
_cell_length_c 16.240337
_cell_angle_alpha 90.000000
_cell_angle_beta 80.923600
_cell_angle_gamma 90.000000
_cell_volume 1280.561882
_symmetry_space_group_name_H-M "P 21/C"
_symmetry_group_IT_number 14
_symmetry_cell_setting 'monoclinic'
loop_
_space_group_symop_operation_xyz
x,y,z
-x,1/2+y,1/2-z
-x,-y,-z
x,1/2-y,1/2+z
loop_
_atom_site_type_symbol
_atom_site_label
_atom_site_fract_x
_atom_site_fract_y
_atom_site_fract_z
Si Si1 0.681211 0.925436 0.311639
Si Si2 0.322998 0.944612 0.021849
Si Si3 0.819442 0.017798 0.133808
Si Si4 0.874719 0.805033 0.885725
Si Si5 0.610299 0.012999 0.571673
Si Si6 0.136574 0.209959 0.437901
Si Si7 0.202404 0.847917 0.570541
O O1 0.699522 0.974808 0.216464
O O2 0.788734 0.784464 0.319518
O O3 0.490966 0.907489 0.347799
O O4 0.728486 0.055572 0.364424
O O5 0.288666 0.804230 0.078425
O O6 0.236533 0.069515 0.075982
O O7 0.500000 0.000000 0.000000
O O8 0.267528 0.903776 0.934010
O O9 0.880119 0.873000 0.087563
O O10 0.958937 0.122185 0.156695
O O11 0.894243 0.698165 0.961208
O O12 0.758470 0.105694 0.527032
O O13 0.500000 0.000000 0.500000
O O14 0.692153 0.864435 0.597023
O O15 0.987939 0.140488 0.403093
#
# Coordination Sequence:
#
# PCOD8126329 Si02
#       7
#     4   4   4   4   4   4   4
#     4  11  26  42  66  99 139 170 221 287 350 394
#     4  11  23  41  70  97 130 180 231 271 334 411
#     4  11  25  43  64  98 142 172 221 284 349 405
#     4  11  21  44  66  90 135 177 221 273 334 414
#     4  10  21  39  65  93 130 169 218 274 326 401
#     4  11  20  41  67  94 124 179 225 269 328 410
#     4  11  21  40  69 100 125 176 236 270 328 413
#
# _framework density 21.865400000000001
#
# number of rings (size 3 to 8) (size 9 to 14) (size 15 to 20)
#    0.000    1.143    5.714    2.143    8.000    0.000 
#    5.143    0.000    0.000    0.000    0.000    0.000 
#    0.000    0.000    0.000    0.000    0.000    0.000 
#
# Total GULP energy -346878.303955 kJ/mol
# GULP energy per Si atom -12388.510856 kJ/mol
# Density = 2.181563 g / cm^3
# Si number density = 21.865400 Si / 1000 Ang^3
#
#
#
# Elastic Constant Matrix: (Units=GPa)
#
#
# Indices 1 2 3 4 5 6 
#
# 1 104.3919 36.2897 4.4631 0.0000 -14.5290 0.0000
# 2 36.2897 90.5357 14.7638 0.0000 10.1426 0.0000
# 3 4.4631 14.7638 70.5506 0.0000 -15.2592 0.0000
# 4 0.0000 0.0000 0.0000 17.1420 0.0000 -1.9470
# 5 -14.5290 10.1426 -15.2592 0.0000 20.0310 0.0000
# 6 0.0000 0.0000 0.0000 -1.9470 0.0000 39.1689
#
#
#
# Elastic Compliance Matrix: (Units=1/GPa)
#
#
# Indices 1 2 3 4 5 6 
#
# 1 0.015298 -0.009194 0.005224 0.000000 0.019731 0.000000
# 2 -0.009194 0.018544 -0.008108 0.000000 -0.022235 0.000000
# 3 0.005224 -0.008108 0.020650 0.000000 0.023626 0.000000
# 4 0.000000 0.000000 0.000000 0.058667 0.000000 0.002916
# 5 0.019731 -0.022235 0.023626 0.000000 0.093490 0.000000
# 6 0.000000 0.000000 0.000000 0.002916 0.000000 0.025675
#
#
# Mechanical properties :
#
#
# Convention : Reuss Voigt Hill
#
# Bulk Modulus (GPa) = 32.96481 41.83460 37.39971
# Shear Modulus (GPa) = 18.75506 29.26585 24.01045
#
# Velocity S-wave (km/s) = 2.93192 3.66246 3.31736
# Velocity P-wave (km/s) = 5.15466 6.08762 5.64046
#
# Compressibility (1/GPa) = 0.03033538
#
# Stress axis : x y z
#
# Youngs Moduli (GPa) = 65.36657 53.92585 48.42522
#
# Poissons Ratio (x) = 0.49582 -0.25297
# Poissons Ratio (y) = 0.60101 0.39264
# Poissons Ratio (z) = -0.34147 0.43724
#
# Static dielectric constant tensor:
#      x y z
#    x 4.104790 0.000000 -0.241190 
#    y 0.000000 4.037380 0.000000 
#    z -0.241190 0.000000 3.879290 
# 
# 
# High freq. dielectric constant tensor:
#      x y z
#    x 1.864170 0.000000 -0.014600 
#    y 0.000000 1.870250 0.000000 
#    z -0.014600 0.000000 1.825750 
# 
# From -- ./inp_files/54794.got.cif
#   From: 2010.03.12/outbox.cif.g09.slc.cpg/sg14_28_cif.got.tgz:54794.got - 2010.03.31 13:35:05.
