data_PCOD8126738
_publ_section_title
;
Structure prediction by ZEFSAII (Michael W. Deem and Ramdas Pophale) SiO2 
 PCOD8126738
Probable space group: P 21/C
;
_chemical_formula_sum "Si O2"
_cell_formula_units_Z 32
_cell_length_a 14.001581
_cell_length_b 16.064040
_cell_length_c 19.087189
_cell_angle_alpha 90.000000
_cell_angle_beta 159.403391
_cell_angle_gamma 90.000000
_cell_volume 1510.263359
_symmetry_space_group_name_H-M "P 21/C"
_symmetry_group_IT_number 14
_symmetry_cell_setting 'monoclinic'
loop_
_space_group_symop_operation_xyz
x,y,z
-x,1/2+y,1/2-z
-x,-y,-z
x,1/2-y,1/2+z
loop_
_atom_site_type_symbol
_atom_site_label
_atom_site_fract_x
_atom_site_fract_y
_atom_site_fract_z
Si Si1 0.523546 0.379034 0.787468
Si Si2 0.903877 0.760681 0.968681
Si Si3 0.894279 0.092999 0.418668
Si Si4 0.111455 0.006697 0.934870
Si Si5 0.066270 0.680725 0.834728
Si Si6 0.606131 0.943840 0.010438
Si Si7 0.124812 0.328248 0.707439
Si Si8 0.738429 0.159492 0.678107
O O1 0.335735 0.297485 0.647297
O O2 0.780081 0.372407 0.912766
O O3 0.343455 0.461239 0.649054
O O4 0.666109 0.375270 0.961641
O O5 0.877678 0.659956 0.948102
O O6 0.187172 0.789836 0.199672
O O7 0.860084 0.798636 0.861845
O O8 0.660767 0.099497 0.201567
O O9 0.000000 0.000000 0.500000
O O10 0.031143 0.915165 0.901592
O O11 0.237135 0.005247 0.942735
O O12 0.844297 0.064367 0.756415
O O13 0.096243 0.701057 0.773225
O O14 0.797613 0.629036 0.670407
O O15 0.058986 0.766067 0.872947
O O16 0.500000 0.000000 0.000000
O O17 0.416988 0.337438 0.945233
#
# Coordination Sequence:
#
# PCOD8126738 Si02
#       8
#     4   4   4   4   4   4   4   4
#     4  10  21  42  63  92 132 166 221 265 328 389
#     4  11  24  42  68  97 131 175 217 282 333 392
#     4  11  23  43  66  95 131 173 224 273 330 398
#     4   9  23  41  64  96 131 171 219 272 327 402
#     4  11  22  41  66  92 132 170 218 275 328 393
#     4  10  22  41  65  92 131 169 219 273 324 390
#     4  12  23  41  70  95 129 178 221 267 341 403
#     4  10  23  44  63  95 135 167 217 279 329 392
#
# _framework density 21.188358000000001
#
# number of rings (size 3 to 8) (size 9 to 14) (size 15 to 20)
#    0.000    1.500    2.500    2.625    0.000    6.000 
#    4.500    0.000    0.000    0.000    0.000    0.000 
#    0.000    0.000    0.000    0.000    0.000    0.000 
#
# Total GULP energy -396666.472246 kJ/mol
# GULP energy per Si atom -12395.827258 kJ/mol
# Density = 2.114013 g / cm^3
# Si number density = 21.188358 Si / 1000 Ang^3
#
#
#
# Elastic Constant Matrix: (Units=GPa)
#
#
# Indices 1 2 3 4 5 6 
#
# 1 50.4739 37.1930 15.2272 0.0000 -6.3302 0.0000
# 2 37.1930 159.2044 50.7341 0.0000 5.1879 0.0000
# 3 15.2272 50.7341 128.7655 0.0000 -16.4227 0.0000
# 4 0.0000 0.0000 0.0000 22.0908 0.0000 3.9486
# 5 -6.3302 5.1879 -16.4227 0.0000 35.9910 0.0000
# 6 0.0000 0.0000 0.0000 3.9486 0.0000 29.2487
#
#
#
# Elastic Compliance Matrix: (Units=1/GPa)
#
#
# Indices 1 2 3 4 5 6 
#
# 1 0.024879 -0.006018 0.000104 0.000000 0.005290 0.000000
# 2 -0.006018 0.008852 -0.003264 0.000000 -0.003823 0.000000
# 3 0.000104 -0.003264 0.009664 0.000000 0.004899 0.000000
# 4 0.000000 0.000000 0.000000 0.046387 0.000000 -0.006262
# 5 0.005290 -0.003823 0.004899 0.000000 0.031502 0.000000
# 6 0.000000 0.000000 0.000000 -0.006262 0.000000 0.035035
#
#
# Mechanical properties :
#
#
# Convention : Reuss Voigt Hill
#
# Bulk Modulus (GPa) = 39.93658 60.52804 50.23231
# Shear Modulus (GPa) = 27.31944 33.15206 30.23575
#
# Velocity S-wave (km/s) = 3.59466 3.95984 3.78166
# Velocity P-wave (km/s) = 6.00983 7.03816 6.54423
#
# Compressibility (1/GPa) = 0.02503970
#
# Stress axis : x y z
#
# Youngs Moduli (GPa) = 40.19515 112.97328 103.47214
#
# Poissons Ratio (x) = 0.67982 -0.01072
# Poissons Ratio (y) = 0.24187 0.33769
# Poissons Ratio (z) = -0.00417 0.36870
#
# Static dielectric constant tensor:
#      x y z
#    x 3.673470 0.000000 -0.125630 
#    y 0.000000 3.718130 0.000000 
#    z -0.125630 0.000000 4.072960 
# 
# 
# High freq. dielectric constant tensor:
#      x y z
#    x 1.826320 0.000000 -0.011920 
#    y 0.000000 1.819620 0.000000 
#    z -0.011920 0.000000 1.847130 
# 
# From -- ./inp_files/68677.got.cif
#   From: 2010.03.12/outbox.cif.g09.slc.cpg/sg14_35_cif.got.tgz:68677.got - 2010.03.31 13:35:05.
