data_PCOD8126367
_publ_section_title
;
Structure prediction by ZEFSAII (Michael W. Deem and Ramdas Pophale) SiO2 
 PCOD8126367
Probable space group: P 21/C
;
_chemical_formula_sum "Si O2"
_cell_formula_units_Z 24
_cell_length_a 5.224514
_cell_length_b 7.516231
_cell_length_c 25.114928
_cell_angle_alpha 90.000000
_cell_angle_beta 86.706237
_cell_angle_gamma 90.000000
_cell_volume 984.600245
_symmetry_space_group_name_H-M "P 21/C"
_symmetry_group_IT_number 14
_symmetry_cell_setting 'monoclinic'
loop_
_space_group_symop_operation_xyz
x,y,z
-x,1/2+y,1/2-z
-x,-y,-z
x,1/2-y,1/2+z
loop_
_atom_site_type_symbol
_atom_site_label
_atom_site_fract_x
_atom_site_fract_y
_atom_site_fract_z
Si Si1 0.073812 0.075918 0.623434
Si Si2 0.565895 0.122115 0.314764
Si Si3 0.248077 0.387194 0.011110
Si Si4 0.780721 0.732022 0.594793
Si Si5 0.197681 0.595820 0.336954
Si Si6 0.280291 0.988241 0.223196
O O1 0.229061 0.173413 0.573127
O O2 0.836980 0.203033 0.641835
O O3 0.252311 0.045815 0.673328
O O4 0.991364 0.881194 0.605279
O O5 0.476444 0.210028 0.371169
O O6 0.714518 0.273305 0.278914
O O7 0.322835 0.050188 0.283757
O O8 0.264806 0.223246 0.968610
O O9 0.500000 0.500000 0.000000
O O10 0.000000 0.500000 0.000000
O O11 0.870166 0.539249 0.614013
O O12 0.487538 0.569922 0.314432
O O13 0.995532 0.557549 0.292076
#
# Coordination Sequence:
#
# PCOD8126367 Si02
#       6
#     4   4   4   4   4   4
#     4  11  23  41  70  93 131 176 216 271 334 392
#     4  11  23  41  68  89 135 173 216 276 333 387
#     4  10  21  39  68  97 126 171 222 264 331 397
#     4  10  23  44  65  94 137 167 218 277 328 388
#     4  11  26  42  64  99 133 167 224 269 328 398
#     4  11  26  42  63  98 129 173 223 270 326 401
#
# _framework density 24.375374000000001
#
# number of rings (size 3 to 8) (size 9 to 14) (size 15 to 20)
#    0.000    1.333    3.333    1.000    7.000    0.667 
#    0.000    0.000    0.000    7.000    0.000    0.000 
#    0.000    0.000    0.000    0.000    0.000    0.000 
#
# Total GULP energy -297554.043776 kJ/mol
# GULP energy per Si atom -12398.085157 kJ/mol
# Density = 2.431989 g / cm^3
# Si number density = 24.375374 Si / 1000 Ang^3
#
#
#
# Elastic Constant Matrix: (Units=GPa)
#
#
# Indices 1 2 3 4 5 6 
#
# 1 70.8602 3.2551 -5.5879 0.0000 4.1093 0.0000
# 2 3.2551 70.2460 23.3464 0.0000 -3.2047 0.0000
# 3 -5.5879 23.3464 74.9129 0.0000 3.2920 0.0000
# 4 0.0000 0.0000 0.0000 28.9168 0.0000 -3.1131
# 5 4.1093 -3.2047 3.2920 0.0000 29.6954 0.0000
# 6 0.0000 0.0000 0.0000 -3.1131 0.0000 34.5779
#
#
#
# Elastic Compliance Matrix: (Units=1/GPa)
#
#
# Indices 1 2 3 4 5 6 
#
# 1 0.014431 -0.001300 0.001583 0.000000 -0.002313 0.000000
# 2 -0.001300 0.016152 -0.005241 0.000000 0.002504 0.000000
# 3 0.001583 -0.005241 0.015209 0.000000 -0.002471 0.000000
# 4 0.000000 0.000000 0.000000 0.034920 0.000000 0.003144
# 5 -0.002313 0.002504 -0.002471 0.000000 0.034539 0.000000
# 6 0.000000 0.000000 0.000000 0.003144 0.000000 0.029203
#
#
# Mechanical properties :
#
#
# Convention : Reuss Voigt Hill
#
# Bulk Modulus (GPa) = 27.87374 28.67180 28.27277
# Shear Modulus (GPa) = 30.06085 31.63838 30.84962
#
# Velocity S-wave (km/s) = 3.51557 3.60664 3.56139
# Velocity P-wave (km/s) = 5.28574 5.39740 5.34186
#
# Compressibility (1/GPa) = 0.03587606
#
# Stress axis : x y z
#
# Youngs Moduli (GPa) = 69.29516 61.91199 65.75150
#
# Poissons Ratio (x) = 0.08051 -0.10411
# Poissons Ratio (y) = 0.09012 0.34459
# Poissons Ratio (z) = -0.10972 0.32447
#
# Static dielectric constant tensor:
#      x y z
#    x 4.120460 0.000000 0.022270 
#    y 0.000000 4.261180 0.000000 
#    z 0.022270 0.000000 5.117100 
# 
# 
# High freq. dielectric constant tensor:
#      x y z
#    x 1.967010 0.000000 -0.005330 
#    y 0.000000 1.948860 0.000000 
#    z -0.005330 0.000000 1.978610 
# 
# From -- ./inp_files/71029.got.cif
#   From: 2010.03.12/outbox.cif.g09.slc.cpg/sg14_36_cif.got.tgz:71029.got - 2010.03.31 13:35:05.
