data_PCOD8126130
_publ_section_title
;
Structure prediction by ZEFSAII (Michael W. Deem and Ramdas Pophale) SiO2 
 PCOD8126130
Probable space group: P 21/C
;
_chemical_formula_sum "Si O2"
_cell_formula_units_Z 28
_cell_length_a 21.854334
_cell_length_b 5.040773
_cell_length_c 16.559384
_cell_angle_alpha 90.000000
_cell_angle_beta 131.269606
_cell_angle_gamma 90.000000
_cell_volume 1371.114858
_symmetry_space_group_name_H-M "P 21/C"
_symmetry_group_IT_number 14
_symmetry_cell_setting 'monoclinic'
loop_
_space_group_symop_operation_xyz
x,y,z
-x,1/2+y,1/2-z
-x,-y,-z
x,1/2-y,1/2+z
loop_
_atom_site_type_symbol
_atom_site_label
_atom_site_fract_x
_atom_site_fract_y
_atom_site_fract_z
Si Si1 0.014068 0.196065 0.711643
Si Si2 0.048021 0.750584 0.010259
Si Si3 0.801199 0.715771 0.672394
Si Si4 0.316995 0.286353 0.573717
Si Si5 0.340306 0.786643 0.702798
Si Si6 0.510507 0.810762 0.308376
Si Si7 0.779138 0.216270 0.757584
O O1 0.102757 0.251550 0.753558
O O2 0.992768 0.392432 0.766141
O O3 0.948888 0.247056 0.584201
O O4 0.139871 0.749995 0.119774
O O5 0.000000 0.500000 0.000000
O O6 0.000000 0.000000 0.000000
O O7 0.761346 0.756874 0.550170
O O8 0.777304 0.427063 0.683758
O O9 0.771021 0.928079 0.711308
O O10 0.312316 0.571068 0.612345
O O11 0.397080 0.261059 0.584761
O O12 0.319208 0.071845 0.647199
O O13 0.437628 0.758601 0.807241
O O14 0.297128 0.755029 0.750545
O O15 0.493295 0.623280 0.215073
#
# Coordination Sequence:
#
# PCOD8126130 Si02
#       7
#     4   4   4   4   4   4   4
#     4  12  26  41  62  87 115 149 199 245 285 342
#     4  12  23  44  62  82 115 161 192 230 296 349
#     4  12  25  42  57  88 125 152 186 245 302 335
#     4  10  21  38  62  88 118 154 192 243 288 334
#     4  10  21  38  63  90 112 155 202 235 276 353
#     4   8  16  34  58  85 116 147 191 237 283 333
#     4  12  24  41  60  86 121 156 192 237 290 354
#
# _framework density 20.421337999999999
#
# number of rings (size 3 to 8) (size 9 to 14) (size 15 to 20)
#    0.000    1.143    2.857    3.429    4.000    0.000 
#    0.000    1.429    0.000    0.000    0.000    0.000 
#    0.000    0.000    0.000    0.000    0.000    0.000 
#
# Total GULP energy -347224.706023 kJ/mol
# GULP energy per Si atom -12400.882358 kJ/mol
# Density = 2.037486 g / cm^3
# Si number density = 20.421338 Si / 1000 Ang^3
#
#
#
# Elastic Constant Matrix: (Units=GPa)
#
#
# Indices 1 2 3 4 5 6 
#
# 1 102.2431 15.4201 3.7724 0.0000 -3.6290 0.0000
# 2 15.4201 94.6957 8.5838 0.0000 0.9710 0.0000
# 3 3.7724 8.5838 49.5608 0.0000 -8.4183 0.0000
# 4 0.0000 0.0000 0.0000 30.8577 0.0000 -7.3118
# 5 -3.6290 0.9710 -8.4183 0.0000 20.7946 0.0000
# 6 0.0000 0.0000 0.0000 -7.3118 0.0000 35.4147
#
#
#
# Elastic Compliance Matrix: (Units=1/GPa)
#
#
# Indices 1 2 3 4 5 6 
#
# 1 0.010098 -0.001646 -0.000184 0.000000 0.001765 0.000000
# 2 -0.001646 0.011032 -0.002064 0.000000 -0.001638 0.000000
# 3 -0.000184 -0.002064 0.022078 0.000000 0.009002 0.000000
# 4 0.000000 0.000000 0.000000 0.034074 0.000000 0.007035
# 5 0.001765 -0.001638 0.009002 0.000000 0.052118 0.000000
# 6 0.000000 0.000000 0.000000 0.007035 0.000000 0.029689
#
#
# Mechanical properties :
#
#
# Convention : Reuss Voigt Hill
#
# Bulk Modulus (GPa) = 28.23152 33.56135 30.89644
# Shear Modulus (GPa) = 27.98252 31.99494 29.98873
#
# Velocity S-wave (km/s) = 3.70572 3.96250 3.83626
# Velocity P-wave (km/s) = 5.67136 6.11599 5.89787
#
# Compressibility (1/GPa) = 0.03542140
#
# Stress axis : x y z
#
# Youngs Moduli (GPa) = 99.02708 90.64541 45.29454
#
# Poissons Ratio (x) = 0.14919 0.00833
# Poissons Ratio (y) = 0.16298 0.09347
# Poissons Ratio (z) = 0.01820 0.18706
#
# Static dielectric constant tensor:
#      x y z
#    x 3.801950 0.000000 0.256390 
#    y 0.000000 3.891020 0.000000 
#    z 0.256390 0.000000 3.634890 
# 
# 
# High freq. dielectric constant tensor:
#      x y z
#    x 1.802090 0.000000 0.015670 
#    y 0.000000 1.821860 0.000000 
#    z 0.015670 0.000000 1.775440 
# 
# From -- ./inp_files/48055.got.cif
#   From: 2010.03.12/outbox.cif.g09.slc.cpg/sg14_25_cif.got.tgz:48055.got - 2010.03.31 13:35:05.
