data_PCOD8126803
_publ_section_title
;
Structure prediction by ZEFSAII (Michael W. Deem and Ramdas Pophale) SiO2 
 PCOD8126803
Probable space group: P 21/C
;
_chemical_formula_sum "Si O2"
_cell_formula_units_Z 32
_cell_length_a 16.229586
_cell_length_b 11.754381
_cell_length_c 13.819269
_cell_angle_alpha 90.000000
_cell_angle_beta 145.125731
_cell_angle_gamma 90.000000
_cell_volume 1507.368142
_symmetry_space_group_name_H-M "P 21/C"
_symmetry_group_IT_number 14
_symmetry_cell_setting 'monoclinic'
loop_
_space_group_symop_operation_xyz
x,y,z
-x,1/2+y,1/2-z
-x,-y,-z
x,1/2-y,1/2+z
loop_
_atom_site_type_symbol
_atom_site_label
_atom_site_fract_x
_atom_site_fract_y
_atom_site_fract_z
Si Si1 0.560987 0.667873 0.140728
Si Si2 0.894099 0.613261 0.194554
Si Si3 0.059395 0.013296 0.703144
Si Si4 0.293972 0.334288 0.511820
Si Si5 0.907223 0.106228 0.948399
Si Si6 0.314577 0.998935 0.374372
Si Si7 0.475067 0.874365 0.934977
Si Si8 0.853510 0.351094 0.875723
O O1 0.653452 0.673567 0.327241
O O2 0.644199 0.623662 0.125144
O O3 0.438700 0.574039 0.043899
O O4 0.507067 0.792337 0.057865
O O5 0.809653 0.510160 0.165373
O O6 0.943447 0.572186 0.137681
O O7 0.043243 0.637749 0.395916
O O8 0.787185 0.717904 0.088174
O O9 0.967486 0.113925 0.567490
O O10 0.149128 0.942281 0.712155
O O11 0.176064 0.064810 0.890196
O O12 0.423385 0.351687 0.560216
O O13 0.909719 0.227149 0.892618
O O14 0.741804 0.066884 0.776885
O O15 0.000000 0.000000 0.000000
O O16 0.310662 0.851030 0.742036
O O17 0.500000 0.000000 0.000000
#
# Coordination Sequence:
#
# PCOD8126803 Si02
#       8
#     4   4   4   4   4   4   4   4
#     4  11  25  43  71  98 143 187 228 297 352 437
#     4  11  24  41  69 102 139 181 234 295 349 429
#     4  11  26  45  70 103 141 186 240 295 357 427
#     4  12  26  46  70 108 142 187 242 289 364 436
#     4  10  21  42  70  95 133 182 230 287 348 422
#     4  10  22  44  66  97 137 179 234 282 361 404
#     4  12  26  49  73 102 147 188 239 299 365 434
#     4  11  24  47  72 101 142 189 238 300 363 422
#
# _framework density 21.229054000000001
#
# number of rings (size 3 to 8) (size 9 to 14) (size 15 to 20)
#    0.000    1.000    5.000    0.750    3.500    4.000 
#    2.250    0.000    0.000    0.000    0.000    0.000 
#    0.000    0.000    0.000    0.000    0.000    0.000 
#
# Total GULP energy -396494.801663 kJ/mol
# GULP energy per Si atom -12390.462552 kJ/mol
# Density = 2.118074 g / cm^3
# Si number density = 21.229054 Si / 1000 Ang^3
#
#
#
# Elastic Constant Matrix: (Units=GPa)
#
#
# Indices 1 2 3 4 5 6 
#
# 1 72.6299 18.6694 22.7868 0.0000 20.8856 0.0000
# 2 18.6694 129.7003 47.6024 0.0000 5.3426 0.0000
# 3 22.7868 47.6024 115.1424 0.0000 3.4912 0.0000
# 4 0.0000 0.0000 0.0000 31.8504 0.0000 2.4161
# 5 20.8856 5.3426 3.4912 0.0000 28.3129 0.0000
# 6 0.0000 0.0000 0.0000 2.4161 0.0000 20.5384
#
#
#
# Elastic Compliance Matrix: (Units=1/GPa)
#
#
# Indices 1 2 3 4 5 6 
#
# 1 0.018768 -0.001107 -0.002854 0.000000 -0.013284 0.000000
# 2 -0.001107 0.009199 -0.003570 0.000000 -0.000479 0.000000
# 3 -0.002854 -0.003570 0.010681 0.000000 0.001462 0.000000
# 4 0.000000 0.000000 0.000000 0.031680 0.000000 -0.003727
# 5 -0.013284 -0.000479 0.001462 0.000000 0.045029 0.000000
# 6 0.000000 0.000000 0.000000 -0.003727 0.000000 0.049128
#
#
# Mechanical properties :
#
#
# Convention : Reuss Voigt Hill
#
# Bulk Modulus (GPa) = 42.39459 55.06552 48.73006
# Shear Modulus (GPa) = 26.67972 31.36793 29.02383
#
# Velocity S-wave (km/s) = 3.54892 3.84812 3.70154
# Velocity P-wave (km/s) = 6.06684 6.76307 6.42439
#
# Compressibility (1/GPa) = 0.02358791
#
# Stress axis : x y z
#
# Youngs Moduli (GPa) = 53.28132 108.70437 93.62330
#
# Poissons Ratio (x) = 0.12033 0.26719
# Poissons Ratio (y) = 0.05898 0.33420
# Poissons Ratio (z) = 0.15206 0.38803
#
# Static dielectric constant tensor:
#      x y z
#    x 3.550740 0.000000 0.097980 
#    y 0.000000 4.007480 0.000000 
#    z 0.097980 0.000000 4.284480 
# 
# 
# High freq. dielectric constant tensor:
#      x y z
#    x 1.806290 0.000000 0.009990 
#    y 0.000000 1.851150 0.000000 
#    z 0.009990 0.000000 1.850500 
# 
# From -- ./inp_files/48938.got.cif
#   From: 2010.03.12/outbox.cif.g09.slc.cpg/sg14_25_cif.got.tgz:48938.got - 2010.03.31 13:35:05.
