data_PCOD8126403
_publ_section_title
;
Structure prediction by ZEFSAII (Michael W. Deem and Ramdas Pophale) SiO2 
 PCOD8126403
Probable space group: P 21/C
;
_chemical_formula_sum "Si O2"
_cell_formula_units_Z 24
_cell_length_a 13.454911
_cell_length_b 21.647633
_cell_length_c 5.207935
_cell_angle_alpha 90.000000
_cell_angle_beta 48.043005
_cell_angle_gamma 90.000000
_cell_volume 1128.037519
_symmetry_space_group_name_H-M "P 21/C"
_symmetry_group_IT_number 14
_symmetry_cell_setting 'monoclinic'
loop_
_space_group_symop_operation_xyz
x,y,z
-x,1/2+y,1/2-z
-x,-y,-z
x,1/2-y,1/2+z
loop_
_atom_site_type_symbol
_atom_site_label
_atom_site_fract_x
_atom_site_fract_y
_atom_site_fract_z
Si Si1 0.333700 0.885970 0.770135
Si Si2 0.954751 0.392294 0.087452
Si Si3 0.896409 0.515530 0.889694
Si Si4 0.863048 0.790966 0.933579
Si Si5 0.563817 0.711417 0.887458
Si Si6 0.367488 0.537109 0.710911
O O1 0.441772 0.834141 0.649722
O O2 0.358108 0.909111 0.438692
O O3 0.179019 0.861396 0.057410
O O4 0.357879 0.938175 0.939144
O O5 0.072944 0.413905 0.076127
O O6 0.905936 0.458931 0.072473
O O7 0.025311 0.345160 0.769178
O O8 0.000000 0.500000 0.500000
O O9 0.747144 0.513820 0.036102
O O10 0.887381 0.742708 0.661283
O O11 0.711933 0.818493 0.173247
O O12 0.550421 0.734092 0.618239
O O13 0.500000 0.500000 0.500000
#
# Coordination Sequence:
#
# PCOD8126403 Si02
#       6
#     4   4   4   4   4   4
#     4  11  23  40  61  89 121 157 201 250 297 362
#     4  10  23  39  62  91 125 162 203 250 308 366
#     4  10  21  40  61  89 128 163 198 253 308 361
#     4  10  24  41  62  91 120 158 208 251 301 366
#     4  10  22  42  61  87 120 158 202 250 304 354
#     4  11  24  39  59  92 122 157 206 242 298 366
#
# _framework density 21.275891000000001
#
# number of rings (size 3 to 8) (size 9 to 14) (size 15 to 20)
#    0.000    1.667    1.667    1.500    4.667    2.667 
#    0.000    0.000    0.000    0.000    0.000    0.000 
#    0.000    0.000    0.000    0.000    0.000    0.000 
#
# Total GULP energy -297363.916037 kJ/mol
# GULP energy per Si atom -12390.163168 kJ/mol
# Density = 2.122747 g / cm^3
# Si number density = 21.275891 Si / 1000 Ang^3
#
#
#
# Elastic Constant Matrix: (Units=GPa)
#
#
# Indices 1 2 3 4 5 6 
#
# 1 68.5859 12.8378 28.7062 0.0000 -20.3271 0.0000
# 2 12.8378 46.2599 29.2402 0.0000 -26.1547 0.0000
# 3 28.7062 29.2402 119.0168 0.0000 -31.3733 0.0000
# 4 0.0000 0.0000 0.0000 44.7704 0.0000 -9.7188
# 5 -20.3271 -26.1547 -31.3733 0.0000 57.2341 0.0000
# 6 0.0000 0.0000 0.0000 -9.7188 0.0000 26.9941
#
#
#
# Elastic Compliance Matrix: (Units=1/GPa)
#
#
# Indices 1 2 3 4 5 6 
#
# 1 0.017151 -0.000522 -0.002882 0.000000 0.004273 0.000000
# 2 -0.000522 0.031143 -0.004468 0.000000 0.011597 0.000000
# 3 -0.002882 -0.004468 0.010973 0.000000 0.002949 0.000000
# 4 0.000000 0.000000 0.000000 0.024230 0.000000 0.008724
# 5 0.004273 0.011597 0.002949 0.000000 0.025906 0.000000
# 6 0.000000 0.000000 0.000000 0.008724 0.000000 0.040186
#
#
# Mechanical properties :
#
#
# Convention : Reuss Voigt Hill
#
# Bulk Modulus (GPa) = 22.97737 41.71456 32.34596
# Shear Modulus (GPa) = 27.80259 36.67162 32.23711
#
# Velocity S-wave (km/s) = 3.61884 4.15616 3.89677
# Velocity P-wave (km/s) = 5.31832 6.53304 5.95672
#
# Compressibility (1/GPa) = 0.04352109
#
# Stress axis : x y z
#
# Youngs Moduli (GPa) = 58.30711 32.11002 91.13692
#
# Poissons Ratio (x) = 0.01676 0.26266
# Poissons Ratio (y) = 0.03044 0.40723
# Poissons Ratio (z) = 0.16804 0.14348
#
# Static dielectric constant tensor:
#      x y z
#    x 4.276610 0.000000 -0.321540 
#    y 0.000000 3.209700 0.000000 
#    z -0.321540 0.000000 4.154770 
# 
# 
# High freq. dielectric constant tensor:
#      x y z
#    x 1.844710 0.000000 -0.009710 
#    y 0.000000 1.804170 0.000000 
#    z -0.009710 0.000000 1.857880 
# 
# From -- ./inp_files/1617.got.cif
#   From: 2010.03.12/outbox.cif.g09.slc.cpg/sg14_1_cif.got.tgz:1617.got - 2010.03.31 13:35:05.
