data_PCOD8126520
_publ_section_title
;
Structure prediction by ZEFSAII (Michael W. Deem and Ramdas Pophale) SiO2 
 PCOD8126520
Probable space group: P 21/C
;
_chemical_formula_sum "Si O2"
_cell_formula_units_Z 28
_cell_length_a 14.891388
_cell_length_b 9.786316
_cell_length_c 9.873364
_cell_angle_alpha 90.000000
_cell_angle_beta 69.705500
_cell_angle_gamma 90.000000
_cell_volume 1349.541965
_symmetry_space_group_name_H-M "P 21/C"
_symmetry_group_IT_number 14
_symmetry_cell_setting 'monoclinic'
loop_
_space_group_symop_operation_xyz
x,y,z
-x,1/2+y,1/2-z
-x,-y,-z
x,1/2-y,1/2+z
loop_
_atom_site_type_symbol
_atom_site_label
_atom_site_fract_x
_atom_site_fract_y
_atom_site_fract_z
Si Si1 0.040374 0.045958 0.338540
Si Si2 0.444591 0.439695 0.655714
Si Si3 0.755774 0.490523 0.347825
Si Si4 0.166116 0.515147 0.406437
Si Si5 0.569874 0.313944 0.144824
Si Si6 0.693219 0.304213 0.819127
Si Si7 0.992907 0.651021 0.626539
O O1 0.005533 0.196616 0.319660
O O2 0.154675 0.040658 0.285800
O O3 0.000000 0.000000 0.500000
O O4 0.996287 0.949955 0.249694
O O5 0.500000 0.500000 0.500000
O O6 0.333961 0.432320 0.671196
O O7 0.462376 0.541666 0.773507
O O8 0.479130 0.286428 0.670737
O O9 0.768530 0.526776 0.499450
O O10 0.749877 0.327040 0.342603
O O11 0.233177 0.572606 0.250605
O O12 0.107936 0.378753 0.395896
O O13 0.085936 0.629653 0.483338
O O14 0.380952 0.651268 0.024874
O O15 0.641245 0.233923 0.206482
#
# Coordination Sequence:
#
# PCOD8126520 Si02
#       7
#     4   4   4   4   4   4   4
#     4  11  25  43  65  99 137 176 226 276 342 404
#     4  11  22  46  65  99 137 176 213 291 331 405
#     4  10  22  39  66  90 135 172 223 274 346 384
#     4  10  21  40  67  92 133 175 230 276 331 406
#     4  11  23  41  72  96 133 172 230 267 353 396
#     4  11  20  40  67 101 121 183 228 273 331 424
#     4  10  25  40  66  97 135 178 223 281 340 401
#
# _framework density 20.747779999999999
#
# number of rings (size 3 to 8) (size 9 to 14) (size 15 to 20)
#    0.000    1.429    4.286    0.857   10.000    2.857 
#    5.143    0.000    0.000    0.000    0.000    0.000 
#    0.000    0.000    0.000    0.000    0.000    0.000 
#
# Total GULP energy -347222.114794 kJ/mol
# GULP energy per Si atom -12400.789814 kJ/mol
# Density = 2.070056 g / cm^3
# Si number density = 20.747780 Si / 1000 Ang^3
#
#
#
# Elastic Constant Matrix: (Units=GPa)
#
#
# Indices 1 2 3 4 5 6 
#
# 1 112.5355 47.4640 46.3012 0.0000 5.8296 0.0000
# 2 47.4640 120.7995 54.1585 0.0000 -3.5583 0.0000
# 3 46.3012 54.1585 145.5126 0.0000 -10.7238 0.0000
# 4 0.0000 0.0000 0.0000 29.7983 0.0000 -2.3234
# 5 5.8296 -3.5583 -10.7238 0.0000 33.7572 0.0000
# 6 0.0000 0.0000 0.0000 -2.3234 0.0000 30.5106
#
#
#
# Elastic Compliance Matrix: (Units=1/GPa)
#
#
# Indices 1 2 3 4 5 6 
#
# 1 0.011600 -0.003471 -0.002636 0.000000 -0.003206 0.000000
# 2 -0.003471 0.010975 -0.002919 0.000000 0.000829 0.000000
# 3 -0.002636 -0.002919 0.009020 0.000000 0.003013 0.000000
# 4 0.000000 0.000000 0.000000 0.033759 0.000000 0.002571
# 5 -0.003206 0.000829 0.003013 0.000000 0.031221 0.000000
# 6 0.000000 0.000000 0.000000 0.002571 0.000000 0.032971
#
#
# Mechanical properties :
#
#
# Convention : Reuss Voigt Hill
#
# Bulk Modulus (GPa) = 73.83671 74.96612 74.40141
# Shear Modulus (GPa) = 32.87019 34.20816 33.53917
#
# Velocity S-wave (km/s) = 3.98461 4.06490 4.02496
# Velocity P-wave (km/s) = 7.53887 7.63163 7.58539
#
# Compressibility (1/GPa) = 0.01354340
#
# Stress axis : x y z
#
# Youngs Moduli (GPa) = 86.20335 91.11458 110.87059
#
# Poissons Ratio (x) = 0.31624 0.29222
# Poissons Ratio (y) = 0.29919 0.32368
# Poissons Ratio (z) = 0.22721 0.26600
#
# Static dielectric constant tensor:
#      x y z
#    x 3.027190 0.000000 -0.652670 
#    y 0.000000 3.673170 0.000000 
#    z -0.652670 0.000000 3.474100 
# 
# 
# High freq. dielectric constant tensor:
#      x y z
#    x 1.818940 0.000000 0.001980 
#    y 0.000000 1.794930 0.000000 
#    z 0.001980 0.000000 1.821870 
# 
# From -- ./inp_files/31520.got.cif
#   From: 2010.03.12/outbox.cif.g09.slc.cpg/sg14_16_cif.got.tgz:31520.got - 2010.03.31 13:35:05.
