data_PCOD8126532
_publ_section_title
;
Structure prediction by ZEFSAII (Michael W. Deem and Ramdas Pophale) SiO2 
 PCOD8126532
Probable space group: P 21/C
;
_chemical_formula_sum "Si O2"
_cell_formula_units_Z 24
_cell_length_a 11.777609
_cell_length_b 14.642767
_cell_length_c 11.416546
_cell_angle_alpha 90.000000
_cell_angle_beta 36.592691
_cell_angle_gamma 90.000000
_cell_volume 1173.682146
_symmetry_space_group_name_H-M "P 21/C"
_symmetry_group_IT_number 14
_symmetry_cell_setting 'monoclinic'
loop_
_space_group_symop_operation_xyz
x,y,z
-x,1/2+y,1/2-z
-x,-y,-z
x,1/2-y,1/2+z
loop_
_atom_site_type_symbol
_atom_site_label
_atom_site_fract_x
_atom_site_fract_y
_atom_site_fract_z
Si Si1 0.293834 0.022321 0.327227
Si Si2 0.623875 0.160805 0.107447
Si Si3 0.881538 0.025833 0.767567
Si Si4 0.555642 0.133918 0.631754
Si Si5 0.849882 0.912502 0.018129
Si Si6 0.250453 0.593641 0.262445
O O1 0.431928 0.109316 0.226104
O O2 0.092244 0.049114 0.549822
O O3 0.263236 0.001410 0.215826
O O4 0.382319 0.931711 0.313017
O O5 0.645213 0.266212 0.057766
O O6 0.641501 0.156300 0.233443
O O7 0.805492 0.115392 0.895484
O O8 0.890979 0.943101 0.851361
O O9 0.329799 0.154877 0.829167
O O10 0.617387 0.084426 0.460970
O O11 0.783218 0.993998 0.157697
O O12 0.041748 0.864043 0.905379
#
# Coordination Sequence:
#
# PCOD8126532 Si02
#       6
#     4   4   4   4   4   4
#     4  11  23  43  66  91 128 172 209 262 314 375
#     4  11  26  40  65  95 129 169 210 264 312 380
#     4  10  22  43  67  89 127 167 216 256 317 369
#     4  12  24  39  65  96 126 169 212 258 318 371
#     4  10  21  40  68  91 119 171 204 266 316 370
#     4  10  22  41  63  91 127 160 213 260 316 374
#
# _framework density 20.448467999999998
#
# number of rings (size 3 to 8) (size 9 to 14) (size 15 to 20)
#    0.000    1.333    5.000    1.000    2.333    1.333 
#    3.000    0.000    0.000    0.000    0.000    0.000 
#    0.000    0.000    0.000    0.000    0.000    0.000 
#
# Total GULP energy -297585.636915 kJ/mol
# GULP energy per Si atom -12399.401538 kJ/mol
# Density = 2.040193 g / cm^3
# Si number density = 20.448468 Si / 1000 Ang^3
#
#
#
# Elastic Constant Matrix: (Units=GPa)
#
#
# Indices 1 2 3 4 5 6 
#
# 1 117.8195 15.5730 19.8015 0.0000 4.6788 0.0000
# 2 15.5730 64.7993 -3.0934 0.0000 5.6837 0.0000
# 3 19.8015 -3.0934 55.1121 0.0000 0.8268 0.0000
# 4 0.0000 0.0000 0.0000 14.3609 0.0000 -2.9108
# 5 4.6788 5.6837 0.8268 0.0000 40.5228 0.0000
# 6 0.0000 0.0000 0.0000 -2.9108 0.0000 10.9609
#
#
#
# Elastic Compliance Matrix: (Units=1/GPa)
#
#
# Indices 1 2 3 4 5 6 
#
# 1 0.009417 -0.002371 -0.003506 0.000000 -0.000683 0.000000
# 2 -0.002371 0.016267 0.001796 0.000000 -0.002045 0.000000
# 3 -0.003506 0.001796 0.019509 0.000000 -0.000245 0.000000
# 4 0.000000 0.000000 0.000000 0.073595 0.000000 0.019544
# 5 -0.000683 -0.002045 -0.000245 0.000000 0.025048 0.000000
# 6 0.000000 0.000000 0.000000 0.019544 0.000000 0.096424
#
#
# Mechanical properties :
#
#
# Convention : Reuss Voigt Hill
#
# Bulk Modulus (GPa) = 27.00490 33.58812 30.29651
# Shear Modulus (GPa) = 19.17423 26.86556 23.01990
#
# Velocity S-wave (km/s) = 3.06549 3.62860 3.35886
# Velocity P-wave (km/s) = 5.07588 5.83241 5.46725
#
# Compressibility (1/GPa) = 0.03703032
#
# Stress axis : x y z
#
# Youngs Moduli (GPa) = 106.18689 61.47396 51.25803
#
# Poissons Ratio (x) = 0.14574 0.17973
# Poissons Ratio (y) = 0.25174 -0.09203
# Poissons Ratio (z) = 0.37234 -0.11038
#
# Static dielectric constant tensor:
#      x y z
#    x 4.155200 0.000000 -0.088900 
#    y 0.000000 3.261850 0.000000 
#    z -0.088900 0.000000 3.884240 
# 
# 
# High freq. dielectric constant tensor:
#      x y z
#    x 1.818290 0.000000 -0.001920 
#    y 0.000000 1.760510 0.000000 
#    z -0.001920 0.000000 1.819370 
# 
# From -- ./inp_files/29728.got.cif
#   From: 2010.03.12/outbox.cif.g09.slc.cpg/sg14_15_cif.got.tgz:29728.got - 2010.03.31 13:35:05.
