data_PCOD8126408
_publ_section_title
;
Structure prediction by ZEFSAII (Michael W. Deem and Ramdas Pophale) SiO2 
 PCOD8126408
Probable space group: P 21/C
;
_chemical_formula_sum "Si O2"
_cell_formula_units_Z 32
_cell_length_a 9.578116
_cell_length_b 19.811421
_cell_length_c 10.781994
_cell_angle_alpha 90.000000
_cell_angle_beta 134.751334
_cell_angle_gamma 90.000000
_cell_volume 1452.969528
_symmetry_space_group_name_H-M "P 21/C"
_symmetry_group_IT_number 14
_symmetry_cell_setting 'monoclinic'
loop_
_space_group_symop_operation_xyz
x,y,z
-x,1/2+y,1/2-z
-x,-y,-z
x,1/2-y,1/2+z
loop_
_atom_site_type_symbol
_atom_site_label
_atom_site_fract_x
_atom_site_fract_y
_atom_site_fract_z
Si Si1 0.262908 0.105046 0.665830
Si Si2 0.387904 0.797847 0.184417
Si Si3 0.311700 0.952834 0.634043
Si Si4 0.999261 0.102783 0.730962
Si Si5 0.895634 0.129307 0.292254
Si Si6 0.733502 0.271352 0.129801
Si Si7 0.106359 0.908878 0.970607
Si Si8 0.758479 0.548355 0.387326
O O1 0.457941 0.148025 0.770611
O O2 0.150230 0.127706 0.719811
O O3 0.124479 0.120601 0.463671
O O4 0.311103 0.025361 0.700161
O O5 0.420952 0.775323 0.349071
O O6 0.377506 0.738154 0.073551
O O7 0.178189 0.835756 0.061052
O O8 0.160101 0.951132 0.423392
O O9 0.244448 0.894436 0.685246
O O10 0.531384 0.931915 0.732827
O O11 0.134754 0.068046 0.918000
O O12 0.876730 0.164737 0.710522
O O13 0.866943 0.207097 0.242045
O O14 0.846675 0.082121 0.144869
O O15 0.219300 0.967691 0.116837
O O16 0.871847 0.913186 0.847899
#
# Coordination Sequence:
#
# PCOD8126408 Si02
#       8
#     4   4   4   4   4   4   4   4
#     4  11  23  42  68 103 133 173 226 287 353 405
#     4  11  23  44  69  96 137 177 229 285 338 411
#     4  11  23  42  70 106 133 175 228 283 350 416
#     4  11  24  43  66  99 136 179 226 282 337 418
#     4  10  23  43  66  92 137 173 225 279 335 407
#     4  11  25  47  65  94 141 184 233 282 332 417
#     4  10  21  40  61  99 129 170 214 280 337 404
#     4  11  22  39  69  96 136 171 218 276 353 398
#
# _framework density 22.023861
#
# number of rings (size 3 to 8) (size 9 to 14) (size 15 to 20)
#    0.000    1.250    2.500    4.500    3.500    3.000 
#    2.250    2.500    0.000    0.000    0.000    0.000 
#    0.000    0.000    0.000    0.000    0.000    0.000 
#
# Total GULP energy -396649.384907 kJ/mol
# GULP energy per Si atom -12395.293278 kJ/mol
# Density = 2.197373 g / cm^3
# Si number density = 22.023861 Si / 1000 Ang^3
#
#
#
# Elastic Constant Matrix: (Units=GPa)
#
#
# Indices 1 2 3 4 5 6 
#
# 1 119.7072 26.2417 42.9697 0.0000 -1.1683 0.0000
# 2 26.2417 49.2356 20.5349 0.0000 -7.8338 0.0000
# 3 42.9697 20.5349 58.2680 0.0000 4.7922 0.0000
# 4 0.0000 0.0000 0.0000 25.0958 0.0000 -3.1029
# 5 -1.1683 -7.8338 4.7922 0.0000 39.1245 0.0000
# 6 0.0000 0.0000 0.0000 -3.1029 0.0000 28.5245
#
#
#
# Elastic Compliance Matrix: (Units=1/GPa)
#
#
# Indices 1 2 3 4 5 6 
#
# 1 0.011771 -0.002951 -0.007698 0.000000 0.000704 0.000000
# 2 -0.002951 0.025956 -0.007467 0.000000 0.006023 0.000000
# 3 -0.007698 -0.007467 0.025873 0.000000 -0.004894 0.000000
# 4 0.000000 0.000000 0.000000 0.040391 0.000000 0.004394
# 5 0.000704 0.006023 -0.004894 0.000000 0.027386 0.000000
# 6 0.000000 0.000000 0.000000 0.004394 0.000000 0.035536
#
#
# Mechanical properties :
#
#
# Convention : Reuss Voigt Hill
#
# Bulk Modulus (GPa) = 36.53898 45.18928 40.86413
# Shear Modulus (GPa) = 23.55534 27.71326 25.63430
#
# Velocity S-wave (km/s) = 3.27393 3.55114 3.41535
# Velocity P-wave (km/s) = 5.56041 6.11367 5.84359
#
# Compressibility (1/GPa) = 0.02736803
#
# Stress axis : x y z
#
# Youngs Moduli (GPa) = 84.95578 38.52703 38.65017
#
# Poissons Ratio (x) = 0.11369 0.29754
# Poissons Ratio (y) = 0.25070 0.28859
# Poissons Ratio (z) = 0.65401 0.28767
#
# Static dielectric constant tensor:
#      x y z
#    x 4.195160 0.000000 -0.186650 
#    y 0.000000 3.900620 0.000000 
#    z -0.186650 0.000000 4.024420 
# 
# 
# High freq. dielectric constant tensor:
#      x y z
#    x 1.877110 0.000000 -0.010730 
#    y 0.000000 1.863820 0.000000 
#    z -0.010730 0.000000 1.856110 
# 
# From -- ./inp_files/26798.got.cif
#   From: 2010.03.12/outbox.cif.g09.slc.cpg/sg14_14_cif.got.tgz:26798.got - 2010.03.31 13:35:05.
