data_PCOD8126469
_publ_section_title
;
Structure prediction by ZEFSAII (Michael W. Deem and Ramdas Pophale) SiO2 
 PCOD8126469
Probable space group: P 21/C
;
_chemical_formula_sum "Si O2"
_cell_formula_units_Z 32
_cell_length_a 18.767224
_cell_length_b 7.832009
_cell_length_c 15.567013
_cell_angle_alpha 90.000000
_cell_angle_beta 42.704654
_cell_angle_gamma 90.000000
_cell_volume 1551.846240
_symmetry_space_group_name_H-M "P 21/C"
_symmetry_group_IT_number 14
_symmetry_cell_setting 'monoclinic'
loop_
_space_group_symop_operation_xyz
x,y,z
-x,1/2+y,1/2-z
-x,-y,-z
x,1/2-y,1/2+z
loop_
_atom_site_type_symbol
_atom_site_label
_atom_site_fract_x
_atom_site_fract_y
_atom_site_fract_z
Si Si1 0.583424 0.944904 0.306978
Si Si2 0.397148 0.361351 0.027284
Si Si3 0.749408 0.314836 0.592918
Si Si4 0.974435 0.634480 0.893946
Si Si5 0.839303 0.425460 0.143489
Si Si6 0.370336 0.683096 0.952070
Si Si7 0.903241 0.532459 0.361859
Si Si8 0.715819 0.962139 0.905556
O O1 0.630327 0.844940 0.347234
O O2 0.498802 0.827233 0.329395
O O3 0.521654 0.109104 0.402101
O O4 0.677180 0.014053 0.164441
O O5 0.371507 0.182160 0.006323
O O6 0.332075 0.518624 0.041189
O O7 0.773451 0.232132 0.663302
O O8 0.686167 0.178587 0.590302
O O9 0.861006 0.369357 0.452944
O O10 0.940018 0.822873 0.895568
O O11 0.072173 0.652628 0.872223
O O12 0.001714 0.526990 0.784022
O O13 0.882177 0.538450 0.026643
O O14 0.761272 0.540110 0.268820
O O15 0.335303 0.855710 0.029959
O O16 0.807503 0.595901 0.388412
#
# Coordination Sequence:
#
# PCOD8126469 Si02
#       8
#     4   4   4   4   4   4   4   4
#     4   9  21  40  56  89 128 157 207 252 292 364
#     4   9  20  40  60  85 124 168 199 250 304 355
#     4  11  22  39  61  95 121 163 214 246 312 368
#     4  10  22  44  59  91 124 155 202 259 332 360
#     4  10  23  39  63  91 126 152 208 266 299 385
#     4   9  21  40  59  85 132 165 196 261 291 359
#     4  10  23  40  65  87 120 159 201 256 308 392
#     4  10  21  40  64  94 117 166 212 241 306 369
#
# _framework density 20.6206
#
# number of rings (size 3 to 8) (size 9 to 14) (size 15 to 20)
#    0.750    1.500    0.000    1.500    3.500    3.000 
#    4.500    0.000    0.000    0.000    0.000    0.000 
#    0.000    0.000    0.000    0.000    0.000    0.000 
#
# Total GULP energy -396613.694348 kJ/mol
# GULP energy per Si atom -12394.177948 kJ/mol
# Density = 2.057367 g / cm^3
# Si number density = 20.620600 Si / 1000 Ang^3
#
#
#
# Elastic Constant Matrix: (Units=GPa)
#
#
# Indices 1 2 3 4 5 6 
#
# 1 90.0359 51.1249 24.6011 0.0000 13.0507 0.0000
# 2 51.1249 97.5158 22.4563 0.0000 1.5959 0.0000
# 3 24.6011 22.4563 70.9700 0.0000 4.7061 0.0000
# 4 0.0000 0.0000 0.0000 20.5791 0.0000 -3.2149
# 5 13.0507 1.5959 4.7061 0.0000 26.0561 0.0000
# 6 0.0000 0.0000 0.0000 -3.2149 0.0000 45.7378
#
#
#
# Elastic Compliance Matrix: (Units=1/GPa)
#
#
# Indices 1 2 3 4 5 6 
#
# 1 0.017950 -0.008595 -0.002977 0.000000 -0.007926 0.000000
# 2 -0.008595 0.015177 -0.002071 0.000000 0.003750 0.000000
# 3 -0.002977 -0.002071 0.015860 0.000000 -0.001247 0.000000
# 4 0.000000 0.000000 0.000000 0.049132 0.000000 0.003454
# 5 -0.007926 0.003750 -0.001247 0.000000 0.042344 0.000000
# 6 0.000000 0.000000 0.000000 0.003454 0.000000 0.022106
#
#
# Mechanical properties :
#
#
# Convention : Reuss Voigt Hill
#
# Bulk Modulus (GPa) = 46.08319 50.54293 48.31306
# Shear Modulus (GPa) = 25.36915 29.16392 27.26653
#
# Velocity S-wave (km/s) = 3.51134 3.76481 3.64028
# Velocity P-wave (km/s) = 6.23185 6.59261 6.41477
#
# Compressibility (1/GPa) = 0.02169989
#
# Stress axis : x y z
#
# Youngs Moduli (GPa) = 55.71167 65.89078 63.05008
#
# Poissons Ratio (x) = 0.56635 0.18768
# Poissons Ratio (y) = 0.47886 0.13060
# Poissons Ratio (z) = 0.16584 0.13648
#
# Static dielectric constant tensor:
#      x y z
#    x 3.746250 0.000000 0.089250 
#    y 0.000000 3.379530 0.000000 
#    z 0.089250 0.000000 3.717180 
# 
# 
# High freq. dielectric constant tensor:
#      x y z
#    x 1.809140 0.000000 0.009800 
#    y 0.000000 1.787510 0.000000 
#    z 0.009800 0.000000 1.804960 
# 
# From -- ./inp_files/50077.got.cif
#   From: 2010.03.12/outbox.cif.g09.slc.cpg/sg14_26_cif.got.tgz:50077.got - 2010.03.31 13:35:05.
