data_PCOD8126231
_publ_section_title
;
Structure prediction by ZEFSAII (Michael W. Deem and Ramdas Pophale) SiO2 
 PCOD8126231
Probable space group: P 21/C
;
_chemical_formula_sum "Si O2"
_cell_formula_units_Z 28
_cell_length_a 8.890485
_cell_length_b 29.296098
_cell_length_c 5.229404
_cell_angle_alpha 90.000000
_cell_angle_beta 120.347174
_cell_angle_gamma 90.000000
_cell_volume 1175.406500
_symmetry_space_group_name_H-M "P 21/C"
_symmetry_group_IT_number 14
_symmetry_cell_setting 'monoclinic'
loop_
_space_group_symop_operation_xyz
x,y,z
-x,1/2+y,1/2-z
-x,-y,-z
x,1/2-y,1/2+z
loop_
_atom_site_type_symbol
_atom_site_label
_atom_site_fract_x
_atom_site_fract_y
_atom_site_fract_z
Si Si1 0.524720 0.625024 0.887657
Si Si2 0.217389 0.043958 0.852098
Si Si3 0.892987 0.618910 0.377433
Si Si4 0.002153 0.722750 0.513271
Si Si5 0.580959 0.077958 0.192459
Si Si6 0.414684 0.724217 0.855291
Si Si7 0.913866 0.453789 0.725286
O O1 0.731603 0.614715 0.039734
O O2 0.435046 0.593914 0.028901
O O3 0.435006 0.618174 0.534835
O O4 0.505750 0.676162 0.966968
O O5 0.107338 0.036199 0.499140
O O6 0.157934 0.000071 0.978819
O O7 0.168051 0.093634 0.918203
O O8 0.425651 0.042277 0.988997
O O9 0.931866 0.671373 0.470850
O O10 0.065545 0.591791 0.429543
O O11 0.935512 0.748503 0.201070
O O12 0.208474 0.718938 0.686990
O O13 0.770880 0.055681 0.325316
O O14 0.480769 0.745619 0.647807
#
# Coordination Sequence:
#
# PCOD8126231 Si02
#       7
#     4   4   4   4   4   4   4
#     4  11  24  42  64  97 131 173 226 274 331 406
#     4  10  24  44  63 105 134 177 233 274 335 406
#     4  11  24  42  68  95 142 170 227 282 336 397
#     4  10  24  40  65  96 129 170 225 273 331 405
#     4  11  24  43  66  97 134 179 224 270 331 396
#     4  10  21  39  60  90 126 166 218 277 329 395
#     4  11  23  42  71  94 138 185 220 282 337 394
#
# _framework density 23.821546999999999
#
# number of rings (size 3 to 8) (size 9 to 14) (size 15 to 20)
#    0.000    1.429    1.429    2.571    6.000    2.286 
#    0.000    2.143    0.000    0.000    0.000    0.000 
#    0.000    0.000    0.000    0.000    0.000    0.000 
#
# Total GULP energy -347039.269318 kJ/mol
# GULP energy per Si atom -12394.259618 kJ/mol
# Density = 2.376733 g / cm^3
# Si number density = 23.821547 Si / 1000 Ang^3
#
#
#
# Elastic Constant Matrix: (Units=GPa)
#
#
# Indices 1 2 3 4 5 6 
#
# 1 71.2752 27.7965 28.7021 0.0000 -4.1086 0.0000
# 2 27.7965 155.2560 21.1665 0.0000 -3.3210 0.0000
# 3 28.7021 21.1665 62.2052 0.0000 -13.9997 0.0000
# 4 0.0000 0.0000 0.0000 29.4699 0.0000 0.4862
# 5 -4.1086 -3.3210 -13.9997 0.0000 30.4993 0.0000
# 6 0.0000 0.0000 0.0000 0.4862 0.0000 42.4150
#
#
#
# Elastic Compliance Matrix: (Units=1/GPa)
#
#
# Indices 1 2 3 4 5 6 
#
# 1 0.017965 -0.002174 -0.007871 0.000000 -0.001430 0.000000
# 2 -0.002174 0.007021 -0.001427 0.000000 -0.000183 0.000000
# 3 -0.007871 -0.001427 0.022215 0.000000 0.008981 0.000000
# 4 0.000000 0.000000 0.000000 0.033939 0.000000 -0.000389
# 5 -0.001430 -0.000183 0.008981 0.000000 0.036698 0.000000
# 6 0.000000 0.000000 0.000000 -0.000389 0.000000 0.023581
#
#
# Mechanical properties :
#
#
# Convention : Reuss Voigt Hill
#
# Bulk Modulus (GPa) = 41.22734 49.34074 45.28404
# Shear Modulus (GPa) = 28.99409 34.54827 31.77118
#
# Velocity S-wave (km/s) = 3.49253 3.81241 3.65597
# Velocity P-wave (km/s) = 5.79724 6.33537 6.07227
#
# Compressibility (1/GPa) = 0.02425575
#
# Stress axis : x y z
#
# Youngs Moduli (GPa) = 55.66288 142.43323 45.01527
#
# Poissons Ratio (x) = 0.30963 0.35433
# Poissons Ratio (y) = 0.12101 0.06425
# Poissons Ratio (z) = 0.43815 0.20328
#
# Static dielectric constant tensor:
#      x y z
#    x 4.418460 0.000000 0.108320 
#    y 0.000000 4.445240 0.000000 
#    z 0.108320 0.000000 4.067690 
# 
# 
# High freq. dielectric constant tensor:
#      x y z
#    x 1.950330 0.000000 0.009320 
#    y 0.000000 1.953910 0.000000 
#    z 0.009320 0.000000 1.929430 
# 
# From -- ./inp_files/2179.got.cif
#   From: 2010.03.12/outbox.cif.g09.slc.cpg/sg14_2_cif.got.tgz:2179.got - 2010.03.31 13:35:05.
