data_PCOD8126323
_publ_section_title
;
Structure prediction by ZEFSAII (Michael W. Deem and Ramdas Pophale) SiO2 
 PCOD8126323
Probable space group: P 21/C
;
_chemical_formula_sum "Si O2"
_cell_formula_units_Z 28
_cell_length_a 13.008222
_cell_length_b 9.579306
_cell_length_c 19.849735
_cell_angle_alpha 90.000000
_cell_angle_beta 146.977822
_cell_angle_gamma 90.000000
_cell_volume 1347.951343
_symmetry_space_group_name_H-M "P 21/C"
_symmetry_group_IT_number 14
_symmetry_cell_setting 'monoclinic'
loop_
_space_group_symop_operation_xyz
x,y,z
-x,1/2+y,1/2-z
-x,-y,-z
x,1/2-y,1/2+z
loop_
_atom_site_type_symbol
_atom_site_label
_atom_site_fract_x
_atom_site_fract_y
_atom_site_fract_z
Si Si1 0.352388 0.556709 0.365771
Si Si2 0.652334 0.872826 0.659264
Si Si3 0.693580 0.726473 0.330739
Si Si4 0.046467 0.150266 0.706315
Si Si5 0.282217 0.852587 0.371911
Si Si6 0.431769 0.533876 0.257892
Si Si7 0.932784 0.145632 0.492267
O O1 0.500000 0.500000 0.500000
O O2 0.142400 0.501211 0.266118
O O3 0.340757 0.722297 0.358716
O O4 0.419139 0.503263 0.329870
O O5 0.629267 0.837834 0.724557
O O6 0.781827 0.759059 0.693690
O O7 0.443414 0.881578 0.514817
O O8 0.749040 0.022183 0.698029
O O9 0.631213 0.608825 0.350792
O O10 0.922711 0.738857 0.458906
O O11 0.600674 0.880567 0.293412
O O12 0.908442 0.177487 0.692189
O O13 0.937110 0.157949 0.575334
O O14 0.282998 0.653782 0.150941
O O15 0.000000 0.000000 0.500000
#
# Coordination Sequence:
#
# PCOD8126323 Si02
#       7
#     4   4   4   4   4   4   4
#     4  12  23  42  61  91 135 161 201 265 311 369
#     4  10  21  42  59  90 130 158 210 265 298 382
#     4  10  21  39  65  91 121 165 206 258 324 357
#     4  11  20  41  65  87 124 168 203 256 322 362
#     4  11  23  36  64  93 120 170 212 247 313 382
#     4  11  22  41  66  90 126 162 207 259 313 374
#     4   9  18  39  63  86 120 159 206 251 303 374
#
# _framework density 20.772264
#
# number of rings (size 3 to 8) (size 9 to 14) (size 15 to 20)
#    0.000    1.429    5.714    1.714    2.000    0.000 
#    5.143    0.714    0.000    0.000    0.000    0.000 
#    0.000    0.000    0.000    0.000    0.000    0.000 
#
# Total GULP energy -347078.087695 kJ/mol
# GULP energy per Si atom -12395.645989 kJ/mol
# Density = 2.072499 g / cm^3
# Si number density = 20.772264 Si / 1000 Ang^3
#
#
#
# Elastic Constant Matrix: (Units=GPa)
#
#
# Indices 1 2 3 4 5 6 
#
# 1 73.2269 29.8481 15.5765 0.0000 11.2007 0.0000
# 2 29.8481 92.1671 6.8604 0.0000 -2.8411 0.0000
# 3 15.5765 6.8604 73.8598 0.0000 -1.4945 0.0000
# 4 0.0000 0.0000 0.0000 31.8222 0.0000 2.8092
# 5 11.2007 -2.8411 -1.4945 0.0000 19.7219 0.0000
# 6 0.0000 0.0000 0.0000 2.8092 0.0000 39.9327
#
#
#
# Elastic Compliance Matrix: (Units=1/GPa)
#
#
# Indices 1 2 3 4 5 6 
#
# 1 0.018745 -0.006165 -0.003620 0.000000 -0.011808 0.000000
# 2 -0.006165 0.012998 0.000202 0.000000 0.005389 0.000000
# 3 -0.003620 0.000202 0.014348 0.000000 0.003172 0.000000
# 4 0.000000 0.000000 0.000000 0.031621 0.000000 -0.002224
# 5 -0.011808 0.005389 0.003172 0.000000 0.058428 0.000000
# 6 0.000000 0.000000 0.000000 -0.002224 0.000000 0.025199
#
#
# Mechanical properties :
#
#
# Convention : Reuss Voigt Hill
#
# Bulk Modulus (GPa) = 37.13987 38.20264 37.67126
# Shear Modulus (GPa) = 26.38811 30.75995 28.57403
#
# Velocity S-wave (km/s) = 3.56807 3.85231 3.71291
# Velocity P-wave (km/s) = 5.90704 6.18209 6.04613
#
# Compressibility (1/GPa) = 0.02692524
#
# Stress axis : x y z
#
# Youngs Moduli (GPa) = 53.34662 76.93771 69.69647
#
# Poissons Ratio (x) = 0.47434 0.25227
# Poissons Ratio (y) = 0.32889 -0.01408
# Poissons Ratio (z) = 0.19309 -0.01554
#
# Static dielectric constant tensor:
#      x y z
#    x 3.697930 0.000000 0.212610 
#    y 0.000000 3.843600 0.000000 
#    z 0.212610 0.000000 3.859770 
# 
# 
# High freq. dielectric constant tensor:
#      x y z
#    x 1.810550 0.000000 0.007470 
#    y 0.000000 1.814450 0.000000 
#    z 0.007470 0.000000 1.802680 
# 
# From -- ./inp_files/68360.got.cif
#   From: 2010.03.12/outbox.cif.g09.slc.cpg/sg14_35_cif.got.tgz:68360.got - 2010.03.31 13:35:05.
