data_PCOD8126162
_publ_section_title
;
Structure prediction by ZEFSAII (Michael W. Deem and Ramdas Pophale) SiO2 
 PCOD8126162
Probable space group: P 21/C
;
_chemical_formula_sum "Si O2"
_cell_formula_units_Z 32
_cell_length_a 8.886314
_cell_length_b 9.322845
_cell_length_c 23.028020
_cell_angle_alpha 90.000000
_cell_angle_beta 122.022591
_cell_angle_gamma 90.000000
_cell_volume 1617.484594
_symmetry_space_group_name_H-M "P 21/C"
_symmetry_group_IT_number 14
_symmetry_cell_setting 'monoclinic'
loop_
_space_group_symop_operation_xyz
x,y,z
-x,1/2+y,1/2-z
-x,-y,-z
x,1/2-y,1/2+z
loop_
_atom_site_type_symbol
_atom_site_label
_atom_site_fract_x
_atom_site_fract_y
_atom_site_fract_z
Si Si1 0.143926 0.369385 0.711782
Si Si2 0.672899 0.367599 0.209867
Si Si3 0.984732 0.724446 0.197845
Si Si4 0.260902 0.240322 0.509249
Si Si5 0.657937 0.240397 0.578251
Si Si6 0.722550 0.825660 0.356520
Si Si7 0.929183 0.493708 0.093896
Si Si8 0.162429 0.031745 0.902590
O O1 0.260766 0.469582 0.776877
O O2 0.025387 0.281239 0.733901
O O3 0.266219 0.271746 0.697778
O O4 0.023983 0.450027 0.639765
O O5 0.676780 0.297679 0.148446
O O6 0.475025 0.384373 0.193582
O O7 0.813329 0.273965 0.277055
O O8 0.944206 0.572263 0.159314
O O9 0.839662 0.842969 0.147082
O O10 0.453525 0.211148 0.518953
O O11 0.267289 0.257766 0.580023
O O12 0.138463 0.105124 0.468121
O O13 0.182270 0.389943 0.468777
O O14 0.686624 0.411262 0.575191
O O15 0.796260 0.143282 0.569667
O O16 0.875246 0.945716 0.386094
#
# Coordination Sequence:
#
# PCOD8126162 Si02
#       8
#     4   4   4   4   4   4   4   4
#     4  11  21  40  61  90 121 159 204 244 306 363
#     4  10  22  37  59  93 126 149 200 249 305 361
#     4  10  21  38  65  90 119 156 201 254 294 366
#     4  10  24  40  59  88 124 154 211 245 299 357
#     4  11  19  39  64  90 115 156 204 260 291 352
#     4  11  24  38  62  85 126 167 191 251 302 366
#     4  11  21  40  64  86 117 165 201 248 302 349
#     4  10  21  38  64  89 119 156 201 249 303 347
#
# _framework density 19.783805999999998
#
# number of rings (size 3 to 8) (size 9 to 14) (size 15 to 20)
#    0.000    1.500    3.750    1.125    3.500    0.500 
#    2.250    0.000    0.000    0.000    0.000    0.000 
#    0.000    0.000    0.000    0.000    0.000    0.000 
#
# Total GULP energy -396550.628439 kJ/mol
# GULP energy per Si atom -12392.207139 kJ/mol
# Density = 1.973878 g / cm^3
# Si number density = 19.783806 Si / 1000 Ang^3
#
#
#
# Elastic Constant Matrix: (Units=GPa)
#
#
# Indices 1 2 3 4 5 6 
#
# 1 98.6515 34.3731 25.9547 0.0000 -0.0931 0.0000
# 2 34.3731 105.0929 28.4007 0.0000 0.8054 0.0000
# 3 25.9547 28.4007 66.9354 0.0000 -3.8464 0.0000
# 4 0.0000 0.0000 0.0000 24.1090 0.0000 -0.0760
# 5 -0.0931 0.8054 -3.8464 0.0000 20.4285 0.0000
# 6 0.0000 0.0000 0.0000 -0.0760 0.0000 24.0700
#
#
#
# Elastic Compliance Matrix: (Units=1/GPa)
#
#
# Indices 1 2 3 4 5 6 
#
# 1 0.012093 -0.003024 -0.003433 0.000000 -0.000472 0.000000
# 2 -0.003024 0.011538 -0.003791 0.000000 -0.001182 0.000000
# 3 -0.003433 -0.003791 0.018083 0.000000 0.003539 0.000000
# 4 0.000000 0.000000 0.000000 0.041479 0.000000 0.000131
# 5 -0.000472 -0.001182 0.003539 0.000000 0.049662 0.000000
# 6 0.000000 0.000000 0.000000 0.000131 0.000000 0.041546
#
#
# Mechanical properties :
#
#
# Convention : Reuss Voigt Hill
#
# Bulk Modulus (GPa) = 47.13047 49.79297 48.46172
# Shear Modulus (GPa) = 24.75624 25.85160 25.30392
#
# Velocity S-wave (km/s) = 3.54126 3.61876 3.58022
# Velocity P-wave (km/s) = 6.37144 6.53328 6.45287
#
# Compressibility (1/GPa) = 0.02121770
#
# Stress axis : x y z
#
# Youngs Moduli (GPa) = 82.69145 86.67028 55.30082
#
# Poissons Ratio (x) = 0.26208 0.18986
# Poissons Ratio (y) = 0.25005 0.20964
# Poissons Ratio (z) = 0.28390 0.32857
#
# Static dielectric constant tensor:
#      x y z
#    x 3.585770 0.000000 0.286250 
#    y 0.000000 3.695920 0.000000 
#    z 0.286250 0.000000 3.671280 
# 
# 
# High freq. dielectric constant tensor:
#      x y z
#    x 1.756580 0.000000 0.017350 
#    y 0.000000 1.774120 0.000000 
#    z 0.017350 0.000000 1.777010 
# 
# From -- ./inp_files/76277.got.cif
#   From: 2010.03.12/outbox.cif.g09.slc.cpg/sg14_39_cif.got.tgz:76277.got - 2010.03.31 13:35:05.
