data_PCOD8126425
_publ_section_title
;
Structure prediction by ZEFSAII (Michael W. Deem and Ramdas Pophale) SiO2 
 PCOD8126425
Probable space group: P 21/C
;
_chemical_formula_sum "Si O2"
_cell_formula_units_Z 28
_cell_length_a 8.002891
_cell_length_b 12.908440
_cell_length_c 13.104645
_cell_angle_alpha 90.000000
_cell_angle_beta 81.501161
_cell_angle_gamma 90.000000
_cell_volume 1338.907257
_symmetry_space_group_name_H-M "P 21/C"
_symmetry_group_IT_number 14
_symmetry_cell_setting 'monoclinic'
loop_
_space_group_symop_operation_xyz
x,y,z
-x,1/2+y,1/2-z
-x,-y,-z
x,1/2-y,1/2+z
loop_
_atom_site_type_symbol
_atom_site_label
_atom_site_fract_x
_atom_site_fract_y
_atom_site_fract_z
Si Si1 0.915981 0.356870 0.569313
Si Si2 0.419423 0.015064 0.663646
Si Si3 0.978316 0.338421 0.937897
Si Si4 0.257781 0.462834 0.536028
Si Si5 0.262618 0.695392 0.217271
Si Si6 0.520371 0.106392 0.859097
Si Si7 0.757913 0.518772 0.021344
O O1 0.969317 0.278316 0.477026
O O2 0.794060 0.445406 0.536642
O O3 0.811967 0.291698 0.662767
O O4 0.091099 0.406547 0.594899
O O5 0.394063 0.898315 0.703778
O O6 0.594568 0.023995 0.590646
O O7 0.421612 0.089867 0.761487
O O8 0.276198 0.049551 0.594702
O O9 0.902218 0.335733 0.832372
O O10 0.170691 0.381118 0.924079
O O11 0.880389 0.419746 0.018774
O O12 0.358178 0.509300 0.623924
O O13 0.380250 0.383661 0.461990
O O14 0.360694 0.793364 0.162176
#
# Coordination Sequence:
#
# PCOD8126425 Si02
#       7
#     4   4   4   4   4   4   4
#     4  11  22  44  60  96 123 169 212 263 310 386
#     4  10  21  40  62  91 125 159 209 260 314 384
#     4  10  21  41  62  89 125 161 206 261 315 376
#     4  10  24  42  66  87 136 166 208 261 325 370
#     4  11  23  39  67  89 122 165 215 254 313 382
#     4  11  22  44  64  94 123 174 204 266 318 382
#     4   9  21  40  61  92 126 158 198 272 323 361
#
# _framework density 20.912576999999999
#
# number of rings (size 3 to 8) (size 9 to 14) (size 15 to 20)
#    0.000    1.714    2.857    0.857    4.000    0.000 
#    7.714    0.000    0.000    0.000    0.000    0.000 
#    0.000    0.000    0.000    0.000    0.000    0.000 
#
# Total GULP energy -347093.051824 kJ/mol
# GULP energy per Si atom -12396.180422 kJ/mol
# Density = 2.086498 g / cm^3
# Si number density = 20.912577 Si / 1000 Ang^3
#
#
#
# Elastic Constant Matrix: (Units=GPa)
#
#
# Indices 1 2 3 4 5 6 
#
# 1 75.1948 27.8084 4.8226 0.0000 8.1708 0.0000
# 2 27.8084 64.5737 21.0668 0.0000 -1.5357 0.0000
# 3 4.8226 21.0668 50.5491 0.0000 3.0919 0.0000
# 4 0.0000 0.0000 0.0000 29.6260 0.0000 -2.6444
# 5 8.1708 -1.5357 3.0919 0.0000 29.5010 0.0000
# 6 0.0000 0.0000 0.0000 -2.6444 0.0000 39.5205
#
#
#
# Elastic Compliance Matrix: (Units=1/GPa)
#
#
# Indices 1 2 3 4 5 6 
#
# 1 0.016690 -0.007983 0.002056 0.000000 -0.005254 0.000000
# 2 -0.007983 0.021830 -0.008596 0.000000 0.004248 0.000000
# 3 0.002056 -0.008596 0.023381 0.000000 -0.003467 0.000000
# 4 0.000000 0.000000 0.000000 0.033957 0.000000 0.002272
# 5 -0.005254 0.004248 -0.003467 0.000000 0.035937 0.000000
# 6 0.000000 0.000000 0.000000 0.002272 0.000000 0.025455
#
#
# Mechanical properties :
#
#
# Convention : Reuss Voigt Hill
#
# Bulk Modulus (GPa) = 30.43700 33.07923 31.75812
# Shear Modulus (GPa) = 25.34883 28.83747 27.09315
#
# Velocity S-wave (km/s) = 3.48535 3.71745 3.60327
# Velocity P-wave (km/s) = 5.54823 5.85476 5.70355
#
# Compressibility (1/GPa) = 0.03285475
#
# Stress axis : x y z
#
# Youngs Moduli (GPa) = 59.91545 45.80939 42.76958
#
# Poissons Ratio (x) = 0.36571 -0.08794
# Poissons Ratio (y) = 0.47832 0.36764
# Poissons Ratio (z) = -0.12320 0.39377
#
# Static dielectric constant tensor:
#      x y z
#    x 4.047310 0.000000 0.145160 
#    y 0.000000 3.662790 0.000000 
#    z 0.145160 0.000000 3.626160 
# 
# 
# High freq. dielectric constant tensor:
#      x y z
#    x 1.832180 0.000000 0.004950 
#    y 0.000000 1.806060 0.000000 
#    z 0.004950 0.000000 1.807110 
# 
# From -- ./inp_files/25211.got.cif
#   From: 2010.03.12/outbox.cif.g09.slc.cpg/sg14_13_cif.got.tgz:25211.got - 2010.03.31 13:35:05.
