data_PCOD8126324
_publ_section_title
;
Structure prediction by ZEFSAII (Michael W. Deem and Ramdas Pophale) SiO2 
 PCOD8126324
Probable space group: P 21/C
;
_chemical_formula_sum "Si O2"
_cell_formula_units_Z 32
_cell_length_a 22.358739
_cell_length_b 8.710090
_cell_length_c 21.902012
_cell_angle_alpha 90.000000
_cell_angle_beta 21.516279
_cell_angle_gamma 90.000000
_cell_volume 1564.380934
_symmetry_space_group_name_H-M "P 21/C"
_symmetry_group_IT_number 14
_symmetry_cell_setting 'monoclinic'
loop_
_space_group_symop_operation_xyz
x,y,z
-x,1/2+y,1/2-z
-x,-y,-z
x,1/2-y,1/2+z
loop_
_atom_site_type_symbol
_atom_site_label
_atom_site_fract_x
_atom_site_fract_y
_atom_site_fract_z
Si Si1 0.653322 0.160786 0.219219
Si Si2 0.821203 0.291585 0.946079
Si Si3 0.201251 0.767021 0.217172
Si Si4 0.989085 0.076714 0.697895
Si Si5 0.434390 0.870160 0.410930
Si Si6 0.727382 0.682141 0.153105
Si Si7 0.635638 0.084699 0.829221
Si Si8 0.919334 0.554817 0.515073
O O1 0.575554 0.270719 0.345481
O O2 0.515181 0.036308 0.336868
O O3 0.830358 0.090210 0.068831
O O4 0.690284 0.252243 0.122342
O O5 0.963508 0.401641 0.835705
O O6 0.920874 0.146179 0.825943
O O7 0.715046 0.373810 0.994337
O O8 0.221280 0.846155 0.264044
O O9 0.155647 0.906713 0.214560
O O10 0.065604 0.633852 0.338897
O O11 0.368238 0.681995 0.040284
O O12 0.147216 0.163496 0.521438
O O13 0.565492 0.737100 0.271284
O O14 0.711483 0.529491 0.207862
O O15 0.781261 0.812666 0.151258
O O16 0.500000 0.000000 0.000000
O O17 0.000000 0.500000 0.500000
#
# Coordination Sequence:
#
# PCOD8126324 Si02
#       8
#     4   4   4   4   4   4   4   4
#     4  11  25  42  68  95 127 175 222 259 331 392
#     4  11  25  44  66  93 130 168 222 269 323 382
#     4  10  22  42  66  92 133 164 212 266 327 374
#     4  10  24  43  64  94 125 168 217 271 316 381
#     4  10  24  43  63  93 130 174 214 268 319 385
#     4  10  22  41  64  94 133 167 212 266 322 381
#     4  12  23  41  65  99 135 169 211 267 326 390
#     4  10  21  39  65  91 125 167 211 262 315 384
#
# _framework density 20.455375
#
# number of rings (size 3 to 8) (size 9 to 14) (size 15 to 20)
#    0.000    1.500    3.750    0.000    8.750    4.500 
#    2.250    0.000    0.000    0.000    0.000    0.000 
#    0.000    0.000    0.000    0.000    0.000    0.000 
#
# Total GULP energy -396527.095162 kJ/mol
# GULP energy per Si atom -12391.471724 kJ/mol
# Density = 2.040882 g / cm^3
# Si number density = 20.455375 Si / 1000 Ang^3
#
#
#
# Elastic Constant Matrix: (Units=GPa)
#
#
# Indices 1 2 3 4 5 6 
#
# 1 78.7721 38.6760 20.4638 0.0000 5.6812 0.0000
# 2 38.6760 102.0137 32.5737 0.0000 3.6115 0.0000
# 3 20.4638 32.5737 92.5495 0.0000 6.2387 0.0000
# 4 0.0000 0.0000 0.0000 42.7782 0.0000 0.3584
# 5 5.6812 3.6115 6.2387 0.0000 25.2466 0.0000
# 6 0.0000 0.0000 0.0000 0.3584 0.0000 29.2238
#
#
#
# Elastic Compliance Matrix: (Units=1/GPa)
#
#
# Indices 1 2 3 4 5 6 
#
# 1 0.015943 -0.005503 -0.001423 0.000000 -0.002449 0.000000
# 2 -0.005503 0.012953 -0.003357 0.000000 0.000215 0.000000
# 3 -0.001423 -0.003357 0.012455 0.000000 -0.002277 0.000000
# 4 0.000000 0.000000 0.000000 0.023379 0.000000 -0.000287
# 5 -0.002449 0.000215 -0.002277 0.000000 0.040692 0.000000
# 6 0.000000 0.000000 0.000000 -0.000287 0.000000 0.034222
#
#
# Mechanical properties :
#
#
# Convention : Reuss Voigt Hill
#
# Bulk Modulus (GPa) = 48.11231 50.75135 49.43183
# Shear Modulus (GPa) = 29.91519 31.55784 30.73651
#
# Velocity S-wave (km/s) = 3.82836 3.93207 3.88056
# Velocity P-wave (km/s) = 6.56609 6.74385 6.65556
#
# Compressibility (1/GPa) = 0.02078470
#
# Stress axis : x y z
#
# Youngs Moduli (GPa) = 62.72240 77.20062 80.29145
#
# Poissons Ratio (x) = 0.42486 0.11427
# Poissons Ratio (y) = 0.34518 0.26951
# Poissons Ratio (z) = 0.08927 0.25914
#
# Static dielectric constant tensor:
#      x y z
#    x 3.776910 0.000000 -0.000570 
#    y 0.000000 3.968900 0.000000 
#    z -0.000570 0.000000 3.799880 
# 
# 
# High freq. dielectric constant tensor:
#      x y z
#    x 1.797970 0.000000 -0.001530 
#    y 0.000000 1.801690 0.000000 
#    z -0.001530 0.000000 1.801080 
# 
# From -- ./inp_files/74901.got.cif
#   From: 2010.03.12/outbox.cif.g09.slc.cpg/sg14_38_cif.got.tgz:74901.got - 2010.03.31 13:35:05.
