data_PCOD8126210
_publ_section_title
;
Structure prediction by ZEFSAII (Michael W. Deem and Ramdas Pophale) SiO2 
 PCOD8126210
Probable space group: P 21/C
;
_chemical_formula_sum "Si O2"
_cell_formula_units_Z 20
_cell_length_a 10.084419
_cell_length_b 9.225230
_cell_length_c 9.715564
_cell_angle_alpha 90.000000
_cell_angle_beta 99.562581
_cell_angle_gamma 90.000000
_cell_volume 891.290235
_symmetry_space_group_name_H-M "P 21/C"
_symmetry_group_IT_number 14
_symmetry_cell_setting 'monoclinic'
loop_
_space_group_symop_operation_xyz
x,y,z
-x,1/2+y,1/2-z
-x,-y,-z
x,1/2-y,1/2+z
loop_
_atom_site_type_symbol
_atom_site_label
_atom_site_fract_x
_atom_site_fract_y
_atom_site_fract_z
Si Si1 0.514075 0.860936 0.308551
Si Si2 0.407981 0.662462 0.080384
Si Si3 0.802574 0.666705 0.746298
Si Si4 0.943459 0.839780 0.002372
Si Si5 0.120172 0.907542 0.583877
O O1 0.402935 0.802950 0.180163
O O2 0.483809 0.793937 0.453535
O O3 0.653425 0.798979 0.271871
O O4 0.511756 0.034912 0.323747
O O5 0.257290 0.606505 0.016803
O O6 0.817657 0.684727 0.584769
O O7 0.838091 0.495983 0.772896
O O8 0.902858 0.774452 0.847260
O O9 0.065874 0.753562 0.097300
O O10 0.000000 0.000000 0.000000
O O11 0.000000 0.000000 0.500000
#
# Coordination Sequence:
#
# PCOD8126210 Si02
#       5
#     4   4   4   4   4
#     4  10  22  39  60  88 118 157 201 247 303 354
#     4  10  22  39  61  87 120 159 201 250 300 359
#     4  10  21  39  58  83 120 153 191 246 298 352
#     4  11  22  36  60  87 114 154 200 243 293 352
#     4   9  21  39  58  83 121 157 193 243 301 354
#
# _framework density 22.439378999999999
#
# number of rings (size 3 to 8) (size 9 to 14) (size 15 to 20)
#    0.000    2.000    0.000    2.400    0.000   10.400 
#    0.000    0.000    0.000    0.000    0.000    0.000 
#    0.000    0.000    0.000    0.000    0.000    0.000 
#
# Total GULP energy -247786.755173 kJ/mol
# GULP energy per Si atom -12389.337759 kJ/mol
# Density = 2.238831 g / cm^3
# Si number density = 22.439379 Si / 1000 Ang^3
#
#
#
# Elastic Constant Matrix: (Units=GPa)
#
#
# Indices 1 2 3 4 5 6 
#
# 1 113.5381 41.5502 44.9261 0.0000 -12.9154 0.0000
# 2 41.5502 109.4967 34.9550 0.0000 -6.3196 0.0000
# 3 44.9261 34.9550 114.5053 0.0000 -28.7337 0.0000
# 4 0.0000 0.0000 0.0000 31.3750 0.0000 2.0035
# 5 -12.9154 -6.3196 -28.7337 0.0000 34.0903 0.0000
# 6 0.0000 0.0000 0.0000 2.0035 0.0000 29.0578
#
#
#
# Elastic Compliance Matrix: (Units=1/GPa)
#
#
# Indices 1 2 3 4 5 6 
#
# 1 0.011381 -0.003230 -0.003231 0.000000 0.000990 0.000000
# 2 -0.003230 0.011059 -0.002411 0.000000 -0.001206 0.000000
# 3 -0.003231 -0.002411 0.013085 0.000000 0.009358 0.000000
# 4 0.000000 0.000000 0.000000 0.032013 0.000000 -0.002207
# 5 0.000990 -0.001206 0.009358 0.000000 0.037373 0.000000
# 6 0.000000 0.000000 0.000000 -0.002207 0.000000 0.034566
#
#
# Mechanical properties :
#
#
# Convention : Reuss Voigt Hill
#
# Bulk Modulus (GPa) = 56.24189 64.48916 60.36553
# Shear Modulus (GPa) = 30.64703 33.31186 31.97944
#
# Velocity S-wave (km/s) = 3.69964 3.85714 3.77921
# Velocity P-wave (km/s) = 6.58545 6.97412 6.78257
#
# Compressibility (1/GPa) = 0.01778034
#
# Stress axis : x y z
#
# Youngs Moduli (GPa) = 87.86827 90.42810 76.42238
#
# Poissons Ratio (x) = 0.29209 0.24691
# Poissons Ratio (y) = 0.28382 0.18427
# Poissons Ratio (z) = 0.28388 0.21804
#
# Static dielectric constant tensor:
#      x y z
#    x 4.238260 0.000000 -0.032750 
#    y 0.000000 4.229650 0.000000 
#    z -0.032750 0.000000 3.799900 
# 
# 
# High freq. dielectric constant tensor:
#      x y z
#    x 1.888670 0.000000 -0.015990 
#    y 0.000000 1.884650 0.000000 
#    z -0.015990 0.000000 1.862370 
# 
# From -- ./inp_files/11842.got.cif
#   From: 2010.03.12/outbox.cif.g09.slc.cpg/sg14_6_cif.got.tgz:11842.got - 2010.03.31 13:35:05.
