data_PCOD8126567
_publ_section_title
;
Structure prediction by ZEFSAII (Michael W. Deem and Ramdas Pophale) SiO2 
 PCOD8126567
Probable space group: P 21/C
;
_chemical_formula_sum "Si O2"
_cell_formula_units_Z 28
_cell_length_a 15.151943
_cell_length_b 8.379622
_cell_length_c 12.386035
_cell_angle_alpha 90.000000
_cell_angle_beta 60.702527
_cell_angle_gamma 90.000000
_cell_volume 1371.471514
_symmetry_space_group_name_H-M "P 21/C"
_symmetry_group_IT_number 14
_symmetry_cell_setting 'monoclinic'
loop_
_space_group_symop_operation_xyz
x,y,z
-x,1/2+y,1/2-z
-x,-y,-z
x,1/2-y,1/2+z
loop_
_atom_site_type_symbol
_atom_site_label
_atom_site_fract_x
_atom_site_fract_y
_atom_site_fract_z
Si Si1 0.254557 0.195026 0.226214
Si Si2 0.392631 0.303221 0.848243
Si Si3 0.770083 0.523366 0.910691
Si Si4 0.385602 0.555330 0.560173
Si Si5 0.396508 0.558274 0.330047
Si Si6 0.117987 0.975457 0.440587
Si Si7 0.742896 0.215749 0.244047
O O1 0.345837 0.215932 0.257028
O O2 0.206643 0.350319 0.198286
O O3 0.304101 0.089018 0.102413
O O4 0.161289 0.117191 0.343100
O O5 0.500371 0.389478 0.787129
O O6 0.406632 0.120125 0.874064
O O7 0.329864 0.415782 0.967320
O O8 0.765306 0.356050 0.848803
O O9 0.856966 0.499793 0.947842
O O10 0.500000 0.500000 0.500000
O O11 0.376066 0.656328 0.453543
O O12 0.350397 0.660110 0.684450
O O13 0.300182 0.578737 0.309273
O O14 0.160977 0.805761 0.368392
O O15 0.000000 0.000000 0.500000
#
# Coordination Sequence:
#
# PCOD8126567 Si02
#       7
#     4   4   4   4   4   4   4
#     4  10  21  41  61  90 125 169 209 261 318 383
#     4  11  24  35  59  93 135 178 214 259 301 387
#     4  11  23  43  65  92 129 169 214 265 331 379
#     4  11  21  37  57  86 129 174 206 251 312 361
#     4  12  23  36  59  92 134 176 222 251 312 375
#     4  10  25  47  68  94 126 158 218 281 329 385
#     4  11  25  40  64  93 129 170 215 261 316 394
#
# _framework density 20.416025000000001
#
# number of rings (size 3 to 8) (size 9 to 14) (size 15 to 20)
#    0.000    1.143    4.286    1.714    6.000    1.714 
#    0.000    0.714    0.000    0.000    0.000    0.000 
#    0.000    0.000    0.000    0.000    0.000    0.000 
#
# Total GULP energy -346896.007217 kJ/mol
# GULP energy per Si atom -12389.143115 kJ/mol
# Density = 2.036956 g / cm^3
# Si number density = 20.416025 Si / 1000 Ang^3
#
#
#
# Elastic Constant Matrix: (Units=GPa)
#
#
# Indices 1 2 3 4 5 6 
#
# 1 138.3867 41.4605 71.2844 0.0000 -2.3782 0.0000
# 2 41.4605 80.9072 32.5376 0.0000 1.3225 0.0000
# 3 71.2844 32.5376 104.5085 0.0000 9.8960 0.0000
# 4 0.0000 0.0000 0.0000 37.6624 0.0000 6.9856
# 5 -2.3782 1.3225 9.8960 0.0000 33.1492 0.0000
# 6 0.0000 0.0000 0.0000 6.9856 0.0000 22.1331
#
#
#
# Elastic Compliance Matrix: (Units=1/GPa)
#
#
# Indices 1 2 3 4 5 6 
#
# 1 0.012166 -0.003231 -0.007603 0.000000 0.003271 0.000000
# 2 -0.003231 0.015006 -0.002459 0.000000 -0.000096 0.000000
# 3 -0.007603 -0.002459 0.016015 0.000000 -0.005228 0.000000
# 4 0.000000 0.000000 0.000000 0.028203 0.000000 -0.008901
# 5 0.003271 -0.000096 -0.005228 0.000000 0.031966 0.000000
# 6 0.000000 0.000000 0.000000 -0.008901 0.000000 0.047991
#
#
# Mechanical properties :
#
#
# Convention : Reuss Voigt Hill
#
# Bulk Modulus (GPa) = 60.23199 68.26305 64.24752
# Shear Modulus (GPa) = 27.25307 30.49025 28.87166
#
# Velocity S-wave (km/s) = 3.65757 3.86871 3.76462
# Velocity P-wave (km/s) = 6.88502 7.31194 7.10169
#
# Compressibility (1/GPa) = 0.01660247
#
# Stress axis : x y z
#
# Youngs Moduli (GPa) = 82.19363 66.64026 62.44165
#
# Poissons Ratio (x) = 0.21529 0.47471
# Poissons Ratio (y) = 0.26554 0.15356
# Poissons Ratio (z) = 0.62488 0.16388
#
# Static dielectric constant tensor:
#      x y z
#    x 3.403190 0.000000 0.296120 
#    y 0.000000 3.927880 0.000000 
#    z 0.296120 0.000000 3.964550 
# 
# 
# High freq. dielectric constant tensor:
#      x y z
#    x 1.772530 0.000000 0.024080 
#    y 0.000000 1.799370 0.000000 
#    z 0.024080 0.000000 1.814360 
# 
# From -- ./inp_files/31646.got.cif
#   From: 2010.03.12/outbox.cif.g09.slc.cpg/sg14_16_cif.got.tgz:31646.got - 2010.03.31 13:35:05.
