data_PCOD8126157
_publ_section_title
;
Structure prediction by ZEFSAII (Michael W. Deem and Ramdas Pophale) SiO2 
 PCOD8126157
Probable space group: P 21/C
;
_chemical_formula_sum "Si O2"
_cell_formula_units_Z 28
_cell_length_a 7.850249
_cell_length_b 14.217337
_cell_length_c 9.182010
_cell_angle_alpha 90.000000
_cell_angle_beta 92.807809
_cell_angle_gamma 90.000000
_cell_volume 1023.570486
_symmetry_space_group_name_H-M "P 21/C"
_symmetry_group_IT_number 14
_symmetry_cell_setting 'monoclinic'
loop_
_space_group_symop_operation_xyz
x,y,z
-x,1/2+y,1/2-z
-x,-y,-z
x,1/2-y,1/2+z
loop_
_atom_site_type_symbol
_atom_site_label
_atom_site_fract_x
_atom_site_fract_y
_atom_site_fract_z
Si Si1 0.165845 0.392921 0.470186
Si Si2 0.199241 0.404895 0.792223
Si Si3 0.359057 0.708590 0.385747
Si Si4 0.097337 0.465442 0.167779
Si Si5 0.450777 0.534918 0.216150
Si Si6 0.013545 0.252780 0.143429
Si Si7 0.504314 0.836100 0.174480
O O1 0.216687 0.443880 0.624702
O O2 0.097333 0.466777 0.346493
O O3 0.321001 0.335968 0.406181
O O4 0.026389 0.311317 0.498148
O O5 0.393777 0.412391 0.866082
O O6 0.065932 0.469100 0.884061
O O7 0.125792 0.298364 0.776798
O O8 0.380575 0.600067 0.342282
O O9 0.184161 0.754950 0.320751
O O10 0.510454 0.770002 0.317826
O O11 0.365627 0.711282 0.560692
O O12 0.279224 0.507169 0.116546
O O13 0.082344 0.357606 0.114524
O O14 0.540616 0.441951 0.282028
#
# Coordination Sequence:
#
# PCOD8126157 Si02
#       7
#     4   4   4   4   4   4   4
#     4   9  22  37  66  93 135 166 221 285 338 406
#     4  10  21  38  64 100 125 172 227 282 337 404
#     4  12  24  45  68 106 139 184 229 290 347 412
#     4  11  22  40  64  98 129 179 220 287 343 400
#     4  11  23  40  71  97 138 176 235 285 338 408
#     4  10  24  39  64  96 140 169 225 282 344 412
#     4  11  26  41  72 101 141 180 233 284 351 412
#
# _framework density 27.355224
#
# number of rings (size 3 to 8) (size 9 to 14) (size 15 to 20)
#    0.857    0.571    2.857    1.714   14.000    0.000 
#    0.000    0.714    0.000    1.714    0.000    0.000 
#    0.000    0.000    0.000    0.000    0.000    0.000 
#
# Total GULP energy -346873.362780 kJ/mol
# GULP energy per Si atom -12388.334385 kJ/mol
# Density = 2.729296 g / cm^3
# Si number density = 27.355224 Si / 1000 Ang^3
#
#
#
# Elastic Constant Matrix: (Units=GPa)
#
#
# Indices 1 2 3 4 5 6 
#
# 1 179.9084 44.1959 7.6313 0.0000 4.9407 0.0000
# 2 44.1959 121.6903 5.2193 0.0000 17.0580 0.0000
# 3 7.6313 5.2193 18.7739 0.0000 -0.9572 0.0000
# 4 0.0000 0.0000 0.0000 33.7474 0.0000 -0.7897
# 5 4.9407 17.0580 -0.9572 0.0000 23.7744 0.0000
# 6 0.0000 0.0000 0.0000 -0.7897 0.0000 43.8023
#
#
#
# Elastic Compliance Matrix: (Units=1/GPa)
#
#
# Indices 1 2 3 4 5 6 
#
# 1 0.006171 -0.002190 -0.001889 0.000000 0.000213 0.000000
# 2 -0.002190 0.010072 -0.002260 0.000000 -0.006862 0.000000
# 3 -0.001889 -0.002260 0.054877 0.000000 0.004223 0.000000
# 4 0.000000 0.000000 0.000000 0.029644 0.000000 0.000534
# 5 0.000213 -0.006862 0.004223 0.000000 0.047112 0.000000
# 6 0.000000 0.000000 0.000000 0.000534 0.000000 0.022840
#
#
# Mechanical properties :
#
#
# Convention : Reuss Voigt Hill
#
# Bulk Modulus (GPa) = 17.11083 48.27395 32.69239
# Shear Modulus (GPa) = 24.64612 37.81990 31.23301
#
# Velocity S-wave (km/s) = 3.00487 3.72230 3.38265
# Velocity P-wave (km/s) = 4.27874 6.01327 5.21857
#
# Compressibility (1/GPa) = 0.05844251
#
# Stress axis : x y z
#
# Youngs Moduli (GPa) = 162.05847 99.28747 18.22271
#
# Poissons Ratio (x) = 0.21743 0.03442
# Poissons Ratio (y) = 0.35489 0.04118
# Poissons Ratio (z) = 0.30606 0.22436
#
# Static dielectric constant tensor:
#      x y z
#    x 5.110480 0.000000 0.176260 
#    y 0.000000 4.671640 0.000000 
#    z 0.176260 0.000000 4.830080 
# 
# 
# High freq. dielectric constant tensor:
#      x y z
#    x 2.108870 0.000000 -0.010300 
#    y 0.000000 2.099120 0.000000 
#    z -0.010300 0.000000 2.083270 
# 
# From -- ./inp_files/24922.got.cif
#   From: 2010.03.12/outbox.cif.g09.slc.cpg/sg14_13_cif.got.tgz:24922.got - 2010.03.31 13:35:05.
