data_PCOD8126506
_publ_section_title
;
Structure prediction by ZEFSAII (Michael W. Deem and Ramdas Pophale) SiO2 
 PCOD8126506
Probable space group: P 21/C
;
_chemical_formula_sum "Si O2"
_cell_formula_units_Z 16
_cell_length_a 6.951174
_cell_length_b 5.302025
_cell_length_c 20.137417
_cell_angle_alpha 90.000000
_cell_angle_beta 117.046213
_cell_angle_gamma 90.000000
_cell_volume 661.006788
_symmetry_space_group_name_H-M "P 21/C"
_symmetry_group_IT_number 14
_symmetry_cell_setting 'monoclinic'
loop_
_space_group_symop_operation_xyz
x,y,z
-x,1/2+y,1/2-z
-x,-y,-z
x,1/2-y,1/2+z
loop_
_atom_site_type_symbol
_atom_site_label
_atom_site_fract_x
_atom_site_fract_y
_atom_site_fract_z
Si Si1 0.465808 0.630392 0.590816
Si Si2 0.682485 0.632632 0.983760
Si Si3 0.123738 0.910205 0.608371
Si Si4 0.126325 0.046914 0.755454
O O1 0.455021 0.387370 0.542487
O O2 0.257824 0.661347 0.606340
O O3 0.674980 0.629567 0.668587
O O4 0.474361 0.876867 0.540644
O O5 0.819138 0.627217 0.935932
O O6 0.865638 0.644083 0.070211
O O7 0.203988 0.998922 0.692758
O O8 0.035369 0.784188 0.769934
#
# Coordination Sequence:
#
# PCOD8126506 Si02
#       4
#     4   4   4   4
#     4  10  21  40  66  90 118 163 218 245 307 362
#     4   9  20  38  71  94 110 154 226 266 288 351
#     4   9  23  39  70  88 124 156 219 254 306 360
#     4  12  28  41  58  95 138 165 198 255 323 372
#
# _framework density 24.205501000000002
#
# number of rings (size 3 to 8) (size 9 to 14) (size 15 to 20)
#    1.500    0.500    0.000    2.250    7.000    0.000 
#    0.000    7.500    0.000    0.000    0.000    0.000 
#    0.000    0.000    0.000    0.000    0.000    0.000 
#
# Total GULP energy -198371.885966 kJ/mol
# GULP energy per Si atom -12398.242873 kJ/mol
# Density = 2.415041 g / cm^3
# Si number density = 24.205501 Si / 1000 Ang^3
#
#
#
# Elastic Constant Matrix: (Units=GPa)
#
#
# Indices 1 2 3 4 5 6 
#
# 1 89.4027 47.7279 60.8618 0.0000 2.6657 0.0000
# 2 47.7279 165.9185 84.2326 0.0000 -5.6766 0.0000
# 3 60.8618 84.2326 154.6960 0.0000 11.7645 0.0000
# 4 0.0000 0.0000 0.0000 39.4581 0.0000 0.8153
# 5 2.6657 -5.6766 11.7645 0.0000 40.1729 0.0000
# 6 0.0000 0.0000 0.0000 0.8153 0.0000 42.5227
#
#
#
# Elastic Compliance Matrix: (Units=1/GPa)
#
#
# Indices 1 2 3 4 5 6 
#
# 1 0.015704 -0.001888 -0.005166 0.000000 0.000204 0.000000
# 2 -0.001888 0.008823 -0.004261 0.000000 0.002620 0.000000
# 3 -0.005166 -0.004261 0.011083 0.000000 -0.003505 0.000000
# 4 0.000000 0.000000 0.000000 0.025353 0.000000 -0.000486
# 5 0.000204 0.002620 -0.003505 0.000000 0.026275 0.000000
# 6 0.000000 0.000000 0.000000 -0.000486 0.000000 0.023526
#
#
# Mechanical properties :
#
#
# Convention : Reuss Voigt Hill
#
# Bulk Modulus (GPa) = 77.03447 88.40687 82.72067
# Shear Modulus (GPa) = 36.30553 38.91039 37.60796
#
# Velocity S-wave (km/s) = 3.87704 4.01372 3.94597
# Velocity P-wave (km/s) = 7.20668 7.62120 7.41683
#
# Compressibility (1/GPa) = 0.01298120
#
# Stress axis : x y z
#
# Youngs Moduli (GPa) = 63.67882 113.34462 90.22712
#
# Poissons Ratio (x) = 0.21396 0.46611
# Poissons Ratio (y) = 0.12021 0.38441
# Poissons Ratio (z) = 0.32896 0.48291
#
# Static dielectric constant tensor:
#      x y z
#    x 4.496520 0.000000 -0.156670 
#    y 0.000000 4.289010 0.000000 
#    z -0.156670 0.000000 4.283930 
# 
# 
# High freq. dielectric constant tensor:
#      x y z
#    x 1.986660 0.000000 -0.017240 
#    y 0.000000 1.962350 0.000000 
#    z -0.017240 0.000000 1.974780 
# 
# From -- ./inp_files/38344.got.cif
#   From: 2010.03.12/outbox.cif.g09.slc.cpg/sg14_20_cif.got.tgz:38344.got - 2010.03.31 13:35:05.
