data_PCOD8126545
_publ_section_title
;
Structure prediction by ZEFSAII (Michael W. Deem and Ramdas Pophale) SiO2 
 PCOD8126545
Probable space group: P 21/C
;
_chemical_formula_sum "Si O2"
_cell_formula_units_Z 28
_cell_length_a 10.699817
_cell_length_b 10.050296
_cell_length_c 13.607977
_cell_angle_alpha 90.000000
_cell_angle_beta 64.304731
_cell_angle_gamma 90.000000
_cell_volume 1318.645146
_symmetry_space_group_name_H-M "P 21/C"
_symmetry_group_IT_number 14
_symmetry_cell_setting 'monoclinic'
loop_
_space_group_symop_operation_xyz
x,y,z
-x,1/2+y,1/2-z
-x,-y,-z
x,1/2-y,1/2+z
loop_
_atom_site_type_symbol
_atom_site_label
_atom_site_fract_x
_atom_site_fract_y
_atom_site_fract_z
Si Si1 0.389458 0.681996 0.857386
Si Si2 0.605711 0.173202 0.942515
Si Si3 0.971585 0.863359 0.953911
Si Si4 0.398191 0.953312 0.753284
Si Si5 0.914319 0.380098 0.985018
Si Si6 0.330643 0.416576 0.470968
Si Si7 0.824438 0.361470 0.797752
O O1 0.430657 0.796391 0.763873
O O2 0.467887 0.543553 0.810046
O O3 0.426512 0.736854 0.951980
O O4 0.228863 0.641181 0.907722
O O5 0.463979 0.181803 0.926114
O O6 0.741732 0.223035 0.839206
O O7 0.644037 0.020635 0.950046
O O8 0.064517 0.843928 0.825769
O O9 0.815473 0.843043 0.965954
O O10 0.997664 0.753116 0.028150
O O11 0.000000 0.000000 0.000000
O O12 0.294639 0.966821 0.695359
O O13 0.314005 0.004712 0.875388
O O14 0.893901 0.407303 0.875829
O O15 0.000000 0.500000 0.000000
#
# Coordination Sequence:
#
# PCOD8126545 Si02
#       7
#     4   4   4   4   4   4   4
#     4  10  22  43  65  99 136 172 227 284 334 402
#     4   9  21  42  66 100 135 173 226 291 335 394
#     4  12  23  46  69  98 138 184 227 272 335 423
#     4  11  21  41  70  95 131 182 224 276 341 399
#     4  11  27  45  64 103 142 171 222 292 341 400
#     4  10  21  40  69  99 133 179 232 272 333 418
#     4  11  23  43  70  94 135 185 219 283 347 391
#
# _framework density 21.233913999999999
#
# number of rings (size 3 to 8) (size 9 to 14) (size 15 to 20)
#    0.000    1.429    2.857    2.571    0.000    8.000 
#    7.714    0.000    0.000    0.000    0.000    0.000 
#    0.000    0.000    0.000    0.000    0.000    0.000 
#
# Total GULP energy -347044.704167 kJ/mol
# GULP energy per Si atom -12394.453720 kJ/mol
# Density = 2.118558 g / cm^3
# Si number density = 21.233914 Si / 1000 Ang^3
#
#
#
# Elastic Constant Matrix: (Units=GPa)
#
#
# Indices 1 2 3 4 5 6 
#
# 1 180.4109 69.2390 56.7123 0.0000 3.1411 0.0000
# 2 69.2390 112.8221 44.4903 0.0000 3.1865 0.0000
# 3 56.7123 44.4903 105.1425 0.0000 4.1815 0.0000
# 4 0.0000 0.0000 0.0000 28.7143 0.0000 -5.3951
# 5 3.1411 3.1865 4.1815 0.0000 37.5580 0.0000
# 6 0.0000 0.0000 0.0000 -5.3951 0.0000 34.6647
#
#
#
# Elastic Compliance Matrix: (Units=1/GPa)
#
#
# Indices 1 2 3 4 5 6 
#
# 1 0.007810 -0.003758 -0.002620 0.000000 -0.000043 0.000000
# 2 -0.003758 0.012453 -0.003227 0.000000 -0.000383 0.000000
# 3 -0.002620 -0.003227 0.012325 0.000000 -0.000879 0.000000
# 4 0.000000 0.000000 0.000000 0.035875 0.000000 0.005583
# 5 -0.000043 -0.000383 -0.000879 0.000000 0.026759 0.000000
# 6 0.000000 0.000000 0.000000 0.005583 0.000000 0.029717
#
#
# Mechanical properties :
#
#
# Convention : Reuss Voigt Hill
#
# Bulk Modulus (GPa) = 74.75997 82.13986 78.44991
# Shear Modulus (GPa) = 33.64516 35.38299 34.51407
#
# Velocity S-wave (km/s) = 3.98490 4.08652 4.03603
# Velocity P-wave (km/s) = 7.51377 7.81239 7.66454
#
# Compressibility (1/GPa) = 0.01337614
#
# Stress axis : x y z
#
# Youngs Moduli (GPa) = 128.04471 80.29942 81.13677
#
# Poissons Ratio (x) = 0.30179 0.21262
# Poissons Ratio (y) = 0.48123 0.26184
# Poissons Ratio (z) = 0.33554 0.25914
#
# Static dielectric constant tensor:
#      x y z
#    x 4.088160 0.000000 0.125530 
#    y 0.000000 3.721020 0.000000 
#    z 0.125530 0.000000 3.895530 
# 
# 
# High freq. dielectric constant tensor:
#      x y z
#    x 1.848920 0.000000 0.006660 
#    y 0.000000 1.818400 0.000000 
#    z 0.006660 0.000000 1.833610 
# 
# From -- ./inp_files/43282.got.cif
#   From: 2010.03.12/outbox.cif.g09.slc.cpg/sg14_22_cif.got.tgz:43282.got - 2010.03.31 13:35:05.
