data_PCOD8126021
_publ_section_title
;
Structure prediction by ZEFSAII (Michael W. Deem and Ramdas Pophale) SiO2 
 PCOD8126021
Probable space group: P 21/C
;
_chemical_formula_sum "Si O2"
_cell_formula_units_Z 24
_cell_length_a 14.973180
_cell_length_b 14.919165
_cell_length_c 8.666257
_cell_angle_alpha 90.000000
_cell_angle_beta 146.242987
_cell_angle_gamma 90.000000
_cell_volume 1075.743277
_symmetry_space_group_name_H-M "P 21/C"
_symmetry_group_IT_number 14
_symmetry_cell_setting 'monoclinic'
loop_
_space_group_symop_operation_xyz
x,y,z
-x,1/2+y,1/2-z
-x,-y,-z
x,1/2-y,1/2+z
loop_
_atom_site_type_symbol
_atom_site_label
_atom_site_fract_x
_atom_site_fract_y
_atom_site_fract_z
Si Si1 0.799885 0.962344 0.148402
Si Si2 0.352214 0.875473 0.898467
Si Si3 0.282906 0.776119 0.098470
Si Si4 0.012136 0.397713 0.816286
Si Si5 0.614392 0.834290 0.686381
Si Si6 0.301285 0.151452 0.540555
O O1 0.897362 0.887897 0.387102
O O2 0.745233 0.036922 0.194778
O O3 0.648697 0.920130 0.843599
O O4 0.912387 0.009235 0.181030
O O5 0.291934 0.830870 0.650268
O O6 0.323267 0.793487 0.977903
O O7 0.541317 0.899958 0.166400
O O8 0.422684 0.826417 0.397123
O O9 0.107430 0.814700 0.886261
O O10 0.142056 0.401045 0.865955
O O11 0.698874 0.750490 0.888865
O O12 0.699997 0.846536 0.645210
#
# Coordination Sequence:
#
# PCOD8126021 Si02
#       6
#     4   4   4   4   4   4
#     4  10  22  41  61  88 124 157 194 253 306 344
#     4   9  20  39  62  85 118 161 202 242 297 362
#     4   9  20  39  61  85 115 159 201 238 294 362
#     4  10  22  38  58  87 119 150 194 246 304 348
#     4  10  21  40  63  84 119 162 204 244 294 363
#     4  10  21  37  61  90 117 159 205 243 295 362
#
# _framework density 22.310155000000002
#
# number of rings (size 3 to 8) (size 9 to 14) (size 15 to 20)
#    0.000    2.333    0.000    1.000    0.000   15.333 
#    0.000    3.333    0.000    0.000    0.000    0.000 
#    0.000    0.000    0.000    0.000    0.000    0.000 
#
# Total GULP energy -297481.278321 kJ/mol
# GULP energy per Si atom -12395.053263 kJ/mol
# Density = 2.225938 g / cm^3
# Si number density = 22.310155 Si / 1000 Ang^3
#
#
#
# Elastic Constant Matrix: (Units=GPa)
#
#
# Indices 1 2 3 4 5 6 
#
# 1 96.0610 29.6854 33.5164 0.0000 30.6799 0.0000
# 2 29.6854 61.4928 35.1960 0.0000 7.2598 0.0000
# 3 33.5164 35.1960 88.0643 0.0000 17.4711 0.0000
# 4 0.0000 0.0000 0.0000 34.0067 0.0000 -7.7637
# 5 30.6799 7.2598 17.4711 0.0000 38.1235 0.0000
# 6 0.0000 0.0000 0.0000 -7.7637 0.0000 28.9920
#
#
#
# Elastic Compliance Matrix: (Units=1/GPa)
#
#
# Indices 1 2 3 4 5 6 
#
# 1 0.016346 -0.005548 -0.001764 0.000000 -0.011289 0.000000
# 2 -0.005548 0.022970 -0.007795 0.000000 0.003663 0.000000
# 3 -0.001764 -0.007795 0.016023 0.000000 -0.004439 0.000000
# 4 0.000000 0.000000 0.000000 0.031321 0.000000 0.008387
# 5 -0.011289 0.003663 -0.004439 0.000000 0.036652 0.000000
# 6 0.000000 0.000000 0.000000 0.008387 0.000000 0.036738
#
#
# Mechanical properties :
#
#
# Convention : Reuss Voigt Hill
#
# Bulk Modulus (GPa) = 39.80397 49.15708 44.48052
# Shear Modulus (GPa) = 25.17134 30.03915 27.60524
#
# Velocity S-wave (km/s) = 3.36258 3.67336 3.52140
# Velocity P-wave (km/s) = 5.74072 6.33030 6.04271
#
# Compressibility (1/GPa) = 0.02512312
#
# Stress axis : x y z
#
# Youngs Moduli (GPa) = 61.17843 43.53559 62.41129
#
# Poissons Ratio (x) = 0.24156 0.11008
# Poissons Ratio (y) = 0.33945 0.48651
# Poissons Ratio (z) = 0.10791 0.33937
#
# Static dielectric constant tensor:
#      x y z
#    x 3.981800 0.000000 0.090230 
#    y 0.000000 3.763230 0.000000 
#    z 0.090230 0.000000 4.128440 
# 
# 
# High freq. dielectric constant tensor:
#      x y z
#    x 1.877190 0.000000 0.011490 
#    y 0.000000 1.852620 0.000000 
#    z 0.011490 0.000000 1.880610 
# 
# From -- ./inp_files/16329.got.cif
#   From: 2010.03.12/outbox.cif.g09.slc.cpg/sg14_9_cif.got.tgz:16329.got - 2010.03.31 13:35:05.
