data_PCOD8126267
_publ_section_title
;
Structure prediction by ZEFSAII (Michael W. Deem and Ramdas Pophale) SiO2 
 PCOD8126267
Probable space group: P 21/C
;
_chemical_formula_sum "Si O2"
_cell_formula_units_Z 20
_cell_length_a 9.155284
_cell_length_b 19.118752
_cell_length_c 4.979344
_cell_angle_alpha 90.000000
_cell_angle_beta 72.360436
_cell_angle_gamma 90.000000
_cell_volume 830.592544
_symmetry_space_group_name_H-M "P 21/C"
_symmetry_group_IT_number 14
_symmetry_cell_setting 'monoclinic'
loop_
_space_group_symop_operation_xyz
x,y,z
-x,1/2+y,1/2-z
-x,-y,-z
x,1/2-y,1/2+z
loop_
_atom_site_type_symbol
_atom_site_label
_atom_site_fract_x
_atom_site_fract_y
_atom_site_fract_z
Si Si1 0.176243 0.993895 0.830455
Si Si2 0.556441 0.578073 0.893359
Si Si3 0.020547 0.793281 0.374964
Si Si4 0.741691 0.088370 0.719425
Si Si5 0.325554 0.202638 0.368786
O O1 0.196530 0.973549 0.507749
O O2 0.272066 0.066316 0.827666
O O3 0.251426 0.934305 0.974748
O O4 0.000000 0.000000 0.000000
O O5 0.434662 0.608354 0.747255
O O6 0.569033 0.634671 0.128027
O O7 0.500000 0.500000 0.000000
O O8 0.042740 0.725420 0.550737
O O9 0.148480 0.847033 0.395560
O O10 0.850235 0.823528 0.514159
O O11 0.360155 0.233450 0.055886
#
# Coordination Sequence:
#
# PCOD8126267 Si02
#       5
#     4   4   4   4   4
#     4  11  23  40  63  90 123 167 211 259 313 378
#     4  10  24  43  65  97 135 170 214 269 328 388
#     4  10  21  39  62  90 124 167 216 264 317 387
#     4  11  23  39  61  92 125 161 207 264 320 373
#     4  10  23  41  64  91 125 169 216 264 321 388
#
# _framework density 24.079194999999999
#
# number of rings (size 3 to 8) (size 9 to 14) (size 15 to 20)
#    0.000    1.600    0.000    3.600    0.000   12.800 
#    0.000    0.000    0.000    0.000    0.000    0.000 
#    0.000    0.000    0.000    0.000    0.000    0.000 
#
# Total GULP energy -247921.069656 kJ/mol
# GULP energy per Si atom -12396.053483 kJ/mol
# Density = 2.402439 g / cm^3
# Si number density = 24.079195 Si / 1000 Ang^3
#
#
#
# Elastic Constant Matrix: (Units=GPa)
#
#
# Indices 1 2 3 4 5 6 
#
# 1 155.2663 48.4578 0.6575 0.0000 14.5784 0.0000
# 2 48.4578 72.1922 -6.4254 0.0000 3.8925 0.0000
# 3 0.6575 -6.4254 56.3959 0.0000 11.7018 0.0000
# 4 0.0000 0.0000 0.0000 26.1084 0.0000 9.6900
# 5 14.5784 3.8925 11.7018 0.0000 29.1297 0.0000
# 6 0.0000 0.0000 0.0000 9.6900 0.0000 55.7780
#
#
#
# Elastic Compliance Matrix: (Units=1/GPa)
#
#
# Indices 1 2 3 4 5 6 
#
# 1 0.008490 -0.005509 0.000002 0.000000 -0.003514 0.000000
# 2 -0.005509 0.017772 0.002192 0.000000 -0.000498 0.000000
# 3 0.000002 0.002192 0.019683 0.000000 -0.008201 0.000000
# 4 0.000000 0.000000 0.000000 0.040942 0.000000 -0.007113
# 5 -0.003514 -0.000498 -0.008201 0.000000 0.039449 0.000000
# 6 0.000000 0.000000 0.000000 -0.007113 0.000000 0.019164
#
#
# Mechanical properties :
#
#
# Convention : Reuss Voigt Hill
#
# Bulk Modulus (GPa) = 25.43455 41.02602 33.23029
# Shear Modulus (GPa) = 30.26034 38.28085 34.27060
#
# Velocity S-wave (km/s) = 3.54884 3.99154 3.77668
# Velocity P-wave (km/s) = 5.23242 6.19017 5.73133
#
# Compressibility (1/GPa) = 0.03931659
#
# Stress axis : x y z
#
# Youngs Moduli (GPa) = 117.78895 56.26920 50.80463
#
# Poissons Ratio (x) = 0.30998 -0.00012
# Poissons Ratio (y) = 0.64889 -0.11139
# Poissons Ratio (z) = -0.00029 -0.12337
#
# Static dielectric constant tensor:
#      x y z
#    x 5.015050 0.000000 0.111580 
#    y 0.000000 4.087390 0.000000 
#    z 0.111580 0.000000 4.145580 
# 
# 
# High freq. dielectric constant tensor:
#      x y z
#    x 1.979400 0.000000 0.010240 
#    y 0.000000 1.938140 0.000000 
#    z 0.010240 0.000000 1.947070 
# 
# From -- ./inp_files/1137.got.cif
#   From: 2010.03.12/outbox.cif.g09.slc.cpg/sg14_1_cif.got.tgz:1137.got - 2010.03.31 13:35:05.
