data_PCOD8126112
_publ_section_title
;
Structure prediction by ZEFSAII (Michael W. Deem and Ramdas Pophale) SiO2 
 PCOD8126112
Probable space group: P 21/C
;
_chemical_formula_sum "Si O2"
_cell_formula_units_Z 32
_cell_length_a 20.999127
_cell_length_b 11.710843
_cell_length_c 18.516569
_cell_angle_alpha 90.000000
_cell_angle_beta 21.101882
_cell_angle_gamma 90.000000
_cell_volume 1639.402279
_symmetry_space_group_name_H-M "P 21/C"
_symmetry_group_IT_number 14
_symmetry_cell_setting 'monoclinic'
loop_
_space_group_symop_operation_xyz
x,y,z
-x,1/2+y,1/2-z
-x,-y,-z
x,1/2-y,1/2+z
loop_
_atom_site_type_symbol
_atom_site_label
_atom_site_fract_x
_atom_site_fract_y
_atom_site_fract_z
Si Si1 0.172541 0.877428 0.523801
Si Si2 0.345148 0.795803 0.940118
Si Si3 0.725746 0.563774 0.897645
Si Si4 0.933248 0.199781 0.982210
Si Si5 0.873880 0.839291 0.949062
Si Si6 0.324481 0.551907 0.334668
Si Si7 0.141410 0.678938 0.278801
Si Si8 0.277840 0.388154 0.935665
O O1 0.330504 0.809221 0.398140
O O2 0.094925 0.811912 0.536341
O O3 0.013400 0.899456 0.748159
O O4 0.252208 0.999693 0.412107
O O5 0.280174 0.904715 0.962646
O O6 0.539203 0.821069 0.764613
O O7 0.230806 0.772857 0.132168
O O8 0.757778 0.442032 0.826790
O O9 0.860536 0.661774 0.727125
O O10 0.518705 0.593369 0.102660
O O11 0.755972 0.556793 0.950814
O O12 0.822017 0.095391 0.066565
O O13 0.862415 0.229050 0.136814
O O14 0.944384 0.840903 0.956698
O O15 0.862948 0.708830 0.934350
O O16 0.692924 0.913722 0.141534
#
# Coordination Sequence:
#
# PCOD8126112 Si02
#       8
#     4   4   4   4   4   4   4   4
#     4  10  21  38  61  86 119 161 201 246 312 357
#     4   9  21  37  60  88 118 150 202 253 302 351
#     4  11  20  37  60  93 116 154 197 254 305 356
#     4  11  22  42  57  87 128 162 192 253 297 370
#     4  11  21  35  62  88 116 157 201 253 303 354
#     4  10  22  37  64  90 117 152 206 252 308 348
#     4  11  22  37  59  87 126 159 199 243 312 358
#     4  11  20  37  62  88 118 150 211 258 291 358
#
# _framework density 19.519309
#
# number of rings (size 3 to 8) (size 9 to 14) (size 15 to 20)
#    0.000    1.500    5.000    1.125    5.250    0.500 
#    2.250    1.250    0.000    0.000    0.000    0.000 
#    0.000    0.000    0.000    0.000    0.000    0.000 
#
# Total GULP energy -396561.033386 kJ/mol
# GULP energy per Si atom -12392.532293 kJ/mol
# Density = 1.947488 g / cm^3
# Si number density = 19.519309 Si / 1000 Ang^3
#
#
#
# Elastic Constant Matrix: (Units=GPa)
#
#
# Indices 1 2 3 4 5 6 
#
# 1 76.2178 29.6718 48.1664 0.0000 6.3062 0.0000
# 2 29.6718 107.6606 42.0874 0.0000 -15.4918 0.0000
# 3 48.1664 42.0874 90.1690 0.0000 -6.1836 0.0000
# 4 0.0000 0.0000 0.0000 25.4754 0.0000 -5.5740
# 5 6.3062 -15.4918 -6.1836 0.0000 30.6668 0.0000
# 6 0.0000 0.0000 0.0000 -5.5740 0.0000 19.9398
#
#
#
# Elastic Compliance Matrix: (Units=1/GPa)
#
#
# Indices 1 2 3 4 5 6 
#
# 1 0.021777 -0.002946 -0.010816 0.000000 -0.008147 0.000000
# 2 -0.002946 0.012481 -0.003831 0.000000 0.006138 0.000000
# 3 -0.010816 -0.003831 0.018938 0.000000 0.004107 0.000000
# 4 0.000000 0.000000 0.000000 0.041811 0.000000 0.011688
# 5 -0.008147 0.006138 0.004107 0.000000 0.038213 0.000000
# 6 0.000000 0.000000 0.000000 0.011688 0.000000 0.053418
#
#
# Mechanical properties :
#
#
# Convention : Reuss Voigt Hill
#
# Bulk Modulus (GPa) = 55.52675 57.09984 56.31329
# Shear Modulus (GPa) = 21.94636 25.49119 23.71878
#
# Velocity S-wave (km/s) = 3.35676 3.61771 3.48967
# Velocity P-wave (km/s) = 6.59792 6.83864 6.71936
#
# Compressibility (1/GPa) = 0.01800934
#
# Stress axis : x y z
#
# Youngs Moduli (GPa) = 45.92071 80.11961 52.80333
#
# Poissons Ratio (x) = 0.23600 0.57114
# Poissons Ratio (y) = 0.13527 0.20231
# Poissons Ratio (z) = 0.49670 0.30697
#
# Static dielectric constant tensor:
#      x y z
#    x 3.534810 0.000000 -0.218290 
#    y 0.000000 3.493020 0.000000 
#    z -0.218290 0.000000 3.500860 
# 
# 
# High freq. dielectric constant tensor:
#      x y z
#    x 1.750880 0.000000 -0.019840 
#    y 0.000000 1.755670 0.000000 
#    z -0.019840 0.000000 1.742560 
# 
# From -- ./inp_files/48911.got.cif
#   From: 2010.03.12/outbox.cif.g09.slc.cpg/sg14_25_cif.got.tgz:48911.got - 2010.03.31 13:35:05.
