data_PCOD8126945
_publ_section_title
;
Structure prediction by ZEFSAII (Michael W. Deem and Ramdas Pophale) SiO2 
 PCOD8126945
Probable space group: P 21/C
;
_chemical_formula_sum "Si O2"
_cell_formula_units_Z 28
_cell_length_a 19.226953
_cell_length_b 5.116536
_cell_length_c 10.501964
_cell_angle_alpha 90.000000
_cell_angle_beta 82.116543
_cell_angle_gamma 90.000000
_cell_volume 1023.370832
_symmetry_space_group_name_H-M "P 21/C"
_symmetry_group_IT_number 14
_symmetry_cell_setting 'monoclinic'
loop_
_space_group_symop_operation_xyz
x,y,z
-x,1/2+y,1/2-z
-x,-y,-z
x,1/2-y,1/2+z
loop_
_atom_site_type_symbol
_atom_site_label
_atom_site_fract_x
_atom_site_fract_y
_atom_site_fract_z
Si Si1 0.490402 0.913283 0.173356
Si Si2 0.137663 0.711065 0.575123
Si Si3 0.008172 0.303240 0.826999
Si Si4 0.634806 0.677782 0.538301
Si Si5 0.340641 0.494801 0.721408
Si Si6 0.748501 0.110569 0.147268
Si Si7 0.155275 0.214620 0.738788
O O1 0.487900 0.213237 0.220616
O O2 0.410100 0.843552 0.154761
O O3 0.550727 0.885579 0.048932
O O4 0.053924 0.726996 0.557097
O O5 0.185682 0.748407 0.439458
O O6 0.159009 0.432826 0.630399
O O7 0.149147 0.930085 0.677410
O O8 0.000775 0.607406 0.791283
O O9 0.089013 0.260467 0.852775
O O10 0.648402 0.906704 0.635362
O O11 0.665475 0.732260 0.387225
O O12 0.679815 0.428522 0.577346
O O13 0.273727 0.688674 0.734746
O O14 0.773232 0.822787 0.195400
#
# Coordination Sequence:
#
# PCOD8126945 Si02
#       7
#     4   4   4   4   4   4   4
#     4  10  21  48  73 107 138 187 244 304 360 427
#     4  10  23  41  67  95 139 182 237 291 360 426
#     4   8  16  37  62  92 127 180 231 289 347 424
#     4  11  26  46  74 103 146 193 244 303 363 438
#     4  11  26  48  72 108 143 194 244 301 367 433
#     4  12  26  41  67 102 144 187 240 301 363 433
#     4  10  23  41  66  96 138 183 236 291 361 424
#
# _framework density 27.360558000000001
#
# number of rings (size 3 to 8) (size 9 to 14) (size 15 to 20)
#    0.000    1.714    1.429    1.286    6.000    1.714 
#    0.000    3.571    0.000   10.286    0.000    0.000 
#    0.000    0.000    0.000    0.000    0.000    0.000 
#
# Total GULP energy -346880.687329 kJ/mol
# GULP energy per Si atom -12388.595976 kJ/mol
# Density = 2.729828 g / cm^3
# Si number density = 27.360558 Si / 1000 Ang^3
#
#
#
# Elastic Constant Matrix: (Units=GPa)
#
#
# Indices 1 2 3 4 5 6 
#
# 1 141.5741 14.7918 53.8265 0.0000 -36.6573 0.0000
# 2 14.7918 90.1872 18.6969 0.0000 -12.1684 0.0000
# 3 53.8265 18.6969 109.3139 0.0000 -37.5879 0.0000
# 4 0.0000 0.0000 0.0000 24.8779 0.0000 -4.9194
# 5 -36.6573 -12.1684 -37.5879 0.0000 46.9422 0.0000
# 6 0.0000 0.0000 0.0000 -4.9194 0.0000 22.4961
#
#
#
# Elastic Compliance Matrix: (Units=1/GPa)
#
#
# Indices 1 2 3 4 5 6 
#
# 1 0.009496 -0.000279 -0.002902 0.000000 0.005019 0.000000
# 2 -0.000279 0.011633 -0.001229 0.000000 0.001814 0.000000
# 3 -0.002902 -0.001229 0.013659 0.000000 0.008352 0.000000
# 4 0.000000 0.000000 0.000000 0.042013 0.000000 0.009187
# 5 0.005019 0.001814 0.008352 0.000000 0.032380 0.000000
# 6 0.000000 0.000000 0.000000 0.009187 0.000000 0.046461
#
#
# Mechanical properties :
#
#
# Convention : Reuss Voigt Hill
#
# Bulk Modulus (GPa) = 38.50755 57.30063 47.90409
# Shear Modulus (GPa) = 28.88207 35.78059 32.33133
#
# Velocity S-wave (km/s) = 3.25254 3.62020 3.44128
# Velocity P-wave (km/s) = 5.31131 6.20183 5.77376
#
# Compressibility (1/GPa) = 0.02596893
#
# Stress axis : x y z
#
# Youngs Moduli (GPa) = 105.31301 85.96057 73.21090
#
# Poissons Ratio (x) = 0.02394 0.21247
# Poissons Ratio (y) = 0.02933 0.08996
# Poissons Ratio (z) = 0.30564 0.10563
#
# Static dielectric constant tensor:
#      x y z
#    x 5.772760 0.000000 -0.592250 
#    y 0.000000 4.638220 0.000000 
#    z -0.592250 0.000000 4.577770 
# 
# 
# High freq. dielectric constant tensor:
#      x y z
#    x 2.131540 0.000000 -0.034720 
#    y 0.000000 2.091610 0.000000 
#    z -0.034720 0.000000 2.077130 
# 
# From -- ./inp_files/34575.got.cif
#   From: 2010.03.12/outbox.cif.g09.slc.cpg/sg14_18_cif.got.tgz:34575.got - 2010.03.31 13:35:05.
