data_PCOD8126245
_publ_section_title
;
Structure prediction by ZEFSAII (Michael W. Deem and Ramdas Pophale) SiO2 
 PCOD8126245
Probable space group: P 21/C
;
_chemical_formula_sum "Si O2"
_cell_formula_units_Z 32
_cell_length_a 15.219337
_cell_length_b 8.618944
_cell_length_c 14.531416
_cell_angle_alpha 90.000000
_cell_angle_beta 58.967825
_cell_angle_gamma 90.000000
_cell_volume 1633.340350
_symmetry_space_group_name_H-M "P 21/C"
_symmetry_group_IT_number 14
_symmetry_cell_setting 'monoclinic'
loop_
_space_group_symop_operation_xyz
x,y,z
-x,1/2+y,1/2-z
-x,-y,-z
x,1/2-y,1/2+z
loop_
_atom_site_type_symbol
_atom_site_label
_atom_site_fract_x
_atom_site_fract_y
_atom_site_fract_z
Si Si1 0.083319 0.032796 0.080699
Si Si2 0.601980 0.823392 0.458402
Si Si3 0.692763 0.102441 0.321559
Si Si4 0.191285 0.335762 0.681802
Si Si5 0.870919 0.599003 0.647985
Si Si6 0.527003 0.217184 0.812043
Si Si7 0.476092 0.633514 0.378997
Si Si8 0.748073 0.140619 0.920449
O O1 0.158947 0.883857 0.056462
O O2 0.966014 0.980988 0.148039
O O3 0.102945 0.159724 0.150345
O O4 0.108884 0.115324 0.970599
O O5 0.721591 0.781614 0.399235
O O6 0.558729 0.812139 0.584675
O O7 0.538167 0.704125 0.430398
O O8 0.602059 0.998840 0.417702
O O9 0.639017 0.226223 0.283741
O O10 0.753860 0.191918 0.369509
O O11 0.769608 0.002201 0.219003
O O12 0.144195 0.272149 0.802635
O O13 0.239899 0.507996 0.665857
O O14 0.509623 0.251780 0.714485
O O15 0.520493 0.034086 0.830625
O O16 0.357925 0.615646 0.469238
#
# Coordination Sequence:
#
# PCOD8126245 Si02
#       8
#     4   4   4   4   4   4   4   4
#     4   9  21  39  67  90 121 157 202 263 317 373
#     4  11  22  40  58  87 124 169 200 253 305 370
#     4  11  23  36  63  90 123 159 211 254 309 375
#     4   9  21  38  63  84 121 164 200 250 312 372
#     4  10  21  41  65  90 119 160 208 254 323 379
#     4  12  23  38  59  87 123 165 206 257 302 368
#     4  12  24  38  61  87 125 167 210 247 313 361
#     4  10  21  39  61  87 123 158 202 259 303 372
#
# _framework density 19.591753000000001
#
# number of rings (size 3 to 8) (size 9 to 14) (size 15 to 20)
#    0.750    0.750    2.500    3.000    3.500    3.000 
#    0.000    0.000    2.750    2.250    0.000    0.000 
#    0.000    0.000    0.000    0.000    0.000    0.000 
#
# Total GULP energy -396707.938637 kJ/mol
# GULP energy per Si atom -12397.123082 kJ/mol
# Density = 1.954716 g / cm^3
# Si number density = 19.591753 Si / 1000 Ang^3
#
#
#
# Elastic Constant Matrix: (Units=GPa)
#
#
# Indices 1 2 3 4 5 6 
#
# 1 52.7747 -3.4750 5.5141 0.0000 -0.9430 0.0000
# 2 -3.4750 77.2090 29.3181 0.0000 5.8732 0.0000
# 3 5.5141 29.3181 79.3352 0.0000 -4.7583 0.0000
# 4 0.0000 0.0000 0.0000 27.6227 0.0000 10.4921
# 5 -0.9430 5.8732 -4.7583 0.0000 23.2861 0.0000
# 6 0.0000 0.0000 0.0000 10.4921 0.0000 29.7551
#
#
#
# Elastic Compliance Matrix: (Units=1/GPa)
#
#
# Indices 1 2 3 4 5 6 
#
# 1 0.019255 0.001601 -0.001931 0.000000 -0.000019 0.000000
# 2 0.001601 0.015797 -0.006261 0.000000 -0.005199 0.000000
# 3 -0.001931 -0.006261 0.015331 0.000000 0.004633 0.000000
# 4 0.000000 0.000000 0.000000 0.041801 0.000000 -0.014740
# 5 -0.000019 -0.005199 0.004633 0.000000 0.045201 0.000000
# 6 0.000000 0.000000 0.000000 -0.014740 0.000000 0.038805
#
#
# Mechanical properties :
#
#
# Convention : Reuss Voigt Hill
#
# Bulk Modulus (GPa) = 26.88065 30.22591 28.55328
# Shear Modulus (GPa) = 24.78052 27.99689 26.38871
#
# Velocity S-wave (km/s) = 3.56032 3.78433 3.67404
# Velocity P-wave (km/s) = 5.53637 5.87846 5.70998
#
# Compressibility (1/GPa) = 0.03720148
#
# Stress axis : x y z
#
# Youngs Moduli (GPa) = 51.93356 63.30414 65.22937
#
# Poissons Ratio (x) = -0.10138 0.12597
# Poissons Ratio (y) = -0.08317 0.40838
# Poissons Ratio (z) = 0.10030 0.39633
#
# Static dielectric constant tensor:
#      x y z
#    x 3.560450 0.000000 -0.026160 
#    y 0.000000 3.543800 0.000000 
#    z -0.026160 0.000000 3.526870 
# 
# 
# High freq. dielectric constant tensor:
#      x y z
#    x 1.764870 0.000000 -0.004760 
#    y 0.000000 1.757450 0.000000 
#    z -0.004760 0.000000 1.758640 
# 
# From -- ./inp_files/46498.got.cif
#   From: 2010.03.12/outbox.cif.g09.slc.cpg/sg14_24_cif.got.tgz:46498.got - 2010.03.31 13:35:05.
