data_PCOD8126531
_publ_section_title
;
Structure prediction by ZEFSAII (Michael W. Deem and Ramdas Pophale) SiO2 
 PCOD8126531
Probable space group: P 21/C
;
_chemical_formula_sum "Si O2"
_cell_formula_units_Z 24
_cell_length_a 14.455310
_cell_length_b 11.638936
_cell_length_c 13.605633
_cell_angle_alpha 90.000000
_cell_angle_beta 150.130121
_cell_angle_gamma 90.000000
_cell_volume 1140.030926
_symmetry_space_group_name_H-M "P 21/C"
_symmetry_group_IT_number 14
_symmetry_cell_setting 'monoclinic'
loop_
_space_group_symop_operation_xyz
x,y,z
-x,1/2+y,1/2-z
-x,-y,-z
x,1/2-y,1/2+z
loop_
_atom_site_type_symbol
_atom_site_label
_atom_site_fract_x
_atom_site_fract_y
_atom_site_fract_z
Si Si1 0.287846 0.900533 0.577389
Si Si2 0.438934 0.441486 0.844835
Si Si3 0.457553 0.563698 0.578506
Si Si4 0.079450 0.454471 0.175088
Si Si5 0.655183 0.732917 0.625035
Si Si6 0.403296 0.833257 0.225219
O O1 0.379114 0.911818 0.553464
O O2 0.252805 0.767550 0.577011
O O3 0.085433 0.958755 0.395754
O O4 0.426562 0.949667 0.788275
O O5 0.324293 0.326095 0.766681
O O6 0.318396 0.541149 0.677913
O O7 0.500000 0.500000 0.000000
O O8 0.240412 0.535913 0.365358
O O9 0.534766 0.622250 0.550526
O O10 0.492236 0.652777 0.699322
O O11 0.147760 0.322221 0.223116
O O12 0.000000 0.500000 0.000000
O O13 0.566072 0.795496 0.449478
#
# Coordination Sequence:
#
# PCOD8126531 Si02
#       6
#     4   4   4   4   4   4
#     4  11  21  42  67  97 130 176 219 274 333 390
#     4   9  21  40  66  91 129 180 217 265 337 398
#     4  11  22  42  67  92 135 175 222 274 330 399
#     4  12  24  38  67 106 131 168 228 279 331 396
#     4  11  20  42  68  93 134 176 217 277 337 399
#     4  10  21  40  68  90 129 178 216 265 338 389
#
# _framework density 21.052060000000001
#
# number of rings (size 3 to 8) (size 9 to 14) (size 15 to 20)
#    0.000    1.333    5.000    1.500    0.000    0.000 
#    9.000    4.167    0.000    0.000    0.000    0.000 
#    0.000    0.000    0.000    0.000    0.000    0.000 
#
# Total GULP energy -297320.675467 kJ/mol
# GULP energy per Si atom -12388.361478 kJ/mol
# Density = 2.100414 g / cm^3
# Si number density = 21.052060 Si / 1000 Ang^3
#
#
#
# Elastic Constant Matrix: (Units=GPa)
#
#
# Indices 1 2 3 4 5 6 
#
# 1 117.3082 36.4917 47.1256 0.0000 -7.4513 0.0000
# 2 36.4917 106.5804 27.0582 0.0000 6.0960 0.0000
# 3 47.1256 27.0582 81.0448 0.0000 5.1893 0.0000
# 4 0.0000 0.0000 0.0000 25.8830 0.0000 -4.8612
# 5 -7.4513 6.0960 5.1893 0.0000 24.3334 0.0000
# 6 0.0000 0.0000 0.0000 -4.8612 0.0000 33.2739
#
#
#
# Elastic Compliance Matrix: (Units=1/GPa)
#
#
# Indices 1 2 3 4 5 6 
#
# 1 0.012495 -0.002927 -0.006671 0.000000 0.005982 0.000000
# 2 -0.002927 0.011021 -0.001768 0.000000 -0.003280 0.000000
# 3 -0.006671 -0.001768 0.017145 0.000000 -0.005256 0.000000
# 4 0.000000 0.000000 0.000000 0.039725 0.000000 0.005804
# 5 0.005982 -0.003280 -0.005256 0.000000 0.044870 0.000000
# 6 0.000000 0.000000 0.000000 0.005804 0.000000 0.030902
#
#
# Mechanical properties :
#
#
# Convention : Reuss Voigt Hill
#
# Bulk Modulus (GPa) = 55.77477 58.47605 57.12541
# Shear Modulus (GPa) = 27.04657 29.64859 28.34758
#
# Velocity S-wave (km/s) = 3.58823 3.75686 3.67351
# Velocity P-wave (km/s) = 6.61199 6.83051 6.72214
#
# Compressibility (1/GPa) = 0.01792925
#
# Stress axis : x y z
#
# Youngs Moduli (GPa) = 80.03202 90.73577 58.32624
#
# Poissons Ratio (x) = 0.26554 0.38912
# Poissons Ratio (y) = 0.23422 0.10311
# Poissons Ratio (z) = 0.53393 0.16040
#
# Static dielectric constant tensor:
#      x y z
#    x 4.117010 0.000000 -0.237260 
#    y 0.000000 4.587460 0.000000 
#    z -0.237260 0.000000 3.434400 
# 
# 
# High freq. dielectric constant tensor:
#      x y z
#    x 1.836480 0.000000 -0.026740 
#    y 0.000000 1.850560 0.000000 
#    z -0.026740 0.000000 1.777400 
# 
# From -- ./inp_files/47183.got.cif
#   From: 2010.03.12/outbox.cif.g09.slc.cpg/sg14_24_cif.got.tgz:47183.got - 2010.03.31 13:35:05.
