data_PCOD8126937
_publ_section_title
;
Structure prediction by ZEFSAII (Michael W. Deem and Ramdas Pophale) SiO2 
 PCOD8126937
Probable space group: P 21/C
;
_chemical_formula_sum "Si O2"
_cell_formula_units_Z 28
_cell_length_a 8.915554
_cell_length_b 21.301258
_cell_length_c 10.392917
_cell_angle_alpha 90.000000
_cell_angle_beta 41.116233
_cell_angle_gamma 90.000000
_cell_volume 1297.912455
_symmetry_space_group_name_H-M "P 21/C"
_symmetry_group_IT_number 14
_symmetry_cell_setting 'monoclinic'
loop_
_space_group_symop_operation_xyz
x,y,z
-x,1/2+y,1/2-z
-x,-y,-z
x,1/2-y,1/2+z
loop_
_atom_site_type_symbol
_atom_site_label
_atom_site_fract_x
_atom_site_fract_y
_atom_site_fract_z
Si Si1 0.392464 0.261604 0.429272
Si Si2 0.974269 0.063906 0.938525
Si Si3 0.178214 0.676276 0.334867
Si Si4 0.129431 0.275637 0.864099
Si Si5 0.726298 0.981135 0.926571
Si Si6 0.580559 0.608286 0.741644
Si Si7 0.081585 0.879601 0.634062
O O1 0.609777 0.220478 0.328925
O O2 0.288836 0.276402 0.635452
O O3 0.254308 0.216476 0.421056
O O4 0.439314 0.325187 0.318846
O O5 0.213892 0.103484 0.785001
O O6 0.876392 0.043607 0.862585
O O7 0.777457 0.108198 0.129582
O O8 0.000000 0.000000 0.000000
O O9 0.042421 0.661921 0.289220
O O10 0.011712 0.711584 0.541483
O O11 0.959653 0.334955 0.962019
O O12 0.898227 0.935367 0.739979
O O13 0.629264 0.947953 0.114717
O O14 0.500000 0.000000 0.000000
O O15 0.340746 0.595118 0.967844
#
# Coordination Sequence:
#
# PCOD8126937 Si02
#       7
#     4   4   4   4   4   4   4
#     4  12  25  40  70 102 144 179 232 289 358 423
#     4  10  21  46  68  93 135 185 233 283 341 420
#     4  12  24  42  70 103 133 185 235 283 360 418
#     4  12  23  44  64 102 142 182 223 294 355 417
#     4  11  25  47  69  97 142 186 235 297 349 418
#     4  11  22  45  69  99 137 182 232 296 352 419
#     4  12  24  45  70 100 143 184 236 294 357 425
#
# _framework density 21.573101999999999
#
# number of rings (size 3 to 8) (size 9 to 14) (size 15 to 20)
#    0.000    0.571    8.571    0.857    2.000    1.143 
#    2.571    0.000    0.000    0.000    0.000    0.000 
#    0.000    0.000    0.000    0.000    0.000    0.000 
#
# Total GULP energy -346883.175201 kJ/mol
# GULP energy per Si atom -12388.684829 kJ/mol
# Density = 2.152400 g / cm^3
# Si number density = 21.573102 Si / 1000 Ang^3
#
#
#
# Elastic Constant Matrix: (Units=GPa)
#
#
# Indices 1 2 3 4 5 6 
#
# 1 100.8645 20.0252 17.5342 0.0000 -24.7213 0.0000
# 2 20.0252 77.5191 23.9113 0.0000 -18.8697 0.0000
# 3 17.5342 23.9113 92.1113 0.0000 -19.1818 0.0000
# 4 0.0000 0.0000 0.0000 34.8913 0.0000 -9.8208
# 5 -24.7213 -18.8697 -19.1818 0.0000 32.8973 0.0000
# 6 0.0000 0.0000 0.0000 -9.8208 0.0000 40.4684
#
#
#
# Elastic Compliance Matrix: (Units=1/GPa)
#
#
# Indices 1 2 3 4 5 6 
#
# 1 0.012236 -0.001012 -0.000310 0.000000 0.008434 0.000000
# 2 -0.001012 0.015555 -0.002442 0.000000 0.006738 0.000000
# 3 -0.000310 -0.002442 0.012758 0.000000 0.005805 0.000000
# 4 0.000000 0.000000 0.000000 0.030762 0.000000 0.007465
# 5 0.008434 0.006738 0.005805 0.000000 0.043985 0.000000
# 6 0.000000 0.000000 0.000000 0.007465 0.000000 0.026522
#
#
# Mechanical properties :
#
#
# Convention : Reuss Voigt Hill
#
# Bulk Modulus (GPa) = 30.28461 43.71513 36.99987
# Shear Modulus (GPa) = 31.18097 35.58635 33.38366
#
# Velocity S-wave (km/s) = 3.80592 4.06590 3.93805
# Velocity P-wave (km/s) = 5.77771 6.50767 6.15352
#
# Compressibility (1/GPa) = 0.03302007
#
# Stress axis : x y z
#
# Youngs Moduli (GPa) = 81.72451 64.28840 78.37993
#
# Poissons Ratio (x) = 0.06508 0.02431
# Poissons Ratio (y) = 0.08273 0.19142
# Poissons Ratio (z) = 0.02535 0.15700
#
# Static dielectric constant tensor:
#      x y z
#    x 6.039680 0.000000 -0.676100 
#    y 0.000000 5.003810 0.000000 
#    z -0.676100 0.000000 3.937090 
# 
# 
# High freq. dielectric constant tensor:
#      x y z
#    x 1.843450 0.000000 -0.017950 
#    y 0.000000 1.855780 0.000000 
#    z -0.017950 0.000000 1.837460 
# 
# From -- ./inp_files/26737.got.cif
#   From: 2010.03.12/outbox.cif.g09.slc.cpg/sg14_14_cif.got.tgz:26737.got - 2010.03.31 13:35:05.
