data_PCOD8126446
_publ_section_title
;
Structure prediction by ZEFSAII (Michael W. Deem and Ramdas Pophale) SiO2 
 PCOD8126446
Probable space group: P 21/C
;
_chemical_formula_sum "Si O2"
_cell_formula_units_Z 32
_cell_length_a 15.790019
_cell_length_b 11.068350
_cell_length_c 29.352617
_cell_angle_alpha 90.000000
_cell_angle_beta 162.599920
_cell_angle_gamma 90.000000
_cell_volume 1534.068435
_symmetry_space_group_name_H-M "P 21/C"
_symmetry_group_IT_number 14
_symmetry_cell_setting 'monoclinic'
loop_
_space_group_symop_operation_xyz
x,y,z
-x,1/2+y,1/2-z
-x,-y,-z
x,1/2-y,1/2+z
loop_
_atom_site_type_symbol
_atom_site_label
_atom_site_fract_x
_atom_site_fract_y
_atom_site_fract_z
Si Si1 0.680460 0.490071 0.478094
Si Si2 0.298283 0.234297 0.794448
Si Si3 0.392188 0.288000 0.614359
Si Si4 0.682790 0.642934 0.009223
Si Si5 0.065231 0.646330 0.736827
Si Si6 0.789971 0.373912 0.084430
Si Si7 0.855913 0.144429 0.896937
Si Si8 0.090821 0.393785 0.612632
O O1 0.445049 0.395925 0.372568
O O2 0.512014 0.602299 0.369136
O O3 0.870683 0.537630 0.617806
O O4 0.887885 0.429560 0.549055
O O5 0.289773 0.290834 0.738318
O O6 0.986680 0.215795 0.655679
O O7 0.469663 0.325689 0.914987
O O8 0.304524 0.176432 0.537548
O O9 0.141149 0.333092 0.516568
O O10 0.639606 0.250096 0.775007
O O11 0.359900 0.653835 0.860815
O O12 0.804253 0.509078 0.073443
O O13 0.894576 0.728442 0.146040
O O14 0.123675 0.621165 0.819073
O O15 0.905538 0.158646 0.976192
O O16 0.743129 0.011071 0.823093
#
# Coordination Sequence:
#
# PCOD8126446 Si02
#       8
#     4   4   4   4   4   4   4   4
#     4  10  23  41  66  86 137 166 212 272 329 377
#     4  12  25  42  65  94 135 173 216 271 330 392
#     4  10  21  40  63  97 119 168 210 270 316 385
#     4  11  24  42  70  93 133 170 218 274 329 387
#     4  11  25  44  67  96 129 172 225 273 320 390
#     4  12  27  41  68  95 131 176 224 266 329 391
#     4  10  22  39  71  90 130 161 226 257 324 387
#     4  10  22  45  63  94 128 181 201 270 327 389
#
# _framework density 20.859563999999999
#
# number of rings (size 3 to 8) (size 9 to 14) (size 15 to 20)
#    0.000    1.250    1.250    4.875    8.750    0.500 
#    0.000    0.625    0.000    0.000    0.000    0.000 
#    0.000    0.000    0.000    0.000    0.000    0.000 
#
# Total GULP energy -396769.743133 kJ/mol
# GULP energy per Si atom -12399.054473 kJ/mol
# Density = 2.081209 g / cm^3
# Si number density = 20.859564 Si / 1000 Ang^3
#
#
#
# Elastic Constant Matrix: (Units=GPa)
#
#
# Indices 1 2 3 4 5 6 
#
# 1 31.9853 56.9778 6.7223 0.0000 -32.2321 0.0000
# 2 56.9778 123.1292 76.3340 0.0000 -23.3529 0.0000
# 3 6.7223 76.3340 95.1749 0.0000 -26.0150 0.0000
# 4 0.0000 0.0000 0.0000 39.6194 0.0000 2.1242
# 5 -32.2321 -23.3529 -26.0150 0.0000 40.9494 0.0000
# 6 0.0000 0.0000 0.0000 2.1242 0.0000 20.8402
#
#
#
# Elastic Compliance Matrix: (Units=1/GPa)
#
#
# Indices 1 2 3 4 5 6 
#
# 1 -0.028369 0.022682 -0.022698 0.000000 -0.023814 0.000000
# 2 0.022682 -0.001935 0.005480 0.000000 0.020232 0.000000
# 3 -0.022698 0.005480 0.004461 0.000000 -0.011907 0.000000
# 4 0.000000 0.000000 0.000000 0.025379 0.000000 -0.002587
# 5 -0.023814 0.020232 -0.011907 0.000000 0.009649 0.000000
# 6 0.000000 0.000000 0.000000 -0.002587 0.000000 0.048248
#
#
# Mechanical properties :
#
#
# Convention : Reuss Voigt Hill
#
# Bulk Modulus (GPa) = -67.05184 58.92863 -4.06161
# Shear Modulus (GPa) = 120.38441 27.63216 74.00828
#
# Velocity S-wave (km/s) = 7.60507 3.64356 5.96291
# Velocity P-wave (km/s) = 6.70090 6.78323 6.74219
#
# Compressibility (1/GPa) = -0.01491383
#
# Stress axis : x y z
#
# Youngs Moduli (GPa) = -35.25032 -516.89606 224.18542
#
# Poissons Ratio (x) = 11.72442 5.08848
# Poissons Ratio (y) = 0.79956 -1.22846
# Poissons Ratio (z) = -0.80010 2.83241
#
# Static dielectric constant tensor:
#      x y z
#    x 3.697480 0.000000 -0.148720 
#    y 0.000000 4.141690 0.000000 
#    z -0.148720 0.000000 3.856890 
# 
# 
# High freq. dielectric constant tensor:
#      x y z
#    x 1.811110 0.000000 -0.013630 
#    y 0.000000 1.831760 0.000000 
#    z -0.013630 0.000000 1.818490 
# 
# From -- ./inp_files/77594.got.cif
#   From: 2010.03.12/outbox.cif.g09.slc.cpg/sg14_39_cif.got.tgz:77594.got - 2010.03.31 13:35:05.
