data_PCOD8126879
_publ_section_title
;
Structure prediction by ZEFSAII (Michael W. Deem and Ramdas Pophale) SiO2 
 PCOD8126879
Probable space group: P 21/C
;
_chemical_formula_sum "Si O2"
_cell_formula_units_Z 20
_cell_length_a 20.248406
_cell_length_b 6.520957
_cell_length_c 13.341011
_cell_angle_alpha 90.000000
_cell_angle_beta 154.320802
_cell_angle_gamma 90.000000
_cell_volume 763.328694
_symmetry_space_group_name_H-M "P 21/C"
_symmetry_group_IT_number 14
_symmetry_cell_setting 'monoclinic'
loop_
_space_group_symop_operation_xyz
x,y,z
-x,1/2+y,1/2-z
-x,-y,-z
x,1/2-y,1/2+z
loop_
_atom_site_type_symbol
_atom_site_label
_atom_site_fract_x
_atom_site_fract_y
_atom_site_fract_z
Si Si1 0.688384 0.543226 0.750248
Si Si2 0.313173 0.158918 0.429260
Si Si3 0.093217 0.986220 0.283406
Si Si4 0.212594 0.871649 0.057851
Si Si5 0.533749 0.674495 0.172406
O O1 0.722381 0.650460 0.691170
O O2 0.532192 0.627974 0.593379
O O3 0.824093 0.609863 0.012824
O O4 0.695071 0.295262 0.748470
O O5 0.158058 0.078712 0.268198
O O6 0.442436 0.235374 0.683893
O O7 0.384326 0.969885 0.462736
O O8 0.912441 0.023517 0.040678
O O9 0.134130 0.744856 0.354905
O O10 0.322875 0.040928 0.165284
#
# Coordination Sequence:
#
# PCOD8126879 Si02
#       5
#     4   4   4   4   4
#     4   9  23  41  66  93 128 170 214 260 320 385
#     4  11  22  42  66  95 126 170 217 259 322 382
#     4   9  20  40  62  89 128 165 207 264 314 369
#     4  10  21  44  62  90 134 168 207 270 322 367
#     4  11  23  43  64  94 134 165 210 273 317 375
#
# _framework density 26.201029999999999
#
# number of rings (size 3 to 8) (size 9 to 14) (size 15 to 20)
#    1.200    0.800    0.000    4.200    0.000    1.600 
#    7.200    2.000    0.000    0.000    0.000    0.000 
#    0.000    0.000    0.000    0.000    0.000    0.000 
#
# Total GULP energy -247965.103687 kJ/mol
# GULP energy per Si atom -12398.255184 kJ/mol
# Density = 2.614140 g / cm^3
# Si number density = 26.201030 Si / 1000 Ang^3
#
#
#
# Elastic Constant Matrix: (Units=GPa)
#
#
# Indices 1 2 3 4 5 6 
#
# 1 117.4263 48.7189 35.1858 0.0000 0.2011 0.0000
# 2 48.7189 152.4905 30.2832 0.0000 -8.2244 0.0000
# 3 35.1858 30.2832 80.9264 0.0000 33.4475 0.0000
# 4 0.0000 0.0000 0.0000 22.7668 0.0000 -14.1014
# 5 0.2011 -8.2244 33.4475 0.0000 44.7989 0.0000
# 6 0.0000 0.0000 0.0000 -14.1014 0.0000 45.4778
#
#
#
# Elastic Compliance Matrix: (Units=1/GPa)
#
#
# Indices 1 2 3 4 5 6 
#
# 1 0.011087 -0.002260 -0.005471 0.000000 0.003620 0.000000
# 2 -0.002260 0.008318 -0.003999 0.000000 0.004523 0.000000
# 3 -0.005471 -0.003999 0.023901 0.000000 -0.018554 0.000000
# 4 0.000000 0.000000 0.000000 0.054365 0.000000 0.016857
# 5 0.003620 0.004523 -0.018554 0.000000 0.036989 0.000000
# 6 0.000000 0.000000 0.000000 0.016857 0.000000 0.027216
#
#
# Mechanical properties :
#
#
# Convention : Reuss Voigt Hill
#
# Bulk Modulus (GPa) = 50.39100 64.35766 57.37433
# Shear Modulus (GPa) = 26.04838 38.38574 32.21706
#
# Velocity S-wave (km/s) = 3.15647 3.83175 3.51038
# Velocity P-wave (km/s) = 5.70602 6.64776 6.19481
#
# Compressibility (1/GPa) = 0.01984482
#
# Stress axis : x y z
#
# Youngs Moduli (GPa) = 90.19703 120.21876 41.83997
#
# Poissons Ratio (x) = 0.27175 0.22889
# Poissons Ratio (y) = 0.20389 0.16733
# Poissons Ratio (z) = 0.49343 0.48080
#
# Static dielectric constant tensor:
#      x y z
#    x 4.647500 0.000000 -0.093560 
#    y 0.000000 4.918600 0.000000 
#    z -0.093560 0.000000 4.616320 
# 
# 
# High freq. dielectric constant tensor:
#      x y z
#    x 2.037230 0.000000 -0.001610 
#    y 0.000000 2.073900 0.000000 
#    z -0.001610 0.000000 2.070240 
# 
# From -- ./inp_files/49884.got.cif
#   From: 2010.03.12/outbox.cif.g09.slc.cpg/sg14_25_cif.got.tgz:49884.got - 2010.03.31 13:35:05.
