data_PCOD8126568
_publ_section_title
;
Structure prediction by ZEFSAII (Michael W. Deem and Ramdas Pophale) SiO2 
 PCOD8126568
Probable space group: P 21/C
;
_chemical_formula_sum "Si O2"
_cell_formula_units_Z 32
_cell_length_a 9.819641
_cell_length_b 25.323908
_cell_length_c 8.784489
_cell_angle_alpha 90.000000
_cell_angle_beta 43.014950
_cell_angle_gamma 90.000000
_cell_volume 1490.210638
_symmetry_space_group_name_H-M "P 21/C"
_symmetry_group_IT_number 14
_symmetry_cell_setting 'monoclinic'
loop_
_space_group_symop_operation_xyz
x,y,z
-x,1/2+y,1/2-z
-x,-y,-z
x,1/2-y,1/2+z
loop_
_atom_site_type_symbol
_atom_site_label
_atom_site_fract_x
_atom_site_fract_y
_atom_site_fract_z
Si Si1 0.301941 0.226990 0.614924
Si Si2 0.350980 0.738675 0.487833
Si Si3 0.052879 0.900064 0.329602
Si Si4 0.673707 0.132182 0.158378
Si Si5 0.643092 0.946442 0.711782
Si Si6 0.444077 0.562938 0.682680
Si Si7 0.939496 0.713548 0.970809
Si Si8 0.451465 0.850029 0.424157
O O1 0.486271 0.266324 0.506830
O O2 0.260075 0.222816 0.469517
O O3 0.346559 0.168631 0.650270
O O4 0.097494 0.252277 0.848312
O O5 0.385100 0.692961 0.334543
O O6 0.366799 0.798188 0.403678
O O7 0.135259 0.735154 0.734527
O O8 0.874130 0.942227 0.471947
O O9 0.965236 0.848385 0.484670
O O10 0.233706 0.922927 0.278752
O O11 0.129078 0.885820 0.096014
O O12 0.488559 0.094592 0.273437
O O13 0.705270 0.130522 0.315703
O O14 0.570014 0.005336 0.730268
O O15 0.618049 0.936387 0.913626
O O16 0.502834 0.604029 0.765290
#
# Coordination Sequence:
#
# PCOD8126568 Si02
#       8
#     4   4   4   4   4   4   4   4
#     4  10  23  36  55  86 122 158 208 248 296 378
#     4   9  23  37  59  82 133 158 200 253 308 379
#     4  10  22  38  64  87 121 161 211 254 317 375
#     4  10  21  41  61  91 122 167 199 263 324 368
#     4  10  21  42  67  87 124 161 220 260 317 382
#     4  10  23  42  63  93 120 169 208 268 320 374
#     4  11  23  36  59  87 119 170 200 245 316 365
#     4  10  23  40  61  90 133 157 209 264 313 374
#
# _framework density 21.473474
#
# number of rings (size 3 to 8) (size 9 to 14) (size 15 to 20)
#    0.750    1.250    0.000    2.625    5.250    6.500 
#    0.000    0.625    0.000    0.000    0.000    0.000 
#    0.000    0.000    0.000    0.000    0.000    0.000 
#
# Total GULP energy -396601.517916 kJ/mol
# GULP energy per Si atom -12393.797435 kJ/mol
# Density = 2.142460 g / cm^3
# Si number density = 21.473474 Si / 1000 Ang^3
#
#
#
# Elastic Constant Matrix: (Units=GPa)
#
#
# Indices 1 2 3 4 5 6 
#
# 1 45.2960 24.6952 23.7041 0.0000 -0.3930 0.0000
# 2 24.6952 114.9694 39.2240 0.0000 18.6745 0.0000
# 3 23.7041 39.2240 79.6411 0.0000 1.6453 0.0000
# 4 0.0000 0.0000 0.0000 31.7848 0.0000 2.7108
# 5 -0.3930 18.6745 1.6453 0.0000 28.7718 0.0000
# 6 0.0000 0.0000 0.0000 2.7108 0.0000 30.4959
#
#
#
# Elastic Compliance Matrix: (Units=1/GPa)
#
#
# Indices 1 2 3 4 5 6 
#
# 1 0.027750 -0.004454 -0.006141 0.000000 0.003621 0.000000
# 2 -0.004454 0.012543 -0.004688 0.000000 -0.007934 0.000000
# 3 -0.006141 -0.004688 0.016651 0.000000 0.002007 0.000000
# 4 0.000000 0.000000 0.000000 0.031702 0.000000 -0.002818
# 5 0.003621 -0.007934 0.002007 0.000000 0.039840 0.000000
# 6 0.000000 0.000000 0.000000 -0.002818 0.000000 0.033042
#
#
# Mechanical properties :
#
#
# Convention : Reuss Voigt Hill
#
# Bulk Modulus (GPa) = 37.90833 46.12812 42.01822
# Shear Modulus (GPa) = 24.88969 28.36268 26.62618
#
# Velocity S-wave (km/s) = 3.40823 3.63826 3.52512
# Velocity P-wave (km/s) = 5.76021 6.25918 6.01487
#
# Compressibility (1/GPa) = 0.02637943
#
# Stress axis : x y z
#
# Youngs Moduli (GPa) = 36.03580 79.72798 60.05495
#
# Poissons Ratio (x) = 0.35509 0.36878
# Poissons Ratio (y) = 0.16050 0.28153
# Poissons Ratio (z) = 0.22129 0.37375
#
# Static dielectric constant tensor:
#      x y z
#    x 3.611880 0.000000 -0.023810 
#    y 0.000000 3.937050 0.000000 
#    z -0.023810 0.000000 3.963880 
# 
# 
# High freq. dielectric constant tensor:
#      x y z
#    x 1.816230 0.000000 -0.006320 
#    y 0.000000 1.837570 0.000000 
#    z -0.006320 0.000000 1.855410 
# 
# From -- ./inp_files/11037.got.cif
#   From: 2010.03.12/outbox.cif.g09.slc.cpg/sg14_6_cif.got.tgz:11037.got - 2010.03.31 13:35:05.
