data_PCOD8126169
_publ_section_title
;
Structure prediction by ZEFSAII (Michael W. Deem and Ramdas Pophale) SiO2 
 PCOD8126169
Probable space group: P 21/C
;
_chemical_formula_sum "Si O2"
_cell_formula_units_Z 32
_cell_length_a 23.011736
_cell_length_b 9.035775
_cell_length_c 14.482143
_cell_angle_alpha 90.000000
_cell_angle_beta 27.835995
_cell_angle_gamma 90.000000
_cell_volume 1406.082530
_symmetry_space_group_name_H-M "P 21/C"
_symmetry_group_IT_number 14
_symmetry_cell_setting 'monoclinic'
loop_
_space_group_symop_operation_xyz
x,y,z
-x,1/2+y,1/2-z
-x,-y,-z
x,1/2-y,1/2+z
loop_
_atom_site_type_symbol
_atom_site_label
_atom_site_fract_x
_atom_site_fract_y
_atom_site_fract_z
Si Si1 0.105678 0.600437 0.022551
Si Si2 0.756754 0.679264 0.214005
Si Si3 0.647636 0.345278 0.232641
Si Si4 0.119204 0.801240 0.831109
Si Si5 0.445473 0.956197 0.959302
Si Si6 0.303476 0.600790 0.471995
Si Si7 0.828827 0.671701 0.429585
Si Si8 0.844090 0.627428 0.741541
O O1 0.964479 0.599758 0.257499
O O2 0.131099 0.441934 0.937902
O O3 0.204139 0.620962 0.967648
O O4 0.129410 0.735855 0.919400
O O5 0.627418 0.593650 0.391605
O O6 0.747551 0.774943 0.319682
O O7 0.768915 0.788101 0.110677
O O8 0.583785 0.326181 0.424631
O O9 0.587769 0.485208 0.259597
O O10 0.627629 0.193034 0.204943
O O11 0.177612 0.684271 0.678525
O O12 0.193485 0.956010 0.716677
O O13 0.976666 0.836694 0.006544
O O14 0.399531 0.912395 0.922440
O O15 0.263899 0.440621 0.491421
O O16 0.842870 0.820822 0.349511
#
# Coordination Sequence:
#
# PCOD8126169 Si02
#       8
#     4   4   4   4   4   4   4   4
#     4  10  22  42  65  97 139 186 214 288 349 406
#     4  11  22  41  65  92 135 181 218 290 343 391
#     4  10  24  44  72  94 131 183 229 280 334 410
#     4  10  21  38  64  94 137 179 223 269 349 408
#     4  10  23  51  68  96 137 180 230 283 345 389
#     4  12  23  45  72 101 131 181 234 279 347 421
#     4  11  25  37  66 106 139 177 234 272 358 420
#     4  10  22  38  58 100 142 174 217 285 332 417
#
# _framework density 22.758267
#
# number of rings (size 3 to 8) (size 9 to 14) (size 15 to 20)
#    0.000    1.500    3.750    0.750    8.750    3.000 
#    9.000    0.625    0.000    0.000    0.000    0.000 
#    0.000    0.000    0.000    0.000    0.000    0.000 
#
# Total GULP energy -396730.820585 kJ/mol
# GULP energy per Si atom -12397.838143 kJ/mol
# Density = 2.270647 g / cm^3
# Si number density = 22.758267 Si / 1000 Ang^3
#
#
#
# Elastic Constant Matrix: (Units=GPa)
#
#
# Indices 1 2 3 4 5 6 
#
# 1 120.9293 37.9430 32.7648 0.0000 0.1165 0.0000
# 2 37.9430 97.2254 12.4320 0.0000 4.9713 0.0000
# 3 32.7648 12.4320 49.2944 0.0000 0.7705 0.0000
# 4 0.0000 0.0000 0.0000 30.0228 0.0000 12.9378
# 5 0.1165 4.9713 0.7705 0.0000 16.4749 0.0000
# 6 0.0000 0.0000 0.0000 12.9378 0.0000 42.0938
#
#
#
# Elastic Compliance Matrix: (Units=1/GPa)
#
#
# Indices 1 2 3 4 5 6 
#
# 1 0.011165 -0.003588 -0.006537 0.000000 0.001310 0.000000
# 2 -0.003588 0.011940 -0.000571 0.000000 -0.003551 0.000000
# 3 -0.006537 -0.000571 0.024790 0.000000 -0.000941 0.000000
# 4 0.000000 0.000000 0.000000 0.038393 0.000000 -0.011800
# 5 0.001310 -0.003551 -0.000941 0.000000 0.061805 0.000000
# 6 0.000000 0.000000 0.000000 -0.011800 0.000000 0.027383
#
#
# Mechanical properties :
#
#
# Convention : Reuss Voigt Hill
#
# Bulk Modulus (GPa) = 37.73078 48.19209 42.96143
# Shear Modulus (GPa) = 24.30699 30.00557 27.15628
#
# Velocity S-wave (km/s) = 3.27165 3.63498 3.45809
# Velocity P-wave (km/s) = 5.55756 6.23210 5.90447
#
# Compressibility (1/GPa) = 0.02650356
#
# Stress axis : x y z
#
# Youngs Moduli (GPa) = 89.56597 83.75000 40.33943
#
# Poissons Ratio (x) = 0.30052 0.26368
# Poissons Ratio (y) = 0.32139 0.02302
# Poissons Ratio (z) = 0.58545 0.04780
#
# Static dielectric constant tensor:
#      x y z
#    x 4.011660 0.000000 -0.041830 
#    y 0.000000 4.150230 0.000000 
#    z -0.041830 0.000000 3.951760 
# 
# 
# High freq. dielectric constant tensor:
#      x y z
#    x 1.902730 0.000000 0.000740 
#    y 0.000000 1.892540 0.000000 
#    z 0.000740 0.000000 1.877180 
# 
# From -- ./inp_files/51341.got.cif
#   From: 2010.03.12/outbox.cif.g09.slc.cpg/sg14_26_cif.got.tgz:51341.got - 2010.03.31 13:35:05.
