data_PCOD8126926
_publ_section_title
;
Structure prediction by ZEFSAII (Michael W. Deem and Ramdas Pophale) SiO2 
 PCOD8126926
Probable space group: P 21/C
;
_chemical_formula_sum "Si O2"
_cell_formula_units_Z 16
_cell_length_a 4.967365
_cell_length_b 10.829101
_cell_length_c 14.136714
_cell_angle_alpha 90.000000
_cell_angle_beta 127.606926
_cell_angle_gamma 90.000000
_cell_volume 602.435414
_symmetry_space_group_name_H-M "P 21/C"
_symmetry_group_IT_number 14
_symmetry_cell_setting 'monoclinic'
loop_
_space_group_symop_operation_xyz
x,y,z
-x,1/2+y,1/2-z
-x,-y,-z
x,1/2-y,1/2+z
loop_
_atom_site_type_symbol
_atom_site_label
_atom_site_fract_x
_atom_site_fract_y
_atom_site_fract_z
Si Si1 0.404634 0.175525 0.212994
Si Si2 0.292608 0.621528 0.841719
Si Si3 0.721475 0.396912 0.957408
Si Si4 0.231444 0.525237 0.361604
O O1 0.415171 0.299687 0.149839
O O2 0.659026 0.198607 0.357425
O O3 0.561962 0.063717 0.187029
O O4 0.024082 0.136693 0.162158
O O5 0.377129 0.478575 0.881685
O O6 0.953861 0.606015 0.704630
O O7 0.227824 0.678415 0.933111
O O8 0.000000 0.500000 0.000000
O O9 0.500000 0.500000 0.500000
#
# Coordination Sequence:
#
# PCOD8126926 Si02
#       4
#     4   4   4   4
#     4  11  25  45  75 109 140 200 255 302 387 446
#     4  10  24  45  73 105 147 196 253 311 369 455
#     4  10  21  45  73 101 147 192 252 315 365 447
#     4  11  25  48  71 109 156 194 246 317 377 448
#
# _framework density 26.558864
#
# number of rings (size 3 to 8) (size 9 to 14) (size 15 to 20)
#    0.000    1.500    2.500    0.750    3.500    2.000 
#    9.000    0.000    0.000    0.000    0.000    0.000 
#    0.000    0.000    0.000    0.000    0.000    0.000 
#
# Total GULP energy -198228.545329 kJ/mol
# GULP energy per Si atom -12389.284083 kJ/mol
# Density = 2.649842 g / cm^3
# Si number density = 26.558864 Si / 1000 Ang^3
#
#
#
# Elastic Constant Matrix: (Units=GPa)
#
#
# Indices 1 2 3 4 5 6 
#
# 1 68.5647 -14.1157 55.6530 0.0000 -11.7548 0.0000
# 2 -14.1157 61.8294 46.4184 0.0000 -12.2614 0.0000
# 3 55.6530 46.4184 228.0756 0.0000 -26.3334 0.0000
# 4 0.0000 0.0000 0.0000 26.7360 0.0000 -0.4546
# 5 -11.7548 -12.2614 -26.3334 0.0000 45.1531 0.0000
# 6 0.0000 0.0000 0.0000 -0.4546 0.0000 47.6152
#
#
#
# Elastic Compliance Matrix: (Units=1/GPa)
#
#
# Indices 1 2 3 4 5 6 
#
# 1 0.024511 0.012586 -0.007946 0.000000 0.005164 0.000000
# 2 0.012586 0.025974 -0.007682 0.000000 0.005850 0.000000
# 3 -0.007946 -0.007682 0.007942 0.000000 0.000477 0.000000
# 4 0.000000 0.000000 0.000000 0.037409 0.000000 0.000357
# 5 0.005164 0.005850 0.000477 0.000000 0.025358 0.000000
# 6 0.000000 0.000000 0.000000 0.000357 0.000000 0.021005
#
#
# Mechanical properties :
#
#
# Convention : Reuss Voigt Hill
#
# Bulk Modulus (GPa) = 19.10508 59.37568 39.24038
# Shear Modulus (GPa) = 30.16932 41.93513 36.05223
#
# Velocity S-wave (km/s) = 3.37403 3.97791 3.68835
# Velocity P-wave (km/s) = 4.73158 6.59569 5.73982
#
# Compressibility (1/GPa) = 0.05234210
#
# Stress axis : x y z
#
# Youngs Moduli (GPa) = 40.79810 38.49991 125.91325
#
# Poissons Ratio (x) = -0.48454 1.00052
# Poissons Ratio (y) = -0.51347 0.96726
# Poissons Ratio (z) = 0.32419 0.29575
#
# Static dielectric constant tensor:
#      x y z
#    x 4.975500 0.000000 0.081710 
#    y 0.000000 0.383960 0.000000 
#    z 0.081710 0.000000 6.039650 
# 
# 
# High freq. dielectric constant tensor:
#      x y z
#    x 2.072790 0.000000 -0.005350 
#    y 0.000000 2.046240 0.000000 
#    z -0.005350 0.000000 2.087110 
# 
# From -- ./inp_files/36939.got.cif
#   From: 2010.03.12/outbox.cif.g09.slc.cpg/sg14_19_cif.got.tgz:36939.got - 2010.03.31 13:35:05.
