data_PCOD8126948
_publ_section_title
;
Structure prediction by ZEFSAII (Michael W. Deem and Ramdas Pophale) SiO2 
 PCOD8126948
Probable space group: P 21/C
;
_chemical_formula_sum "Si O2"
_cell_formula_units_Z 20
_cell_length_a 16.703169
_cell_length_b 12.510252
_cell_length_c 8.820496
_cell_angle_alpha 90.000000
_cell_angle_beta 30.319331
_cell_angle_gamma 90.000000
_cell_volume 930.451077
_symmetry_space_group_name_H-M "P 21/C"
_symmetry_group_IT_number 14
_symmetry_cell_setting 'monoclinic'
loop_
_space_group_symop_operation_xyz
x,y,z
-x,1/2+y,1/2-z
-x,-y,-z
x,1/2-y,1/2+z
loop_
_atom_site_type_symbol
_atom_site_label
_atom_site_fract_x
_atom_site_fract_y
_atom_site_fract_z
Si Si1 0.534827 0.260179 0.218514
Si Si2 0.943142 0.572526 0.888183
Si Si3 0.318083 0.315765 0.827186
Si Si4 0.172093 0.092875 0.093068
Si Si5 0.714706 0.374817 0.658250
O O1 0.449890 0.334687 0.482008
O O2 0.403482 0.185333 0.350013
O O3 0.664426 0.186190 0.087289
O O4 0.612320 0.338696 0.969105
O O5 0.002801 0.448434 0.798072
O O6 0.098235 0.648760 0.617199
O O7 0.817889 0.592052 0.955740
O O8 0.848739 0.605452 0.193270
O O9 0.230812 0.203701 0.928973
O O10 0.305685 0.002371 0.838071
#
# Coordination Sequence:
#
# PCOD8126948 Si02
#       5
#     4   4   4   4   4
#     4  10  22  34  60  90 122 159 190 249 298 351
#     4   9  20  37  67  85 112 163 207 240 291 361
#     4  11  20  40  62  88 121 159 202 247 302 350
#     4   9  20  39  66  84 120 162 201 240 308 353
#     4   9  21  39  61  86 118 161 201 238 302 353
#
# _framework density 21.494948999999998
#
# number of rings (size 3 to 8) (size 9 to 14) (size 15 to 20)
#    1.200    1.200    2.000    0.000    2.800    3.200 
#    0.000    2.000    8.800    0.000    0.000    0.000 
#    0.000    0.000    0.000    0.000    0.000    0.000 
#
# Total GULP energy -247772.956135 kJ/mol
# GULP energy per Si atom -12388.647807 kJ/mol
# Density = 2.144603 g / cm^3
# Si number density = 21.494949 Si / 1000 Ang^3
#
#
#
# Elastic Constant Matrix: (Units=GPa)
#
#
# Indices 1 2 3 4 5 6 
#
# 1 60.4148 -22.4260 12.1844 0.0000 -8.4421 0.0000
# 2 -22.4260 38.2896 8.4671 0.0000 4.8536 0.0000
# 3 12.1844 8.4671 63.5649 0.0000 4.7450 0.0000
# 4 0.0000 0.0000 0.0000 28.0479 0.0000 -4.5244
# 5 -8.4421 4.8536 4.7450 0.0000 30.9074 0.0000
# 6 0.0000 0.0000 0.0000 -4.5244 0.0000 25.1780
#
#
#
# Elastic Compliance Matrix: (Units=1/GPa)
#
#
# Indices 1 2 3 4 5 6 
#
# 1 0.024355 0.015152 -0.007087 0.000000 0.005361 0.000000
# 2 0.015152 0.036765 -0.007769 0.000000 -0.000442 0.000000
# 3 -0.007087 -0.007769 0.018389 0.000000 -0.003539 0.000000
# 4 0.000000 0.000000 0.000000 0.036718 0.000000 0.006598
# 5 0.005361 -0.000442 -0.003539 0.000000 0.034432 0.000000
# 6 0.000000 0.000000 0.000000 0.006598 0.000000 0.040903
#
#
# Mechanical properties :
#
#
# Convention : Reuss Voigt Hill
#
# Bulk Modulus (GPa) = 12.48389 17.63558 15.05973
# Shear Modulus (GPa) = 22.97051 27.76291 25.36671
#
# Velocity S-wave (km/s) = 3.27256 3.59778 3.43902
# Velocity P-wave (km/s) = 4.48330 5.04788 4.77394
#
# Compressibility (1/GPa) = 0.08010324
#
# Stress axis : x y z
#
# Youngs Moduli (GPa) = 41.05889 27.19945 54.37898
#
# Poissons Ratio (x) = -0.41214 0.38539
# Poissons Ratio (y) = -0.62214 0.42246
# Poissons Ratio (z) = 0.29099 0.21131
#
# Static dielectric constant tensor:
#      x y z
#    x 3.809800 0.000000 -0.190050 
#    y 0.000000 3.437510 0.000000 
#    z -0.190050 0.000000 3.883580 
# 
# 
# High freq. dielectric constant tensor:
#      x y z
#    x 1.834270 0.000000 -0.006830 
#    y 0.000000 1.806650 0.000000 
#    z -0.006830 0.000000 1.855390 
# 
# From -- ./inp_files/12717.got.cif
#   From: 2010.03.12/outbox.cif.g09.slc.cpg/sg14_7_cif.got.tgz:12717.got - 2010.03.31 13:35:05.
