data_PCOD8126569
_publ_section_title
;
Structure prediction by ZEFSAII (Michael W. Deem and Ramdas Pophale) SiO2 
 PCOD8126569
Probable space group: P 21/C
;
_chemical_formula_sum "Si O2"
_cell_formula_units_Z 32
_cell_length_a 18.046910
_cell_length_b 6.728048
_cell_length_c 12.111197
_cell_angle_alpha 90.000000
_cell_angle_beta 87.930903
_cell_angle_gamma 90.000000
_cell_volume 1469.588535
_symmetry_space_group_name_H-M "P 21/C"
_symmetry_group_IT_number 14
_symmetry_cell_setting 'monoclinic'
loop_
_space_group_symop_operation_xyz
x,y,z
-x,1/2+y,1/2-z
-x,-y,-z
x,1/2-y,1/2+z
loop_
_atom_site_type_symbol
_atom_site_label
_atom_site_fract_x
_atom_site_fract_y
_atom_site_fract_z
Si Si1 0.048571 0.973092 0.603885
Si Si2 0.525399 0.588873 0.617305
Si Si3 0.169195 0.268684 0.172525
Si Si4 0.922389 0.111403 0.758497
Si Si5 0.346348 0.658664 0.431874
Si Si6 0.790725 0.346967 0.705284
Si Si7 0.585077 0.515598 0.181322
Si Si8 0.293425 0.521795 0.657502
O O1 0.124602 0.099637 0.584673
O O2 0.003868 0.073477 0.706903
O O3 0.067696 0.742300 0.629525
O O4 0.000000 0.000000 0.500000
O O5 0.500000 0.500000 0.500000
O O6 0.604710 0.491438 0.644474
O O7 0.470395 0.565301 0.722500
O O8 0.544569 0.820427 0.609745
O O9 0.197363 0.422565 0.264343
O O10 0.114981 0.101761 0.223988
O O11 0.239268 0.153360 0.116214
O O12 0.870650 0.243058 0.677991
O O13 0.260565 0.662420 0.399944
O O14 0.389635 0.864655 0.415272
O O15 0.349211 0.592108 0.558979
O O16 0.751651 0.218821 0.804308
O O17 0.659732 0.573061 0.244416
#
# Coordination Sequence:
#
# PCOD8126569 Si02
#       8
#     4   4   4   4   4   4   4   4
#     4  11  23  39  65  96 128 175 222 274 338 395
#     4  12  24  43  68 100 130 180 223 272 342 393
#     4  10  21  41  63  91 135 171 213 281 324 397
#     4  10  21  41  61  91 134 169 221 274 329 394
#     4  11  23  42  68  99 131 178 216 272 335 395
#     4   9  22  39  64  92 129 173 219 275 329 393
#     4  11  24  44  65  97 140 170 225 280 323 400
#     4  10  22  42  63  94 133 171 225 265 334 400
#
# _framework density 21.774801
#
# number of rings (size 3 to 8) (size 9 to 14) (size 15 to 20)
#    0.000    1.500    3.750    0.750    0.000    6.000 
#    4.500    0.000    0.000    0.000    0.000    0.000 
#    0.000    0.000    0.000    0.000    0.000    0.000 
#
# Total GULP energy -396501.174355 kJ/mol
# GULP energy per Si atom -12390.661699 kJ/mol
# Density = 2.172524 g / cm^3
# Si number density = 21.774801 Si / 1000 Ang^3
#
#
#
# Elastic Constant Matrix: (Units=GPa)
#
#
# Indices 1 2 3 4 5 6 
#
# 1 79.8784 44.2256 17.5360 0.0000 -0.8729 0.0000
# 2 44.2256 154.5703 43.9366 0.0000 7.6414 0.0000
# 3 17.5360 43.9366 65.2395 0.0000 9.8686 0.0000
# 4 0.0000 0.0000 0.0000 24.5370 0.0000 2.0113
# 5 -0.8729 7.6414 9.8686 0.0000 26.9919 0.0000
# 6 0.0000 0.0000 0.0000 2.0113 0.0000 47.7820
#
#
#
# Elastic Compliance Matrix: (Units=1/GPa)
#
#
# Indices 1 2 3 4 5 6 
#
# 1 0.015107 -0.003936 -0.001749 0.000000 0.002242 0.000000
# 2 -0.003936 0.009029 -0.004887 0.000000 -0.000897 0.000000
# 3 -0.001749 -0.004887 0.019995 0.000000 -0.005983 0.000000
# 4 0.000000 0.000000 0.000000 0.040896 0.000000 -0.001721
# 5 0.002242 -0.000897 -0.005983 0.000000 0.039562 0.000000
# 6 0.000000 0.000000 0.000000 -0.001721 0.000000 0.021001
#
#
# Mechanical properties :
#
#
# Convention : Reuss Voigt Hill
#
# Bulk Modulus (GPa) = 43.50452 56.78718 50.14585
# Shear Modulus (GPa) = 28.67032 32.79483 30.73257
#
# Velocity S-wave (km/s) = 3.63254 3.88505 3.76091
# Velocity P-wave (km/s) = 6.13322 6.80152 6.47600
#
# Compressibility (1/GPa) = 0.02298612
#
# Stress axis : x y z
#
# Youngs Moduli (GPa) = 66.19568 110.75093 50.01305
#
# Poissons Ratio (x) = 0.43592 0.08747
# Poissons Ratio (y) = 0.26055 0.24443
# Poissons Ratio (z) = 0.11578 0.54127
#
# Static dielectric constant tensor:
#      x y z
#    x 4.433600 0.000000 0.014920 
#    y 0.000000 4.100700 0.000000 
#    z 0.014920 0.000000 3.415280 
# 
# 
# High freq. dielectric constant tensor:
#      x y z
#    x 1.885610 0.000000 0.008130 
#    y 0.000000 1.865490 0.000000 
#    z 0.008130 0.000000 1.812740 
# 
# From -- ./inp_files/34719.got.cif
#   From: 2010.03.12/outbox.cif.g09.slc.cpg/sg14_18_cif.got.tgz:34719.got - 2010.03.31 13:35:05.
