data_PCOD8126666
_publ_section_title
;
Structure prediction by ZEFSAII (Michael W. Deem and Ramdas Pophale) SiO2 
 PCOD8126666
Probable space group: P 21/C
;
_chemical_formula_sum "Si O2"
_cell_formula_units_Z 24
_cell_length_a 15.355716
_cell_length_b 10.958293
_cell_length_c 15.250676
_cell_angle_alpha 90.000000
_cell_angle_beta 152.310407
_cell_angle_gamma 90.000000
_cell_volume 1192.496721
_symmetry_space_group_name_H-M "P 21/C"
_symmetry_group_IT_number 14
_symmetry_cell_setting 'monoclinic'
loop_
_space_group_symop_operation_xyz
x,y,z
-x,1/2+y,1/2-z
-x,-y,-z
x,1/2-y,1/2+z
loop_
_atom_site_type_symbol
_atom_site_label
_atom_site_fract_x
_atom_site_fract_y
_atom_site_fract_z
Si Si1 0.560030 0.360323 0.546669
Si Si2 0.928304 0.857092 0.848903
Si Si3 0.014549 0.635016 0.049353
Si Si4 0.662507 0.771645 0.319236
Si Si5 0.268989 0.488362 0.671042
Si Si6 0.424682 0.178278 0.567854
O O1 0.500000 0.500000 0.500000
O O2 0.780963 0.344640 0.727580
O O3 0.459367 0.295045 0.376092
O O4 0.503176 0.296237 0.587032
O O5 0.812103 0.946144 0.808512
O O6 0.797046 0.835239 0.648003
O O7 0.975456 0.728629 0.935784
O O8 0.120440 0.921990 0.990665
O O9 0.000000 0.500000 0.000000
O O10 0.859887 0.656466 0.987134
O O11 0.697731 0.627402 0.361349
O O12 0.550032 0.811224 0.305049
O O13 0.461772 0.559118 0.861146
#
# Coordination Sequence:
#
# PCOD8126666 Si02
#       6
#     4   4   4   4   4   4
#     4  12  24  45  71  92 133 178 220 278 332 397
#     4  10  21  41  67  92 124 174 215 272 327 384
#     4  11  21  43  68  94 131 173 220 264 333 392
#     4  11  27  41  64 105 129 176 226 268 335 397
#     4  10  22  41  66  93 129 167 224 264 333 391
#     4  12  24  43  68  97 133 172 221 279 331 392
#
# _framework density 20.125841999999999
#
# number of rings (size 3 to 8) (size 9 to 14) (size 15 to 20)
#    0.000    1.000    6.667    0.500    2.333    1.333 
#    3.000    0.000    0.000    0.000    0.000    0.000 
#    0.000    0.000    0.000    0.000    0.000    0.000 
#
# Total GULP energy -297659.148173 kJ/mol
# GULP energy per Si atom -12402.464507 kJ/mol
# Density = 2.008003 g / cm^3
# Si number density = 20.125842 Si / 1000 Ang^3
#
#
#
# Elastic Constant Matrix: (Units=GPa)
#
#
# Indices 1 2 3 4 5 6 
#
# 1 94.1264 47.3999 44.7312 0.0000 -2.4548 0.0000
# 2 47.3999 149.6527 39.0729 0.0000 9.4844 0.0000
# 3 44.7312 39.0729 125.0391 0.0000 25.5314 0.0000
# 4 0.0000 0.0000 0.0000 37.1025 0.0000 10.1160
# 5 -2.4548 9.4844 25.5314 0.0000 22.3772 0.0000
# 6 0.0000 0.0000 0.0000 10.1160 0.0000 17.8164
#
#
#
# Elastic Compliance Matrix: (Units=1/GPa)
#
#
# Indices 1 2 3 4 5 6 
#
# 1 0.016217 -0.004067 -0.006839 0.000000 0.011306 0.000000
# 2 -0.004067 0.008303 -0.000430 0.000000 -0.003475 0.000000
# 3 -0.006839 -0.000430 0.013943 0.000000 -0.016476 0.000000
# 4 0.000000 0.000000 0.000000 0.031889 0.000000 -0.018106
# 5 0.011306 -0.003475 -0.016476 0.000000 0.066200 0.000000
# 6 0.000000 0.000000 0.000000 -0.018106 0.000000 0.066409
#
#
# Mechanical properties :
#
#
# Convention : Reuss Voigt Hill
#
# Bulk Modulus (GPa) = 63.33184 70.13624 66.73404
# Shear Modulus (GPa) = 21.65470 31.30015 26.47742
#
# Velocity S-wave (km/s) = 3.28375 3.94791 3.63105
# Velocity P-wave (km/s) = 6.77596 7.46363 7.12809
#
# Compressibility (1/GPa) = 0.01578985
#
# Stress axis : x y z
#
# Youngs Moduli (GPa) = 61.66284 120.43987 71.72252
#
# Poissons Ratio (x) = 0.48988 0.49051
# Poissons Ratio (y) = 0.25081 0.03084
# Poissons Ratio (z) = 0.42172 0.05178
#
# Static dielectric constant tensor:
#      x y z
#    x 3.406720 0.000000 0.323960 
#    y 0.000000 3.866460 0.000000 
#    z 0.323960 0.000000 3.994010 
# 
# 
# High freq. dielectric constant tensor:
#      x y z
#    x 1.759630 0.000000 0.019280 
#    y 0.000000 1.801690 0.000000 
#    z 0.019280 0.000000 1.798070 
# 
# From -- ./inp_files/47196.got.cif
#   From: 2010.03.12/outbox.cif.g09.slc.cpg/sg14_24_cif.got.tgz:47196.got - 2010.03.31 13:35:05.
