data_PCOD8126033
_publ_section_title
;
Structure prediction by ZEFSAII (Michael W. Deem and Ramdas Pophale) SiO2 
 PCOD8126033
Probable space group: P 21/C
;
_chemical_formula_sum "Si O2"
_cell_formula_units_Z 32
_cell_length_a 8.822333
_cell_length_b 15.163623
_cell_length_c 13.318223
_cell_angle_alpha 90.000000
_cell_angle_beta 59.570909
_cell_angle_gamma 90.000000
_cell_volume 1536.276008
_symmetry_space_group_name_H-M "P 21/C"
_symmetry_group_IT_number 14
_symmetry_cell_setting 'monoclinic'
loop_
_space_group_symop_operation_xyz
x,y,z
-x,1/2+y,1/2-z
-x,-y,-z
x,1/2-y,1/2+z
loop_
_atom_site_type_symbol
_atom_site_label
_atom_site_fract_x
_atom_site_fract_y
_atom_site_fract_z
Si Si1 0.057293 0.537494 0.825694
Si Si2 0.465019 0.796141 0.475041
Si Si3 0.533910 0.416262 0.846618
Si Si4 0.970667 0.698176 0.593992
Si Si5 0.244736 0.815722 0.169886
Si Si6 0.723145 0.289146 0.644164
Si Si7 0.742854 0.913096 0.297583
Si Si8 0.141710 0.114829 0.430318
O O1 0.882415 0.534770 0.817628
O O2 0.216082 0.581378 0.707058
O O3 0.117269 0.439730 0.835164
O O4 0.017833 0.593113 0.940419
O O5 0.388302 0.871965 0.576679
O O6 0.433517 0.705249 0.551469
O O7 0.363496 0.780907 0.404535
O O8 0.663557 0.825902 0.381203
O O9 0.594954 0.367439 0.723812
O O10 0.587415 0.518837 0.823700
O O11 0.323906 0.410928 0.922381
O O12 0.832010 0.620699 0.664699
O O13 0.860248 0.782928 0.596924
O O14 0.085965 0.719528 0.653771
O O15 0.103806 0.666196 0.462315
O O16 0.216753 0.765034 0.281400
#
# Coordination Sequence:
#
# PCOD8126033 Si02
#       8
#     4   4   4   4   4   4   4   4
#     4  10  22  36  60  91 124 159 209 258 307 363
#     4  10  21  37  63  87 126 154 203 256 307 361
#     4  11  24  38  61  97 124 160 206 261 313 364
#     4  10  22  40  62  87 124 167 208 256 303 379
#     4   9  20  37  60  90 119 162 204 252 316 366
#     4  10  21  38  64  89 121 165 205 252 316 368
#     4  11  23  39  61  93 126 161 209 254 309 369
#     4  11  22  37  61  92 126 159 210 261 306 361
#
# _framework density 20.829591000000001
#
# number of rings (size 3 to 8) (size 9 to 14) (size 15 to 20)
#    0.000    1.750    2.500    1.125    7.000    0.500 
#    0.000    0.000    0.000    7.500    0.000    0.000 
#    0.000    0.000    0.000    0.000    0.000    0.000 
#
# Total GULP energy -396472.801188 kJ/mol
# GULP energy per Si atom -12389.775037 kJ/mol
# Density = 2.078218 g / cm^3
# Si number density = 20.829591 Si / 1000 Ang^3
#
#
#
# Elastic Constant Matrix: (Units=GPa)
#
#
# Indices 1 2 3 4 5 6 
#
# 1 50.6517 21.0199 25.5398 0.0000 3.4466 0.0000
# 2 21.0199 61.7541 22.9034 0.0000 -5.3775 0.0000
# 3 25.5398 22.9034 106.8791 0.0000 -2.0839 0.0000
# 4 0.0000 0.0000 0.0000 27.0636 0.0000 -1.7181
# 5 3.4466 -5.3775 -2.0839 0.0000 31.4943 0.0000
# 6 0.0000 0.0000 0.0000 -1.7181 0.0000 32.6074
#
#
#
# Elastic Compliance Matrix: (Units=1/GPa)
#
#
# Indices 1 2 3 4 5 6 
#
# 1 0.025385 -0.007318 -0.004582 0.000000 -0.004331 0.000000
# 2 -0.007318 0.019944 -0.002446 0.000000 0.004044 0.000000
# 3 -0.004582 -0.002446 0.010991 0.000000 0.000811 0.000000
# 4 0.000000 0.000000 0.000000 0.037074 0.000000 0.001953
# 5 -0.004331 0.004044 0.000811 0.000000 0.032970 0.000000
# 6 0.000000 0.000000 0.000000 0.001953 0.000000 0.030771
#
#
# Mechanical properties :
#
#
# Convention : Reuss Voigt Hill
#
# Bulk Modulus (GPa) = 36.19681 39.80123 37.99902
# Shear Modulus (GPa) = 25.63626 28.22119 26.92872
#
# Velocity S-wave (km/s) = 3.51203 3.68484 3.59947
# Velocity P-wave (km/s) = 5.81903 6.10357 5.96300
#
# Compressibility (1/GPa) = 0.02762674
#
# Stress axis : x y z
#
# Youngs Moduli (GPa) = 39.39375 50.14138 90.98083
#
# Poissons Ratio (x) = 0.36694 0.41689
# Poissons Ratio (y) = 0.28829 0.22256
# Poissons Ratio (z) = 0.18051 0.12265
#
# Static dielectric constant tensor:
#      x y z
#    x 3.572850 0.000000 0.007750 
#    y 0.000000 3.664230 0.000000 
#    z 0.007750 0.000000 4.186100 
# 
# 
# High freq. dielectric constant tensor:
#      x y z
#    x 1.800010 0.000000 0.005880 
#    y 0.000000 1.791360 0.000000 
#    z 0.005880 0.000000 1.827280 
# 
# From -- ./inp_files/41211.got.cif
#   From: 2010.03.12/outbox.cif.g09.slc.cpg/sg14_21_cif.got.tgz:41211.got - 2010.03.31 13:35:05.
