data_PCOD8126817
_publ_section_title
;
Structure prediction by ZEFSAII (Michael W. Deem and Ramdas Pophale) SiO2 
 PCOD8126817
Probable space group: P 21/C
;
_chemical_formula_sum "Si O2"
_cell_formula_units_Z 24
_cell_length_a 7.669021
_cell_length_b 23.562345
_cell_length_c 11.123912
_cell_angle_alpha 90.000000
_cell_angle_beta 35.073548
_cell_angle_gamma 90.000000
_cell_volume 1155.054209
_symmetry_space_group_name_H-M "P 21/C"
_symmetry_group_IT_number 14
_symmetry_cell_setting 'monoclinic'
loop_
_space_group_symop_operation_xyz
x,y,z
-x,1/2+y,1/2-z
-x,-y,-z
x,1/2-y,1/2+z
loop_
_atom_site_type_symbol
_atom_site_label
_atom_site_fract_x
_atom_site_fract_y
_atom_site_fract_z
Si Si1 0.222880 0.177209 0.806214
Si Si2 0.389441 0.955996 0.788620
Si Si3 0.517540 0.293953 0.687620
Si Si4 0.797299 0.633208 0.942790
Si Si5 0.438727 0.609959 0.503374
Si Si6 0.755556 0.571455 0.546174
O O1 0.451392 0.229092 0.695822
O O2 0.299657 0.146359 0.638351
O O3 0.302481 0.132776 0.864903
O O4 0.875206 0.197782 0.010872
O O5 0.667465 0.926619 0.563709
O O6 0.454198 0.022772 0.773321
O O7 0.323308 0.927207 0.955345
O O8 0.101607 0.947850 0.864557
O O9 0.417177 0.331948 0.629701
O O10 0.321195 0.313909 0.912400
O O11 0.158460 0.626311 0.747942
O O12 0.683308 0.576075 0.444751
#
# Coordination Sequence:
#
# PCOD8126817 Si02
#       6
#     4   4   4   4   4   4
#     4  11  24  41  61  94 121 168 207 255 314 366
#     4  10  22  45  62  92 130 163 205 264 304 369
#     4  10  24  41  61  89 131 160 208 261 305 367
#     4  10  21  43  62  87 134 157 206 263 304 369
#     4  10  22  43  62  95 125 165 206 256 311 367
#     4  11  22  41  67  92 127 164 211 254 313 369
#
# _framework density 20.778244999999998
#
# number of rings (size 3 to 8) (size 9 to 14) (size 15 to 20)
#    0.000    1.667    5.000    0.500    4.667    4.000 
#    3.000    0.000    0.000    0.000    0.000    0.000 
#    0.000    0.000    0.000    0.000    0.000    0.000 
#
# Total GULP energy -297601.940585 kJ/mol
# GULP energy per Si atom -12400.080858 kJ/mol
# Density = 2.073095 g / cm^3
# Si number density = 20.778245 Si / 1000 Ang^3
#
#
#
# Elastic Constant Matrix: (Units=GPa)
#
#
# Indices 1 2 3 4 5 6 
#
# 1 92.6782 23.7546 28.7185 0.0000 1.1066 0.0000
# 2 23.7546 122.2879 19.4617 0.0000 -12.0533 0.0000
# 3 28.7185 19.4617 92.3052 0.0000 9.4754 0.0000
# 4 0.0000 0.0000 0.0000 23.1303 0.0000 -2.6214
# 5 1.1066 -12.0533 9.4754 0.0000 8.8179 0.0000
# 6 0.0000 0.0000 0.0000 -2.6214 0.0000 31.4121
#
#
#
# Elastic Compliance Matrix: (Units=1/GPa)
#
#
# Indices 1 2 3 4 5 6 
#
# 1 0.012333 -0.001910 -0.003381 0.000000 -0.000525 0.000000
# 2 -0.001910 0.011046 -0.003720 0.000000 0.019336 0.000000
# 3 -0.003381 -0.003720 0.014778 0.000000 -0.020540 0.000000
# 4 0.000000 0.000000 0.000000 0.043646 0.000000 0.003642
# 5 -0.000525 0.019336 -0.020540 0.000000 0.161973 0.000000
# 6 0.000000 0.000000 0.000000 0.003642 0.000000 0.032139
#
#
# Mechanical properties :
#
#
# Convention : Reuss Voigt Hill
#
# Bulk Modulus (GPa) = 49.65784 50.12678 49.89231
# Shear Modulus (GPa) = 16.63074 28.36116 22.49595
#
# Velocity S-wave (km/s) = 2.83219 3.69852 3.29396
# Velocity P-wave (km/s) = 5.88608 6.51274 6.20732
#
# Compressibility (1/GPa) = 0.02013781
#
# Stress axis : x y z
#
# Youngs Moduli (GPa) = 81.08119 90.52922 67.66702
#
# Poissons Ratio (x) = 0.17287 0.22876
# Poissons Ratio (y) = 0.15482 0.25170
# Poissons Ratio (z) = 0.27411 0.33675
#
# Static dielectric constant tensor:
#      x y z
#    x 3.698920 0.000000 0.102760 
#    y 0.000000 3.994310 0.000000 
#    z 0.102760 0.000000 3.592210 
# 
# 
# High freq. dielectric constant tensor:
#      x y z
#    x 1.811620 0.000000 0.007830 
#    y 0.000000 1.825450 0.000000 
#    z 0.007830 0.000000 1.800230 
# 
# From -- ./inp_files/6245.got.cif
#   From: 2010.03.12/outbox.cif.g09.slc.cpg/sg14_4_cif.got.tgz:6245.got - 2010.03.31 13:35:05.
