data_PCOD8126326
_publ_section_title
;
Structure prediction by ZEFSAII (Michael W. Deem and Ramdas Pophale) SiO2 
 PCOD8126326
Probable space group: P 21/C
;
_chemical_formula_sum "Si O2"
_cell_formula_units_Z 20
_cell_length_a 8.771904
_cell_length_b 16.032100
_cell_length_c 14.109446
_cell_angle_alpha 90.000000
_cell_angle_beta 151.350709
_cell_angle_gamma 90.000000
_cell_volume 951.338015
_symmetry_space_group_name_H-M "P 21/C"
_symmetry_group_IT_number 14
_symmetry_cell_setting 'monoclinic'
loop_
_space_group_symop_operation_xyz
x,y,z
-x,1/2+y,1/2-z
-x,-y,-z
x,1/2-y,1/2+z
loop_
_atom_site_type_symbol
_atom_site_label
_atom_site_fract_x
_atom_site_fract_y
_atom_site_fract_z
Si Si1 0.445128 0.214496 0.345372
Si Si2 0.429243 0.102407 0.862609
Si Si3 0.631081 0.389585 0.125081
Si Si4 0.002544 0.521244 0.222878
Si Si5 0.198169 0.673008 0.586794
O O1 0.325349 0.301753 0.327917
O O2 0.613851 0.160424 0.517741
O O3 0.685410 0.236689 0.389688
O O4 0.161322 0.160681 0.145039
O O5 0.129448 0.040477 0.708824
O O6 0.581733 0.099886 0.839774
O O7 0.705885 0.079182 0.087838
O O8 0.776805 0.330877 0.286305
O O9 0.870221 0.466842 0.239183
O O10 0.284597 0.421096 0.971037
#
# Coordination Sequence:
#
# PCOD8126326 Si02
#       5
#     4   4   4   4   4
#     4  10  21  42  58  91 124 157 209 263 286 377
#     4   9  21  41  61  89 126 159 202 254 305 365
#     4  11  22  40  67  90 124 165 204 253 313 363
#     4  10  21  39  65  92 125 165 197 257 314 360
#     4  10  23  38  64  87 119 165 208 246 314 358
#
# _framework density 21.023022000000001
#
# number of rings (size 3 to 8) (size 9 to 14) (size 15 to 20)
#    1.200    0.800    2.000    1.200    0.000    6.400 
#    0.000    2.000    0.000    0.000    0.000    0.000 
#    0.000    0.000    0.000    0.000    0.000    0.000 
#
# Total GULP energy -247801.586164 kJ/mol
# GULP energy per Si atom -12390.079308 kJ/mol
# Density = 2.097517 g / cm^3
# Si number density = 21.023022 Si / 1000 Ang^3
#
#
#
# Elastic Constant Matrix: (Units=GPa)
#
#
# Indices 1 2 3 4 5 6 
#
# 1 64.2680 13.5185 42.6068 0.0000 -17.0294 0.0000
# 2 13.5185 68.9341 29.3870 0.0000 -14.2233 0.0000
# 3 42.6068 29.3870 90.4383 0.0000 -18.4280 0.0000
# 4 0.0000 0.0000 0.0000 25.6728 0.0000 5.2149
# 5 -17.0294 -14.2233 -18.4280 0.0000 31.7507 0.0000
# 6 0.0000 0.0000 0.0000 5.2149 0.0000 38.6315
#
#
#
# Elastic Compliance Matrix: (Units=1/GPa)
#
#
# Indices 1 2 3 4 5 6 
#
# 1 0.024056 0.001175 -0.010183 0.000000 0.007518 0.000000
# 2 0.001175 0.017613 -0.005149 0.000000 0.005531 0.000000
# 3 -0.010183 -0.005149 0.018083 0.000000 0.002727 0.000000
# 4 0.000000 0.000000 0.000000 0.040050 0.000000 -0.005406
# 5 0.007518 0.005531 0.002727 0.000000 0.039589 0.000000
# 6 0.000000 0.000000 0.000000 -0.005406 0.000000 0.026615
#
#
# Mechanical properties :
#
#
# Convention : Reuss Voigt Hill
#
# Bulk Modulus (GPa) = 31.80963 43.85167 37.83065
# Shear Modulus (GPa) = 24.41412 28.41954 26.41683
#
# Velocity S-wave (km/s) = 3.41149 3.68071 3.54865
# Velocity P-wave (km/s) = 5.53908 6.24241 5.90123
#
# Compressibility (1/GPa) = 0.03143702
#
# Stress axis : x y z
#
# Youngs Moduli (GPa) = 41.57041 56.77706 55.29924
#
# Poissons Ratio (x) = -0.06670 0.56309
# Poissons Ratio (y) = -0.04883 0.28476
# Poissons Ratio (z) = 0.42330 0.29237
#
# Static dielectric constant tensor:
#      x y z
#    x 3.579690 0.000000 0.269820 
#    y 0.000000 3.711540 0.000000 
#    z 0.269820 0.000000 3.575430 
# 
# 
# High freq. dielectric constant tensor:
#      x y z
#    x 1.803200 0.000000 0.021000 
#    y 0.000000 1.811480 0.000000 
#    z 0.021000 0.000000 1.819700 
# 
# From -- ./inp_files/41732.got.cif
#   From: 2010.03.12/outbox.cif.g09.slc.cpg/sg14_21_cif.got.tgz:41732.got - 2010.03.31 13:35:05.
