data_PCOD8126271
_publ_section_title
;
Structure prediction by ZEFSAII (Michael W. Deem and Ramdas Pophale) SiO2 
 PCOD8126271
Probable space group: P 21/C
;
_chemical_formula_sum "Si O2"
_cell_formula_units_Z 28
_cell_length_a 6.520804
_cell_length_b 16.707485
_cell_length_c 14.184238
_cell_angle_alpha 90.000000
_cell_angle_beta 60.862496
_cell_angle_gamma 90.000000
_cell_volume 1349.764878
_symmetry_space_group_name_H-M "P 21/C"
_symmetry_group_IT_number 14
_symmetry_cell_setting 'monoclinic'
loop_
_space_group_symop_operation_xyz
x,y,z
-x,1/2+y,1/2-z
-x,-y,-z
x,1/2-y,1/2+z
loop_
_atom_site_type_symbol
_atom_site_label
_atom_site_fract_x
_atom_site_fract_y
_atom_site_fract_z
Si Si1 0.825839 0.940612 0.588839
Si Si2 0.388474 0.456781 0.180629
Si Si3 0.429470 0.157140 0.499351
Si Si4 0.833819 0.588031 0.595681
Si Si5 0.261384 0.329664 0.580844
Si Si6 0.109885 0.889378 0.696844
Si Si7 0.649850 0.056296 0.034184
O O1 0.769662 0.871640 0.526821
O O2 0.921604 0.893441 0.656475
O O3 0.602450 0.991272 0.672559
O O4 0.000000 0.000000 0.500000
O O5 0.305149 0.390756 0.276897
O O6 0.179655 0.519271 0.204740
O O7 0.470753 0.410063 0.069487
O O8 0.335911 0.237874 0.566584
O O9 0.672597 0.165384 0.386703
O O10 0.758387 0.642214 0.523981
O O11 0.748596 0.495322 0.599701
O O12 0.109365 0.593751 0.561723
O O13 0.467533 0.372548 0.595909
O O14 0.010912 0.345835 0.686374
O O15 0.500000 0.000000 0.000000
#
# Coordination Sequence:
#
# PCOD8126271 Si02
#       7
#     4   4   4   4   4   4   4
#     4  11  20  42  67  91 117 166 219 260 309 373
#     4  11  21  39  68  94 121 162 219 266 306 382
#     4  11  25  41  60  95 129 161 215 264 319 376
#     4  10  21  39  62  93 126 165 206 257 310 382
#     4  11  25  41  60  96 134 168 204 265 330 383
#     4  11  22  43  67  89 124 168 212 265 310 376
#     4   9  18  37  59  85 121 160 206 243 302 376
#
# _framework density 20.744354000000001
#
# number of rings (size 3 to 8) (size 9 to 14) (size 15 to 20)
#    0.000    1.429    2.857    4.286    0.000    5.714 
#    2.571    0.000    0.000    0.000    0.000    0.000 
#    0.000    0.000    0.000    0.000    0.000    0.000 
#
# Total GULP energy -347043.105112 kJ/mol
# GULP energy per Si atom -12394.396611 kJ/mol
# Density = 2.069714 g / cm^3
# Si number density = 20.744354 Si / 1000 Ang^3
#
#
#
# Elastic Constant Matrix: (Units=GPa)
#
#
# Indices 1 2 3 4 5 6 
#
# 1 106.2113 28.2772 21.5050 0.0000 -8.0845 0.0000
# 2 28.2772 98.4797 35.7746 0.0000 -12.5179 0.0000
# 3 21.5050 35.7746 116.2036 0.0000 -10.5326 0.0000
# 4 0.0000 0.0000 0.0000 29.9253 0.0000 -0.9101
# 5 -8.0845 -12.5179 -10.5326 0.0000 32.8049 0.0000
# 6 0.0000 0.0000 0.0000 -0.9101 0.0000 23.7395
#
#
#
# Elastic Compliance Matrix: (Units=1/GPa)
#
#
# Indices 1 2 3 4 5 6 
#
# 1 0.010374 -0.002432 -0.001054 0.000000 0.001290 0.000000
# 2 -0.002432 0.012367 -0.003073 0.000000 0.003133 0.000000
# 3 -0.001054 -0.003073 0.009905 0.000000 0.001748 0.000000
# 4 0.000000 0.000000 0.000000 0.033455 0.000000 0.001283
# 5 0.001290 0.003133 0.001748 0.000000 0.032558 0.000000
# 6 0.000000 0.000000 0.000000 0.001283 0.000000 0.042173
#
#
# Mechanical properties :
#
#
# Convention : Reuss Voigt Hill
#
# Bulk Modulus (GPa) = 51.20883 54.66757 52.93820
# Shear Modulus (GPa) = 31.16007 32.98314 32.07161
#
# Velocity S-wave (km/s) = 3.87990 3.99178 3.93624
# Velocity P-wave (km/s) = 6.69408 6.90333 6.79951
#
# Compressibility (1/GPa) = 0.01952788
#
# Stress axis : x y z
#
# Youngs Moduli (GPa) = 96.39191 80.85780 100.95620
#
# Poissons Ratio (x) = 0.19664 0.10644
# Poissons Ratio (y) = 0.23441 0.31028
# Poissons Ratio (z) = 0.10162 0.24851
#
# Static dielectric constant tensor:
#      x y z
#    x 4.373380 0.000000 -0.165430 
#    y 0.000000 3.602420 0.000000 
#    z -0.165430 0.000000 3.837220 
# 
# 
# High freq. dielectric constant tensor:
#      x y z
#    x 1.824630 0.000000 -0.006420 
#    y 0.000000 1.781330 0.000000 
#    z -0.006420 0.000000 1.817990 
# 
# From -- ./inp_files/37614.got.cif
#   From: 2010.03.12/outbox.cif.g09.slc.cpg/sg14_19_cif.got.tgz:37614.got - 2010.03.31 13:35:05.
