data_PCOD8126126
_publ_section_title
;
Structure prediction by ZEFSAII (Michael W. Deem and Ramdas Pophale) SiO2 
 PCOD8126126
Probable space group: P 21/C
;
_chemical_formula_sum "Si O2"
_cell_formula_units_Z 24
_cell_length_a 19.504773
_cell_length_b 12.882517
_cell_length_c 14.910955
_cell_angle_alpha 90.000000
_cell_angle_beta 18.970606
_cell_angle_gamma 90.000000
_cell_volume 1217.983475
_symmetry_space_group_name_H-M "P 21/C"
_symmetry_group_IT_number 14
_symmetry_cell_setting 'monoclinic'
loop_
_space_group_symop_operation_xyz
x,y,z
-x,1/2+y,1/2-z
-x,-y,-z
x,1/2-y,1/2+z
loop_
_atom_site_type_symbol
_atom_site_label
_atom_site_fract_x
_atom_site_fract_y
_atom_site_fract_z
Si Si1 0.933750 0.358549 0.264145
Si Si2 0.401120 0.756361 0.216821
Si Si3 0.329572 0.358540 0.472536
Si Si4 0.362930 0.256369 0.755031
Si Si5 0.883292 0.429972 0.000868
Si Si6 0.348492 0.570016 0.535626
O O1 0.764806 0.332508 0.550716
O O2 0.814454 0.355729 0.316093
O O3 0.028119 0.473157 0.165844
O O4 0.116926 0.271972 0.036125
O O5 0.576886 0.771973 0.076178
O O6 0.281735 0.866228 0.354215
O O7 0.508933 0.720857 0.991058
O O8 0.395798 0.332487 0.288701
O O9 0.416140 0.473139 0.389870
O O10 0.075577 0.355737 0.793933
O O11 0.446270 0.366244 0.689701
O O12 0.767952 0.474510 0.232066
#
# Coordination Sequence:
#
# PCOD8126126 Si02
#       6
#     4   4   4   4   4   4
#     4  11  20  37  59  86 117 148 188 242 282 334
#     4  11  22  37  60  87 117 152 190 235 290 341
#     4  11  20  37  59  86 117 148 188 242 282 334
#     4  11  22  37  60  87 117 152 190 235 290 341
#     4  10  21  38  62  86 111 151 199 239 280 335
#     4  10  21  38  62  86 111 151 199 239 280 335
#
# _framework density 19.704699999999999
#
# number of rings (size 3 to 8) (size 9 to 14) (size 15 to 20)
#    0.000    1.333    3.333    5.000    0.000    2.667 
#    0.000    3.333    0.000    2.000    0.000    0.000 
#    0.000    0.000    0.000    0.000    0.000    0.000 
#
# Total GULP energy -297608.145654 kJ/mol
# GULP energy per Si atom -12400.339402 kJ/mol
# Density = 1.965985 g / cm^3
# Si number density = 19.704700 Si / 1000 Ang^3
#
#
#
# Elastic Constant Matrix: (Units=GPa)
#
#
# Indices 1 2 3 4 5 6 
#
# 1 105.6101 39.1583 53.9412 0.0000 10.4314 0.0000
# 2 39.1583 71.5244 54.3117 0.0000 23.0134 0.0000
# 3 53.9412 54.3117 121.9759 0.0000 14.4710 0.0000
# 4 0.0000 0.0000 0.0000 33.5392 0.0000 5.5870
# 5 10.4314 23.0134 14.4710 0.0000 35.4073 0.0000
# 6 0.0000 0.0000 0.0000 5.5870 0.0000 29.8768
#
#
#
# Elastic Compliance Matrix: (Units=1/GPa)
#
#
# Indices 1 2 3 4 5 6 
#
# 1 0.013011 -0.004368 -0.003879 0.000000 0.000591 0.000000
# 2 -0.004368 0.026982 -0.008570 0.000000 -0.012748 0.000000
# 3 -0.003879 -0.008570 0.013592 0.000000 0.001158 0.000000
# 4 0.000000 0.000000 0.000000 0.030774 0.000000 -0.005755
# 5 0.000591 -0.012748 0.001158 0.000000 0.035881 0.000000
# 6 0.000000 0.000000 0.000000 -0.005755 0.000000 0.034547
#
#
# Mechanical properties :
#
#
# Convention : Reuss Voigt Hill
#
# Bulk Modulus (GPa) = 50.12259 65.99254 58.05756
# Shear Modulus (GPa) = 25.63141 29.87794 27.75468
#
# Velocity S-wave (km/s) = 3.61054 3.89818 3.75711
# Velocity P-wave (km/s) = 6.54778 7.33652 6.95334
#
# Compressibility (1/GPa) = 0.01995108
#
# Stress axis : x y z
#
# Youngs Moduli (GPa) = 76.85622 37.06173 73.57039
#
# Poissons Ratio (x) = 0.16189 0.28539
# Poissons Ratio (y) = 0.33571 0.63051
# Poissons Ratio (z) = 0.29814 0.31762
#
# Static dielectric constant tensor:
#      x y z
#    x 3.776870 0.000000 -0.158590 
#    y 0.000000 3.300990 0.000000 
#    z -0.158590 0.000000 3.672400 
# 
# 
# High freq. dielectric constant tensor:
#      x y z
#    x 1.779100 0.000000 -0.017250 
#    y 0.000000 1.738680 0.000000 
#    z -0.017250 0.000000 1.767740 
# 
# From -- ./inp_files/44854.got.cif
#   From: 2010.03.12/outbox.cif.g09.slc.cpg/sg14_23_cif.got.tgz:44854.got - 2010.03.31 13:35:05.
