data_PCOD8126890
_publ_section_title
;
Structure prediction by ZEFSAII (Michael W. Deem and Ramdas Pophale) SiO2 
 PCOD8126890
Probable space group: P 21/C
;
_chemical_formula_sum "Si O2"
_cell_formula_units_Z 28
_cell_length_a 9.296592
_cell_length_b 8.772685
_cell_length_c 26.333066
_cell_angle_alpha 90.000000
_cell_angle_beta 36.862521
_cell_angle_gamma 90.000000
_cell_volume 1288.351665
_symmetry_space_group_name_H-M "P 21/C"
_symmetry_group_IT_number 14
_symmetry_cell_setting 'monoclinic'
loop_
_space_group_symop_operation_xyz
x,y,z
-x,1/2+y,1/2-z
-x,-y,-z
x,1/2-y,1/2+z
loop_
_atom_site_type_symbol
_atom_site_label
_atom_site_fract_x
_atom_site_fract_y
_atom_site_fract_z
Si Si1 0.277774 0.744137 0.182783
Si Si2 0.331131 0.471184 0.942698
Si Si3 0.883177 0.521061 0.337122
Si Si4 0.511735 0.019667 0.802694
Si Si5 0.009271 0.104144 0.909257
Si Si6 0.851193 0.560890 0.118672
Si Si7 0.465657 0.816579 0.906080
O O1 0.478179 0.655294 0.092367
O O2 0.133170 0.863167 0.189461
O O3 0.417748 0.825839 0.188847
O O4 0.106433 0.616130 0.253839
O O5 0.259798 0.428174 0.905642
O O6 0.457425 0.635344 0.908657
O O7 0.100168 0.465600 0.044772
O O8 0.644405 0.623113 0.399178
O O9 0.915264 0.481982 0.386494
O O10 0.231231 0.011362 0.869213
O O11 0.667695 0.021859 0.707642
O O12 0.564113 0.873890 0.823714
O O13 0.095026 0.274760 0.872457
O O14 0.795584 0.109907 0.010661
#
# Coordination Sequence:
#
# PCOD8126890 Si02
#       7
#     4   4   4   4   4   4   4
#     4  11  24  43  66  96 129 177 215 270 328 396
#     4  10  21  44  66  93 133 167 221 267 333 387
#     4  11  25  42  67  96 138 172 221 265 334 395
#     4  11  24  41  68 101 126 166 227 267 335 381
#     4  11  23  43  66  99 131 172 222 274 325 391
#     4  10  23  39  66 101 127 171 212 282 328 385
#     4  10  24  44  68  94 133 175 216 274 333 390
#
# _framework density 21.733197000000001
#
# number of rings (size 3 to 8) (size 9 to 14) (size 15 to 20)
#    0.000    1.429    1.429    2.571    8.000    0.000 
#    7.714    1.429    0.000    0.000    0.000    0.000 
#    0.000    0.000    0.000    0.000    0.000    0.000 
#
# Total GULP energy -347255.673618 kJ/mol
# GULP energy per Si atom -12401.988344 kJ/mol
# Density = 2.168373 g / cm^3
# Si number density = 21.733197 Si / 1000 Ang^3
#
#
#
# Elastic Constant Matrix: (Units=GPa)
#
#
# Indices 1 2 3 4 5 6 
#
# 1 98.2073 24.1867 29.1918 0.0000 -14.0264 0.0000
# 2 24.1867 59.9013 35.6437 0.0000 -16.7356 0.0000
# 3 29.1918 35.6437 92.0404 0.0000 -5.4087 0.0000
# 4 0.0000 0.0000 0.0000 33.7614 0.0000 -8.2390
# 5 -14.0264 -16.7356 -5.4087 0.0000 19.2286 0.0000
# 6 0.0000 0.0000 0.0000 -8.2390 0.0000 32.2440
#
#
#
# Elastic Compliance Matrix: (Units=1/GPa)
#
#
# Indices 1 2 3 4 5 6 
#
# 1 0.012405 -0.001196 -0.003051 0.000000 0.007150 0.000000
# 2 -0.001196 0.028882 -0.009537 0.000000 0.021583 0.000000
# 3 -0.003051 -0.009537 0.015158 0.000000 -0.006263 0.000000
# 4 0.000000 0.000000 0.000000 0.031589 0.000000 0.008072
# 5 0.007150 0.021583 -0.006263 0.000000 0.074245 0.000000
# 6 0.000000 0.000000 0.000000 0.008072 0.000000 0.033076
#
#
# Mechanical properties :
#
#
# Convention : Reuss Voigt Hill
#
# Bulk Modulus (GPa) = 34.63018 47.57705 41.10361
# Shear Modulus (GPa) = 21.50083 27.78856 24.64470
#
# Velocity S-wave (km/s) = 3.14874 3.57966 3.37109
# Velocity P-wave (km/s) = 5.40261 6.24694 5.84006
#
# Compressibility (1/GPa) = 0.02887655
#
# Stress axis : x y z
#
# Youngs Moduli (GPa) = 80.61136 34.62374 65.97195
#
# Poissons Ratio (x) = 0.04140 0.20130
# Poissons Ratio (y) = 0.09638 0.62920
# Poissons Ratio (z) = 0.24597 0.33022
#
# Static dielectric constant tensor:
#      x y z
#    x 3.896790 0.000000 -0.271360 
#    y 0.000000 3.927070 0.000000 
#    z -0.271360 0.000000 4.004920 
# 
# 
# High freq. dielectric constant tensor:
#      x y z
#    x 1.850440 0.000000 -0.018250 
#    y 0.000000 1.859200 0.000000 
#    z -0.018250 0.000000 1.861290 
# 
# From -- ./inp_files/76316.got.cif
#   From: 2010.03.12/outbox.cif.g09.slc.cpg/sg14_39_cif.got.tgz:76316.got - 2010.03.31 13:35:05.
