data_PCOD8126449
_publ_section_title
;
Structure prediction by ZEFSAII (Michael W. Deem and Ramdas Pophale) SiO2 
 PCOD8126449
Probable space group: P 21/C
;
_chemical_formula_sum "Si O2"
_cell_formula_units_Z 20
_cell_length_a 6.615045
_cell_length_b 26.670455
_cell_length_c 5.149372
_cell_angle_alpha 90.000000
_cell_angle_beta 112.926103
_cell_angle_gamma 90.000000
_cell_volume 836.721469
_symmetry_space_group_name_H-M "P 21/C"
_symmetry_group_IT_number 14
_symmetry_cell_setting 'monoclinic'
loop_
_space_group_symop_operation_xyz
x,y,z
-x,1/2+y,1/2-z
-x,-y,-z
x,1/2-y,1/2+z
loop_
_atom_site_type_symbol
_atom_site_label
_atom_site_fract_x
_atom_site_fract_y
_atom_site_fract_z
Si Si1 0.643202 0.367522 0.871743
Si Si2 0.076830 0.460462 0.743838
Si Si3 0.635995 0.023923 0.302033
Si Si4 0.924839 0.141974 0.013026
Si Si5 0.706712 0.782498 0.791501
O O1 0.531739 0.423005 0.837708
O O2 0.728855 0.359190 0.621933
O O3 0.464147 0.326328 0.846620
O O4 0.837027 0.361744 0.176925
O O5 0.000000 0.500000 0.500000
O O6 0.888819 0.460035 0.868795
O O7 0.093746 0.404585 0.636956
O O8 0.322596 0.480359 0.957413
O O9 0.500000 0.000000 0.000000
O O10 0.050761 0.194320 0.109690
O O11 0.672903 0.739940 0.560060
#
# Coordination Sequence:
#
# PCOD8126449 Si02
#       5
#     4   4   4   4   4
#     4  11  25  45  69 103 138 180 228 284 343 416
#     4  10  21  40  63  97 137 176 225 270 327 426
#     4  10  23  38  64  99 139 183 220 271 342 403
#     4  11  25  45  72  99 142 182 227 284 351 405
#     4  12  28  47  72 101 131 179 238 294 349 408
#
# _framework density 23.902819999999998
#
# number of rings (size 3 to 8) (size 9 to 14) (size 15 to 20)
#    0.000    1.200    2.000    2.400    2.800   10.400 
#    0.000    0.000    0.000    0.000    0.000    0.000 
#    0.000    0.000    0.000    0.000    0.000    0.000 
#
# Total GULP energy -248004.505395 kJ/mol
# GULP energy per Si atom -12400.225270 kJ/mol
# Density = 2.384842 g / cm^3
# Si number density = 23.902820 Si / 1000 Ang^3
#
#
#
# Elastic Constant Matrix: (Units=GPa)
#
#
# Indices 1 2 3 4 5 6 
#
# 1 46.8759 33.0821 4.8165 0.0000 2.4515 0.0000
# 2 33.0821 148.8761 52.8283 0.0000 11.7410 0.0000
# 3 4.8165 52.8283 153.1757 0.0000 10.7783 0.0000
# 4 0.0000 0.0000 0.0000 46.2149 0.0000 1.7697
# 5 2.4515 11.7410 10.7783 0.0000 37.4353 0.0000
# 6 0.0000 0.0000 0.0000 1.7697 0.0000 50.2724
#
#
#
# Elastic Compliance Matrix: (Units=1/GPa)
#
#
# Indices 1 2 3 4 5 6 
#
# 1 0.025532 -0.006132 0.001321 0.000000 -0.000129 0.000000
# 2 -0.006132 0.009231 -0.002873 0.000000 -0.001666 0.000000
# 3 0.001321 -0.002873 0.007574 0.000000 -0.001366 0.000000
# 4 0.000000 0.000000 0.000000 0.021667 0.000000 -0.000763
# 5 -0.000129 -0.001666 -0.001366 0.000000 0.027637 0.000000
# 6 0.000000 0.000000 0.000000 -0.000763 0.000000 0.019918
#
#
# Mechanical properties :
#
#
# Convention : Reuss Voigt Hill
#
# Bulk Modulus (GPa) = 37.08170 58.93128 48.00649
# Shear Modulus (GPa) = 36.78715 43.99789 40.39252
#
# Velocity S-wave (km/s) = 3.92730 4.29499 4.11526
# Velocity P-wave (km/s) = 6.00934 7.02168 6.53514
#
# Compressibility (1/GPa) = 0.02696748
#
# Stress axis : x y z
#
# Youngs Moduli (GPa) = 39.16722 108.33467 132.02971
#
# Poissons Ratio (x) = 0.66431 -0.17443
# Poissons Ratio (y) = 0.24017 0.37938
# Poissons Ratio (z) = -0.05174 0.31130
#
# Static dielectric constant tensor:
#      x y z
#    x 4.671390 0.000000 0.263080 
#    y 0.000000 4.841190 0.000000 
#    z 0.263080 0.000000 4.291540 
# 
# 
# High freq. dielectric constant tensor:
#      x y z
#    x 1.959890 0.000000 0.001040 
#    y 0.000000 1.965470 0.000000 
#    z 0.001040 0.000000 1.952310 
# 
# From -- ./inp_files/1852.got.cif
#   From: 2010.03.12/outbox.cif.g09.slc.cpg/sg14_1_cif.got.tgz:1852.got - 2010.03.31 13:35:05.
