data_PCOD8126159
_publ_section_title
;
Structure prediction by ZEFSAII (Michael W. Deem and Ramdas Pophale) SiO2 
 PCOD8126159
Probable space group: P 21/C
;
_chemical_formula_sum "Si O2"
_cell_formula_units_Z 28
_cell_length_a 5.370335
_cell_length_b 20.530379
_cell_length_c 13.687667
_cell_angle_alpha 90.000000
_cell_angle_beta 54.326383
_cell_angle_gamma 90.000000
_cell_volume 1225.948161
_symmetry_space_group_name_H-M "P 21/C"
_symmetry_group_IT_number 14
_symmetry_cell_setting 'monoclinic'
loop_
_space_group_symop_operation_xyz
x,y,z
-x,1/2+y,1/2-z
-x,-y,-z
x,1/2-y,1/2+z
loop_
_atom_site_type_symbol
_atom_site_label
_atom_site_fract_x
_atom_site_fract_y
_atom_site_fract_z
Si Si1 0.269020 0.155387 0.867368
Si Si2 0.324896 0.419019 0.767818
Si Si3 0.328396 0.325964 0.139908
Si Si4 0.345746 0.807134 0.909599
Si Si5 0.646612 0.980132 0.069331
Si Si6 0.663557 0.380063 0.889896
Si Si7 0.243313 0.753501 0.730410
O O1 0.389464 0.139966 0.730220
O O2 0.376146 0.097732 0.914455
O O3 0.414128 0.225232 0.862910
O O4 0.902224 0.165330 0.956968
O O5 0.408247 0.363646 0.669150
O O6 0.455386 0.487428 0.700606
O O7 0.472923 0.405109 0.840059
O O8 0.953479 0.424589 0.854967
O O9 0.495179 0.256841 0.084070
O O10 0.969691 0.309877 0.224395
O O11 0.425260 0.377104 0.034594
O O12 0.178629 0.789443 0.847180
O O13 0.500000 0.000000 0.000000
O O14 0.000000 0.000000 0.000000
O O15 0.803777 0.307695 0.841953
#
# Coordination Sequence:
#
# PCOD8126159 Si02
#       7
#     4   4   4   4   4   4   4
#     4  11  25  41  67 103 136 176 230 288 340 409
#     4  11  24  45  67  99 134 182 225 283 335 407
#     4  11  23  39  65  98 141 182 220 281 348 413
#     4  10  21  38  64 100 138 168 225 280 354 397
#     4  12  27  47  73 101 136 178 235 292 340 396
#     4  11  24  42  69  97 140 183 226 272 347 416
#     4  10  22  37  65 100 138 178 217 288 343 415
#
# _framework density 22.839465000000001
#
# number of rings (size 3 to 8) (size 9 to 14) (size 15 to 20)
#    0.000    1.143    2.857    2.571   12.000    1.143 
#    0.000    1.429    0.000    0.000    0.000    0.000 
#    0.000    0.000    0.000    0.000    0.000    0.000 
#
# Total GULP energy -347131.457334 kJ/mol
# GULP energy per Si atom -12397.552048 kJ/mol
# Density = 2.278748 g / cm^3
# Si number density = 22.839465 Si / 1000 Ang^3
#
#
#
# Elastic Constant Matrix: (Units=GPa)
#
#
# Indices 1 2 3 4 5 6 
#
# 1 107.0670 5.6606 26.3424 0.0000 0.9266 0.0000
# 2 5.6606 52.4146 19.1858 0.0000 10.3665 0.0000
# 3 26.3424 19.1858 95.8290 0.0000 6.3843 0.0000
# 4 0.0000 0.0000 0.0000 33.7692 0.0000 1.5475
# 5 0.9266 10.3665 6.3843 0.0000 19.9981 0.0000
# 6 0.0000 0.0000 0.0000 1.5475 0.0000 21.8050
#
#
#
# Elastic Compliance Matrix: (Units=1/GPa)
#
#
# Indices 1 2 3 4 5 6 
#
# 1 0.010022 -0.000174 -0.002754 0.000000 0.000505 0.000000
# 2 -0.000174 0.022549 -0.003769 0.000000 -0.010478 0.000000
# 3 -0.002754 -0.003769 0.012065 0.000000 -0.001770 0.000000
# 4 0.000000 0.000000 0.000000 0.029709 0.000000 -0.002108
# 5 0.000505 -0.010478 -0.001770 0.000000 0.055978 0.000000
# 6 0.000000 0.000000 0.000000 -0.002108 0.000000 0.046011
#
#
# Mechanical properties :
#
#
# Convention : Reuss Voigt Hill
#
# Bulk Modulus (GPa) = 32.00731 39.74316 35.87524
# Shear Modulus (GPa) = 24.98229 28.72259 26.85244
#
# Velocity S-wave (km/s) = 3.31088 3.55009 3.43257
# Velocity P-wave (km/s) = 5.35354 5.85176 5.60819
#
# Compressibility (1/GPa) = 0.03124286
#
# Stress axis : x y z
#
# Youngs Moduli (GPa) = 99.77729 44.34749 82.88639
#
# Poissons Ratio (x) = 0.00773 0.22825
# Poissons Ratio (y) = 0.01739 0.31237
# Poissons Ratio (z) = 0.27477 0.16713
#
# Static dielectric constant tensor:
#      x y z
#    x 4.043590 0.000000 -0.030920 
#    y 0.000000 3.946480 0.000000 
#    z -0.030920 0.000000 4.146010 
# 
# 
# High freq. dielectric constant tensor:
#      x y z
#    x 1.901320 0.000000 -0.001010 
#    y 0.000000 1.875890 0.000000 
#    z -0.001010 0.000000 1.908310 
# 
# From -- ./inp_files/22009.got.cif
#   From: 2010.03.12/outbox.cif.g09.slc.cpg/sg14_12_cif.got.tgz:22009.got - 2010.03.31 13:35:05.
