data_PCOD8126710
_publ_section_title
;
Structure prediction by ZEFSAII (Michael W. Deem and Ramdas Pophale) SiO2 
 PCOD8126710
Probable space group: P 21/C
;
_chemical_formula_sum "Si O2"
_cell_formula_units_Z 32
_cell_length_a 15.714982
_cell_length_b 5.305200
_cell_length_c 15.440813
_cell_angle_alpha 90.000000
_cell_angle_beta 76.955971
_cell_angle_gamma 90.000000
_cell_volume 1254.101136
_symmetry_space_group_name_H-M "P 21/C"
_symmetry_group_IT_number 14
_symmetry_cell_setting 'monoclinic'
loop_
_space_group_symop_operation_xyz
x,y,z
-x,1/2+y,1/2-z
-x,-y,-z
x,1/2-y,1/2+z
loop_
_atom_site_type_symbol
_atom_site_label
_atom_site_fract_x
_atom_site_fract_y
_atom_site_fract_z
Si Si1 0.742554 0.947002 0.075346
Si Si2 0.316269 0.838592 0.288947
Si Si3 0.586363 0.803484 0.009370
Si Si4 0.373986 0.678364 0.089538
Si Si5 0.815068 0.158256 0.449136
Si Si6 0.848009 0.932141 0.623449
Si Si7 0.014349 0.577222 0.193964
Si Si8 0.462982 0.326702 0.798087
O O1 0.682582 0.767494 0.029661
O O2 0.799939 0.837127 0.142371
O O3 0.672635 0.144564 0.133651
O O4 0.814658 0.071250 0.995556
O O5 0.367223 0.735723 0.193695
O O6 0.211076 0.878830 0.303757
O O7 0.360165 0.106883 0.306719
O O8 0.517766 0.747111 0.104931
O O9 0.575946 0.586494 0.939176
O O10 0.576907 0.088480 0.972711
O O11 0.276541 0.632196 0.078200
O O12 0.890109 0.143492 0.360628
O O13 0.835412 0.963383 0.522215
O O14 0.947742 0.940313 0.628506
O O15 0.018031 0.304653 0.238056
O O16 0.512892 0.588769 0.766380
#
# Coordination Sequence:
#
# PCOD8126710 Si02
#       8
#     4   4   4   4   4   4   4   4
#     4  10  21  41  74  96 133 180 241 283 328 418
#     4  11  25  43  70 109 134 181 237 290 345 415
#     4  11  22  45  65 104 134 180 224 277 339 424
#     4  11  24  40  72 100 143 175 225 293 346 398
#     4  10  23  43  65 102 133 186 233 286 344 408
#     4  11  23  44  74  93 134 187 241 280 337 418
#     4  12  30  45  64 102 147 182 228 296 356 396
#     4  12  25  45  73 101 139 185 232 283 341 424
#
# _framework density 25.516283999999999
#
# number of rings (size 3 to 8) (size 9 to 14) (size 15 to 20)
#    0.000    1.000    2.500    4.125    8.750    0.500 
#    0.000    3.750    0.000    0.000    0.000    0.000 
#    0.000    0.000    0.000    0.000    0.000    0.000 
#
# Total GULP energy -396603.959600 kJ/mol
# GULP energy per Si atom -12393.873737 kJ/mol
# Density = 2.545821 g / cm^3
# Si number density = 25.516284 Si / 1000 Ang^3
#
#
#
# Elastic Constant Matrix: (Units=GPa)
#
#
# Indices 1 2 3 4 5 6 
#
# 1 82.5077 32.9319 32.2860 0.0000 0.6839 0.0000
# 2 32.9319 144.6472 54.9039 0.0000 -0.8822 0.0000
# 3 32.2860 54.9039 138.3801 0.0000 -11.0763 0.0000
# 4 0.0000 0.0000 0.0000 40.1502 0.0000 5.5454
# 5 0.6839 -0.8822 -11.0763 0.0000 52.3649 0.0000
# 6 0.0000 0.0000 0.0000 5.5454 0.0000 35.6376
#
#
#
# Elastic Compliance Matrix: (Units=1/GPa)
#
#
# Indices 1 2 3 4 5 6 
#
# 1 0.013979 -0.002268 -0.002420 0.000000 -0.000733 0.000000
# 2 -0.002268 0.008523 -0.002887 0.000000 -0.000438 0.000000
# 3 -0.002420 -0.002887 0.009089 0.000000 0.001906 0.000000
# 4 0.000000 0.000000 0.000000 0.025454 0.000000 -0.003961
# 5 -0.000733 -0.000438 0.001906 0.000000 0.019502 0.000000
# 6 0.000000 0.000000 0.000000 -0.003961 0.000000 0.028677
#
#
# Mechanical properties :
#
#
# Convention : Reuss Voigt Hill
#
# Bulk Modulus (GPa) = 60.83013 67.30873 64.06943
# Shear Modulus (GPa) = 39.72844 41.99142 40.85993
#
# Velocity S-wave (km/s) = 3.95014 4.06109 4.00600
# Velocity P-wave (km/s) = 6.68553 6.95887 6.82357
#
# Compressibility (1/GPa) = 0.01643922
#
# Stress axis : x y z
#
# Youngs Moduli (GPa) = 71.53829 117.32774 110.02027
#
# Poissons Ratio (x) = 0.26615 0.26625
# Poissons Ratio (y) = 0.16228 0.31767
# Poissons Ratio (z) = 0.17312 0.33877
#
# Static dielectric constant tensor:
#      x y z
#    x 4.700960 0.000000 -0.044130 
#    y 0.000000 4.894150 0.000000 
#    z -0.044130 0.000000 4.516960 
# 
# 
# High freq. dielectric constant tensor:
#      x y z
#    x 2.037660 0.000000 -0.003420 
#    y 0.000000 2.033400 0.000000 
#    z -0.003420 0.000000 2.018490 
# 
# From -- ./inp_files/48133.got.cif
#   From: 2010.03.12/outbox.cif.g09.slc.cpg/sg14_25_cif.got.tgz:48133.got - 2010.03.31 13:35:05.
