data_PCOD8126064
_publ_section_title
;
Structure prediction by ZEFSAII (Michael W. Deem and Ramdas Pophale) SiO2 
 PCOD8126064
Probable space group: P 21/C
;
_chemical_formula_sum "Si O2"
_cell_formula_units_Z 32
_cell_length_a 20.201604
_cell_length_b 13.438886
_cell_length_c 23.663231
_cell_angle_alpha 90.000000
_cell_angle_beta 16.343070
_cell_angle_gamma 90.000000
_cell_volume 1807.710735
_symmetry_space_group_name_H-M "P 21/C"
_symmetry_group_IT_number 14
_symmetry_cell_setting 'monoclinic'
loop_
_space_group_symop_operation_xyz
x,y,z
-x,1/2+y,1/2-z
-x,-y,-z
x,1/2-y,1/2+z
loop_
_atom_site_type_symbol
_atom_site_label
_atom_site_fract_x
_atom_site_fract_y
_atom_site_fract_z
Si Si1 0.779926 0.015572 0.110080
Si Si2 0.574256 0.320044 0.855676
Si Si3 0.125802 0.685763 0.079698
Si Si4 0.908516 0.803996 0.045721
Si Si5 0.453794 0.521765 0.773129
Si Si6 0.145286 0.179992 0.784627
Si Si7 0.696060 0.685796 0.509412
Si Si8 0.606692 0.793892 0.696669
O O1 0.618178 0.079944 0.284238
O O2 0.884417 0.922339 0.057819
O O3 0.622437 0.974313 0.188771
O O4 0.991289 0.079985 0.911137
O O5 0.472783 0.236069 0.897818
O O6 0.815018 0.278094 0.685334
O O7 0.395274 0.345839 0.052407
O O8 0.990495 0.736065 0.138943
O O9 0.958059 0.671384 0.271000
O O10 0.214080 0.578485 0.986204
O O11 0.342998 0.754393 0.921240
O O12 0.813844 0.778015 0.185837
O O13 0.768146 0.739832 0.115900
O O14 0.586867 0.578537 0.613401
O O15 0.390712 0.412395 0.804600
O O16 0.713780 0.754445 0.550414
#
# Coordination Sequence:
#
# PCOD8126064 Si02
#       8
#     4   4   4   4   4   4   4   4
#     4  11  19  34  58  85 116 143 184 225 285 341
#     4  10  21  38  57  79 115 154 184 223 280 340
#     4  10  21  38  59  80 111 154 189 225 277 335
#     4  11  22  35  54  85 114 143 185 236 279 332
#     4  11  20  37  59  87 115 141 189 237 279 329
#     4  10  21  38  57  79 115 154 184 223 280 340
#     4  10  21  38  59  80 111 154 189 225 277 335
#     4  11  21  38  58  84 115 145 186 239 276 327
#
# _framework density 17.701948000000002
#
# number of rings (size 3 to 8) (size 9 to 14) (size 15 to 20)
#    0.000    1.500    5.000    3.750    0.000    5.000 
#    0.000    2.500    0.000    3.000    0.000    0.000 
#    0.000    0.000    0.000    0.000    0.000    0.000 
#
# Total GULP energy -396892.071454 kJ/mol
# GULP energy per Si atom -12402.877233 kJ/mol
# Density = 1.766166 g / cm^3
# Si number density = 17.701948 Si / 1000 Ang^3
#
#
#
# Elastic Constant Matrix: (Units=GPa)
#
#
# Indices 1 2 3 4 5 6 
#
# 1 106.2442 42.5889 68.8720 0.0000 1.5024 0.0000
# 2 42.5889 125.9595 64.0258 0.0000 7.9870 0.0000
# 3 68.8720 64.0258 169.1237 0.0000 21.9560 0.0000
# 4 0.0000 0.0000 0.0000 -5.4806 0.0000 -13.1979
# 5 1.5024 7.9870 21.9560 0.0000 28.4292 0.0000
# 6 0.0000 0.0000 0.0000 -13.1979 0.0000 29.5197
#
#
#
# Elastic Compliance Matrix: (Units=1/GPa)
#
#
# Indices 1 2 3 4 5 6 
#
# 1 0.013627 -0.002200 -0.005227 0.000000 0.003935 0.000000
# 2 -0.002200 0.010186 -0.002894 0.000000 -0.000510 0.000000
# 3 -0.005227 -0.002894 0.009998 0.000000 -0.006632 0.000000
# 4 0.000000 0.000000 0.000000 -0.087865 0.000000 -0.039283
# 5 0.003935 -0.000510 -0.006632 0.000000 0.040233 0.000000
# 6 0.000000 0.000000 0.000000 -0.039283 0.000000 0.016313
#
#
# Mechanical properties :
#
#
# Convention : Reuss Voigt Hill
#
# Bulk Modulus (GPa) = 75.93722 83.58899 79.76310
# Shear Modulus (GPa) = 181.65401 25.54972 103.60187
#
# Velocity S-wave (km/s) = 10.14105 3.80324 7.65851
# Velocity P-wave (km/s) = 13.42058 8.16143 11.10677
#
# Compressibility (1/GPa) = 0.01316877
#
# Stress axis : x y z
#
# Youngs Moduli (GPa) = 73.38324 98.17036 100.01776
#
# Poissons Ratio (x) = 0.21597 0.52283
# Poissons Ratio (y) = 0.16144 0.28947
# Poissons Ratio (z) = 0.38360 0.28412
#
# Static dielectric constant tensor:
#      x y z
#    x 3.348120 0.000000 0.026210 
#    y 0.000000 3.244270 0.000000 
#    z 0.026210 0.000000 3.417450 
# 
# 
# High freq. dielectric constant tensor:
#      x y z
#    x 1.691850 0.000000 -0.000130 
#    y 0.000000 1.679730 0.000000 
#    z -0.000130 0.000000 1.691470 
# 
# From -- ./inp_files/69423.got.cif
#   From: 2010.03.12/outbox.cif.g09.slc.cpg/sg14_35_cif.got.tgz:69423.got - 2010.03.31 13:35:05.
