data_PCOD8126684
_publ_section_title
;
Structure prediction by ZEFSAII (Michael W. Deem and Ramdas Pophale) SiO2 
 PCOD8126684
Probable space group: P 21/C
;
_chemical_formula_sum "Si O2"
_cell_formula_units_Z 28
_cell_length_a 6.595538
_cell_length_b 8.322267
_cell_length_c 29.266075
_cell_angle_alpha 90.000000
_cell_angle_beta 122.504247
_cell_angle_gamma 90.000000
_cell_volume 1354.768327
_symmetry_space_group_name_H-M "P 21/C"
_symmetry_group_IT_number 14
_symmetry_cell_setting 'monoclinic'
loop_
_space_group_symop_operation_xyz
x,y,z
-x,1/2+y,1/2-z
-x,-y,-z
x,1/2-y,1/2+z
loop_
_atom_site_type_symbol
_atom_site_label
_atom_site_fract_x
_atom_site_fract_y
_atom_site_fract_z
Si Si1 0.739840 0.201509 0.355433
Si Si2 0.975946 0.628646 0.435202
Si Si3 0.714415 0.666236 0.743469
Si Si4 0.703506 0.345806 0.443574
Si Si5 0.841242 0.909265 0.122668
Si Si6 0.828952 0.366118 0.709699
Si Si7 0.366124 0.166852 0.663834
O O1 0.519855 0.318163 0.316305
O O2 0.794855 0.222388 0.415888
O O3 0.968949 0.260553 0.353387
O O4 0.648286 0.023696 0.334852
O O5 0.775179 0.527747 0.438430
O O6 0.849326 0.775381 0.394289
O O7 0.169799 0.702827 0.493616
O O8 0.111964 0.518513 0.415530
O O9 0.776367 0.476526 0.747725
O O10 0.668633 0.729059 0.788911
O O11 0.929549 0.771874 0.749186
O O12 0.418969 0.330994 0.414729
O O13 0.861377 0.016412 0.170414
O O14 0.618885 0.234804 0.675743
#
# Coordination Sequence:
#
# PCOD8126684 Si02
#       7
#     4   4   4   4   4   4   4
#     4  11  26  39  63  94 133 167 216 265 330 381
#     4  10  21  41  68  96 125 170 217 268 326 385
#     4  12  26  41  65  94 130 171 214 272 324 398
#     4  10  21  42  68  93 129 169 216 268 324 390
#     4  11  21  43  65  96 122 168 220 266 318 395
#     4  12  25  42  69  95 129 172 221 264 332 392
#     4  12  25  42  62  95 131 172 212 272 323 397
#
# _framework density 20.667739999999998
#
# number of rings (size 3 to 8) (size 9 to 14) (size 15 to 20)
#    0.000    0.857    4.286    3.000    6.000    1.714 
#    0.000    0.714    0.000    0.000    0.000    0.000 
#    0.000    0.000    0.000    0.000    0.000    0.000 
#
# Total GULP energy -347280.633587 kJ/mol
# GULP energy per Si atom -12402.879771 kJ/mol
# Density = 2.062070 g / cm^3
# Si number density = 20.667740 Si / 1000 Ang^3
#
#
#
# Elastic Constant Matrix: (Units=GPa)
#
#
# Indices 1 2 3 4 5 6 
#
# 1 118.6171 43.1900 37.5132 0.0000 16.5065 0.0000
# 2 43.1900 84.6463 19.9821 0.0000 8.7123 0.0000
# 3 37.5132 19.9821 105.5224 0.0000 4.9118 0.0000
# 4 0.0000 0.0000 0.0000 32.1426 0.0000 5.1046
# 5 16.5065 8.7123 4.9118 0.0000 34.1310 0.0000
# 6 0.0000 0.0000 0.0000 5.1046 0.0000 33.9124
#
#
#
# Elastic Compliance Matrix: (Units=1/GPa)
#
#
# Indices 1 2 3 4 5 6 
#
# 1 0.011719 -0.004846 -0.003063 0.000000 -0.003990 0.000000
# 2 -0.004846 0.014650 -0.000993 0.000000 -0.001253 0.000000
# 3 -0.003063 -0.000993 0.010745 0.000000 0.000188 0.000000
# 4 0.000000 0.000000 0.000000 0.031873 0.000000 -0.004798
# 5 -0.003990 -0.001253 0.000188 0.000000 0.031521 0.000000
# 6 0.000000 0.000000 0.000000 -0.004798 0.000000 0.030210
#
#
# Mechanical properties :
#
#
# Convention : Reuss Voigt Hill
#
# Bulk Modulus (GPa) = 51.78634 56.68404 54.23519
# Shear Modulus (GPa) = 32.26699 33.91059 33.08879
#
# Velocity S-wave (km/s) = 3.95552 4.05501 4.00557
# Velocity P-wave (km/s) = 6.78030 7.02923 6.90589
#
# Compressibility (1/GPa) = 0.01931011
#
# Stress axis : x y z
#
# Youngs Moduli (GPa) = 85.33405 68.26051 93.06886
#
# Poissons Ratio (x) = 0.33077 0.28504
# Poissons Ratio (y) = 0.41350 0.09243
# Poissons Ratio (z) = 0.26135 0.06779
#
# Static dielectric constant tensor:
#      x y z
#    x 3.916080 0.000000 -0.058990 
#    y 0.000000 3.520570 0.000000 
#    z -0.058990 0.000000 3.799230 
# 
# 
# High freq. dielectric constant tensor:
#      x y z
#    x 1.820170 0.000000 -0.000610 
#    y 0.000000 1.793300 0.000000 
#    z -0.000610 0.000000 1.815870 
# 
# From -- ./inp_files/75645.got.cif
#   From: 2010.03.12/outbox.cif.g09.slc.cpg/sg14_38_cif.got.tgz:75645.got - 2010.03.31 13:35:05.
