data_PCOD8126970
_publ_section_title
;
Structure prediction by ZEFSAII (Michael W. Deem and Ramdas Pophale) SiO2 
 PCOD8126970
Probable space group: P 21/C
;
_chemical_formula_sum "Si O2"
_cell_formula_units_Z 28
_cell_length_a 8.946807
_cell_length_b 17.660071
_cell_length_c 8.706627
_cell_angle_alpha 90.000000
_cell_angle_beta 91.193844
_cell_angle_gamma 90.000000
_cell_volume 1375.359305
_symmetry_space_group_name_H-M "P 21/C"
_symmetry_group_IT_number 14
_symmetry_cell_setting 'monoclinic'
loop_
_space_group_symop_operation_xyz
x,y,z
-x,1/2+y,1/2-z
-x,-y,-z
x,1/2-y,1/2+z
loop_
_atom_site_type_symbol
_atom_site_label
_atom_site_fract_x
_atom_site_fract_y
_atom_site_fract_z
Si Si1 0.151007 0.741429 0.185868
Si Si2 0.236946 0.002714 0.967391
Si Si3 0.826080 0.729519 0.822225
Si Si4 0.000459 0.620653 0.008446
Si Si5 0.655901 0.665853 0.536440
Si Si6 0.046658 0.502955 0.751697
Si Si7 0.321425 0.664750 0.461194
O O1 0.132501 0.679601 0.049942
O O2 0.265537 0.710376 0.312796
O O3 0.987337 0.756980 0.249913
O O4 0.216918 0.816783 0.106698
O O5 0.345118 0.074666 0.953274
O O6 0.101314 0.017979 0.849146
O O7 0.319027 0.924864 0.925176
O O8 0.187415 0.997204 0.142989
O O9 0.704347 0.702207 0.698189
O O10 0.767279 0.805256 0.904642
O O11 0.849780 0.663396 0.949413
O O12 0.959065 0.577289 0.163264
O O13 0.067910 0.568005 0.877787
O O14 0.488567 0.692819 0.498096
#
# Coordination Sequence:
#
# PCOD8126970 Si02
#       7
#     4   4   4   4   4   4   4
#     4  12  23  41  69  96 125 170 218 269 313 384
#     4  11  23  40  65  90 128 173 219 258 319 384
#     4  12  23  41  69  96 125 170 218 269 313 384
#     4  11  20  38  64  97 128 154 222 269 318 362
#     4  12  26  43  64  96 136 170 210 267 334 383
#     4  10  22  36  65  98 123 168 217 277 308 372
#     4  12  26  43  64  96 136 170 210 267 334 383
#
# _framework density 20.358315000000001
#
# number of rings (size 3 to 8) (size 9 to 14) (size 15 to 20)
#    0.000    0.571    5.714    3.000    4.000    0.000 
#    0.000    0.000    0.000    1.714    0.000    0.000 
#    0.000    0.000    0.000    0.000    0.000    0.000 
#
# Total GULP energy -347284.786314 kJ/mol
# GULP energy per Si atom -12403.028083 kJ/mol
# Density = 2.031198 g / cm^3
# Si number density = 20.358315 Si / 1000 Ang^3
#
#
#
# Elastic Constant Matrix: (Units=GPa)
#
#
# Indices 1 2 3 4 5 6 
#
# 1 83.3594 5.3018 20.3280 0.0000 14.8716 0.0000
# 2 5.3018 93.3499 17.7198 0.0000 2.3772 0.0000
# 3 20.3280 17.7198 87.3506 0.0000 12.1764 0.0000
# 4 0.0000 0.0000 0.0000 41.3226 0.0000 6.3386
# 5 14.8716 2.3772 12.1764 0.0000 34.3270 0.0000
# 6 0.0000 0.0000 0.0000 6.3386 0.0000 18.9007
#
#
#
# Elastic Compliance Matrix: (Units=1/GPa)
#
#
# Indices 1 2 3 4 5 6 
#
# 1 0.013482 -0.000182 -0.002407 0.000000 -0.004975 0.000000
# 2 -0.000182 0.011144 -0.002232 0.000000 0.000099 0.000000
# 3 -0.002407 -0.002232 0.012934 0.000000 -0.003390 0.000000
# 4 0.000000 0.000000 0.000000 0.025512 0.000000 -0.008556
# 5 -0.004975 0.000099 -0.003390 0.000000 0.032482 0.000000
# 6 0.000000 0.000000 0.000000 -0.008556 0.000000 0.055777
#
#
# Mechanical properties :
#
#
# Convention : Reuss Voigt Hill
#
# Bulk Modulus (GPa) = 35.82016 38.97324 37.39670
# Shear Modulus (GPa) = 29.36332 33.62408 31.49370
#
# Velocity S-wave (km/s) = 3.80192 4.06841 3.93742
# Velocity P-wave (km/s) = 6.07501 6.42297 6.25141
#
# Compressibility (1/GPa) = 0.02791724
#
# Stress axis : x y z
#
# Youngs Moduli (GPa) = 74.17121 89.73519 77.31737
#
# Poissons Ratio (x) = 0.01634 0.18612
# Poissons Ratio (y) = 0.01351 0.17257
# Poissons Ratio (z) = 0.17854 0.20029
#
# Static dielectric constant tensor:
#      x y z
#    x 3.390680 0.000000 0.201720 
#    y 0.000000 3.933900 0.000000 
#    z 0.201720 0.000000 3.969890 
# 
# 
# High freq. dielectric constant tensor:
#      x y z
#    x 1.767530 0.000000 0.015520 
#    y 0.000000 1.811290 0.000000 
#    z 0.015520 0.000000 1.814100 
# 
# From -- ./inp_files/9459.got.cif
#   From: 2010.03.12/outbox.cif.g09.slc.cpg/sg14_5_cif.got.tgz:9459.got - 2010.03.31 13:35:05.
