data_PCOD8126932
_publ_section_title
;
Structure prediction by ZEFSAII (Michael W. Deem and Ramdas Pophale) SiO2 
 PCOD8126932
Probable space group: P 21/C
;
_chemical_formula_sum "Si O2"
_cell_formula_units_Z 32
_cell_length_a 13.560860
_cell_length_b 8.705430
_cell_length_c 24.110344
_cell_angle_alpha 90.000000
_cell_angle_beta 29.716613
_cell_angle_gamma 90.000000
_cell_volume 1410.941452
_symmetry_space_group_name_H-M "P 21/C"
_symmetry_group_IT_number 14
_symmetry_cell_setting 'monoclinic'
loop_
_space_group_symop_operation_xyz
x,y,z
-x,1/2+y,1/2-z
-x,-y,-z
x,1/2-y,1/2+z
loop_
_atom_site_type_symbol
_atom_site_label
_atom_site_fract_x
_atom_site_fract_y
_atom_site_fract_z
Si Si1 0.574627 0.155440 0.730191
Si Si2 0.895100 0.300572 0.985252
Si Si3 0.060848 0.039844 0.621953
Si Si4 0.787529 0.799168 0.794547
Si Si5 0.024342 0.532951 0.635724
Si Si6 0.346537 0.201083 0.022061
Si Si7 0.281126 0.764242 0.733047
Si Si8 0.669907 0.662415 0.228141
O O1 0.773963 0.195291 0.600077
O O2 0.577889 0.269897 0.781469
O O3 0.399986 0.188481 0.771938
O O4 0.543804 0.984112 0.769188
O O5 0.817514 0.425489 0.978257
O O6 0.910654 0.129709 0.950752
O O7 0.107599 0.364015 0.899485
O O8 0.885136 0.132927 0.676293
O O9 0.223464 0.145829 0.570224
O O10 0.943016 0.939612 0.725211
O O11 0.929989 0.649141 0.726886
O O12 0.634981 0.808691 0.920194
O O13 0.659117 0.808840 0.799952
O O14 0.836734 0.421956 0.716294
O O15 0.222721 0.444679 0.559102
O O16 0.571057 0.217875 0.889888
#
# Coordination Sequence:
#
# PCOD8126932 Si02
#       8
#     4   4   4   4   4   4   4   4
#     4  12  25  42  68  93 130 172 214 267 323 379
#     4  10  23  44  67  89 133 171 210 271 318 377
#     4   9  21  43  62  92 128 168 216 258 319 384
#     4  10  21  46  65  93 134 167 217 265 311 387
#     4   9  23  42  64  97 127 165 220 260 318 387
#     4  11  23  39  70  95 129 175 204 264 331 375
#     4  11  24  40  62  99 131 163 216 269 314 386
#     4  10  25  42  65  97 125 168 219 268 313 386
#
# _framework density 22.679891999999999
#
# number of rings (size 3 to 8) (size 9 to 14) (size 15 to 20)
#    0.000    2.000    2.500    1.125    7.000    2.500 
#    0.000   10.000    0.000    0.000    0.000    0.000 
#    0.000    0.000    0.000    0.000    0.000    0.000 
#
# Total GULP energy -396472.774762 kJ/mol
# GULP energy per Si atom -12389.774211 kJ/mol
# Density = 2.262827 g / cm^3
# Si number density = 22.679892 Si / 1000 Ang^3
#
#
#
# Elastic Constant Matrix: (Units=GPa)
#
#
# Indices 1 2 3 4 5 6 
#
# 1 60.4585 31.0870 20.5071 0.0000 21.0054 0.0000
# 2 31.0870 129.1540 22.1150 0.0000 2.5095 0.0000
# 3 20.5071 22.1150 95.4146 0.0000 33.9645 0.0000
# 4 0.0000 0.0000 0.0000 8.4850 0.0000 1.9936
# 5 21.0054 2.5095 33.9645 0.0000 25.9551 0.0000
# 6 0.0000 0.0000 0.0000 1.9936 0.0000 25.5332
#
#
#
# Elastic Compliance Matrix: (Units=1/GPa)
#
#
# Indices 1 2 3 4 5 6 
#
# 1 0.029157 -0.007563 0.006787 0.000000 -0.031748 0.000000
# 2 -0.007563 0.010162 -0.004790 0.000000 0.011407 0.000000
# 3 0.006787 -0.004790 0.022319 0.000000 -0.034236 0.000000
# 4 0.000000 0.000000 0.000000 0.120057 0.000000 -0.009374
# 5 -0.031748 0.011407 -0.034236 0.000000 0.107920 0.000000
# 6 0.000000 0.000000 0.000000 -0.009374 0.000000 0.039897
#
#
# Mechanical properties :
#
#
# Convention : Reuss Voigt Hill
#
# Bulk Modulus (GPa) = 19.79971 48.04947 33.92459
# Shear Modulus (GPa) = 13.98683 26.08253 20.03468
#
# Velocity S-wave (km/s) = 2.48605 3.39489 2.97537
# Velocity P-wave (km/s) = 4.12185 6.04971 5.17632
#
# Compressibility (1/GPa) = 0.05050578
#
# Stress axis : x y z
#
# Youngs Moduli (GPa) = 34.29683 98.40801 44.80481
#
# Poissons Ratio (x) = 0.74430 -0.30411
# Poissons Ratio (y) = 0.25940 0.21462
# Poissons Ratio (z) = -0.23279 0.47139
#
# Static dielectric constant tensor:
#      x y z
#    x 3.924810 0.000000 0.060280 
#    y 0.000000 4.822150 0.000000 
#    z 0.060280 0.000000 3.986950 
# 
# 
# High freq. dielectric constant tensor:
#      x y z
#    x 1.881570 0.000000 0.005500 
#    y 0.000000 1.910650 0.000000 
#    z 0.005500 0.000000 1.887560 
# 
# From -- ./inp_files/73726.got.cif
#   From: 2010.03.12/outbox.cif.g09.slc.cpg/sg14_37_cif.got.tgz:73726.got - 2010.03.31 13:35:05.
