data_PCOD8126372
_publ_section_title
;
Structure prediction by ZEFSAII (Michael W. Deem and Ramdas Pophale) SiO2 
 PCOD8126372
Probable space group: P 21/C
;
_chemical_formula_sum "Si O2"
_cell_formula_units_Z 32
_cell_length_a 16.684981
_cell_length_b 9.146556
_cell_length_c 20.972712
_cell_angle_alpha 90.000000
_cell_angle_beta 150.044222
_cell_angle_gamma 90.000000
_cell_volume 1598.184136
_symmetry_space_group_name_H-M "P 21/C"
_symmetry_group_IT_number 14
_symmetry_cell_setting 'monoclinic'
loop_
_space_group_symop_operation_xyz
x,y,z
-x,1/2+y,1/2-z
-x,-y,-z
x,1/2-y,1/2+z
loop_
_atom_site_type_symbol
_atom_site_label
_atom_site_fract_x
_atom_site_fract_y
_atom_site_fract_z
Si Si1 0.347893 0.035982 0.352286
Si Si2 0.870085 0.280182 0.263771
Si Si3 0.653486 0.645695 0.876300
Si Si4 0.893601 0.771693 0.263113
Si Si5 0.493033 0.377221 0.819206
Si Si6 0.224908 0.811846 0.938910
Si Si7 0.011477 0.020013 0.433359
Si Si8 0.797600 0.629144 0.564181
O O1 0.247644 0.164503 0.314939
O O2 0.394833 0.087804 0.314641
O O3 0.500000 0.000000 0.500000
O O4 0.239681 0.892242 0.273152
O O5 0.777751 0.217180 0.138543
O O6 0.897668 0.150765 0.332595
O O7 0.035115 0.360337 0.358628
O O8 0.513865 0.528198 0.794403
O O9 0.606720 0.758496 0.788914
O O10 0.807391 0.552836 0.962166
O O11 0.684251 0.739196 0.962032
O O12 0.826509 0.868178 0.159394
O O13 0.045198 0.683356 0.341631
O O14 0.948695 0.870783 0.359529
O O15 0.668456 0.313883 0.956005
O O16 0.290832 0.972165 0.004627
O O17 0.000000 0.000000 0.500000
#
# Coordination Sequence:
#
# PCOD8126372 Si02
#       8
#     4   4   4   4   4   4   4   4
#     4  12  24  42  65 103 138 170 214 286 345 391
#     4  10  22  39  64  99 128 168 222 272 332 394
#     4  11  25  44  64  99 131 179 224 270 336 403
#     4  11  22  40  69  97 129 175 223 274 331 392
#     4  12  25  43  68  93 143 174 217 278 340 399
#     4  11  20  40  68  96 128 176 221 276 322 398
#     4  11  23  44  66  94 133 175 223 276 326 401
#     4  10  21  39  69  94 128 169 228 271 320 395
#
# _framework density 20.022722999999999
#
# number of rings (size 3 to 8) (size 9 to 14) (size 15 to 20)
#    0.000    1.000    5.000    2.250    0.000    1.000 
#    2.250    6.875    0.000    0.000    0.000    0.000 
#    0.000    0.000    0.000    0.000    0.000    0.000 
#
# Total GULP energy -396841.725750 kJ/mol
# GULP energy per Si atom -12401.303930 kJ/mol
# Density = 1.997715 g / cm^3
# Si number density = 20.022723 Si / 1000 Ang^3
#
#
#
# Elastic Constant Matrix: (Units=GPa)
#
#
# Indices 1 2 3 4 5 6 
#
# 1 98.2107 46.8294 37.0096 0.0000 -8.5133 0.0000
# 2 46.8294 121.7078 38.9711 0.0000 -0.0367 0.0000
# 3 37.0096 38.9711 91.4464 0.0000 -11.0039 0.0000
# 4 0.0000 0.0000 0.0000 47.0782 0.0000 3.2650
# 5 -8.5133 -0.0367 -11.0039 0.0000 38.0197 0.0000
# 6 0.0000 0.0000 0.0000 3.2650 0.0000 26.6676
#
#
#
# Elastic Compliance Matrix: (Units=1/GPa)
#
#
# Indices 1 2 3 4 5 6 
#
# 1 0.013653 -0.004124 -0.003523 0.000000 0.002033 0.000000
# 2 -0.004124 0.010814 -0.003159 0.000000 -0.001828 0.000000
# 3 -0.003523 -0.003159 0.014104 0.000000 0.003290 0.000000
# 4 0.000000 0.000000 0.000000 0.021423 0.000000 -0.002623
# 5 0.002033 -0.001828 0.003290 0.000000 0.027708 0.000000
# 6 0.000000 0.000000 0.000000 -0.002623 0.000000 0.037820
#
#
# Mechanical properties :
#
#
# Convention : Reuss Voigt Hill
#
# Bulk Modulus (GPa) = 58.97322 61.88724 60.43023
# Shear Modulus (GPa) = 32.72515 34.92342 33.82428
#
# Velocity S-wave (km/s) = 4.04716 4.18088 4.11456
# Velocity P-wave (km/s) = 7.16634 7.36763 7.26768
#
# Compressibility (1/GPa) = 0.01695685
#
# Stress axis : x y z
#
# Youngs Moduli (GPa) = 73.24547 92.46889 70.90430
#
# Poissons Ratio (x) = 0.38138 0.24980
# Poissons Ratio (y) = 0.30210 0.22402
# Poissons Ratio (z) = 0.25805 0.29215
#
# Static dielectric constant tensor:
#      x y z
#    x 3.558560 0.000000 -0.034180 
#    y 0.000000 3.776340 0.000000 
#    z -0.034180 0.000000 3.745980 
# 
# 
# High freq. dielectric constant tensor:
#      x y z
#    x 1.774940 0.000000 -0.005890 
#    y 0.000000 1.800820 0.000000 
#    z -0.005890 0.000000 1.780370 
# 
# From -- ./inp_files/69177.got.cif
#   From: 2010.03.12/outbox.cif.g09.slc.cpg/sg14_35_cif.got.tgz:69177.got - 2010.03.31 13:35:05.
