data_PCOD8126766
_publ_section_title
;
Structure prediction by ZEFSAII (Michael W. Deem and Ramdas Pophale) SiO2 
 PCOD8126766
Probable space group: P 21/C
;
_chemical_formula_sum "Si O2"
_cell_formula_units_Z 32
_cell_length_a 20.291195
_cell_length_b 13.491961
_cell_length_c 13.581339
_cell_angle_alpha 90.000000
_cell_angle_beta 25.368596
_cell_angle_gamma 90.000000
_cell_volume 1592.998069
_symmetry_space_group_name_H-M "P 21/C"
_symmetry_group_IT_number 14
_symmetry_cell_setting 'monoclinic'
loop_
_space_group_symop_operation_xyz
x,y,z
-x,1/2+y,1/2-z
-x,-y,-z
x,1/2-y,1/2+z
loop_
_atom_site_type_symbol
_atom_site_label
_atom_site_fract_x
_atom_site_fract_y
_atom_site_fract_z
Si Si1 0.134044 0.881653 0.165437
Si Si2 0.315785 0.518259 0.566659
Si Si3 0.668851 0.502809 0.738051
Si Si4 0.819623 0.990230 0.542018
Si Si5 0.867013 0.938318 0.131170
Si Si6 0.736388 0.834796 0.007247
Si Si7 0.647884 0.618552 0.103226
Si Si8 0.980378 0.175184 0.246042
O O1 0.188992 0.898756 0.204116
O O2 0.114671 0.771282 0.155640
O O3 0.983408 0.946303 0.351421
O O4 0.284716 0.923859 0.906482
O O5 0.281212 0.412016 0.560178
O O6 0.486935 0.559945 0.313372
O O7 0.293562 0.503727 0.712812
O O8 0.779694 0.483019 0.680489
O O9 0.679589 0.614188 0.683261
O O10 0.500000 0.500000 0.000000
O O11 0.737542 0.915621 0.578915
O O12 0.851198 0.093520 0.444623
O O13 0.749581 0.896781 0.369236
O O14 0.928930 0.851079 0.976957
O O15 0.000000 0.000000 0.000000
O O16 0.631341 0.737993 0.130691
O O17 0.914195 0.807402 0.797970
#
# Coordination Sequence:
#
# PCOD8126766 Si02
#       8
#     4   4   4   4   4   4   4   4
#     4  11  22  43  66  98 127 172 225 264 326 394
#     4  11  26  43  66  98 135 173 216 274 330 393
#     4  10  21  42  66  90 131 168 210 271 328 386
#     4  12  23  45  65  96 133 171 220 271 322 388
#     4  11  21  40  64  95 123 167 216 270 315 376
#     4  10  23  42  66  94 129 175 214 267 336 383
#     4  12  25  42  65  96 136 173 219 268 332 391
#     4  11  23  40  69 100 127 168 223 274 322 385
#
# _framework density 20.087909
#
# number of rings (size 3 to 8) (size 9 to 14) (size 15 to 20)
#    0.000    1.000    6.250    2.250    1.750    2.000 
#    2.250    0.000    0.000    0.000    0.000    0.000 
#    0.000    0.000    0.000    0.000    0.000    0.000 
#
# Total GULP energy -396540.296414 kJ/mol
# GULP energy per Si atom -12391.884263 kJ/mol
# Density = 2.004219 g / cm^3
# Si number density = 20.087909 Si / 1000 Ang^3
#
#
#
# Elastic Constant Matrix: (Units=GPa)
#
#
# Indices 1 2 3 4 5 6 
#
# 1 72.2427 24.9124 37.1965 0.0000 20.2350 0.0000
# 2 24.9124 121.8520 47.2241 0.0000 8.6716 0.0000
# 3 37.1965 47.2241 119.8803 0.0000 10.5495 0.0000
# 4 0.0000 0.0000 0.0000 12.5570 0.0000 -10.3645
# 5 20.2350 8.6716 10.5495 0.0000 30.3682 0.0000
# 6 0.0000 0.0000 0.0000 -10.3645 0.0000 32.3919
#
#
#
# Elastic Compliance Matrix: (Units=1/GPa)
#
#
# Indices 1 2 3 4 5 6 
#
# 1 0.019858 -0.001483 -0.004591 0.000000 -0.011214 0.000000
# 2 -0.001483 0.009861 -0.003367 0.000000 -0.000658 0.000000
# 3 -0.004591 -0.003367 0.011077 0.000000 0.000172 0.000000
# 4 0.000000 0.000000 0.000000 0.108217 0.000000 0.034626
# 5 -0.011214 -0.000658 0.000172 0.000000 0.040529 0.000000
# 6 0.000000 0.000000 0.000000 0.034626 0.000000 0.041951
#
#
# Mechanical properties :
#
#
# Convention : Reuss Voigt Hill
#
# Bulk Modulus (GPa) = 45.62782 59.18233 52.40508
# Shear Modulus (GPa) = 19.40388 28.70623 24.05506
#
# Velocity S-wave (km/s) = 3.11134 3.78435 3.46423
# Velocity P-wave (km/s) = 5.97249 6.97286 6.49197
#
# Compressibility (1/GPa) = 0.02191645
#
# Stress axis : x y z
#
# Youngs Moduli (GPa) = 50.35714 101.40501 90.27622
#
# Poissons Ratio (x) = 0.15036 0.41443
# Poissons Ratio (y) = 0.07467 0.30393
# Poissons Ratio (z) = 0.23117 0.34140
#
# Static dielectric constant tensor:
#      x y z
#    x 3.589150 0.000000 0.047060 
#    y 0.000000 3.546180 0.000000 
#    z 0.047060 0.000000 3.660020 
# 
# 
# High freq. dielectric constant tensor:
#      x y z
#    x 1.802310 0.000000 0.002150 
#    y 0.000000 1.775900 0.000000 
#    z 0.002150 0.000000 1.782090 
# 
# From -- ./inp_files/34206.got.cif
#   From: 2010.03.12/outbox.cif.g09.slc.cpg/sg14_18_cif.got.tgz:34206.got - 2010.03.31 13:35:05.
