data_PCOD8126983
_publ_section_title
;
Structure prediction by ZEFSAII (Michael W. Deem and Ramdas Pophale) SiO2 
 PCOD8126983
Probable space group: P 21/C
;
_chemical_formula_sum "Si O2"
_cell_formula_units_Z 28
_cell_length_a 11.282896
_cell_length_b 9.079589
_cell_length_c 28.419794
_cell_angle_alpha 90.000000
_cell_angle_beta 151.468387
_cell_angle_gamma 90.000000
_cell_volume 1390.630152
_symmetry_space_group_name_H-M "P 21/C"
_symmetry_group_IT_number 14
_symmetry_cell_setting 'monoclinic'
loop_
_space_group_symop_operation_xyz
x,y,z
-x,1/2+y,1/2-z
-x,-y,-z
x,1/2-y,1/2+z
loop_
_atom_site_type_symbol
_atom_site_label
_atom_site_fract_x
_atom_site_fract_y
_atom_site_fract_z
Si Si1 0.777668 0.302892 0.590077
Si Si2 0.190446 0.227137 0.513095
Si Si3 0.463970 0.040097 0.054635
Si Si4 0.327288 0.096326 0.655877
Si Si5 0.257883 0.142525 0.776554
Si Si6 0.079159 0.959898 0.415391
Si Si7 0.630880 0.262709 0.836633
O O1 0.745546 0.449194 0.547013
O O2 0.586363 0.329720 0.565891
O O3 0.721151 0.158279 0.536879
O O4 0.055294 0.277616 0.708821
O O5 0.324722 0.379216 0.548171
O O6 0.335519 0.151718 0.605746
O O7 0.920954 0.269417 0.437900
O O8 0.196119 0.117430 0.469488
O O9 0.676659 0.931261 0.150276
O O10 0.518916 0.190640 0.751609
O O11 0.049938 0.104115 0.581962
O O12 0.430164 0.932743 0.690072
O O13 0.513132 0.203091 0.843854
O O14 0.139255 0.019238 0.699977
#
# Coordination Sequence:
#
# PCOD8126983 Si02
#       7
#     4   4   4   4   4   4   4
#     4   9  23  47  61  87 127 167 215 266 312 379
#     4  11  24  36  64 100 127 160 215 263 311 396
#     4  11  24  43  66  98 120 165 224 264 313 379
#     4  10  22  37  60  94 126 166 208 251 324 383
#     4   9  22  42  67  88 131 168 208 263 323 375
#     4   8  19  43  59  86 129 163 194 259 314 370
#     4  10  22  38  61  93 130 166 205 261 315 386
#
# _framework density 20.134758999999999
#
# number of rings (size 3 to 8) (size 9 to 14) (size 15 to 20)
#    0.857    1.429    0.000    1.714   12.000    1.143 
#    7.714    0.000    0.000    0.000    0.000    0.000 
#    0.000    0.000    0.000    0.000    0.000    0.000 
#
# Total GULP energy -346912.328246 kJ/mol
# GULP energy per Si atom -12389.726009 kJ/mol
# Density = 2.008893 g / cm^3
# Si number density = 20.134759 Si / 1000 Ang^3
#
#
#
# Elastic Constant Matrix: (Units=GPa)
#
#
# Indices 1 2 3 4 5 6 
#
# 1 90.1560 56.2892 67.6094 0.0000 1.9606 0.0000
# 2 56.2892 93.7305 77.6171 0.0000 7.8965 0.0000
# 3 67.6094 77.6171 143.6355 0.0000 11.3431 0.0000
# 4 0.0000 0.0000 0.0000 -28.9759 0.0000 84.9803
# 5 1.9606 7.8965 11.3431 0.0000 24.5899 0.0000
# 6 0.0000 0.0000 0.0000 84.9803 0.0000 -64.0967
#
#
#
# Elastic Compliance Matrix: (Units=1/GPa)
#
#
# Indices 1 2 3 4 5 6 
#
# 1 0.019959 -0.007730 -0.005488 0.000000 0.003423 0.000000
# 2 -0.007730 0.022353 -0.008221 0.000000 -0.002769 0.000000
# 3 -0.005488 -0.008221 0.014264 0.000000 -0.003502 0.000000
# 4 0.000000 0.000000 0.000000 0.011949 0.000000 0.015842
# 5 0.003423 -0.002769 -0.003502 0.000000 0.042899 0.000000
# 6 0.000000 0.000000 0.000000 0.015842 0.000000 0.005402
#
#
# Mechanical properties :
#
#
# Convention : Reuss Voigt Hill
#
# Bulk Modulus (GPa) = 73.00795 81.17259 77.09027
# Shear Modulus (GPa) = 30.43754 -5.29612 12.57071
#
# Velocity S-wave (km/s) = 3.89227 -1.62359 2.50137
# Velocity P-wave (km/s) = 7.51918 6.07350 6.83467
#
# Compressibility (1/GPa) = 0.01369714
#
# Stress axis : x y z
#
# Youngs Moduli (GPa) = 50.10178 44.73733 70.10413
#
# Poissons Ratio (x) = 0.34583 0.38472
# Poissons Ratio (y) = 0.38730 0.57636
# Poissons Ratio (z) = 0.27495 0.36781
#
# Static dielectric constant tensor:
#      x y z
#    x 3.564230 0.000000 -0.134560 
#    y 0.000000 3.565390 0.000000 
#    z -0.134560 0.000000 3.306250 
# 
# 
# High freq. dielectric constant tensor:
#      x y z
#    x 1.778590 0.000000 -0.012370 
#    y 0.000000 1.779480 0.000000 
#    z -0.012370 0.000000 1.775420 
# 
# From -- ./inp_files/79913.got.cif
#   From: 2010.03.12/outbox.cif.g09.slc.cpg/sg14_40_cif.got.tgz:79913.got - 2010.03.31 13:35:05.
