data_PCOD8126386
_publ_section_title
;
Structure prediction by ZEFSAII (Michael W. Deem and Ramdas Pophale) SiO2 
 PCOD8126386
Probable space group: P 21/C
;
_chemical_formula_sum "Si O2"
_cell_formula_units_Z 32
_cell_length_a 14.664294
_cell_length_b 10.646446
_cell_length_c 22.276974
_cell_angle_alpha 90.000000
_cell_angle_beta 152.997912
_cell_angle_gamma 90.000000
_cell_volume 1579.064383
_symmetry_space_group_name_H-M "P 21/C"
_symmetry_group_IT_number 14
_symmetry_cell_setting 'monoclinic'
loop_
_space_group_symop_operation_xyz
x,y,z
-x,1/2+y,1/2-z
-x,-y,-z
x,1/2-y,1/2+z
loop_
_atom_site_type_symbol
_atom_site_label
_atom_site_fract_x
_atom_site_fract_y
_atom_site_fract_z
Si Si1 0.183444 0.135620 0.264527
Si Si2 0.219539 0.221363 0.585237
Si Si3 0.844498 0.939080 0.040849
Si Si4 0.371624 0.860454 0.492703
Si Si5 0.990342 0.752215 0.216900
Si Si6 0.129580 0.040023 0.432813
Si Si7 0.001981 0.311662 0.072530
Si Si8 0.386042 0.817377 0.108281
O O1 0.087794 0.213292 0.263515
O O2 0.179473 0.227303 0.204807
O O3 0.416364 0.100721 0.414090
O O4 0.054650 0.013181 0.171731
O O5 0.161994 0.357810 0.524468
O O6 0.254255 0.122794 0.552654
O O7 0.420485 0.218942 0.741087
O O8 0.040097 0.175109 0.523839
O O9 0.831206 0.845921 0.090809
O O10 0.655115 0.033940 0.926053
O O11 0.204375 0.823531 0.345417
O O12 0.401016 0.739063 0.551016
O O13 0.293106 0.977764 0.485169
O O14 0.018776 0.626962 0.193642
O O15 0.993043 0.943596 0.389731
O O16 0.792115 0.242860 0.958116
#
# Coordination Sequence:
#
# PCOD8126386 Si02
#       8
#     4   4   4   4   4   4   4   4
#     4  11  22  40  68  93 124 167 212 262 315 375
#     4  11  23  40  65  91 126 165 214 252 319 380
#     4  10  24  41  63  93 128 167 205 264 313 370
#     4  11  22  40  66  91 123 168 213 255 320 374
#     4  11  22  43  62  92 131 161 210 260 321 375
#     4  10  23  40  62  89 127 168 198 267 313 365
#     4  10  21  40  59  91 122 162 206 253 318 366
#     4  10  22  39  61  90 122 163 204 261 306 374
#
# _framework density 20.265165
#
# number of rings (size 3 to 8) (size 9 to 14) (size 15 to 20)
#    0.000    1.500    5.000    1.125    3.500    5.000 
#    2.250    3.750    0.000    0.000    0.000    0.000 
#    0.000    0.000    0.000    0.000    0.000    0.000 
#
# Total GULP energy -396655.859682 kJ/mol
# GULP energy per Si atom -12395.495615 kJ/mol
# Density = 2.021904 g / cm^3
# Si number density = 20.265165 Si / 1000 Ang^3
#
#
#
# Elastic Constant Matrix: (Units=GPa)
#
#
# Indices 1 2 3 4 5 6 
#
# 1 55.4916 30.4391 40.8953 0.0000 -0.4467 0.0000
# 2 30.4391 121.2454 41.2550 0.0000 -10.3736 0.0000
# 3 40.8953 41.2550 102.0584 0.0000 -2.6925 0.0000
# 4 0.0000 0.0000 0.0000 36.1131 0.0000 -12.6915
# 5 -0.4467 -10.3736 -2.6925 0.0000 31.5211 0.0000
# 6 0.0000 0.0000 0.0000 -12.6915 0.0000 20.1615
#
#
#
# Elastic Compliance Matrix: (Units=1/GPa)
#
#
# Indices 1 2 3 4 5 6 
#
# 1 0.026924 -0.003727 -0.009326 0.000000 -0.001641 0.000000
# 2 -0.003727 0.010336 -0.002602 0.000000 0.003127 0.000000
# 3 -0.009326 -0.002602 0.014594 0.000000 0.000258 0.000000
# 4 0.000000 0.000000 0.000000 0.035557 0.000000 0.022383
# 5 -0.001641 0.003127 0.000258 0.000000 0.032753 0.000000
# 6 0.000000 0.000000 0.000000 0.022383 0.000000 0.063689
#
#
# Mechanical properties :
#
#
# Convention : Reuss Voigt Hill
#
# Bulk Modulus (GPa) = 48.67340 55.99712 52.33526
# Shear Modulus (GPa) = 22.52138 28.63955 25.58047
#
# Velocity S-wave (km/s) = 3.33729 3.76339 3.55672
# Velocity P-wave (km/s) = 6.23862 6.82468 6.53822
#
# Compressibility (1/GPa) = 0.02054510
#
# Stress axis : x y z
#
# Youngs Moduli (GPa) = 37.14097 96.74579 68.52176
#
# Poissons Ratio (x) = 0.36055 0.63901
# Poissons Ratio (y) = 0.13842 0.17832
# Poissons Ratio (z) = 0.34636 0.25177
#
# Static dielectric constant tensor:
#      x y z
#    x 3.650930 0.000000 -0.200230 
#    y 0.000000 3.940180 0.000000 
#    z -0.200230 0.000000 3.777870 
# 
# 
# High freq. dielectric constant tensor:
#      x y z
#    x 1.778350 0.000000 -0.018320 
#    y 0.000000 1.805700 0.000000 
#    z -0.018320 0.000000 1.793630 
# 
# From -- ./inp_files/68491.got.cif
#   From: 2010.03.12/outbox.cif.g09.slc.cpg/sg14_35_cif.got.tgz:68491.got - 2010.03.31 13:35:05.
