data_PCOD8126297
_publ_section_title
;
Structure prediction by ZEFSAII (Michael W. Deem and Ramdas Pophale) SiO2 
 PCOD8126297
Probable space group: P 21/C
;
_chemical_formula_sum "Si O2"
_cell_formula_units_Z 24
_cell_length_a 19.197068
_cell_length_b 9.046633
_cell_length_c 8.982045
_cell_angle_alpha 90.000000
_cell_angle_beta 46.476065
_cell_angle_gamma 90.000000
_cell_volume 1131.063720
_symmetry_space_group_name_H-M "P 21/C"
_symmetry_group_IT_number 14
_symmetry_cell_setting 'monoclinic'
loop_
_space_group_symop_operation_xyz
x,y,z
-x,1/2+y,1/2-z
-x,-y,-z
x,1/2-y,1/2+z
loop_
_atom_site_type_symbol
_atom_site_label
_atom_site_fract_x
_atom_site_fract_y
_atom_site_fract_z
Si Si1 0.928382 0.398782 0.193064
Si Si2 0.002256 0.152075 0.910916
Si Si3 0.805331 0.660285 0.404714
Si Si4 0.317126 0.310096 0.139973
Si Si5 0.506672 0.288180 0.534829
Si Si6 0.428415 0.551670 0.829380
O O1 0.828547 0.486626 0.349016
O O2 0.973408 0.367452 0.285439
O O3 0.000000 0.500000 0.000000
O O4 0.919186 0.247485 0.115012
O O5 0.106445 0.230571 0.764308
O O6 0.000000 0.000000 0.000000
O O7 0.711954 0.692429 0.442984
O O8 0.775563 0.677033 0.619547
O O9 0.408834 0.243260 0.088931
O O10 0.334366 0.467437 0.030366
O O11 0.498780 0.420417 0.667332
O O12 0.532528 0.139196 0.584140
O O13 0.585869 0.337767 0.291999
#
# Coordination Sequence:
#
# PCOD8126297 Si02
#       6
#     4   4   4   4   4   4
#     4  10  21  39  63  94 121 174 217 256 314 403
#     4  11  21  40  69  93 129 171 224 264 321 398
#     4  11  23  40  65  94 130 169 214 271 334 384
#     4  12  22  41  65  99 132 169 216 280 340 382
#     4  11  23  42  71  95 127 178 231 264 332 405
#     4  11  23  42  68  97 127 177 225 271 324 412
#
# _framework density 21.218962000000001
#
# number of rings (size 3 to 8) (size 9 to 14) (size 15 to 20)
#    0.000    1.000    3.333    5.500    0.000    0.000 
#    0.000    3.333    0.000    0.000    0.000    0.000 
#    0.000    0.000    0.000    0.000    0.000    0.000 
#
# Total GULP energy -297383.494458 kJ/mol
# GULP energy per Si atom -12390.978936 kJ/mol
# Density = 2.117067 g / cm^3
# Si number density = 21.218962 Si / 1000 Ang^3
#
#
#
# Elastic Constant Matrix: (Units=GPa)
#
#
# Indices 1 2 3 4 5 6 
#
# 1 103.9674 58.8221 35.5487 0.0000 25.1945 0.0000
# 2 58.8221 144.6339 61.9282 0.0000 14.5997 0.0000
# 3 35.5487 61.9282 123.9568 0.0000 22.7319 0.0000
# 4 0.0000 0.0000 0.0000 58.1114 0.0000 11.6790
# 5 25.1945 14.5997 22.7319 0.0000 31.6598 0.0000
# 6 0.0000 0.0000 0.0000 11.6790 0.0000 29.3183
#
#
#
# Elastic Compliance Matrix: (Units=1/GPa)
#
#
# Indices 1 2 3 4 5 6 
#
# 1 0.014758 -0.005061 0.000025 0.000000 -0.009428 0.000000
# 2 -0.005061 0.010561 -0.004227 0.000000 0.002192 0.000000
# 3 0.000025 -0.004227 0.011307 0.000000 -0.006189 0.000000
# 4 0.000000 0.000000 0.000000 0.018706 0.000000 -0.007451
# 5 -0.009428 0.002192 -0.006189 0.000000 0.042522 0.000000
# 6 0.000000 0.000000 0.000000 -0.007451 0.000000 0.037077
#
#
# Mechanical properties :
#
#
# Convention : Reuss Voigt Hill
#
# Bulk Modulus (GPa) = 55.24755 76.12845 65.68800
# Shear Modulus (GPa) = 31.35018 38.23518 34.79268
#
# Velocity S-wave (km/s) = 3.84794 4.24952 4.05371
# Velocity P-wave (km/s) = 6.77020 7.74812 7.27561
#
# Compressibility (1/GPa) = 0.01810035
#
# Stress axis : x y z
#
# Youngs Moduli (GPa) = 67.75972 94.68976 88.44248
#
# Poissons Ratio (x) = 0.47923 -0.00223
# Poissons Ratio (y) = 0.34294 0.37382
# Poissons Ratio (z) = -0.00171 0.40023
#
# Static dielectric constant tensor:
#      x y z
#    x 3.481940 0.000000 0.256050 
#    y 0.000000 5.834030 0.000000 
#    z 0.256050 0.000000 4.181330 
# 
# 
# High freq. dielectric constant tensor:
#      x y z
#    x 1.802490 0.000000 0.033950 
#    y 0.000000 1.843510 0.000000 
#    z 0.033950 0.000000 1.854020 
# 
# From -- ./inp_files/18575.got.cif
#   From: 2010.03.12/outbox.cif.g09.slc.cpg/sg14_10_cif.got.tgz:18575.got - 2010.03.31 13:35:05.
