data_PCOD8126235
_publ_section_title
;
Structure prediction by ZEFSAII (Michael W. Deem and Ramdas Pophale) SiO2 
 PCOD8126235
Probable space group: P 21/C
;
_chemical_formula_sum "Si O2"
_cell_formula_units_Z 32
_cell_length_a 12.205948
_cell_length_b 20.439892
_cell_length_c 12.916363
_cell_angle_alpha 90.000000
_cell_angle_beta 29.068493
_cell_angle_gamma 90.000000
_cell_volume 1565.657881
_symmetry_space_group_name_H-M "P 21/C"
_symmetry_group_IT_number 14
_symmetry_cell_setting 'monoclinic'
loop_
_space_group_symop_operation_xyz
x,y,z
-x,1/2+y,1/2-z
-x,-y,-z
x,1/2-y,1/2+z
loop_
_atom_site_type_symbol
_atom_site_label
_atom_site_fract_x
_atom_site_fract_y
_atom_site_fract_z
Si Si1 0.447364 0.150130 0.136260
Si Si2 0.018191 0.418986 0.888555
Si Si3 0.682419 0.526038 0.925962
Si Si4 0.452296 0.204779 0.568497
Si Si5 0.035703 0.377307 0.442982
Si Si6 0.278061 0.956920 0.183719
Si Si7 0.157796 0.889447 0.674517
Si Si8 0.457850 0.856984 0.713777
O O1 0.217356 0.116078 0.288659
O O2 0.491366 0.218726 0.045099
O O3 0.439319 0.167010 0.263731
O O4 0.667592 0.104575 0.935258
O O5 0.085091 0.493915 0.801145
O O6 0.975609 0.373103 0.822080
O O7 0.795724 0.426096 0.144317
O O8 0.866969 0.562663 0.703330
O O9 0.767577 0.462894 0.916743
O O10 0.500000 0.500000 0.000000
O O11 0.560010 0.571396 0.110365
O O12 0.206688 0.183558 0.811322
O O13 0.641612 0.162152 0.472507
O O14 0.454567 0.192531 0.444662
O O15 0.990728 0.396471 0.599424
O O16 0.812429 0.356177 0.566318
O O17 0.500000 0.000000 0.000000
#
# Coordination Sequence:
#
# PCOD8126235 Si02
#       8
#     4   4   4   4   4   4   4   4
#     4  11  25  43  65  90 131 174 209 265 311 385
#     4  10  24  41  63  94 128 164 211 260 322 378
#     4  11  20  37  62  96 129 154 210 273 320 372
#     4  10  24  43  60  94 129 164 220 258 311 380
#     4  10  21  39  60  93 122 166 208 256 327 375
#     4   9  22  42  60  89 123 162 212 255 312 374
#     4  11  23  37  65  95 129 164 206 268 318 381
#     4  10  24  40  64  93 123 166 215 259 319 377
#
# _framework density 20.438693000000001
#
# number of rings (size 3 to 8) (size 9 to 14) (size 15 to 20)
#    0.000    1.750    3.750    0.375    7.000    8.000 
#    0.000    0.000    0.000    0.000    0.000    0.000 
#    0.000    0.000    0.000    0.000    0.000    0.000 
#
# Total GULP energy -396569.324649 kJ/mol
# GULP energy per Si atom -12392.791395 kJ/mol
# Density = 2.039217 g / cm^3
# Si number density = 20.438693 Si / 1000 Ang^3
#
#
#
# Elastic Constant Matrix: (Units=GPa)
#
#
# Indices 1 2 3 4 5 6 
#
# 1 127.2575 27.5028 29.3649 0.0000 7.3677 0.0000
# 2 27.5028 124.1931 32.2508 0.0000 1.1610 0.0000
# 3 29.3649 32.2508 88.9232 0.0000 -12.2294 0.0000
# 4 0.0000 0.0000 0.0000 17.9986 0.0000 3.6274
# 5 7.3677 1.1610 -12.2294 0.0000 20.1055 0.0000
# 6 0.0000 0.0000 0.0000 3.6274 0.0000 18.0422
#
#
#
# Elastic Compliance Matrix: (Units=1/GPa)
#
#
# Indices 1 2 3 4 5 6 
#
# 1 0.009184 -0.001110 -0.003366 0.000000 -0.005349 0.000000
# 2 -0.001110 0.009160 -0.003244 0.000000 -0.002095 0.000000
# 3 -0.003366 -0.003244 0.014982 0.000000 0.010534 0.000000
# 4 0.000000 0.000000 0.000000 0.057906 0.000000 -0.011642
# 5 -0.005349 -0.002095 0.010534 0.000000 0.058226 0.000000
# 6 0.000000 0.000000 0.000000 -0.011642 0.000000 0.057766
#
#
# Mechanical properties :
#
#
# Convention : Reuss Voigt Hill
#
# Bulk Modulus (GPa) = 55.90568 57.62342 56.76455
# Shear Modulus (GPa) = 21.86968 27.97959 24.92464
#
# Velocity S-wave (km/s) = 3.27466 3.70395 3.49590
# Velocity P-wave (km/s) = 6.45833 6.82252 6.64292
#
# Compressibility (1/GPa) = 0.01788727
#
# Stress axis : x y z
#
# Youngs Moduli (GPa) = 108.88103 109.17422 66.74496
#
# Poissons Ratio (x) = 0.12116 0.22467
# Poissons Ratio (y) = 0.12083 0.21650
# Poissons Ratio (z) = 0.36650 0.35413
#
# Static dielectric constant tensor:
#      x y z
#    x 3.542380 0.000000 -0.126220 
#    y 0.000000 3.657250 0.000000 
#    z -0.126220 0.000000 3.821900 
# 
# 
# High freq. dielectric constant tensor:
#      x y z
#    x 1.793710 0.000000 -0.000130 
#    y 0.000000 1.794030 0.000000 
#    z -0.000130 0.000000 1.807690 
# 
# From -- ./inp_files/30722.got.cif
#   From: 2010.03.12/outbox.cif.g09.slc.cpg/sg14_16_cif.got.tgz:30722.got - 2010.03.31 13:35:05.
