data_PCOD8126366
_publ_section_title
;
Structure prediction by ZEFSAII (Michael W. Deem and Ramdas Pophale) SiO2 
 PCOD8126366
Probable space group: P 21/C
;
_chemical_formula_sum "Si O2"
_cell_formula_units_Z 28
_cell_length_a 8.474268
_cell_length_b 26.778897
_cell_length_c 8.469881
_cell_angle_alpha 90.000000
_cell_angle_beta 135.893743
_cell_angle_gamma 90.000000
_cell_volume 1337.753039
_symmetry_space_group_name_H-M "P 21/C"
_symmetry_group_IT_number 14
_symmetry_cell_setting 'monoclinic'
loop_
_space_group_symop_operation_xyz
x,y,z
-x,1/2+y,1/2-z
-x,-y,-z
x,1/2-y,1/2+z
loop_
_atom_site_type_symbol
_atom_site_label
_atom_site_fract_x
_atom_site_fract_y
_atom_site_fract_z
Si Si1 0.292003 0.806834 0.437794
Si Si2 0.206203 0.060080 0.075895
Si Si3 0.437476 0.393784 0.023197
Si Si4 0.842811 0.852866 0.199599
Si Si5 0.392165 0.700891 0.370403
Si Si6 0.228737 0.949728 0.032881
Si Si7 0.979599 0.375849 0.844084
O O1 0.385426 0.853438 0.408652
O O2 0.358440 0.758070 0.389156
O O3 0.401308 0.804512 0.688801
O O4 0.020429 0.813920 0.250207
O O5 0.382426 0.066613 0.345888
O O6 0.948821 0.058941 0.952620
O O7 0.241856 0.105776 0.983149
O O8 0.266480 0.008501 0.030502
O O9 0.537741 0.423893 0.244454
O O10 0.207215 0.365667 0.908606
O O11 0.964013 0.881786 0.430857
O O12 0.629139 0.820602 0.107123
O O13 0.185916 0.670946 0.302402
O O14 0.143326 0.926013 0.806822
#
# Coordination Sequence:
#
# PCOD8126366 Si02
#       7
#     4   4   4   4   4   4   4
#     4  11  26  40  68  91 124 171 210 262 322 377
#     4  10  21  39  68  95 130 169 218 261 327 372
#     4  11  21  42  65  95 129 171 213 268 313 384
#     4  11  23  45  63  94 134 165 208 271 316 386
#     4  11  26  43  63  96 127 168 213 264 320 387
#     4  10  21  40  66  98 127 172 216 265 311 392
#     4  10  25  41  63  95 133 168 211 262 321 376
#
# _framework density 20.930617999999999
#
# number of rings (size 3 to 8) (size 9 to 14) (size 15 to 20)
#    0.000    1.429    2.857    1.286    6.000    1.714 
#    0.000    2.857    0.000    0.000    0.000    0.000 
#    0.000    0.000    0.000    0.000    0.000    0.000 
#
# Total GULP energy -347336.059363 kJ/mol
# GULP energy per Si atom -12404.859263 kJ/mol
# Density = 2.088298 g / cm^3
# Si number density = 20.930618 Si / 1000 Ang^3
#
#
#
# Elastic Constant Matrix: (Units=GPa)
#
#
# Indices 1 2 3 4 5 6 
#
# 1 64.0032 32.8512 31.6862 0.0000 12.8438 0.0000
# 2 32.8512 120.1915 44.8183 0.0000 5.5313 0.0000
# 3 31.6862 44.8183 117.9079 0.0000 8.6990 0.0000
# 4 0.0000 0.0000 0.0000 29.9217 0.0000 -1.5708
# 5 12.8438 5.5313 8.6990 0.0000 35.2203 0.0000
# 6 0.0000 0.0000 0.0000 -1.5708 0.0000 24.6790
#
#
#
# Elastic Compliance Matrix: (Units=1/GPa)
#
#
# Indices 1 2 3 4 5 6 
#
# 1 0.020677 -0.004041 -0.003577 0.000000 -0.006022 0.000000
# 2 -0.004041 0.010497 -0.002945 0.000000 0.000552 0.000000
# 3 -0.003577 -0.002945 0.010625 0.000000 -0.000857 0.000000
# 4 0.000000 0.000000 0.000000 0.033533 0.000000 0.002134
# 5 -0.006022 0.000552 -0.000857 0.000000 0.030714 0.000000
# 6 0.000000 0.000000 0.000000 0.002134 0.000000 0.040656
#
#
# Mechanical properties :
#
#
# Convention : Reuss Voigt Hill
#
# Bulk Modulus (GPa) = 48.36735 57.86824 53.11779
# Shear Modulus (GPa) = 28.61741 30.81398 29.71569
#
# Velocity S-wave (km/s) = 3.70165 3.84108 3.77201
# Velocity P-wave (km/s) = 6.43647 6.88328 6.66362
#
# Compressibility (1/GPa) = 0.02067511
#
# Stress axis : x y z
#
# Youngs Moduli (GPa) = 48.36184 95.26305 94.11747
#
# Poissons Ratio (x) = 0.38494 0.33661
# Poissons Ratio (y) = 0.19542 0.27717
# Poissons Ratio (z) = 0.17297 0.28055
#
# Static dielectric constant tensor:
#      x y z
#    x 3.691330 0.000000 0.118780 
#    y 0.000000 3.735710 0.000000 
#    z 0.118780 0.000000 3.902840 
# 
# 
# High freq. dielectric constant tensor:
#      x y z
#    x 1.813660 0.000000 0.007120 
#    y 0.000000 1.815390 0.000000 
#    z 0.007120 0.000000 1.831080 
# 
# From -- ./inp_files/6527.got.cif
#   From: 2010.03.12/outbox.cif.g09.slc.cpg/sg14_4_cif.got.tgz:6527.got - 2010.03.31 13:35:05.
