data_PCOD8126068
_publ_section_title
;
Structure prediction by ZEFSAII (Michael W. Deem and Ramdas Pophale) SiO2 
 PCOD8126068
Probable space group: P 21/C
;
_chemical_formula_sum "Si O2"
_cell_formula_units_Z 28
_cell_length_a 6.991448
_cell_length_b 12.559749
_cell_length_c 21.914925
_cell_angle_alpha 90.000000
_cell_angle_beta 132.913974
_cell_angle_gamma 90.000000
_cell_volume 1409.362435
_symmetry_space_group_name_H-M "P 21/C"
_symmetry_group_IT_number 14
_symmetry_cell_setting 'monoclinic'
loop_
_space_group_symop_operation_xyz
x,y,z
-x,1/2+y,1/2-z
-x,-y,-z
x,1/2-y,1/2+z
loop_
_atom_site_type_symbol
_atom_site_label
_atom_site_fract_x
_atom_site_fract_y
_atom_site_fract_z
Si Si1 0.193709 0.570499 0.194740
Si Si2 0.942607 0.120340 0.005807
Si Si3 0.400955 0.713478 0.137237
Si Si4 0.594712 0.599765 0.061544
Si Si5 0.283268 0.169299 0.696869
Si Si6 0.490344 0.698647 0.352951
Si Si7 0.263455 0.765682 0.930513
O O1 0.221423 0.647671 0.143646
O O2 0.311444 0.455369 0.208649
O O3 0.367968 0.601691 0.289868
O O4 0.889901 0.576382 0.143991
O O5 0.803630 0.129382 0.042879
O O6 0.220671 0.175716 0.061909
O O7 0.755136 0.182443 0.918746
O O8 0.000000 0.000000 0.000000
O O9 0.460584 0.626323 0.097567
O O10 0.652080 0.762012 0.227764
O O11 0.500000 0.500000 0.000000
O O12 0.530782 0.706395 0.009048
O O13 0.487831 0.199707 0.687385
O O14 0.984013 0.189181 0.613101
O O15 0.293101 0.711442 0.365999
#
# Coordination Sequence:
#
# PCOD8126068 Si02
#       7
#     4   4   4   4   4   4   4
#     4  11  22  38  61  87 118 159 201 247 304 358
#     4  10  21  40  61  83 117 156 197 245 300 352
#     4  10  23  39  58  90 121 153 207 253 293 373
#     4  11  22  37  59  89 118 155 197 249 308 354
#     4  10  21  38  58  82 118 156 191 245 299 353
#     4  10  22  38  58  85 115 153 197 240 296 359
#     4  10  21  39  57  86 120 150 199 247 291 365
#
# _framework density 19.867139999999999
#
# number of rings (size 3 to 8) (size 9 to 14) (size 15 to 20)
#    0.000    1.714    1.429    2.571    2.000    1.143 
#    0.000    4.286    0.000    0.000    0.000    0.000 
#    0.000    0.000    0.000    0.000    0.000    0.000 
#
# Total GULP energy -346888.179461 kJ/mol
# GULP energy per Si atom -12388.863552 kJ/mol
# Density = 1.982192 g / cm^3
# Si number density = 19.867140 Si / 1000 Ang^3
#
#
#
# Elastic Constant Matrix: (Units=GPa)
#
#
# Indices 1 2 3 4 5 6 
#
# 1 97.9045 49.7966 31.8757 0.0000 -21.1291 0.0000
# 2 49.7966 118.1194 22.7459 0.0000 -15.3294 0.0000
# 3 31.8757 22.7459 73.6296 0.0000 -8.2336 0.0000
# 4 0.0000 0.0000 0.0000 28.5260 0.0000 -1.1614
# 5 -21.1291 -15.3294 -8.2336 0.0000 42.6960 0.0000
# 6 0.0000 0.0000 0.0000 -1.1614 0.0000 28.2526
#
#
#
# Elastic Compliance Matrix: (Units=1/GPa)
#
#
# Indices 1 2 3 4 5 6 
#
# 1 0.015252 -0.004920 -0.004534 0.000000 0.004907 0.000000
# 2 -0.004920 0.010917 -0.001100 0.000000 0.001273 0.000000
# 3 -0.004534 -0.001100 0.015933 0.000000 0.000434 0.000000
# 4 0.000000 0.000000 0.000000 0.035115 0.000000 0.001444
# 5 0.004907 0.001273 0.000434 0.000000 0.026390 0.000000
# 6 0.000000 0.000000 0.000000 0.001444 0.000000 0.035454
#
#
# Mechanical properties :
#
#
# Convention : Reuss Voigt Hill
#
# Bulk Modulus (GPa) = 47.63510 55.38776 51.51143
# Shear Modulus (GPa) = 29.91024 32.24394 31.07709
#
# Velocity S-wave (km/s) = 3.88430 4.03299 3.95935
# Velocity P-wave (km/s) = 6.64424 7.04459 6.84734
#
# Compressibility (1/GPa) = 0.02099292
#
# Stress axis : x y z
#
# Youngs Moduli (GPa) = 65.56716 91.59891 62.76350
#
# Poissons Ratio (x) = 0.45065 0.28458
# Poissons Ratio (y) = 0.32258 0.06906
# Poissons Ratio (z) = 0.29729 0.10079
#
# Static dielectric constant tensor:
#      x y z
#    x 3.688370 0.000000 -0.133640 
#    y 0.000000 4.160030 0.000000 
#    z -0.133640 0.000000 3.888220 
# 
# 
# High freq. dielectric constant tensor:
#      x y z
#    x 1.771470 0.000000 -0.001400 
#    y 0.000000 1.767690 0.000000 
#    z -0.001400 0.000000 1.793880 
# 
# From -- ./inp_files/63440.got.cif
#   From: 2010.03.12/outbox.cif.g09.slc.cpg/sg14_32_cif.got.tgz:63440.got - 2010.03.31 13:35:05.
