data_PCOD8126938
_publ_section_title
;
Structure prediction by ZEFSAII (Michael W. Deem and Ramdas Pophale) SiO2 
 PCOD8126938
Probable space group: P 21/C
;
_chemical_formula_sum "Si O2"
_cell_formula_units_Z 24
_cell_length_a 9.298256
_cell_length_b 8.016503
_cell_length_c 13.449878
_cell_angle_alpha 90.000000
_cell_angle_beta 98.074522
_cell_angle_gamma 90.000000
_cell_volume 992.608106
_symmetry_space_group_name_H-M "P 21/C"
_symmetry_group_IT_number 14
_symmetry_cell_setting 'monoclinic'
loop_
_space_group_symop_operation_xyz
x,y,z
-x,1/2+y,1/2-z
-x,-y,-z
x,1/2-y,1/2+z
loop_
_atom_site_type_symbol
_atom_site_label
_atom_site_fract_x
_atom_site_fract_y
_atom_site_fract_z
Si Si1 0.207408 0.135550 0.061875
Si Si2 0.982949 0.133418 0.881187
Si Si3 0.835453 0.135628 0.221905
Si Si4 0.629125 0.620164 0.784911
Si Si5 0.639874 0.114488 0.594114
Si Si6 0.580289 0.744822 0.066881
O O1 0.248921 0.260741 0.154776
O O2 0.170206 0.956477 0.107533
O O3 0.340508 0.118799 0.996426
O O4 0.061704 0.196509 0.989677
O O5 0.954683 0.291818 0.809036
O O6 0.092007 0.004730 0.838499
O O7 0.778324 0.288751 0.149192
O O8 0.701404 0.058571 0.270322
O O9 0.492208 0.596363 0.841371
O O10 0.567475 0.692833 0.676802
O O11 0.581280 0.209701 0.490401
O O12 0.680377 0.923869 0.569860
#
# Coordination Sequence:
#
# PCOD8126938 Si02
#       6
#     4   4   4   4   4   4
#     4  10  23  46  67  97 138 181 234 277 336 410
#     4  11  25  44  66 105 134 186 229 275 344 411
#     4  12  25  44  72 101 139 185 228 284 347 409
#     4  11  22  44  70 101 135 185 224 290 340 400
#     4  10  24  42  69 104 134 178 230 288 346 406
#     4  10  21  46  68  98 139 175 231 286 345 404
#
# _framework density 24.178728
#
# number of rings (size 3 to 8) (size 9 to 14) (size 15 to 20)
#    0.000    1.333    1.667    3.000    2.333    2.667 
#   27.000    0.000    0.000    0.000    0.000    0.000 
#    0.000    0.000    0.000    0.000    0.000    0.000 
#
# Total GULP energy -297639.478257 kJ/mol
# GULP energy per Si atom -12401.644927 kJ/mol
# Density = 2.412370 g / cm^3
# Si number density = 24.178728 Si / 1000 Ang^3
#
#
#
# Elastic Constant Matrix: (Units=GPa)
#
#
# Indices 1 2 3 4 5 6 
#
# 1 50.7467 7.6523 10.7105 0.0000 -11.3175 0.0000
# 2 7.6523 31.2031 4.3577 0.0000 -10.4269 0.0000
# 3 10.7105 4.3577 117.9812 0.0000 -0.5133 0.0000
# 4 0.0000 0.0000 0.0000 16.3302 0.0000 4.4561
# 5 -11.3175 -10.4269 -0.5133 0.0000 27.0677 0.0000
# 6 0.0000 0.0000 0.0000 4.4561 0.0000 45.2788
#
#
#
# Elastic Compliance Matrix: (Units=1/GPa)
#
#
# Indices 1 2 3 4 5 6 
#
# 1 0.022339 -0.002414 -0.001902 0.000000 0.008374 0.000000
# 2 -0.002414 0.037244 -0.001099 0.000000 0.013317 0.000000
# 3 -0.001902 -0.001099 0.008685 0.000000 -0.001054 0.000000
# 4 0.000000 0.000000 0.000000 0.062926 0.000000 -0.006193
# 5 0.008374 0.013317 -0.001054 0.000000 0.045556 0.000000
# 6 0.000000 0.000000 0.000000 -0.006193 0.000000 0.022695
#
#
# Mechanical properties :
#
#
# Convention : Reuss Voigt Hill
#
# Bulk Modulus (GPa) = 17.41051 27.26355 22.33703
# Shear Modulus (GPa) = 21.79410 29.54935 25.67173
#
# Velocity S-wave (km/s) = 3.00555 3.49968 3.26198
# Velocity P-wave (km/s) = 4.38871 5.25649 4.84208
#
# Compressibility (1/GPa) = 0.05743658
#
# Stress axis : x y z
#
# Youngs Moduli (GPa) = 44.76492 26.85027 115.14617
#
# Poissons Ratio (x) = 0.06483 0.21905
# Poissons Ratio (y) = 0.10808 0.12649
# Poissons Ratio (z) = 0.08516 0.02950
#
# Static dielectric constant tensor:
#      x y z
#    x 4.082080 0.000000 0.077470 
#    y 0.000000 4.412730 0.000000 
#    z 0.077470 0.000000 4.649180 
# 
# 
# High freq. dielectric constant tensor:
#      x y z
#    x 1.942650 0.000000 0.005770 
#    y 0.000000 1.951410 0.000000 
#    z 0.005770 0.000000 1.983910 
# 
# From -- ./inp_files/39070.got.cif
#   From: 2010.03.12/outbox.cif.g09.slc.cpg/sg14_20_cif.got.tgz:39070.got - 2010.03.31 13:35:05.
