data_PCOD8126175
_publ_section_title
;
Structure prediction by ZEFSAII (Michael W. Deem and Ramdas Pophale) SiO2 
 PCOD8126175
Probable space group: P 21/C
;
_chemical_formula_sum "Si O2"
_cell_formula_units_Z 28
_cell_length_a 7.499844
_cell_length_b 5.060542
_cell_length_c 31.323774
_cell_angle_alpha 90.000000
_cell_angle_beta 99.565636
_cell_angle_gamma 90.000000
_cell_volume 1172.310057
_symmetry_space_group_name_H-M "P 21/C"
_symmetry_group_IT_number 14
_symmetry_cell_setting 'monoclinic'
loop_
_space_group_symop_operation_xyz
x,y,z
-x,1/2+y,1/2-z
-x,-y,-z
x,1/2-y,1/2+z
loop_
_atom_site_type_symbol
_atom_site_label
_atom_site_fract_x
_atom_site_fract_y
_atom_site_fract_z
Si Si1 0.244941 0.745917 0.070004
Si Si2 0.049392 0.970266 0.394442
Si Si3 0.609899 0.761445 0.126638
Si Si4 0.288148 0.596840 0.444586
Si Si5 0.969510 0.619918 0.802481
Si Si6 0.811755 0.619783 0.712157
Si Si7 0.328830 0.256692 0.021478
O O1 0.408238 0.662124 0.108326
O O2 0.248374 0.541970 0.030153
O O3 0.058294 0.713467 0.088578
O O4 0.262406 0.042595 0.053940
O O5 0.100202 0.758037 0.433334
O O6 0.925198 0.843943 0.351246
O O7 0.240559 0.048546 0.381215
O O8 0.626847 0.826319 0.178197
O O9 0.649446 0.022289 0.100527
O O10 0.451288 0.768923 0.472246
O O11 0.254613 0.333830 0.472065
O O12 0.036459 0.319625 0.799322
O O13 0.796497 0.658962 0.763349
O O14 0.125893 0.823045 0.795306
#
# Coordination Sequence:
#
# PCOD8126175 Si02
#       7
#     4   4   4   4   4   4   4
#     4  11  25  39  59  86 122 150 200 244 295 346
#     4  11  22  37  62  87 117 157 196 243 300 353
#     4  10  21  39  60  86 116 158 194 239 301 352
#     4  10  21  38  65  79 120 157 202 238 302 345
#     4   9  18  32  55  89 110 144 192 237 280 352
#     4   9  17  32  58  83 114 145 189 235 287 345
#     4  10  24  41  57  88 117 156 199 252 286 352
#
# _framework density 23.884463
#
# number of rings (size 3 to 8) (size 9 to 14) (size 15 to 20)
#    0.000    2.000    2.857    0.000    4.000    2.857 
#    0.000    0.000    0.000   17.143    0.000    0.000 
#    0.000    0.000    0.000    0.000    0.000    0.000 
#
# Total GULP energy -346968.949381 kJ/mol
# GULP energy per Si atom -12391.748192 kJ/mol
# Density = 2.383010 g / cm^3
# Si number density = 23.884463 Si / 1000 Ang^3
#
#
#
# Elastic Constant Matrix: (Units=GPa)
#
#
# Indices 1 2 3 4 5 6 
#
# 1 61.5663 3.8436 36.4715 0.0000 11.0708 0.0000
# 2 3.8436 47.3377 -8.1553 0.0000 -2.2244 0.0000
# 3 36.4715 -8.1553 116.9356 0.0000 31.2481 0.0000
# 4 0.0000 0.0000 0.0000 29.3194 0.0000 1.3992
# 5 11.0708 -2.2244 31.2481 0.0000 24.5142 0.0000
# 6 0.0000 0.0000 0.0000 1.3992 0.0000 26.4782
#
#
#
# Elastic Compliance Matrix: (Units=1/GPa)
#
#
# Indices 1 2 3 4 5 6 
#
# 1 0.020321 -0.002777 -0.006085 0.000000 -0.001673 0.000000
# 2 -0.002777 0.021761 0.002307 0.000000 0.000288 0.000000
# 3 -0.006085 0.002307 0.014893 0.000000 -0.016027 0.000000
# 4 0.000000 0.000000 0.000000 0.034193 0.000000 -0.001807
# 5 -0.001673 0.000288 -0.016027 0.000000 0.062004 0.000000
# 6 0.000000 0.000000 0.000000 -0.001807 0.000000 0.037862
#
#
# Mechanical properties :
#
#
# Convention : Reuss Voigt Hill
#
# Bulk Modulus (GPa) = 22.79660 32.23991 27.51826
# Shear Modulus (GPa) = 22.85533 28.97434 25.91484
#
# Velocity S-wave (km/s) = 3.09676 3.48674 3.29752
# Velocity P-wave (km/s) = 4.72777 5.45320 5.10339
#
# Compressibility (1/GPa) = 0.04386619
#
# Stress axis : x y z
#
# Youngs Moduli (GPa) = 49.20920 45.95334 67.14483
#
# Poissons Ratio (x) = 0.12761 0.40855
# Poissons Ratio (y) = 0.13665 -0.15488
# Poissons Ratio (z) = 0.29942 -0.10600
#
# Static dielectric constant tensor:
#      x y z
#    x 3.906760 0.000000 0.606450 
#    y 0.000000 4.120770 0.000000 
#    z 0.606450 0.000000 4.981710 
# 
# 
# High freq. dielectric constant tensor:
#      x y z
#    x 1.891730 0.000000 0.041080 
#    y 0.000000 1.951140 0.000000 
#    z 0.041080 0.000000 1.958620 
# 
# From -- ./inp_files/76073.got.cif
#   From: 2010.03.12/outbox.cif.g09.slc.cpg/sg14_39_cif.got.tgz:76073.got - 2010.03.31 13:35:05.
