data_PCOD8126315
_publ_section_title
;
Structure prediction by ZEFSAII (Michael W. Deem and Ramdas Pophale) SiO2 
 PCOD8126315
Probable space group: P 21/C
;
_chemical_formula_sum "Si O2"
_cell_formula_units_Z 32
_cell_length_a 9.864624
_cell_length_b 6.876280
_cell_length_c 23.234111
_cell_angle_alpha 90.000000
_cell_angle_beta 97.397630
_cell_angle_gamma 90.000000
_cell_volume 1562.896310
_symmetry_space_group_name_H-M "P 21/C"
_symmetry_group_IT_number 14
_symmetry_cell_setting 'monoclinic'
loop_
_space_group_symop_operation_xyz
x,y,z
-x,1/2+y,1/2-z
-x,-y,-z
x,1/2-y,1/2+z
loop_
_atom_site_type_symbol
_atom_site_label
_atom_site_fract_x
_atom_site_fract_y
_atom_site_fract_z
Si Si1 0.005434 0.784529 0.396382
Si Si2 0.390352 0.658495 0.048844
Si Si3 0.348228 0.569818 0.641874
Si Si4 0.092016 0.528250 0.697661
Si Si5 0.895202 0.882935 0.675445
Si Si6 0.263092 0.246073 0.554004
Si Si7 0.625533 0.687052 0.627791
Si Si8 0.746241 0.432925 0.541827
O O1 0.107363 0.665664 0.442429
O O2 0.953643 0.661564 0.339134
O O3 0.878923 0.841080 0.430067
O O4 0.079845 0.977004 0.377252
O O5 0.357691 0.432674 0.039543
O O6 0.550580 0.682765 0.074396
O O7 0.299498 0.760569 0.094496
O O8 0.362274 0.777026 0.988620
O O9 0.250627 0.578292 0.692005
O O10 0.338475 0.363003 0.609004
O O11 0.508705 0.608937 0.666500
O O12 0.076276 0.496412 0.764317
O O13 0.996945 0.704295 0.673268
O O14 0.738348 0.811235 0.667570
O O15 0.234501 0.381072 0.497829
O O16 0.693712 0.500663 0.601312
#
# Coordination Sequence:
#
# PCOD8126315 Si02
#       8
#     4   4   4   4   4   4   4   4
#     4  11  24  40  64  97 128 168 210 270 322 369
#     4   9  21  39  63  92 128 173 207 248 316 374
#     4   8  21  42  62  90 131 162 208 258 319 373
#     4  11  22  45  68  91 124 167 211 272 320 380
#     4  12  24  43  68  94 125 163 222 264 326 376
#     4  10  21  39  64  94 130 173 210 257 311 379
#     4  10  23  43  60  96 131 169 207 263 313 380
#     4  11  22  39  63  96 132 171 213 258 312 384
#
# _framework density 20.474806999999998
#
# number of rings (size 3 to 8) (size 9 to 14) (size 15 to 20)
#    0.750    1.000    2.500    1.500    1.750    2.000 
#    0.000    5.000    0.000    0.000    0.000    0.000 
#    0.000    0.000    0.000    0.000    0.000    0.000 
#
# Total GULP energy -396716.504160 kJ/mol
# GULP energy per Si atom -12397.390755 kJ/mol
# Density = 2.042821 g / cm^3
# Si number density = 20.474807 Si / 1000 Ang^3
#
#
#
# Elastic Constant Matrix: (Units=GPa)
#
#
# Indices 1 2 3 4 5 6 
#
# 1 102.9756 32.5631 6.6957 0.0000 4.0380 0.0000
# 2 32.5631 98.5129 15.3746 0.0000 9.4067 0.0000
# 3 6.6957 15.3746 37.3857 0.0000 4.9064 0.0000
# 4 0.0000 0.0000 0.0000 20.4337 0.0000 2.8499
# 5 4.0380 9.4067 4.9064 0.0000 24.6763 0.0000
# 6 0.0000 0.0000 0.0000 2.8499 0.0000 29.1341
#
#
#
# Elastic Compliance Matrix: (Units=1/GPa)
#
#
# Indices 1 2 3 4 5 6 
#
# 1 0.010856 -0.003482 -0.000466 0.000000 -0.000357 0.000000
# 2 -0.003482 0.012238 -0.003975 0.000000 -0.003305 0.000000
# 3 -0.000466 -0.003975 0.029015 0.000000 -0.004177 0.000000
# 4 0.000000 0.000000 0.000000 0.049616 0.000000 -0.004853
# 5 -0.000357 -0.003305 -0.004177 0.000000 0.042673 0.000000
# 6 0.000000 0.000000 0.000000 -0.004853 0.000000 0.034799
#
#
# Mechanical properties :
#
#
# Convention : Reuss Voigt Hill
#
# Bulk Modulus (GPa) = 27.57625 38.68232 33.12928
# Shear Modulus (GPa) = 24.13940 27.13155 25.63547
#
# Velocity S-wave (km/s) = 3.43735 3.64417 3.54227
# Velocity P-wave (km/s) = 5.40846 6.05312 5.73985
#
# Compressibility (1/GPa) = 0.03626309
#
# Stress axis : x y z
#
# Youngs Moduli (GPa) = 92.11233 81.71368 34.46534
#
# Poissons Ratio (x) = 0.28451 0.01605
# Poissons Ratio (y) = 0.32071 0.13701
# Poissons Ratio (z) = 0.04289 0.32485
#
# Static dielectric constant tensor:
#      x y z
#    x 3.735530 0.000000 -0.021690 
#    y 0.000000 3.615070 0.000000 
#    z -0.021690 0.000000 3.392310 
# 
# 
# High freq. dielectric constant tensor:
#      x y z
#    x 1.807140 0.000000 -0.004410 
#    y 0.000000 1.802570 0.000000 
#    z -0.004410 0.000000 1.775780 
# 
# From -- ./inp_files/72771.got.cif
#   From: 2010.03.12/outbox.cif.g09.slc.cpg/sg14_37_cif.got.tgz:72771.got - 2010.03.31 13:35:05.
