data_PCOD8126058
_publ_section_title
;
Structure prediction by ZEFSAII (Michael W. Deem and Ramdas Pophale) SiO2 
 PCOD8126058
Probable space group: P 21/C
;
_chemical_formula_sum "Si O2"
_cell_formula_units_Z 32
_cell_length_a 12.179171
_cell_length_b 8.389752
_cell_length_c 19.260703
_cell_angle_alpha 90.000000
_cell_angle_beta 45.960341
_cell_angle_gamma 90.000000
_cell_volume 1414.759371
_symmetry_space_group_name_H-M "P 21/C"
_symmetry_group_IT_number 14
_symmetry_cell_setting 'monoclinic'
loop_
_space_group_symop_operation_xyz
x,y,z
-x,1/2+y,1/2-z
-x,-y,-z
x,1/2-y,1/2+z
loop_
_atom_site_type_symbol
_atom_site_label
_atom_site_fract_x
_atom_site_fract_y
_atom_site_fract_z
Si Si1 0.153426 0.609704 0.336190
Si Si2 0.421077 0.666930 0.669946
Si Si3 0.077732 0.553681 0.667458
Si Si4 0.323184 0.165055 0.832678
Si Si5 0.312297 0.319499 0.702835
Si Si6 0.983842 0.112375 0.346133
Si Si7 0.888578 0.657741 0.973045
Si Si8 0.682773 0.796720 0.951751
O O1 0.300150 0.693621 0.236906
O O2 0.055049 0.510782 0.324477
O O3 0.218058 0.491766 0.367860
O O4 0.044418 0.743907 0.417821
O O5 0.529728 0.623822 0.686719
O O6 0.337077 0.506585 0.686651
O O7 0.521606 0.716478 0.560040
O O8 0.117988 0.741513 0.638755
O O9 0.020376 0.519841 0.771045
O O10 0.242801 0.473520 0.581119
O O11 0.397308 0.228476 0.727927
O O12 0.226615 0.305499 0.913433
O O13 0.136369 0.293441 0.799899
O O14 0.346754 0.236101 0.613825
O O15 0.924693 0.030303 0.444263
O O16 0.809595 0.691372 0.933649
#
# Coordination Sequence:
#
# PCOD8126058 Si02
#       8
#     4   4   4   4   4   4   4   4
#     4  11  21  41  65  91 127 172 210 262 324 381
#     4  11  23  42  63  89 133 171 214 263 322 384
#     4  10  21  37  68  94 127 163 216 268 330 377
#     4  11  24  41  62  91 130 171 216 260 319 381
#     4  11  21  40  64  90 126 169 216 264 319 389
#     4  11  20  39  65  98 124 164 214 275 324 378
#     4  10  22  41  65  95 129 161 216 272 316 383
#     4   9  22  41  65  95 126 167 212 273 320 387
#
# _framework density 22.618687999999999
#
# number of rings (size 3 to 8) (size 9 to 14) (size 15 to 20)
#    0.000    1.500    2.500    3.750    1.750    0.500 
#    0.000    4.375    0.000    0.000    0.000    0.000 
#    0.000    0.000    0.000    0.000    0.000    0.000 
#
# Total GULP energy -396551.298519 kJ/mol
# GULP energy per Si atom -12392.228079 kJ/mol
# Density = 2.256721 g / cm^3
# Si number density = 22.618688 Si / 1000 Ang^3
#
#
#
# Elastic Constant Matrix: (Units=GPa)
#
#
# Indices 1 2 3 4 5 6 
#
# 1 85.3204 11.5799 43.4016 0.0000 22.5204 0.0000
# 2 11.5799 62.6620 15.5112 0.0000 -4.8177 0.0000
# 3 43.4016 15.5112 93.7766 0.0000 -1.0195 0.0000
# 4 0.0000 0.0000 0.0000 43.8426 0.0000 -38.8047
# 5 22.5204 -4.8177 -1.0195 0.0000 29.6533 0.0000
# 6 0.0000 0.0000 0.0000 -38.8047 0.0000 182.0482
#
#
#
# Elastic Compliance Matrix: (Units=1/GPa)
#
#
# Indices 1 2 3 4 5 6 
#
# 1 0.021589 -0.002912 -0.009697 0.000000 -0.017203 0.000000
# 2 -0.002912 0.017237 -0.001450 0.000000 0.004962 0.000000
# 3 -0.009697 -0.001450 0.015475 0.000000 0.007661 0.000000
# 4 0.000000 0.000000 0.000000 0.028113 0.000000 0.005992
# 5 -0.017203 0.004962 0.007661 0.000000 0.047857 0.000000
# 6 0.000000 0.000000 0.000000 0.005992 0.000000 0.006770
#
#
# Mechanical properties :
#
#
# Convention : Reuss Voigt Hill
#
# Bulk Modulus (GPa) = 38.19155 42.52715 40.35935
# Shear Modulus (GPa) = 28.75439 62.52657 45.64048
#
# Velocity S-wave (km/s) = 3.56935 5.26344 4.49689
# Velocity P-wave (km/s) = 5.82311 7.46867 6.69663
#
# Compressibility (1/GPa) = 0.02618380
#
# Stress axis : x y z
#
# Youngs Moduli (GPa) = 46.31936 58.01458 64.62132
#
# Poissons Ratio (x) = 0.16893 0.62665
# Poissons Ratio (y) = 0.13487 0.09367
# Poissons Ratio (z) = 0.44917 0.08409
#
# Static dielectric constant tensor:
#      x y z
#    x 4.260350 0.000000 0.037430 
#    y 0.000000 3.984450 0.000000 
#    z 0.037430 0.000000 3.890990 
# 
# 
# High freq. dielectric constant tensor:
#      x y z
#    x 1.903370 0.000000 0.006790 
#    y 0.000000 1.883030 0.000000 
#    z 0.006790 0.000000 1.876720 
# 
# From -- ./inp_files/67031.got.cif
#   From: 2010.03.12/outbox.cif.g09.slc.cpg/sg14_34_cif.got.tgz:67031.got - 2010.03.31 13:35:05.
