data_PCOD8126969
_publ_section_title
;
Structure prediction by ZEFSAII (Michael W. Deem and Ramdas Pophale) SiO2 
 PCOD8126969
Probable space group: P 21/C
;
_chemical_formula_sum "Si O2"
_cell_formula_units_Z 24
_cell_length_a 10.965733
_cell_length_b 7.216851
_cell_length_c 18.417897
_cell_angle_alpha 90.000000
_cell_angle_beta 124.131939
_cell_angle_gamma 90.000000
_cell_volume 1206.489148
_symmetry_space_group_name_H-M "P 21/C"
_symmetry_group_IT_number 14
_symmetry_cell_setting 'monoclinic'
loop_
_space_group_symop_operation_xyz
x,y,z
-x,1/2+y,1/2-z
-x,-y,-z
x,1/2-y,1/2+z
loop_
_atom_site_type_symbol
_atom_site_label
_atom_site_fract_x
_atom_site_fract_y
_atom_site_fract_z
Si Si1 0.003748 0.017699 0.161435
Si Si2 0.811694 0.325418 0.028583
Si Si3 0.959669 0.898765 0.661652
Si Si4 0.700554 0.878991 0.810791
Si Si5 0.819436 0.501925 0.886184
Si Si6 0.414411 0.765057 0.153641
O O1 0.993089 0.091829 0.239483
O O2 0.172502 0.016638 0.191811
O O3 0.901968 0.141681 0.076669
O O4 0.937248 0.812858 0.132089
O O5 0.813652 0.476272 0.095270
O O6 0.893713 0.422433 0.985800
O O7 0.645140 0.269710 0.949273
O O8 0.083566 0.997888 0.653968
O O9 0.768747 0.714332 0.882265
O O10 0.586281 0.786118 0.715456
O O11 0.617201 0.022874 0.834979
O O12 0.675854 0.372796 0.823007
#
# Coordination Sequence:
#
# PCOD8126969 Si02
#       6
#     4   4   4   4   4   4
#     4  12  24  37  67  86 128 160 204 243 317 356
#     4  10  23  38  60  97 116 160 206 255 294 355
#     4  12  22  41  59  94 122 162 196 258 301 362
#     4  12  21  41  61  93 122 168 193 255 305 361
#     4  10  22  36  63  88 122 150 207 250 293 356
#     4  10  23  36  61  89 123 157 204 247 303 350
#
# _framework density 19.892427999999999
#
# number of rings (size 3 to 8) (size 9 to 14) (size 15 to 20)
#    1.000    0.000    6.667    0.500    2.333    1.333 
#    0.000    0.833    0.000    2.000    0.000    0.000 
#    0.000    0.000    0.000    0.000    0.000    0.000 
#
# Total GULP energy -297434.783501 kJ/mol
# GULP energy per Si atom -12393.115979 kJ/mol
# Density = 1.984715 g / cm^3
# Si number density = 19.892428 Si / 1000 Ang^3
#
#
#
# Elastic Constant Matrix: (Units=GPa)
#
#
# Indices 1 2 3 4 5 6 
#
# 1 23.6685 11.1405 23.0911 0.0000 2.6305 0.0000
# 2 11.1405 156.1902 41.2231 0.0000 14.4703 0.0000
# 3 23.0911 41.2231 111.2923 0.0000 14.3265 0.0000
# 4 0.0000 0.0000 0.0000 40.5686 0.0000 1.7401
# 5 2.6305 14.4703 14.3265 0.0000 15.7058 0.0000
# 6 0.0000 0.0000 0.0000 1.7401 0.0000 21.7616
#
#
#
# Elastic Compliance Matrix: (Units=1/GPa)
#
#
# Indices 1 2 3 4 5 6 
#
# 1 0.053162 -0.001109 -0.010883 0.000000 0.002045 0.000000
# 2 -0.001109 0.007438 -0.001888 0.000000 -0.004945 0.000000
# 3 -0.010883 -0.001888 0.013012 0.000000 -0.008307 0.000000
# 4 0.000000 0.000000 0.000000 0.024734 0.000000 -0.001978
# 5 0.002045 -0.004945 -0.008307 0.000000 0.075461 0.000000
# 6 0.000000 0.000000 0.000000 -0.001978 0.000000 0.046111
#
#
# Mechanical properties :
#
#
# Convention : Reuss Voigt Hill
#
# Bulk Modulus (GPa) = 21.80925 49.11781 35.46353
# Shear Modulus (GPa) = 19.01408 29.98695 24.50052
#
# Velocity S-wave (km/s) = 3.09503 3.88681 3.51330
# Velocity P-wave (km/s) = 4.87439 6.69988 5.85867
#
# Compressibility (1/GPa) = 0.04585210
#
# Stress axis : x y z
#
# Youngs Moduli (GPa) = 18.81036 134.44347 76.85150
#
# Poissons Ratio (x) = 0.14911 0.83634
# Poissons Ratio (y) = 0.02086 0.14513
# Poissons Ratio (z) = 0.20471 0.25389
#
# Static dielectric constant tensor:
#      x y z
#    x 3.214190 0.000000 0.130950 
#    y 0.000000 3.851730 0.000000 
#    z 0.130950 0.000000 3.688980 
# 
# 
# High freq. dielectric constant tensor:
#      x y z
#    x 1.727140 0.000000 0.011840 
#    y 0.000000 1.802880 0.000000 
#    z 0.011840 0.000000 1.777780 
# 
# From -- ./inp_files/57114.got.cif
#   From: 2010.03.12/outbox.cif.g09.slc.cpg/sg14_29_cif.got.tgz:57114.got - 2010.03.31 13:35:05.
