data_PCOD8126493
_publ_section_title
;
Structure prediction by ZEFSAII (Michael W. Deem and Ramdas Pophale) SiO2 
 PCOD8126493
Probable space group: P 21/C
;
_chemical_formula_sum "Si O2"
_cell_formula_units_Z 28
_cell_length_a 8.665944
_cell_length_b 13.847717
_cell_length_c 14.452883
_cell_angle_alpha 90.000000
_cell_angle_beta 129.664606
_cell_angle_gamma 90.000000
_cell_volume 1335.128503
_symmetry_space_group_name_H-M "P 21/C"
_symmetry_group_IT_number 14
_symmetry_cell_setting 'monoclinic'
loop_
_space_group_symop_operation_xyz
x,y,z
-x,1/2+y,1/2-z
-x,-y,-z
x,1/2-y,1/2+z
loop_
_atom_site_type_symbol
_atom_site_label
_atom_site_fract_x
_atom_site_fract_y
_atom_site_fract_z
Si Si1 0.268158 0.292322 0.336786
Si Si2 0.074330 0.662316 0.282918
Si Si3 0.273978 0.932728 0.137943
Si Si4 0.099542 0.881561 0.594542
Si Si5 0.880912 0.965024 0.093721
Si Si6 0.734510 0.587588 0.844248
Si Si7 0.716743 0.250897 0.977543
O O1 0.212964 0.371033 0.394178
O O2 0.226503 0.335523 0.220455
O O3 0.495909 0.262075 0.430219
O O4 0.160218 0.189192 0.308291
O O5 0.152941 0.676981 0.208194
O O6 0.127816 0.556336 0.340837
O O7 0.160684 0.747127 0.380432
O O8 0.496604 0.930765 0.268167
O O9 0.216997 0.832576 0.067742
O O10 0.252020 0.015204 0.049754
O O11 0.114182 0.949583 0.158018
O O12 0.237405 0.849267 0.560371
O O13 0.859322 0.871805 0.480754
O O14 0.153132 0.990381 0.640737
#
# Coordination Sequence:
#
# PCOD8126493 Si02
#       7
#     4   4   4   4   4   4   4
#     4  11  22  42  63  94 127 167 217 268 317 383
#     4  11  23  40  65  92 127 168 215 267 319 390
#     4   9  21  40  64  93 125 167 208 271 315 382
#     4  11  22  42  61  93 127 175 206 267 330 379
#     4  10  21  40  65  94 127 167 218 266 319 376
#     4  10  22  40  65  87 130 170 208 261 330 384
#     4  10  23  40  63  93 125 166 219 267 319 388
#
# _framework density 20.971765000000001
#
# number of rings (size 3 to 8) (size 9 to 14) (size 15 to 20)
#    0.000    1.714    2.857    0.857    4.000    1.714 
#    7.714    0.714    0.000    0.000    0.000    0.000 
#    0.000    0.000    0.000    0.000    0.000    0.000 
#
# Total GULP energy -346993.738988 kJ/mol
# GULP energy per Si atom -12392.633535 kJ/mol
# Density = 2.092403 g / cm^3
# Si number density = 20.971765 Si / 1000 Ang^3
#
#
#
# Elastic Constant Matrix: (Units=GPa)
#
#
# Indices 1 2 3 4 5 6 
#
# 1 116.9235 17.0787 60.8347 0.0000 5.1062 0.0000
# 2 17.0787 27.2538 22.0059 0.0000 13.8802 0.0000
# 3 60.8347 22.0059 95.0955 0.0000 -2.0200 0.0000
# 4 0.0000 0.0000 0.0000 18.4282 0.0000 4.0593
# 5 5.1062 13.8802 -2.0200 0.0000 24.1077 0.0000
# 6 0.0000 0.0000 0.0000 4.0593 0.0000 30.8133
#
#
#
# Elastic Compliance Matrix: (Units=1/GPa)
#
#
# Indices 1 2 3 4 5 6 
#
# 1 0.013114 0.000784 -0.008655 0.000000 -0.003954 0.000000
# 2 0.000784 0.073537 -0.018454 0.000000 -0.044051 0.000000
# 3 -0.008655 -0.018454 0.020624 0.000000 0.014186 0.000000
# 4 0.000000 0.000000 0.000000 0.055886 0.000000 -0.007362
# 5 -0.003954 -0.044051 0.014186 0.000000 0.068870 0.000000
# 6 0.000000 0.000000 0.000000 -0.007362 0.000000 0.033423
#
#
# Mechanical properties :
#
#
# Convention : Reuss Voigt Hill
#
# Bulk Modulus (GPa) = 18.30668 48.79015 33.54842
# Shear Modulus (GPa) = 14.86716 23.96007 19.41362
#
# Velocity S-wave (km/s) = 2.66543 3.38374 3.04584
# Velocity P-wave (km/s) = 4.26859 6.21140 5.32927
#
# Compressibility (1/GPa) = 0.05462488
#
# Stress axis : x y z
#
# Youngs Moduli (GPa) = 76.25633 13.59867 48.48703
#
# Poissons Ratio (x) = -0.01066 0.41963
# Poissons Ratio (y) = -0.05980 0.89480
# Poissons Ratio (z) = 0.65996 0.25095
#
# Static dielectric constant tensor:
#      x y z
#    x 3.684910 0.000000 0.041850 
#    y 0.000000 3.721200 0.000000 
#    z 0.041850 0.000000 4.045610 
# 
# 
# High freq. dielectric constant tensor:
#      x y z
#    x 1.813460 0.000000 0.000830 
#    y 0.000000 1.812680 0.000000 
#    z 0.000830 0.000000 1.830830 
# 
# From -- ./inp_files/41276.got.cif
#   From: 2010.03.12/outbox.cif.g09.slc.cpg/sg14_21_cif.got.tgz:41276.got - 2010.03.31 13:35:05.
