data_PCOD8126440
_publ_section_title
;
Structure prediction by ZEFSAII (Michael W. Deem and Ramdas Pophale) SiO2 
 PCOD8126440
Probable space group: P 21/C
;
_chemical_formula_sum "Si O2"
_cell_formula_units_Z 20
_cell_length_a 8.331961
_cell_length_b 7.366196
_cell_length_c 12.134973
_cell_angle_alpha 90.000000
_cell_angle_beta 81.350894
_cell_angle_gamma 90.000000
_cell_volume 736.312472
_symmetry_space_group_name_H-M "P 21/C"
_symmetry_group_IT_number 14
_symmetry_cell_setting 'monoclinic'
loop_
_space_group_symop_operation_xyz
x,y,z
-x,1/2+y,1/2-z
-x,-y,-z
x,1/2-y,1/2+z
loop_
_atom_site_type_symbol
_atom_site_label
_atom_site_fract_x
_atom_site_fract_y
_atom_site_fract_z
Si Si1 0.611084 0.087764 0.684038
Si Si2 0.187566 0.076025 0.524318
Si Si3 0.986593 0.737564 0.642103
Si Si4 0.260576 0.971261 0.751514
Si Si5 0.807286 0.582128 0.344881
O O1 0.417398 0.090040 0.700897
O O2 0.692076 0.280787 0.701601
O O3 0.672622 0.019500 0.559521
O O4 0.664165 0.942605 0.771092
O O5 0.029585 0.122408 0.460990
O O6 0.161424 0.953621 0.640916
O O7 0.248963 0.275550 0.556839
O O8 0.836531 0.592942 0.651158
O O9 0.967411 0.833648 0.765618
O O10 0.148330 0.615462 0.611323
#
# Coordination Sequence:
#
# PCOD8126440 Si02
#       5
#     4   4   4   4   4
#     4  11  23  41  63  91 126 164 206 255 305 363
#     4  10  22  40  65  92 123 162 208 252 306 366
#     4  10  21  40  63  92 126 162 203 252 305 366
#     4  11  23  41  63  91 126 164 206 255 305 363
#     4  10  21  40  63  92 126 162 203 252 305 366
#
# _framework density 27.162379000000001
#
# number of rings (size 3 to 8) (size 9 to 14) (size 15 to 20)
#    0.000    1.600    0.000    6.000    0.000    1.600 
#    0.000   38.000    0.000    0.000    0.000    0.000 
#    0.000    0.000    0.000    0.000    0.000    0.000 
#
# Total GULP energy -248011.521582 kJ/mol
# GULP energy per Si atom -12400.576079 kJ/mol
# Density = 2.710056 g / cm^3
# Si number density = 27.162379 Si / 1000 Ang^3
#
#
#
# Elastic Constant Matrix: (Units=GPa)
#
#
# Indices 1 2 3 4 5 6 
#
# 1 93.6179 38.8548 48.8899 0.0000 9.6987 0.0000
# 2 38.8548 200.4779 72.7636 0.0000 4.0407 0.0000
# 3 48.8899 72.7636 129.7606 0.0000 17.0455 0.0000
# 4 0.0000 0.0000 0.0000 67.9499 0.0000 -0.4724
# 5 9.6987 4.0407 17.0455 0.0000 30.8496 0.0000
# 6 0.0000 0.0000 0.0000 -0.4724 0.0000 43.1628
#
#
#
# Elastic Compliance Matrix: (Units=1/GPa)
#
#
# Indices 1 2 3 4 5 6 
#
# 1 0.013531 -0.001030 -0.004291 0.000000 -0.001748 0.000000
# 2 -0.001030 0.006383 -0.003369 0.000000 0.001349 0.000000
# 3 -0.004291 -0.003369 0.011836 0.000000 -0.004750 0.000000
# 4 0.000000 0.000000 0.000000 0.014718 0.000000 0.000161
# 5 -0.001748 0.001349 -0.004750 0.000000 0.035413 0.000000
# 6 0.000000 0.000000 0.000000 0.000161 0.000000 0.023170
#
#
# Mechanical properties :
#
#
# Convention : Reuss Voigt Hill
#
# Bulk Modulus (GPa) = 69.58190 82.76366 76.17278
# Shear Modulus (GPa) = 39.30207 45.94899 42.62553
#
# Velocity S-wave (km/s) = 3.80798 4.11742 3.96572
# Velocity P-wave (km/s) = 6.70872 7.28974 7.00525
#
# Compressibility (1/GPa) = 0.01437155
#
# Stress axis : x y z
#
# Youngs Moduli (GPa) = 73.90368 156.66387 84.48770
#
# Poissons Ratio (x) = 0.16134 0.36254
# Poissons Ratio (y) = 0.07611 0.28460
# Poissons Ratio (z) = 0.31712 0.52773
#
# Static dielectric constant tensor:
#      x y z
#    x 5.147020 0.000000 0.300840 
#    y 0.000000 5.447460 0.000000 
#    z 0.300840 0.000000 4.690590 
# 
# 
# High freq. dielectric constant tensor:
#      x y z
#    x 2.102100 0.000000 0.021950 
#    y 0.000000 2.147190 0.000000 
#    z 0.021950 0.000000 2.082150 
# 
# From -- ./inp_files/23019.got.cif
#   From: 2010.03.12/outbox.cif.g09.slc.cpg/sg14_12_cif.got.tgz:23019.got - 2010.03.31 13:35:05.
