data_PCOD8126949
_publ_section_title
;
Structure prediction by ZEFSAII (Michael W. Deem and Ramdas Pophale) SiO2 
 PCOD8126949
Probable space group: P 21/C
;
_chemical_formula_sum "Si O2"
_cell_formula_units_Z 32
_cell_length_a 11.279719
_cell_length_b 9.032751
_cell_length_c 17.124998
_cell_angle_alpha 90.000000
_cell_angle_beta 50.534040
_cell_angle_gamma 90.000000
_cell_volume 1346.999609
_symmetry_space_group_name_H-M "P 21/C"
_symmetry_group_IT_number 14
_symmetry_cell_setting 'monoclinic'
loop_
_space_group_symop_operation_xyz
x,y,z
-x,1/2+y,1/2-z
-x,-y,-z
x,1/2-y,1/2+z
loop_
_atom_site_type_symbol
_atom_site_label
_atom_site_fract_x
_atom_site_fract_y
_atom_site_fract_z
Si Si1 0.041522 0.494828 0.755860
Si Si2 0.469734 0.263054 0.413088
Si Si3 0.834385 0.684920 0.756418
Si Si4 0.768787 0.012770 0.144484
Si Si5 0.491010 0.711039 0.937616
Si Si6 0.236198 0.840156 0.291544
Si Si7 0.256178 0.523263 0.519206
Si Si8 0.573427 0.998015 0.668574
O O1 0.047246 0.321765 0.777390
O O2 0.089900 0.590172 0.810768
O O3 0.135211 0.542215 0.638879
O O4 0.870698 0.552414 0.803907
O O5 0.515572 0.163184 0.468829
O O6 0.621327 0.353097 0.326853
O O7 0.338118 0.368263 0.500477
O O8 0.409691 0.174100 0.362054
O O9 0.849550 0.615481 0.662521
O O10 0.664719 0.749847 0.838505
O O11 0.800897 0.171789 0.170220
O O12 0.829372 0.014809 0.029865
O O13 0.584830 0.980739 0.217154
O O14 0.384657 0.851120 0.964439
O O15 0.429194 0.576490 0.913568
O O16 0.278703 0.943187 0.347612
#
# Coordination Sequence:
#
# PCOD8126949 Si02
#       8
#     4   4   4   4   4   4   4   4
#     4  12  26  45  69  93 135 183 226 267 333 405
#     4  11  21  35  62 100 133 165 214 279 336 387
#     4  11  26  45  67  94 136 182 224 270 333 404
#     4  10  23  40  67  97 136 172 222 272 336 396
#     4  11  21  43  66 101 130 170 218 284 330 396
#     4  11  21  39  65  99 135 170 221 270 336 398
#     4  12  22  40  70 101 129 172 227 279 331 397
#     4  10  22  34  62 101 137 165 208 283 346 380
#
# _framework density 23.756502999999999
#
# number of rings (size 3 to 8) (size 9 to 14) (size 15 to 20)
#    0.000    1.000    5.000    2.250    1.750    0.500 
#    2.250    0.000    0.000    2.250    0.000    0.000 
#    0.000    0.000    0.000    0.000    0.000    0.000 
#
# Total GULP energy -396725.803916 kJ/mol
# GULP energy per Si atom -12397.681372 kJ/mol
# Density = 2.370243 g / cm^3
# Si number density = 23.756503 Si / 1000 Ang^3
#
#
#
# Elastic Constant Matrix: (Units=GPa)
#
#
# Indices 1 2 3 4 5 6 
#
# 1 88.3154 25.1022 14.4608 0.0000 28.8372 0.0000
# 2 25.1022 83.6634 11.4888 0.0000 5.7602 0.0000
# 3 14.4608 11.4888 54.5842 0.0000 25.6877 0.0000
# 4 0.0000 0.0000 0.0000 27.3629 0.0000 9.3272
# 5 28.8372 5.7602 25.6877 0.0000 34.3885 0.0000
# 6 0.0000 0.0000 0.0000 9.3272 0.0000 40.1841
#
#
#
# Elastic Compliance Matrix: (Units=1/GPa)
#
#
# Indices 1 2 3 4 5 6 
#
# 1 0.017570 -0.004695 0.004468 0.000000 -0.017284 0.000000
# 2 -0.004695 0.013564 -0.003693 0.000000 0.004424 0.000000
# 3 0.004468 -0.003693 0.029895 0.000000 -0.025459 0.000000
# 4 0.000000 0.000000 0.000000 0.039686 0.000000 -0.009212
# 5 -0.017284 0.004424 -0.025459 0.000000 0.061850 0.000000
# 6 0.000000 0.000000 0.000000 -0.009212 0.000000 0.027024
#
#
# Mechanical properties :
#
#
# Convention : Reuss Voigt Hill
#
# Bulk Modulus (GPa) = 18.80111 36.51852 27.65982
# Shear Modulus (GPa) = 23.23866 32.08785 27.66326
#
# Velocity S-wave (km/s) = 3.13102 3.67917 3.41611
# Velocity P-wave (km/s) = 4.58282 5.78392 5.21805
#
# Compressibility (1/GPa) = 0.05318834
#
# Stress axis : x y z
#
# Youngs Moduli (GPa) = 56.91594 73.72512 33.45010
#
# Poissons Ratio (x) = 0.34615 -0.14944
# Poissons Ratio (y) = 0.26722 0.12353
# Poissons Ratio (z) = -0.25428 0.27226
#
# Static dielectric constant tensor:
#      x y z
#    x 4.350550 0.000000 0.346290 
#    y 0.000000 4.343270 0.000000 
#    z 0.346290 0.000000 4.019510 
# 
# 
# High freq. dielectric constant tensor:
#      x y z
#    x 1.943490 0.000000 0.031800 
#    y 0.000000 1.947130 0.000000 
#    z 0.031800 0.000000 1.920530 
# 
# From -- ./inp_files/57280.got.cif
#   From: 2010.03.12/outbox.cif.g09.slc.cpg/sg14_29_cif.got.tgz:57280.got - 2010.03.31 13:35:05.
