data_PCOD8126057
_publ_section_title
;
Structure prediction by ZEFSAII (Michael W. Deem and Ramdas Pophale) SiO2 
 PCOD8126057
Probable space group: P 21/C
;
_chemical_formula_sum "Si O2"
_cell_formula_units_Z 32
_cell_length_a 5.285474
_cell_length_b 29.895095
_cell_length_c 9.187356
_cell_angle_alpha 90.000000
_cell_angle_beta 102.760419
_cell_angle_gamma 90.000000
_cell_volume 1415.838165
_symmetry_space_group_name_H-M "P 21/C"
_symmetry_group_IT_number 14
_symmetry_cell_setting 'monoclinic'
loop_
_space_group_symop_operation_xyz
x,y,z
-x,1/2+y,1/2-z
-x,-y,-z
x,1/2-y,1/2+z
loop_
_atom_site_type_symbol
_atom_site_label
_atom_site_fract_x
_atom_site_fract_y
_atom_site_fract_z
Si Si1 0.460801 0.572473 0.264714
Si Si2 0.435382 0.845107 0.937206
Si Si3 0.718897 0.133150 0.489025
Si Si4 0.061248 0.208765 0.493859
Si Si5 0.102298 0.201985 0.170127
Si Si6 0.580101 0.642795 0.774884
Si Si7 0.889567 0.936980 0.384974
Si Si8 0.091966 0.023980 0.319702
O O1 0.471948 0.601795 0.413200
O O2 0.709484 0.539690 0.281384
O O3 0.195401 0.544677 0.232300
O O4 0.498145 0.610405 0.141145
O O5 0.137404 0.832647 0.863566
O O6 0.637925 0.816705 0.868962
O O7 0.491469 0.835637 0.113251
O O8 0.787171 0.182799 0.440420
O O9 0.665268 0.135471 0.653391
O O10 0.955413 0.099340 0.501429
O O11 0.175547 0.215146 0.345901
O O12 0.009883 0.255224 0.566666
O O13 0.237729 0.177790 0.618522
O O14 0.693412 0.592630 0.763828
O O15 0.773108 0.966728 0.504246
O O16 0.055236 0.970025 0.301769
#
# Coordination Sequence:
#
# PCOD8126057 Si02
#       8
#     4   4   4   4   4   4   4   4
#     4  11  21  42  64  96 128 184 217 278 329 402
#     4  12  28  45  69  98 138 184 222 275 339 406
#     4  10  21  39  69  90 136 176 223 274 336 396
#     4  11  26  45  69 102 131 176 223 280 334 401
#     4  12  28  47  72 100 136 174 227 278 335 401
#     4  11  24  43  68  96 140 176 229 271 344 394
#     4   9  21  36  62 102 126 175 219 288 323 398
#     4  10  21  37  67  96 133 167 233 272 336 388
#
# _framework density 22.601451999999998
#
# number of rings (size 3 to 8) (size 9 to 14) (size 15 to 20)
#    0.000    1.250    2.500    2.250   10.500    1.500 
#    0.000    1.250    0.000    0.000    0.000    0.000 
#    0.000    0.000    0.000    0.000    0.000    0.000 
#
# Total GULP energy -396518.574243 kJ/mol
# GULP energy per Si atom -12391.205445 kJ/mol
# Density = 2.255001 g / cm^3
# Si number density = 22.601452 Si / 1000 Ang^3
#
#
#
# Elastic Constant Matrix: (Units=GPa)
#
#
# Indices 1 2 3 4 5 6 
#
# 1 79.6808 4.1219 12.9560 0.0000 -7.8730 0.0000
# 2 4.1219 66.4198 3.7078 0.0000 4.7885 0.0000
# 3 12.9560 3.7078 121.1596 0.0000 -2.2820 0.0000
# 4 0.0000 0.0000 0.0000 33.7670 0.0000 -7.8731
# 5 -7.8730 4.7885 -2.2820 0.0000 20.2766 0.0000
# 6 0.0000 0.0000 0.0000 -7.8731 0.0000 25.0363
#
#
#
# Elastic Compliance Matrix: (Units=1/GPa)
#
#
# Indices 1 2 3 4 5 6 
#
# 1 0.013343 -0.001138 -0.001292 0.000000 0.005304 0.000000
# 2 -0.001138 0.015449 -0.000429 0.000000 -0.004139 0.000000
# 3 -0.001292 -0.000429 0.008415 0.000000 0.000547 0.000000
# 4 0.000000 0.000000 0.000000 0.031958 0.000000 0.010050
# 5 0.005304 -0.004139 0.000547 0.000000 0.052416 0.000000
# 6 0.000000 0.000000 0.000000 0.010050 0.000000 0.043102
#
#
# Mechanical properties :
#
#
# Convention : Reuss Voigt Hill
#
# Bulk Modulus (GPa) = 31.75792 34.31462 33.03627
# Shear Modulus (GPa) = 27.63978 32.24761 29.94370
#
# Velocity S-wave (km/s) = 3.50082 3.78139 3.64381
# Velocity P-wave (km/s) = 5.51569 5.85497 5.68786
#
# Compressibility (1/GPa) = 0.03148820
#
# Stress axis : x y z
#
# Youngs Moduli (GPa) = 74.94473 64.73027 118.83306
#
# Poissons Ratio (x) = 0.07369 0.15354
# Poissons Ratio (y) = 0.08531 0.05098
# Poissons Ratio (z) = 0.09684 0.02777
#
# Static dielectric constant tensor:
#      x y z
#    x 3.883790 0.000000 -0.055000 
#    y 0.000000 4.332550 0.000000 
#    z -0.055000 0.000000 4.004360 
# 
# 
# High freq. dielectric constant tensor:
#      x y z
#    x 1.881410 0.000000 -0.006590 
#    y 0.000000 1.902010 0.000000 
#    z -0.006590 0.000000 1.872310 
# 
# From -- ./inp_files/6802.got.cif
#   From: 2010.03.12/outbox.cif.g09.slc.cpg/sg14_4_cif.got.tgz:6802.got - 2010.03.31 13:35:05.
