data_PCOD8126321
_publ_section_title
;
Structure prediction by ZEFSAII (Michael W. Deem and Ramdas Pophale) SiO2 
 PCOD8126321
Probable space group: P 21/C
;
_chemical_formula_sum "Si O2"
_cell_formula_units_Z 24
_cell_length_a 7.574977
_cell_length_b 11.391017
_cell_length_c 12.991119
_cell_angle_alpha 90.000000
_cell_angle_beta 113.452414
_cell_angle_gamma 90.000000
_cell_volume 1028.359164
_symmetry_space_group_name_H-M "P 21/C"
_symmetry_group_IT_number 14
_symmetry_cell_setting 'monoclinic'
loop_
_space_group_symop_operation_xyz
x,y,z
-x,1/2+y,1/2-z
-x,-y,-z
x,1/2-y,1/2+z
loop_
_atom_site_type_symbol
_atom_site_label
_atom_site_fract_x
_atom_site_fract_y
_atom_site_fract_z
Si Si1 0.705882 0.052833 0.017665
Si Si2 0.831376 0.821923 0.114101
Si Si3 0.740669 0.673884 0.904585
Si Si4 0.657929 0.437621 0.968101
Si Si5 0.521215 0.209163 0.826817
Si Si6 0.909294 0.268627 0.150519
O O1 0.779751 0.151521 0.115149
O O2 0.855112 0.943720 0.054699
O O3 0.690026 0.118522 0.902446
O O4 0.500000 0.000000 0.000000
O O5 0.674750 0.838649 0.166930
O O6 0.033030 0.787094 0.215789
O O7 0.749809 0.720548 0.022636
O O8 0.765257 0.532970 0.920097
O O9 0.527640 0.702498 0.806464
O O10 0.902198 0.742198 0.877351
O O11 0.571727 0.340975 0.870792
O O12 0.500000 0.500000 0.000000
O O13 0.800734 0.382471 0.084131
#
# Coordination Sequence:
#
# PCOD8126321 Si02
#       6
#     4   4   4   4   4   4
#     4   9  20  41  63  86 126 168 208 264 317 373
#     4  10  21  39  65  90 126 168 208 262 326 379
#     4  11  23  39  65  94 128 167 212 266 325 378
#     4  11  22  43  66  90 130 170 216 263 323 386
#     4   9  21  41  60  95 127 165 219 264 310 393
#     4  10  24  42  61  94 128 162 216 266 319 391
#
# _framework density 23.338149000000001
#
# number of rings (size 3 to 8) (size 9 to 14) (size 15 to 20)
#    0.000    2.000    1.667    0.500    4.667    0.667 
#    9.000    0.000    0.000    0.000    0.000    0.000 
#    0.000    0.000    0.000    0.000    0.000    0.000 
#
# Total GULP energy -297447.728113 kJ/mol
# GULP energy per Si atom -12393.655338 kJ/mol
# Density = 2.328503 g / cm^3
# Si number density = 23.338149 Si / 1000 Ang^3
#
#
#
# Elastic Constant Matrix: (Units=GPa)
#
#
# Indices 1 2 3 4 5 6 
#
# 1 27.7141 27.8127 27.6855 0.0000 18.0768 0.0000
# 2 27.8127 180.4219 85.0861 0.0000 33.0414 0.0000
# 3 27.6855 85.0861 197.3319 0.0000 56.3105 0.0000
# 4 0.0000 0.0000 0.0000 32.8818 0.0000 11.2192
# 5 18.0768 33.0414 56.3105 0.0000 40.0874 0.0000
# 6 0.0000 0.0000 0.0000 11.2192 0.0000 36.0884
#
#
#
# Elastic Compliance Matrix: (Units=1/GPa)
#
#
# Indices 1 2 3 4 5 6 
#
# 1 0.054155 -0.004687 0.000483 0.000000 -0.021235 0.000000
# 2 -0.004687 0.007521 -0.002369 0.000000 -0.000758 0.000000
# 3 0.000483 -0.002369 0.009223 0.000000 -0.011221 0.000000
# 4 0.000000 0.000000 0.000000 0.034021 0.000000 -0.010576
# 5 -0.021235 -0.000758 -0.011221 0.000000 0.050908 0.000000
# 6 0.000000 0.000000 0.000000 -0.010576 0.000000 0.030998
#
#
# Mechanical properties :
#
#
# Convention : Reuss Voigt Hill
#
# Bulk Modulus (GPa) = 17.31522 76.29293 46.80407
# Shear Modulus (GPa) = 22.80779 39.47043 31.13911
#
# Velocity S-wave (km/s) = 3.12953 4.11693 3.65671
# Velocity P-wave (km/s) = 4.52703 7.44043 6.15849
#
# Compressibility (1/GPa) = 0.05775268
#
# Stress axis : x y z
#
# Youngs Moduli (GPa) = 18.46552 132.95866 108.41921
#
# Poissons Ratio (x) = 0.62317 -0.05233
# Poissons Ratio (y) = 0.08655 0.25687
# Poissons Ratio (z) = -0.00891 0.31501
#
# Static dielectric constant tensor:
#      x y z
#    x 3.976090 0.000000 0.514770 
#    y 0.000000 4.480190 0.000000 
#    z 0.514770 0.000000 4.704970 
# 
# 
# High freq. dielectric constant tensor:
#      x y z
#    x 1.896350 0.000000 0.028100 
#    y 0.000000 1.931750 0.000000 
#    z 0.028100 0.000000 1.932690 
# 
# From -- ./inp_files/24272.got.cif
#   From: 2010.03.12/outbox.cif.g09.slc.cpg/sg14_13_cif.got.tgz:24272.got - 2010.03.31 13:35:05.
