data_PCOD8126458
_publ_section_title
;
Structure prediction by ZEFSAII (Michael W. Deem and Ramdas Pophale) SiO2 
 PCOD8126458
Probable space group: P 21/C
;
_chemical_formula_sum "Si O2"
_cell_formula_units_Z 32
_cell_length_a 11.267634
_cell_length_b 25.428310
_cell_length_c 5.200426
_cell_angle_alpha 90.000000
_cell_angle_beta 80.580217
_cell_angle_gamma 90.000000
_cell_volume 1469.918160
_symmetry_space_group_name_H-M "P 21/C"
_symmetry_group_IT_number 14
_symmetry_cell_setting 'monoclinic'
loop_
_space_group_symop_operation_xyz
x,y,z
-x,1/2+y,1/2-z
-x,-y,-z
x,1/2-y,1/2+z
loop_
_atom_site_type_symbol
_atom_site_label
_atom_site_fract_x
_atom_site_fract_y
_atom_site_fract_z
Si Si1 0.936754 0.282828 0.641774
Si Si2 0.325123 0.115271 0.180526
Si Si3 0.169489 0.044697 0.520062
Si Si4 0.090590 0.551413 0.745263
Si Si5 0.449861 0.582436 0.151159
Si Si6 0.385857 0.026104 0.789281
Si Si7 0.816825 0.392720 0.783286
Si Si8 0.783179 0.782491 0.974943
O O1 0.901270 0.254656 0.389859
O O2 0.863863 0.336124 0.685598
O O3 0.077431 0.296916 0.593396
O O4 0.217354 0.103171 0.420581
O O5 0.455319 0.124360 0.265336
O O6 0.294300 0.164278 0.012455
O O7 0.329702 0.059262 0.037217
O O8 0.278539 0.014954 0.623225
O O9 0.053783 0.054485 0.741865
O O10 0.129525 0.008159 0.294547
O O11 0.150587 0.566434 0.454200
O O12 0.126608 0.590166 0.965990
O O13 0.431297 0.532415 0.354417
O O14 0.326811 0.612540 0.137120
O O15 0.503492 0.558905 0.869444
O O16 0.746760 0.744128 0.755125
#
# Coordination Sequence:
#
# PCOD8126458 Si02
#       8
#     4   4   4   4   4   4   4   4
#     4  10  22  43  66  94 122 164 213 272 335 392
#     4  11  23  39  68  91 128 177 220 265 326 380
#     4  10  23  37  60  97 133 170 212 265 322 396
#     4  11  25  38  61  98 135 169 212 264 328 386
#     4  10  23  39  61  96 129 180 215 262 304 392
#     4  10  21  40  64  90 136 170 227 256 318 377
#     4  12  24  42  66  91 132 174 216 265 325 391
#     4  10  24  43  68  95 127 157 214 279 331 380
#
# _framework density 21.769919000000002
#
# number of rings (size 3 to 8) (size 9 to 14) (size 15 to 20)
#    0.000    1.500    1.250    2.625    8.750    2.000 
#    0.000    1.250    0.000    0.000    0.000    0.000 
#    0.000    0.000    0.000    0.000    0.000    0.000 
#
# Total GULP energy -396841.327110 kJ/mol
# GULP energy per Si atom -12401.291472 kJ/mol
# Density = 2.172037 g / cm^3
# Si number density = 21.769919 Si / 1000 Ang^3
#
#
#
# Elastic Constant Matrix: (Units=GPa)
#
#
# Indices 1 2 3 4 5 6 
#
# 1 112.3121 30.1935 20.2952 0.0000 -21.9065 0.0000
# 2 30.1935 50.5948 -9.8274 0.0000 -3.1200 0.0000
# 3 20.2952 -9.8274 53.8040 0.0000 -3.8488 0.0000
# 4 0.0000 0.0000 0.0000 22.4772 0.0000 -0.2541
# 5 -21.9065 -3.1200 -3.8488 0.0000 20.2526 0.0000
# 6 0.0000 0.0000 0.0000 -0.2541 0.0000 37.3984
#
#
#
# Elastic Compliance Matrix: (Units=1/GPa)
#
#
# Indices 1 2 3 4 5 6 
#
# 1 0.015383 -0.009596 -0.006560 0.000000 0.013914 0.000000
# 2 -0.009596 0.026790 0.008177 0.000000 -0.004699 0.000000
# 3 -0.006560 0.008177 0.022442 0.000000 -0.001571 0.000000
# 4 0.000000 0.000000 0.000000 0.044493 0.000000 0.000302
# 5 0.013914 -0.004699 -0.001571 0.000000 0.063405 0.000000
# 6 0.000000 0.000000 0.000000 0.000302 0.000000 0.026741
#
#
# Mechanical properties :
#
#
# Convention : Reuss Voigt Hill
#
# Bulk Modulus (GPa) = 20.55245 33.11483 26.83364
# Shear Modulus (GPa) = 21.60476 27.76228 24.68352
#
# Velocity S-wave (km/s) = 3.15368 3.57495 3.37090
# Velocity P-wave (km/s) = 4.76678 5.68196 5.24437
#
# Compressibility (1/GPa) = 0.04865599
#
# Stress axis : x y z
#
# Youngs Moduli (GPa) = 65.00711 37.32723 44.56017
#
# Poissons Ratio (x) = 0.35820 0.29231
# Poissons Ratio (y) = 0.62382 -0.36436
# Poissons Ratio (z) = 0.42644 -0.30522
#
# Static dielectric constant tensor:
#      x y z
#    x 4.137340 0.000000 -0.031830 
#    y 0.000000 3.651060 0.000000 
#    z -0.031830 0.000000 3.931990 
# 
# 
# High freq. dielectric constant tensor:
#      x y z
#    x 1.865880 0.000000 -0.001920 
#    y 0.000000 1.832270 0.000000 
#    z -0.001920 0.000000 1.857640 
# 
# From -- ./inp_files/3142.got.cif
#   From: 2010.03.12/outbox.cif.g09.slc.cpg/sg14_2_cif.got.tgz:3142.got - 2010.03.31 13:35:05.
