data_PCOD8126172
_publ_section_title
;
Structure prediction by ZEFSAII (Michael W. Deem and Ramdas Pophale) SiO2 
 PCOD8126172
Probable space group: P 21/C
;
_chemical_formula_sum "Si O2"
_cell_formula_units_Z 32
_cell_length_a 11.014495
_cell_length_b 21.942587
_cell_length_c 10.657037
_cell_angle_alpha 90.000000
_cell_angle_beta 144.334839
_cell_angle_gamma 90.000000
_cell_volume 1501.732881
_symmetry_space_group_name_H-M "P 21/C"
_symmetry_group_IT_number 14
_symmetry_cell_setting 'monoclinic'
loop_
_space_group_symop_operation_xyz
x,y,z
-x,1/2+y,1/2-z
-x,-y,-z
x,1/2-y,1/2+z
loop_
_atom_site_type_symbol
_atom_site_label
_atom_site_fract_x
_atom_site_fract_y
_atom_site_fract_z
Si Si1 0.511316 0.591638 0.593300
Si Si2 0.245915 0.703845 0.318259
Si Si3 0.520979 0.386913 0.847060
Si Si4 0.892348 0.448899 0.271545
Si Si5 0.684674 0.973317 0.007417
Si Si6 0.836548 0.917737 0.774600
Si Si7 0.439312 0.757559 0.731895
Si Si8 0.196930 0.333933 0.981113
O O1 0.372387 0.641339 0.405153
O O2 0.351072 0.545934 0.527846
O O3 0.655257 0.552967 0.621224
O O4 0.668948 0.620938 0.822653
O O5 0.306713 0.732641 0.503308
O O6 0.305378 0.746240 0.248682
O O7 0.997874 0.693428 0.105749
O O8 0.482494 0.444447 0.726239
O O9 0.355585 0.384815 0.820085
O O10 0.499666 0.326517 0.747254
O O11 0.749462 0.395387 0.096826
O O12 0.771162 0.513575 0.178569
O O13 0.084254 0.457422 0.339781
O O14 0.963113 0.425127 0.467487
O O15 0.897417 0.873180 0.712338
O O16 0.653075 0.721054 0.935982
#
# Coordination Sequence:
#
# PCOD8126172 Si02
#       8
#     4   4   4   4   4   4   4   4
#     4  10  22  40  63  97 131 165 212 266 326 398
#     4  11  25  45  68  93 130 173 226 274 328 398
#     4  11  22  40  66  90 134 172 215 275 324 387
#     4  10  22  37  66 100 130 171 216 263 331 404
#     4  10  21  38  64  97 133 164 208 271 323 393
#     4  10  22  41  62  98 132 170 217 266 330 399
#     4  11  26  44  64  98 128 171 233 275 322 391
#     4  11  25  43  68  89 132 175 213 272 333 380
#
# _framework density 21.308716
#
# number of rings (size 3 to 8) (size 9 to 14) (size 15 to 20)
#    0.000    1.500    1.250    2.625    1.750   10.000 
#    0.000    3.125    0.000    0.000    0.000    0.000 
#    0.000    0.000    0.000    0.000    0.000    0.000 
#
# Total GULP energy -396896.169938 kJ/mol
# GULP energy per Si atom -12403.005311 kJ/mol
# Density = 2.126022 g / cm^3
# Si number density = 21.308716 Si / 1000 Ang^3
#
#
#
# Elastic Constant Matrix: (Units=GPa)
#
#
# Indices 1 2 3 4 5 6 
#
# 1 118.5587 48.2416 46.3288 0.0000 -0.3797 0.0000
# 2 48.2416 97.5562 49.2261 0.0000 -1.2677 0.0000
# 3 46.3288 49.2261 86.7670 0.0000 2.6357 0.0000
# 4 0.0000 0.0000 0.0000 29.8895 0.0000 -5.7684
# 5 -0.3797 -1.2677 2.6357 0.0000 24.5992 0.0000
# 6 0.0000 0.0000 0.0000 -5.7684 0.0000 36.9187
#
#
#
# Elastic Compliance Matrix: (Units=1/GPa)
#
#
# Indices 1 2 3 4 5 6 
#
# 1 0.011512 -0.003613 -0.004110 0.000000 0.000432 0.000000
# 2 -0.003613 0.015561 -0.006944 0.000000 0.001490 0.000000
# 3 -0.004110 -0.006944 0.017730 0.000000 -0.002321 0.000000
# 4 0.000000 0.000000 0.000000 0.034497 0.000000 0.005390
# 5 0.000432 0.001490 -0.002321 0.000000 0.040984 0.000000
# 6 0.000000 0.000000 0.000000 0.005390 0.000000 0.027929
#
#
# Mechanical properties :
#
#
# Convention : Reuss Voigt Hill
#
# Bulk Modulus (GPa) = 64.65047 65.60833 65.12940
# Shear Modulus (GPa) = 27.36681 28.88717 28.12699
#
# Velocity S-wave (km/s) = 3.58760 3.68591 3.63709
# Velocity P-wave (km/s) = 6.89688 6.99792 6.94758
#
# Compressibility (1/GPa) = 0.01546779
#
# Stress axis : x y z
#
# Youngs Moduli (GPa) = 86.86291 64.26499 56.40216
#
# Poissons Ratio (x) = 0.23221 0.23182
# Poissons Ratio (y) = 0.31387 0.39166
# Poissons Ratio (z) = 0.35702 0.44626
#
# Static dielectric constant tensor:
#      x y z
#    x 3.927340 0.000000 -0.060080 
#    y 0.000000 4.017010 0.000000 
#    z -0.060080 0.000000 3.641960 
# 
# 
# High freq. dielectric constant tensor:
#      x y z
#    x 1.845740 0.000000 -0.004000 
#    y 0.000000 1.842940 0.000000 
#    z -0.004000 0.000000 1.828900 
# 
# From -- ./inp_files/30822.got.cif
#   From: 2010.03.12/outbox.cif.g09.slc.cpg/sg14_16_cif.got.tgz:30822.got - 2010.03.31 13:35:05.
