data_PCOD8126910
_publ_section_title
;
Structure prediction by ZEFSAII (Michael W. Deem and Ramdas Pophale) SiO2 
 PCOD8126910
Probable space group: P 21/C
;
_chemical_formula_sum "Si O2"
_cell_formula_units_Z 16
_cell_length_a 7.398436
_cell_length_b 22.157314
_cell_length_c 4.797420
_cell_angle_alpha 90.000000
_cell_angle_beta 40.802024
_cell_angle_gamma 90.000000
_cell_volume 513.896160
_symmetry_space_group_name_H-M "P 21/C"
_symmetry_group_IT_number 14
_symmetry_cell_setting 'monoclinic'
loop_
_space_group_symop_operation_xyz
x,y,z
-x,1/2+y,1/2-z
-x,-y,-z
x,1/2-y,1/2+z
loop_
_atom_site_type_symbol
_atom_site_label
_atom_site_fract_x
_atom_site_fract_y
_atom_site_fract_z
Si Si1 0.616221 0.617304 0.724561
Si Si2 0.797860 0.491395 0.488531
Si Si3 0.798439 0.132483 0.753238
Si Si4 0.801010 0.791235 0.444114
O O1 0.551448 0.543246 0.798094
O O2 0.429308 0.651541 0.711931
O O3 0.612952 0.653074 0.032966
O O4 0.928911 0.617777 0.246338
O O5 0.684809 0.422496 0.582335
O O6 0.000000 0.500000 0.500000
O O7 0.000000 0.500000 0.000000
O O8 0.883250 0.184022 0.884534
O O9 0.748272 0.767910 0.821631
#
# Coordination Sequence:
#
# PCOD8126910 Si02
#       4
#     4   4   4   4
#     4  11  25  48  74 107 143 186 235 296 357 423
#     4  10  21  44  72 107 141 181 230 292 360 425
#     4  11  25  48  74 107 143 186 235 296 357 423
#     4  12  26  49  72 105 142 194 242 292 348 420
#
# _framework density 31.134699000000001
#
# number of rings (size 3 to 8) (size 9 to 14) (size 15 to 20)
#    0.000    1.000    5.000    0.750    0.000    4.000 
#    0.000    5.000    0.000    0.000    0.000    0.000 
#    0.000    0.000    0.000    0.000    0.000    0.000 
#
# Total GULP energy -198215.426925 kJ/mol
# GULP energy per Si atom -12388.464183 kJ/mol
# Density = 3.106384 g / cm^3
# Si number density = 31.134699 Si / 1000 Ang^3
#
#
#
# Elastic Constant Matrix: (Units=GPa)
#
#
# Indices 1 2 3 4 5 6 
#
# 1 281.2746 84.4851 39.7470 0.0000 6.5960 0.0000
# 2 84.4851 208.6628 18.6819 0.0000 -9.0935 0.0000
# 3 39.7470 18.6819 53.3213 0.0000 5.7658 0.0000
# 4 0.0000 0.0000 0.0000 48.1624 0.0000 -1.6713
# 5 6.5960 -9.0935 5.7658 0.0000 57.3173 0.0000
# 6 0.0000 0.0000 0.0000 -1.6713 0.0000 64.9416
#
#
#
# Elastic Compliance Matrix: (Units=1/GPa)
#
#
# Indices 1 2 3 4 5 6 
#
# 1 0.004418 -0.001569 -0.002691 0.000000 -0.000487 0.000000
# 2 -0.001569 0.005559 -0.000903 0.000000 0.001153 0.000000
# 3 -0.002691 -0.000903 0.021290 0.000000 -0.001975 0.000000
# 4 0.000000 0.000000 0.000000 0.020782 0.000000 0.000535
# 5 -0.000487 0.001153 -0.001975 0.000000 0.017884 0.000000
# 6 0.000000 0.000000 0.000000 0.000535 0.000000 0.015412
#
#
# Mechanical properties :
#
#
# Convention : Reuss Voigt Hill
#
# Bulk Modulus (GPa) = 47.75230 92.12074 69.93652
# Shear Modulus (GPa) = 48.70844 60.77390 54.74117
#
# Velocity S-wave (km/s) = 3.95959 4.42290 4.19764
# Velocity P-wave (km/s) = 6.02288 7.46557 6.78269
#
# Compressibility (1/GPa) = 0.02094140
#
# Stress axis : x y z
#
# Youngs Moduli (GPa) = 226.33345 179.89381 46.97033
#
# Poissons Ratio (x) = 0.28229 0.12640
# Poissons Ratio (y) = 0.35516 0.04240
# Poissons Ratio (z) = 0.60908 0.16238
#
# Static dielectric constant tensor:
#      x y z
#    x 5.625890 0.000000 0.112590 
#    y 0.000000 7.096150 0.000000 
#    z 0.112590 0.000000 6.452120 
# 
# 
# High freq. dielectric constant tensor:
#      x y z
#    x 2.287540 0.000000 0.013250 
#    y 0.000000 2.311420 0.000000 
#    z 0.013250 0.000000 2.348200 
# 
# From -- ./inp_files/312.got.cif
#   From: 2010.03.12/outbox.cif.g09.slc.cpg/sg14_1_cif.got.tgz:312.got - 2010.03.31 13:35:05.
