data_PCOD8126596
_publ_section_title
;
Structure prediction by ZEFSAII (Michael W. Deem and Ramdas Pophale) SiO2 
 PCOD8126596
Probable space group: P 21/C
;
_chemical_formula_sum "Si O2"
_cell_formula_units_Z 28
_cell_length_a 12.362730
_cell_length_b 18.422099
_cell_length_c 10.307309
_cell_angle_alpha 90.000000
_cell_angle_beta 30.776382
_cell_angle_gamma 90.000000
_cell_volume 1201.170504
_symmetry_space_group_name_H-M "P 21/C"
_symmetry_group_IT_number 14
_symmetry_cell_setting 'monoclinic'
loop_
_space_group_symop_operation_xyz
x,y,z
-x,1/2+y,1/2-z
-x,-y,-z
x,1/2-y,1/2+z
loop_
_atom_site_type_symbol
_atom_site_label
_atom_site_fract_x
_atom_site_fract_y
_atom_site_fract_z
Si Si1 0.777527 0.338518 0.637056
Si Si2 0.696816 0.192216 0.630849
Si Si3 0.929937 0.701352 0.435651
Si Si4 0.908066 0.867475 0.407054
Si Si5 0.415733 0.017036 0.283641
Si Si6 0.468505 0.393867 0.153789
Si Si7 0.767968 0.424713 0.239072
O O1 0.639856 0.276334 0.708738
O O2 0.924901 0.296981 0.587273
O O3 0.912083 0.378268 0.387727
O O4 0.615868 0.393086 0.873907
O O5 0.531403 0.163424 0.698416
O O6 0.671627 0.153260 0.796807
O O7 0.935954 0.181024 0.330324
O O8 0.845046 0.784054 0.504294
O O9 0.766077 0.635538 0.633637
O O10 0.698300 0.906698 0.567510
O O11 0.998590 0.910069 0.441816
O O12 0.502387 0.975676 0.322197
O O13 0.237550 0.969338 0.391349
O O14 0.623600 0.031992 0.987140
#
# Coordination Sequence:
#
# PCOD8126596 Si02
#       7
#     4   4   4   4   4   4   4
#     4  10  22  40  61  92 124 165 210 262 312 366
#     4   9  20  38  62  90 121 158 208 263 313 360
#     4  10  22  39  62  92 122 164 213 260 317 366
#     4  11  23  39  65  92 124 168 215 256 312 382
#     4  10  24  40  63  98 124 169 206 254 321 373
#     4  10  23  41  62  89 131 163 206 262 316 372
#     4  10  21  41  63  91 128 158 208 259 308 372
#
# _framework density 23.310593999999998
#
# number of rings (size 3 to 8) (size 9 to 14) (size 15 to 20)
#    0.000    2.000    1.429    0.429    2.000   10.857 
#    0.000    1.429    0.000    0.000    0.000    0.000 
#    0.000    0.000    0.000    0.000    0.000    0.000 
#
# Total GULP energy -346971.527254 kJ/mol
# GULP energy per Si atom -12391.840259 kJ/mol
# Density = 2.325754 g / cm^3
# Si number density = 23.310594 Si / 1000 Ang^3
#
#
#
# Elastic Constant Matrix: (Units=GPa)
#
#
# Indices 1 2 3 4 5 6 
#
# 1 43.2383 12.1809 -2.7388 0.0000 2.1404 0.0000
# 2 12.1809 72.5051 2.5043 0.0000 -8.2314 0.0000
# 3 -2.7388 2.5043 29.1639 0.0000 4.8297 0.0000
# 4 0.0000 0.0000 0.0000 38.3047 0.0000 -7.6044
# 5 2.1404 -8.2314 4.8297 0.0000 25.0966 0.0000
# 6 0.0000 0.0000 0.0000 -7.6044 0.0000 33.2600
#
#
#
# Elastic Compliance Matrix: (Units=1/GPa)
#
#
# Indices 1 2 3 4 5 6 
#
# 1 0.024917 -0.004802 0.003476 0.000000 -0.004369 0.000000
# 2 -0.004802 0.015374 -0.002762 0.000000 0.005983 0.000000
# 3 0.003476 -0.002762 0.036206 0.000000 -0.008170 0.000000
# 4 0.000000 0.000000 0.000000 0.027348 0.000000 0.006253
# 5 -0.004369 0.005983 -0.008170 0.000000 0.043754 0.000000
# 6 0.000000 0.000000 0.000000 0.006253 0.000000 0.031496
#
#
# Mechanical properties :
#
#
# Convention : Reuss Voigt Hill
#
# Bulk Modulus (GPa) = 14.63709 18.75556 16.69633
# Shear Modulus (GPa) = 23.80468 28.19631 26.00050
#
# Velocity S-wave (km/s) = 3.19908 3.48169 3.34337
# Velocity P-wave (km/s) = 4.46523 4.92202 4.69918
#
# Compressibility (1/GPa) = 0.06831959
#
# Stress axis : x y z
#
# Youngs Moduli (GPa) = 40.13329 65.04657 27.62010
#
# Poissons Ratio (x) = 0.31236 -0.09600
# Poissons Ratio (y) = 0.19273 0.07629
# Poissons Ratio (z) = -0.13950 0.17966
#
# Static dielectric constant tensor:
#      x y z
#    x 4.222390 0.000000 0.168960 
#    y 0.000000 4.194070 0.000000 
#    z 0.168960 0.000000 3.893210 
# 
# 
# High freq. dielectric constant tensor:
#      x y z
#    x 1.923080 0.000000 0.009610 
#    y 0.000000 1.925300 0.000000 
#    z 0.009610 0.000000 1.899150 
# 
# From -- ./inp_files/32895.got.cif
#   From: 2010.03.12/outbox.cif.g09.slc.cpg/sg14_17_cif.got.tgz:32895.got - 2010.03.31 13:35:05.
