data_PCOD8126824
_publ_section_title
;
Structure prediction by ZEFSAII (Michael W. Deem and Ramdas Pophale) SiO2 
 PCOD8126824
Probable space group: P 21/C
;
_chemical_formula_sum "Si O2"
_cell_formula_units_Z 28
_cell_length_a 10.682401
_cell_length_b 9.189513
_cell_length_c 13.884320
_cell_angle_alpha 90.000000
_cell_angle_beta 100.675212
_cell_angle_gamma 90.000000
_cell_volume 1339.380166
_symmetry_space_group_name_H-M "P 21/C"
_symmetry_group_IT_number 14
_symmetry_cell_setting 'monoclinic'
loop_
_space_group_symop_operation_xyz
x,y,z
-x,1/2+y,1/2-z
-x,-y,-z
x,1/2-y,1/2+z
loop_
_atom_site_type_symbol
_atom_site_label
_atom_site_fract_x
_atom_site_fract_y
_atom_site_fract_z
Si Si1 0.201757 0.088567 0.756427
Si Si2 0.913010 0.405023 0.254959
Si Si3 0.753011 0.321761 0.620535
Si Si4 0.461207 0.902007 0.405235
Si Si5 0.732845 0.696582 0.927422
Si Si6 0.738949 0.622501 0.148787
Si Si7 0.146136 0.516032 0.548255
O O1 0.187332 0.100907 0.638684
O O2 0.287355 0.221808 0.807840
O O3 0.064525 0.096218 0.787739
O O4 0.272962 0.943119 0.801172
O O5 0.866642 0.278240 0.177271
O O6 0.874248 0.561037 0.204513
O O7 0.848487 0.393573 0.351272
O O8 0.625578 0.234487 0.578720
O O9 0.787538 0.390759 0.523951
O O10 0.585430 0.830699 0.373444
O O11 0.500000 0.000000 0.500000
O O12 0.373239 0.012567 0.329753
O O13 0.778558 0.863362 0.929286
O O14 0.751011 0.631393 0.035449
O O15 0.000000 0.500000 0.500000
#
# Coordination Sequence:
#
# PCOD8126824 Si02
#       7
#     4   4   4   4   4   4   4
#     4  12  22  38  66  99 127 168 224 262 328 394
#     4  11  23  40  65  97 139 167 208 277 327 387
#     4  11  24  40  67 102 128 174 222 267 323 396
#     4   9  23  45  64  92 133 170 219 273 324 375
#     4  11  23  41  68  92 129 182 213 267 332 383
#     4  10  21  43  63  91 136 165 213 277 318 380
#     4  12  22  42  69  98 134 171 214 267 337 391
#
# _framework density 20.905194999999999
#
# number of rings (size 3 to 8) (size 9 to 14) (size 15 to 20)
#    0.000    1.143    4.286    1.714    0.000    5.714 
#    0.000    0.000    0.000    0.000    0.000    0.000 
#    0.000    0.000    0.000    0.000    0.000    0.000 
#
# Total GULP energy -347052.535480 kJ/mol
# GULP energy per Si atom -12394.733410 kJ/mol
# Density = 2.085761 g / cm^3
# Si number density = 20.905195 Si / 1000 Ang^3
#
#
#
# Elastic Constant Matrix: (Units=GPa)
#
#
# Indices 1 2 3 4 5 6 
#
# 1 95.6117 49.8179 20.4658 0.0000 6.3075 0.0000
# 2 49.8179 125.2513 31.7971 0.0000 6.1677 0.0000
# 3 20.4658 31.7971 110.9188 0.0000 -11.6601 0.0000
# 4 0.0000 0.0000 0.0000 46.3713 0.0000 6.0349
# 5 6.3075 6.1677 -11.6601 0.0000 26.6602 0.0000
# 6 0.0000 0.0000 0.0000 6.0349 0.0000 31.9277
#
#
#
# Elastic Compliance Matrix: (Units=1/GPa)
#
#
# Indices 1 2 3 4 5 6 
#
# 1 0.013469 -0.004880 -0.001365 0.000000 -0.002655 0.000000
# 2 -0.004880 0.010651 -0.002401 0.000000 -0.002359 0.000000
# 3 -0.001365 -0.002401 0.010532 0.000000 0.005485 0.000000
# 4 0.000000 0.000000 0.000000 0.022109 0.000000 -0.004179
# 5 -0.002655 -0.002359 0.005485 0.000000 0.041082 0.000000
# 6 0.000000 0.000000 0.000000 -0.004179 0.000000 0.032111
#
#
# Mechanical properties :
#
#
# Convention : Reuss Voigt Hill
#
# Bulk Modulus (GPa) = 57.60433 59.54925 58.57679
# Shear Modulus (GPa) = 32.67291 36.30527 34.48909
#
# Velocity S-wave (km/s) = 3.95765 4.17185 4.06616
# Velocity P-wave (km/s) = 6.96411 7.19396 7.07997
#
# Compressibility (1/GPa) = 0.01735980
#
# Stress axis : x y z
#
# Youngs Moduli (GPa) = 74.24470 93.89184 94.94546
#
# Poissons Ratio (x) = 0.45818 0.12963
# Poissons Ratio (y) = 0.36230 0.22795
# Poissons Ratio (z) = 0.10137 0.22542
#
# Static dielectric constant tensor:
#      x y z
#    x 4.112640 0.000000 0.124130 
#    y 0.000000 4.040250 0.000000 
#    z 0.124130 0.000000 3.929270 
# 
# 
# High freq. dielectric constant tensor:
#      x y z
#    x 1.808770 0.000000 0.007970 
#    y 0.000000 1.829750 0.000000 
#    z 0.007970 0.000000 1.824140 
# 
# From -- ./inp_files/43175.got.cif
#   From: 2010.03.12/outbox.cif.g09.slc.cpg/sg14_22_cif.got.tgz:43175.got - 2010.03.31 13:35:05.
