data_PCOD8126536
_publ_section_title
;
Structure prediction by ZEFSAII (Michael W. Deem and Ramdas Pophale) SiO2 
 PCOD8126536
Probable space group: P 21/C
;
_chemical_formula_sum "Si O2"
_cell_formula_units_Z 28
_cell_length_a 9.448277
_cell_length_b 11.071247
_cell_length_c 27.415135
_cell_angle_alpha 90.000000
_cell_angle_beta 152.184700
_cell_angle_gamma 90.000000
_cell_volume 1338.152275
_symmetry_space_group_name_H-M "P 21/C"
_symmetry_group_IT_number 14
_symmetry_cell_setting 'monoclinic'
loop_
_space_group_symop_operation_xyz
x,y,z
-x,1/2+y,1/2-z
-x,-y,-z
x,1/2-y,1/2+z
loop_
_atom_site_type_symbol
_atom_site_label
_atom_site_fract_x
_atom_site_fract_y
_atom_site_fract_z
Si Si1 0.267789 0.909745 0.996094
Si Si2 0.068893 0.787588 0.843245
Si Si3 0.091848 0.832285 0.669280
Si Si4 0.235327 0.267402 0.604414
Si Si5 0.322257 0.187978 0.021700
Si Si6 0.944374 0.412267 0.082727
Si Si7 0.318443 0.309375 0.865712
O O1 0.134726 0.898275 0.900533
O O2 0.022080 0.864129 0.960170
O O3 0.569928 0.827769 0.091482
O O4 0.359260 0.044413 0.037229
O O5 0.365030 0.755125 0.901951
O O6 0.984383 0.667949 0.847773
O O7 0.792448 0.824243 0.723759
O O8 0.449425 0.816926 0.779205
O O9 0.945990 0.718014 0.597557
O O10 0.960316 0.841575 0.683740
O O11 0.017085 0.950169 0.615030
O O12 0.244092 0.251821 0.549290
O O13 0.156594 0.137170 0.603675
O O14 0.592280 0.401591 0.959773
#
# Coordination Sequence:
#
# PCOD8126536 Si02
#       7
#     4   4   4   4   4   4   4
#     4  10  24  44  64  98 133 168 214 273 315 391
#     4  10  21  40  68  96 128 169 217 262 324 384
#     4  12  24  42  68  95 133 168 216 274 319 387
#     4  10  25  43  64  96 126 178 215 253 341 381
#     4  12  23  42  66  99 130 164 222 268 316 388
#     4  10  25  46  62  97 132 170 216 269 321 386
#     4  10  21  41  68  96 126 172 215 266 328 383
#
# _framework density 20.924375000000001
#
# number of rings (size 3 to 8) (size 9 to 14) (size 15 to 20)
#    0.000    1.714    4.286    1.286    4.000    5.143 
#    2.571    0.000    0.000    0.000    0.000    0.000 
#    0.000    0.000    0.000    0.000    0.000    0.000 
#
# Total GULP energy -347301.539973 kJ/mol
# GULP energy per Si atom -12403.626428 kJ/mol
# Density = 2.087675 g / cm^3
# Si number density = 20.924375 Si / 1000 Ang^3
#
#
#
# Elastic Constant Matrix: (Units=GPa)
#
#
# Indices 1 2 3 4 5 6 
#
# 1 127.8459 12.5029 19.1706 0.0000 -3.4694 0.0000
# 2 12.5029 65.3334 1.4838 0.0000 7.1223 0.0000
# 3 19.1706 1.4838 78.5869 0.0000 -11.6914 0.0000
# 4 0.0000 0.0000 0.0000 13.7046 0.0000 -0.0383
# 5 -3.4694 7.1223 -11.6914 0.0000 42.7656 0.0000
# 6 0.0000 0.0000 0.0000 -0.0383 0.0000 17.7339
#
#
#
# Elastic Compliance Matrix: (Units=1/GPa)
#
#
# Indices 1 2 3 4 5 6 
#
# 1 0.008277 -0.001585 -0.001928 0.000000 0.000408 0.000000
# 2 -0.001585 0.015931 -0.000342 0.000000 -0.002875 0.000000
# 3 -0.001928 -0.000342 0.013746 0.000000 0.003658 0.000000
# 4 0.000000 0.000000 0.000000 0.072969 0.000000 0.000158
# 5 0.000408 -0.002875 0.003658 0.000000 0.024895 0.000000
# 6 0.000000 0.000000 0.000000 0.000158 0.000000 0.056390
#
#
# Mechanical properties :
#
#
# Convention : Reuss Voigt Hill
#
# Bulk Modulus (GPa) = 33.06510 37.56453 35.31481
# Shear Modulus (GPa) = 23.80965 30.74807 27.27886
#
# Velocity S-wave (km/s) = 3.37692 3.83755 3.61458
# Velocity P-wave (km/s) = 5.57147 6.13410 5.85954
#
# Compressibility (1/GPa) = 0.03024337
#
# Stress axis : x y z
#
# Youngs Moduli (GPa) = 120.81457 62.77236 72.74880
#
# Poissons Ratio (x) = 0.09948 0.14030
# Poissons Ratio (y) = 0.19146 0.02488
# Poissons Ratio (z) = 0.23299 0.02146
#
# Static dielectric constant tensor:
#      x y z
#    x 3.971390 0.000000 -0.020220 
#    y 0.000000 3.532140 0.000000 
#    z -0.020220 0.000000 3.765890 
# 
# 
# High freq. dielectric constant tensor:
#      x y z
#    x 1.834200 0.000000 -0.001360 
#    y 0.000000 1.801280 0.000000 
#    z -0.001360 0.000000 1.821230 
# 
# From -- ./inp_files/76659.got.cif
#   From: 2010.03.12/outbox.cif.g09.slc.cpg/sg14_39_cif.got.tgz:76659.got - 2010.03.31 13:35:05.
