data_PCOD8127339
_publ_section_title
;
Structure prediction by ZEFSAII (Michael W. Deem and Ramdas Pophale) SiO2 
 PCOD8127339
Probable space group: P 21/C
;
_chemical_formula_sum "Si O2"
_cell_formula_units_Z 32
_cell_length_a 8.981462
_cell_length_b 14.551218
_cell_length_c 23.196321
_cell_angle_alpha 90.000000
_cell_angle_beta 150.055698
_cell_angle_gamma 90.000000
_cell_volume 1513.224741
_symmetry_space_group_name_H-M "P 21/C"
_symmetry_group_IT_number 14
_symmetry_cell_setting 'monoclinic'
loop_
_space_group_symop_operation_xyz
x,y,z
-x,1/2+y,1/2-z
-x,-y,-z
x,1/2-y,1/2+z
loop_
_atom_site_type_symbol
_atom_site_label
_atom_site_fract_x
_atom_site_fract_y
_atom_site_fract_z
Si Si1 0.898496 0.182287 0.828885
Si Si2 0.511984 0.772787 0.514757
Si Si3 0.471275 0.893713 0.394616
Si Si4 0.953348 0.378372 0.604954
Si Si5 0.499300 0.139918 0.206931
Si Si6 0.907402 0.091740 0.438037
Si Si7 0.160456 0.452671 0.501289
Si Si8 0.416015 0.101703 0.357176
O O1 0.785494 0.123062 0.737539
O O2 0.666853 0.263270 0.762632
O O3 0.231180 0.213748 0.927629
O O4 0.925371 0.118294 0.894211
O O5 0.382225 0.844042 0.424112
O O6 0.253485 0.707432 0.450701
O O7 0.653312 0.828595 0.614941
O O8 0.791919 0.853457 0.478843
O O9 0.500364 0.003127 0.413181
O O10 0.759257 0.466947 0.518000
O O11 0.182170 0.347163 0.631799
O O12 0.122590 0.407737 0.719822
O O13 0.711219 0.070806 0.314632
O O14 0.450984 0.099766 0.125680
O O15 0.691166 0.143484 0.411195
O O16 0.000000 0.000000 0.500000
O O17 0.000000 0.500000 0.500000
#
# Coordination Sequence:
#
# PCOD8127339 Si02
#       8
#     4   4   4   4   4   4   4   4
#     4  12  24  42  68  97 135 179 220 281 336 394
#     4  12  25  41  65 104 134 181 226 277 343 402
#     4  11  22  43  66  95 139 179 223 280 339 402
#     4  10  23  45  66  94 141 175 223 281 341 401
#     4  10  22  41  70 102 131 174 230 277 324 414
#     4   9  20  39  68  96 128 173 217 278 335 385
#     4  10  23  44  69 102 136 178 229 277 338 407
#     4  10  22  43  67  94 138 176 223 283 338 399
#
# _framework density 21.146892000000001
#
# number of rings (size 3 to 8) (size 9 to 14) (size 15 to 20)
#    0.000    1.500    2.500    1.875    3.500    3.500 
#    2.250    2.500    0.000    0.000    0.000    0.000 
#    0.000    0.000    0.000    0.000    0.000    0.000 
#
# Total GULP energy -396676.189941 kJ/mol
# GULP energy per Si atom -12396.130936 kJ/mol
# Density = 2.109876 g / cm^3
# Si number density = 21.146892 Si / 1000 Ang^3
#
#
#
# Elastic Constant Matrix: (Units=GPa)
#
#
# Indices 1 2 3 4 5 6 
#
# 1 84.0947 54.3890 51.1109 0.0000 -18.6296 0.0000
# 2 54.3890 109.6844 54.1141 0.0000 -10.5970 0.0000
# 3 51.1109 54.1141 111.0950 0.0000 -27.3247 0.0000
# 4 0.0000 0.0000 0.0000 41.2488 0.0000 -4.3105
# 5 -18.6296 -10.5970 -27.3247 0.0000 41.0280 0.0000
# 6 0.0000 0.0000 0.0000 -4.3105 0.0000 36.2539
#
#
#
# Elastic Compliance Matrix: (Units=1/GPa)
#
#
# Indices 1 2 3 4 5 6 
#
# 1 0.020533 -0.007405 -0.004804 0.000000 0.004212 0.000000
# 2 -0.007405 0.014702 -0.004362 0.000000 -0.002470 0.000000
# 3 -0.004804 -0.004362 0.014976 0.000000 0.006666 0.000000
# 4 0.000000 0.000000 0.000000 0.024548 0.000000 0.002919
# 5 0.004212 -0.002470 0.006666 0.000000 0.030087 0.000000
# 6 0.000000 0.000000 0.000000 0.002919 0.000000 0.027930
#
#
# Mechanical properties :
#
#
# Convention : Reuss Voigt Hill
#
# Bulk Modulus (GPa) = 58.58468 69.34466 63.96467
# Shear Modulus (GPa) = 29.13596 33.39014 31.26305
#
# Velocity S-wave (km/s) = 3.71589 3.97793 3.84914
# Velocity P-wave (km/s) = 6.79516 7.34586 7.07587
#
# Compressibility (1/GPa) = 0.01706931
#
# Stress axis : x y z
#
# Youngs Moduli (GPa) = 48.70176 68.01583 66.77412
#
# Poissons Ratio (x) = 0.50364 0.32077
# Poissons Ratio (y) = 0.36063 0.29130
# Poissons Ratio (z) = 0.23396 0.29671
#
# Static dielectric constant tensor:
#      x y z
#    x 4.007980 0.000000 -0.154560 
#    y 0.000000 3.862670 0.000000 
#    z -0.154560 0.000000 4.468900 
# 
# 
# High freq. dielectric constant tensor:
#      x y z
#    x 1.822330 0.000000 -0.017920 
#    y 0.000000 1.823970 0.000000 
#    z -0.017920 0.000000 1.838540 
# 
# From -- ./inp_files/72498.got.cif
#   From: 2010.03.12/outbox.cif.g09.slc.cpg/sg14_37_cif.got.tgz:72498.got - 2010.03.31 13:35:05.
