data_PCOD8127972
_publ_section_title
;
Structure prediction by ZEFSAII (Michael W. Deem and Ramdas Pophale) SiO2 
 PCOD8127972
Probable space group: P 21/C
;
_chemical_formula_sum "Si O2"
_cell_formula_units_Z 16
_cell_length_a 13.271206
_cell_length_b 4.910697
_cell_length_c 14.376352
_cell_angle_alpha 90.000000
_cell_angle_beta 49.790624
_cell_angle_gamma 90.000000
_cell_volume 715.516337
_symmetry_space_group_name_H-M "P 21/C"
_symmetry_group_IT_number 14
_symmetry_cell_setting 'monoclinic'
loop_
_space_group_symop_operation_xyz
x,y,z
-x,1/2+y,1/2-z
-x,-y,-z
x,1/2-y,1/2+z
loop_
_atom_site_type_symbol
_atom_site_label
_atom_site_fract_x
_atom_site_fract_y
_atom_site_fract_z
Si Si1 0.413567 0.514425 0.707886
Si Si2 0.675180 0.514410 0.846894
Si Si3 0.342227 0.665554 0.945989
Si Si4 0.088207 0.798331 0.697735
O O1 0.398345 0.824691 0.684443
O O2 0.357001 0.478102 0.846001
O O3 0.567672 0.434614 0.617329
O O4 0.331738 0.322481 0.685865
O O5 0.828589 0.419840 0.764491
O O6 0.608321 0.494305 0.989834
O O7 0.188872 0.751368 0.050952
O O8 0.024497 0.512144 0.764375
#
# Coordination Sequence:
#
# PCOD8127972 Si02
#       4
#     4   4   4   4
#     4  12  22  44  64 108 121 172 215 267 346 371
#     4  10  25  40  70  93 136 168 216 267 328 389
#     4  10  26  40  72  94 142 161 215 283 313 396
#     4  10  23  44  65  91 132 179 214 262 321 378
#
# _framework density 22.361476
#
# number of rings (size 3 to 8) (size 9 to 14) (size 15 to 20)
#    1.500    0.000    0.000    4.500    0.000   10.000 
#    0.000    7.500    0.000    0.000    0.000    0.000 
#    0.000    0.000    0.000    0.000    0.000    0.000 
#
# Total GULP energy -198352.077813 kJ/mol
# GULP energy per Si atom -12397.004863 kJ/mol
# Density = 2.231058 g / cm^3
# Si number density = 22.361476 Si / 1000 Ang^3
#
#
#
# Elastic Constant Matrix: (Units=GPa)
#
#
# Indices 1 2 3 4 5 6 
#
# 1 68.8397 10.3555 59.6126 0.0000 5.9280 0.0000
# 2 10.3555 50.3270 13.1499 0.0000 -5.8500 0.0000
# 3 59.6126 13.1499 147.4886 0.0000 -7.0563 0.0000
# 4 0.0000 0.0000 0.0000 21.2357 0.0000 -0.2101
# 5 5.9280 -5.8500 -7.0563 0.0000 49.0426 0.0000
# 6 0.0000 0.0000 0.0000 -0.2101 0.0000 25.7682
#
#
#
# Elastic Compliance Matrix: (Units=1/GPa)
#
#
# Indices 1 2 3 4 5 6 
#
# 1 0.023570 -0.002901 -0.009486 0.000000 -0.004560 0.000000
# 2 -0.002901 0.020935 -0.000561 0.000000 0.002767 0.000000
# 3 -0.009486 -0.000561 0.010790 0.000000 0.002632 0.000000
# 4 0.000000 0.000000 0.000000 0.047094 0.000000 0.000384
# 5 -0.004560 0.002767 0.002632 0.000000 0.021650 0.000000
# 6 0.000000 0.000000 0.000000 0.000384 0.000000 0.038811
#
#
# Mechanical properties :
#
#
# Convention : Reuss Voigt Hill
#
# Bulk Modulus (GPa) = 34.01599 48.09902 41.05751
# Shear Modulus (GPa) = 25.18267 31.44511 28.31389
#
# Velocity S-wave (km/s) = 3.35948 3.75403 3.56222
# Velocity P-wave (km/s) = 5.50391 6.35191 5.94305
#
# Compressibility (1/GPa) = 0.02939794
#
# Stress axis : x y z
#
# Youngs Moduli (GPa) = 42.42612 47.76595 92.67516
#
# Poissons Ratio (x) = 0.13859 0.87914
# Poissons Ratio (y) = 0.12309 0.05204
# Poissons Ratio (z) = 0.40247 0.02682
#
# Static dielectric constant tensor:
#      x y z
#    x 3.935850 0.000000 -0.033850 
#    y 0.000000 3.640910 0.000000 
#    z -0.033850 0.000000 3.957900 
# 
# 
# High freq. dielectric constant tensor:
#      x y z
#    x 1.878540 0.000000 -0.005720 
#    y 0.000000 1.878670 0.000000 
#    z -0.005720 0.000000 1.870560 
# 
# From -- ./inp_files/30905.got.cif
#   From: 2010.03.12/outbox.cif.g09.slc.cpg/sg14_16_cif.got.tgz:30905.got - 2010.03.31 13:35:05.
