data_PCOD8127463
_publ_section_title
;
Structure prediction by ZEFSAII (Michael W. Deem and Ramdas Pophale) SiO2 
 PCOD8127463
Probable space group: P 21/C
;
_chemical_formula_sum "Si O2"
_cell_formula_units_Z 20
_cell_length_a 5.228809
_cell_length_b 10.826727
_cell_length_c 13.972438
_cell_angle_alpha 90.000000
_cell_angle_beta 89.156077
_cell_angle_gamma 90.000000
_cell_volume 790.906315
_symmetry_space_group_name_H-M "P 21/C"
_symmetry_group_IT_number 14
_symmetry_cell_setting 'monoclinic'
loop_
_space_group_symop_operation_xyz
x,y,z
-x,1/2+y,1/2-z
-x,-y,-z
x,1/2-y,1/2+z
loop_
_atom_site_type_symbol
_atom_site_label
_atom_site_fract_x
_atom_site_fract_y
_atom_site_fract_z
Si Si1 0.561585 0.195590 0.455104
Si Si2 0.799994 0.625669 0.792138
Si Si3 0.284916 0.524837 0.884233
Si Si4 0.910952 0.118586 0.892462
Si Si5 0.791970 0.647261 0.420828
O O1 0.731446 0.097987 0.514861
O O2 0.722859 0.265534 0.371603
O O3 0.461153 0.302525 0.526564
O O4 0.332182 0.120109 0.405800
O O5 0.014874 0.532887 0.832774
O O6 0.840068 0.627387 0.677216
O O7 0.517387 0.578162 0.818199
O O8 0.862222 0.760697 0.834183
O O9 0.757160 0.989926 0.877475
O O10 0.980894 0.137504 0.003324
#
# Coordination Sequence:
#
# PCOD8127463 Si02
#       5
#     4   4   4   4   4
#     4  10  22  42  71  92 136 180 226 286 342 401
#     4  11  25  45  67 105 137 183 229 286 335 415
#     4  10  24  43  70  99 135 174 235 281 338 407
#     4  11  24  42  69  98 138 189 219 292 342 409
#     4  10  24  44  66 100 140 176 236 274 353 409
#
# _framework density 25.287444000000001
#
# number of rings (size 3 to 8) (size 9 to 14) (size 15 to 20)
#    0.000    1.600    2.000    0.600    8.400    2.400 
#    3.600    0.000    0.000    0.000    0.000    0.000 
#    0.000    0.000    0.000    0.000    0.000    0.000 
#
# Total GULP energy -247999.111663 kJ/mol
# GULP energy per Si atom -12399.955583 kJ/mol
# Density = 2.522989 g / cm^3
# Si number density = 25.287444 Si / 1000 Ang^3
#
#
#
# Elastic Constant Matrix: (Units=GPa)
#
#
# Indices 1 2 3 4 5 6 
#
# 1 41.9203 -1.4581 -7.6328 0.0000 -8.1878 0.0000
# 2 -1.4581 106.9592 43.7021 0.0000 -14.5414 0.0000
# 3 -7.6328 43.7021 81.9497 0.0000 -27.1605 0.0000
# 4 0.0000 0.0000 0.0000 25.1980 0.0000 -8.5785
# 5 -8.1878 -14.5414 -27.1605 0.0000 34.0943 0.0000
# 6 0.0000 0.0000 0.0000 -8.5785 0.0000 29.7509
#
#
#
# Elastic Compliance Matrix: (Units=1/GPa)
#
#
# Indices 1 2 3 4 5 6 
#
# 1 0.027359 -0.000846 0.006872 0.000000 0.011683 0.000000
# 2 -0.000846 0.011980 -0.006578 0.000000 -0.000334 0.000000
# 3 0.006872 -0.006578 0.021696 0.000000 0.016128 0.000000
# 4 0.000000 0.000000 0.000000 0.044006 0.000000 0.012689
# 5 0.011683 -0.000334 0.016128 0.000000 0.044842 0.000000
# 6 0.000000 0.000000 0.000000 0.012689 0.000000 0.037271
#
#
# Mechanical properties :
#
#
# Convention : Reuss Voigt Hill
#
# Bulk Modulus (GPa) = 16.68645 33.33906 25.01276
# Shear Modulus (GPa) = 24.01126 30.88984 27.45055
#
# Velocity S-wave (km/s) = 3.08479 3.49886 3.29833
# Velocity P-wave (km/s) = 4.39329 5.43464 4.94147
#
# Compressibility (1/GPa) = 0.05992886
#
# Stress axis : x y z
#
# Youngs Moduli (GPa) = 36.55167 83.47087 46.09122
#
# Poissons Ratio (x) = 0.07064 -0.31673
# Poissons Ratio (y) = 0.03094 0.30321
# Poissons Ratio (z) = -0.25117 0.54910
#
# Static dielectric constant tensor:
#      x y z
#    x 4.092720 0.000000 -0.144820 
#    y 0.000000 4.848970 0.000000 
#    z -0.144820 0.000000 4.499940 
# 
# 
# High freq. dielectric constant tensor:
#      x y z
#    x 1.991070 0.000000 -0.011730 
#    y 0.000000 2.022570 0.000000 
#    z -0.011730 0.000000 1.996670 
# 
# From -- ./inp_files/36810.got.cif
#   From: 2010.03.12/outbox.cif.g09.slc.cpg/sg14_19_cif.got.tgz:36810.got - 2010.03.31 13:35:05.
