data_PCOD8127934
_publ_section_title
;
Structure prediction by ZEFSAII (Michael W. Deem and Ramdas Pophale) SiO2 
 PCOD8127934
Probable space group: P 21/C
;
_chemical_formula_sum "Si O2"
_cell_formula_units_Z 24
_cell_length_a 15.448613
_cell_length_b 12.068624
_cell_length_c 10.033936
_cell_angle_alpha 90.000000
_cell_angle_beta 33.508618
_cell_angle_gamma 90.000000
_cell_volume 1032.777460
_symmetry_space_group_name_H-M "P 21/C"
_symmetry_group_IT_number 14
_symmetry_cell_setting 'monoclinic'
loop_
_space_group_symop_operation_xyz
x,y,z
-x,1/2+y,1/2-z
-x,-y,-z
x,1/2-y,1/2+z
loop_
_atom_site_type_symbol
_atom_site_label
_atom_site_fract_x
_atom_site_fract_y
_atom_site_fract_z
Si Si1 0.875765 0.715522 0.033688
Si Si2 0.233583 0.803716 0.363017
Si Si3 0.621256 0.311046 0.049849
Si Si4 0.073928 0.619110 0.431985
Si Si5 0.003858 0.993900 0.718670
Si Si6 0.267467 0.161969 0.010195
O O1 0.757419 0.700762 0.307630
O O2 0.984261 0.607627 0.878678
O O3 0.774101 0.734994 0.032169
O O4 0.982307 0.825664 0.923234
O O5 0.341530 0.770344 0.349004
O O6 0.087588 0.717287 0.528669
O O7 0.155634 0.923889 0.481181
O O8 0.348983 0.795550 0.085845
O O9 0.450593 0.365148 0.256252
O O10 0.747385 0.406650 0.844267
O O11 0.007532 0.483273 0.379095
O O12 0.836019 0.945032 0.893655
#
# Coordination Sequence:
#
# PCOD8127934 Si02
#       6
#     4   4   4   4   4   4
#     4  12  24  47  67 106 130 184 230 293 329 403
#     4  10  23  44  69  95 142 179 229 274 344 404
#     4  10  23  45  62 100 141 183 210 294 343 392
#     4  10  23  43  69  95 140 172 229 287 335 392
#     4  12  23  43  75 102 124 191 237 276 333 419
#     4  12  25  42  73  97 143 174 233 280 346 405
#
# _framework density 23.238306000000001
#
# number of rings (size 3 to 8) (size 9 to 14) (size 15 to 20)
#    1.000    0.000    3.333    3.500    0.000    3.333 
#    0.000    6.667    0.000    0.000    0.000    0.000 
#    0.000    0.000    0.000    0.000    0.000    0.000 
#
# Total GULP energy -297555.081550 kJ/mol
# GULP energy per Si atom -12398.128398 kJ/mol
# Density = 2.318541 g / cm^3
# Si number density = 23.238306 Si / 1000 Ang^3
#
#
#
# Elastic Constant Matrix: (Units=GPa)
#
#
# Indices 1 2 3 4 5 6 
#
# 1 116.6208 32.7129 52.3087 0.0000 8.9540 0.0000
# 2 32.7129 106.9395 54.1290 0.0000 -1.7621 0.0000
# 3 52.3087 54.1290 150.4774 0.0000 -13.6369 0.0000
# 4 0.0000 0.0000 0.0000 35.6639 0.0000 5.8036
# 5 8.9540 -1.7621 -13.6369 0.0000 40.0579 0.0000
# 6 0.0000 0.0000 0.0000 5.8036 0.0000 21.7573
#
#
#
# Elastic Compliance Matrix: (Units=1/GPa)
#
#
# Indices 1 2 3 4 5 6 
#
# 1 0.010901 -0.001598 -0.003551 0.000000 -0.003716 0.000000
# 2 -0.001598 0.011700 -0.003688 0.000000 -0.000384 0.000000
# 3 -0.003551 -0.003688 0.009559 0.000000 0.003886 0.000000
# 4 0.000000 0.000000 0.000000 0.029312 0.000000 -0.007819
# 5 -0.003716 -0.000384 0.003886 0.000000 0.027100 0.000000
# 6 0.000000 0.000000 0.000000 -0.007819 0.000000 0.048047
#
#
# Mechanical properties :
#
#
# Convention : Reuss Voigt Hill
#
# Bulk Modulus (GPa) = 69.03585 72.48210 70.75897
# Shear Modulus (GPa) = 31.42206 35.15495 33.28851
#
# Velocity S-wave (km/s) = 3.68117 3.89369 3.78892
# Velocity P-wave (km/s) = 6.91667 7.17447 7.04675
#
# Compressibility (1/GPa) = 0.01448523
#
# Stress axis : x y z
#
# Youngs Moduli (GPa) = 91.73161 85.46699 104.61619
#
# Poissons Ratio (x) = 0.13661 0.37152
# Poissons Ratio (y) = 0.14663 0.38582
# Poissons Ratio (z) = 0.32577 0.31520
#
# Static dielectric constant tensor:
#      x y z
#    x 4.479170 0.000000 0.407730 
#    y 0.000000 3.944890 0.000000 
#    z 0.407730 0.000000 4.144640 
# 
# 
# High freq. dielectric constant tensor:
#      x y z
#    x 1.941400 0.000000 0.031920 
#    y 0.000000 1.903850 0.000000 
#    z 0.031920 0.000000 1.917670 
# 
# From -- ./inp_files/33849.got.cif
#   From: 2010.03.12/outbox.cif.g09.slc.cpg/sg14_17_cif.got.tgz:33849.got - 2010.03.31 13:35:05.
