data_PCOD8127557
_publ_section_title
;
Structure prediction by ZEFSAII (Michael W. Deem and Ramdas Pophale) SiO2 
 PCOD8127557
Probable space group: P 21/C
;
_chemical_formula_sum "Si O2"
_cell_formula_units_Z 28
_cell_length_a 26.622566
_cell_length_b 8.654559
_cell_length_c 9.975647
_cell_angle_alpha 90.000000
_cell_angle_beta 34.641337
_cell_angle_gamma 90.000000
_cell_volume 1306.527696
_symmetry_space_group_name_H-M "P 21/C"
_symmetry_group_IT_number 14
_symmetry_cell_setting 'monoclinic'
loop_
_space_group_symop_operation_xyz
x,y,z
-x,1/2+y,1/2-z
-x,-y,-z
x,1/2-y,1/2+z
loop_
_atom_site_type_symbol
_atom_site_label
_atom_site_fract_x
_atom_site_fract_y
_atom_site_fract_z
Si Si1 0.749213 0.540701 0.608635
Si Si2 0.426695 0.675523 0.272646
Si Si3 0.946172 0.663124 0.478827
Si Si4 0.561258 0.086858 0.544206
Si Si5 0.767042 0.100508 0.788450
Si Si6 0.107535 0.643256 0.538959
Si Si7 0.156191 0.169951 0.526479
O O1 0.752471 0.513615 0.443704
O O2 0.828787 0.442989 0.497359
O O3 0.762798 0.722087 0.605098
O O4 0.652711 0.500372 0.876912
O O5 0.468984 0.819905 0.257601
O O6 0.480910 0.524452 0.189974
O O7 0.327810 0.663522 0.549223
O O8 0.425690 0.699379 0.113972
O O9 0.946711 0.483465 0.428912
O O10 0.917856 0.667411 0.695637
O O11 0.881484 0.762902 0.528956
O O12 0.041573 0.743526 0.263599
O O13 0.830869 0.244571 0.686646
O O14 0.808008 0.002581 0.575630
#
# Coordination Sequence:
#
# PCOD8127557 Si02
#       7
#     4   4   4   4   4   4   4
#     4  10  23  43  65  92 135 167 217 269 320 384
#     4  10  23  41  68  95 134 169 212 267 319 388
#     4  11  26  41  67  94 127 169 221 263 330 373
#     4  10  22  44  64 101 130 172 212 262 326 381
#     4  11  23  42  66  94 130 172 213 273 321 384
#     4  11  25  42  67  95 127 171 216 275 318 392
#     4  11  24  44  62  98 126 176 213 270 316 392
#
# _framework density 21.430851000000001
#
# number of rings (size 3 to 8) (size 9 to 14) (size 15 to 20)
#    0.000    1.429    2.857    0.857    6.000    2.857 
#    0.000    0.000    0.000    0.000    0.000    0.000 
#    0.000    0.000    0.000    0.000    0.000    0.000 
#
# Total GULP energy -347201.450209 kJ/mol
# GULP energy per Si atom -12400.051793 kJ/mol
# Density = 2.138207 g / cm^3
# Si number density = 21.430851 Si / 1000 Ang^3
#
#
#
# Elastic Constant Matrix: (Units=GPa)
#
#
# Indices 1 2 3 4 5 6 
#
# 1 50.6597 11.4646 -2.2931 0.0000 -0.7357 0.0000
# 2 11.4646 92.0501 18.7281 0.0000 -0.6220 0.0000
# 3 -2.2931 18.7281 65.2670 0.0000 -2.7890 0.0000
# 4 0.0000 0.0000 0.0000 28.2669 0.0000 3.0447
# 5 -0.7357 -0.6220 -2.7890 0.0000 22.4587 0.0000
# 6 0.0000 0.0000 0.0000 3.0447 0.0000 35.4314
#
#
#
# Elastic Compliance Matrix: (Units=1/GPa)
#
#
# Indices 1 2 3 4 5 6 
#
# 1 0.020471 -0.002865 0.001575 0.000000 0.000787 0.000000
# 2 -0.002865 0.011938 -0.003535 0.000000 -0.000202 0.000000
# 3 0.001575 -0.003535 0.016477 0.000000 0.002000 0.000000
# 4 0.000000 0.000000 0.000000 0.035708 0.000000 -0.003068
# 5 0.000787 -0.000202 0.002000 0.000000 0.044795 0.000000
# 6 0.000000 0.000000 0.000000 -0.003068 0.000000 0.028487
#
#
# Mechanical properties :
#
#
# Convention : Reuss Voigt Hill
#
# Bulk Modulus (GPa) = 25.48668 29.30843 27.39756
# Shear Modulus (GPa) = 27.68498 29.23654 28.46076
#
# Velocity S-wave (km/s) = 3.59810 3.69755 3.64816
# Velocity P-wave (km/s) = 5.40186 5.65108 5.52787
#
# Compressibility (1/GPa) = 0.03923618
#
# Stress axis : x y z
#
# Youngs Moduli (GPa) = 48.85063 83.76419 60.69135
#
# Poissons Ratio (x) = 0.23995 -0.09558
# Poissons Ratio (y) = 0.13994 0.21454
# Poissons Ratio (z) = -0.07693 0.29610
#
# Static dielectric constant tensor:
#      x y z
#    x 3.910760 0.000000 -0.070520 
#    y 0.000000 3.991730 0.000000 
#    z -0.070520 0.000000 3.787990 
# 
# 
# High freq. dielectric constant tensor:
#      x y z
#    x 1.845730 0.000000 -0.006920 
#    y 0.000000 1.843000 0.000000 
#    z -0.006920 0.000000 1.836000 
# 
# From -- ./inp_files/19638.got.cif
#   From: 2010.03.12/outbox.cif.g09.slc.cpg/sg14_10_cif.got.tgz:19638.got - 2010.03.31 13:35:05.
