data_PCOD8127307
_publ_section_title
;
Structure prediction by ZEFSAII (Michael W. Deem and Ramdas Pophale) SiO2 
 PCOD8127307
Probable space group: P 21/C
;
_chemical_formula_sum "Si O2"
_cell_formula_units_Z 28
_cell_length_a 19.352587
_cell_length_b 5.150164
_cell_length_c 14.891951
_cell_angle_alpha 90.000000
_cell_angle_beta 125.634529
_cell_angle_gamma 90.000000
_cell_volume 1206.336747
_symmetry_space_group_name_H-M "P 21/C"
_symmetry_group_IT_number 14
_symmetry_cell_setting 'monoclinic'
loop_
_space_group_symop_operation_xyz
x,y,z
-x,1/2+y,1/2-z
-x,-y,-z
x,1/2-y,1/2+z
loop_
_atom_site_type_symbol
_atom_site_label
_atom_site_fract_x
_atom_site_fract_y
_atom_site_fract_z
Si Si1 0.108419 0.771691 0.308318
Si Si2 0.527690 0.138839 0.379727
Si Si3 0.425933 0.774970 0.901885
Si Si4 0.074209 0.268974 0.390882
Si Si5 0.239706 0.649817 0.764708
Si Si6 0.623022 0.599832 0.802950
Si Si7 0.203213 0.340654 0.132929
O O1 0.103348 0.554824 0.381777
O O2 0.196186 0.741297 0.321615
O O3 0.027925 0.744272 0.179845
O O4 0.109420 0.058863 0.348462
O O5 0.545023 0.358060 0.472720
O O6 0.452243 0.187012 0.249688
O O7 0.503326 0.882405 0.416483
O O8 0.610659 0.092820 0.378982
O O9 0.340329 0.605996 0.854114
O O10 0.394222 0.997561 0.811360
O O11 0.113288 0.203532 0.517004
O O12 0.203328 0.365216 0.713922
O O13 0.215431 0.860113 0.669880
O O14 0.717608 0.720452 0.875827
#
# Coordination Sequence:
#
# PCOD8127307 Si02
#       7
#     4   4   4   4   4   4   4
#     4  10  22  41  66  92 130 162 212 252 317 384
#     4  11  21  40  61  84 121 169 210 262 320 368
#     4  10  23  39  59  86 124 161 217 261 314 376
#     4  10  22  42  64  95 125 167 206 261 308 389
#     4  11  23  42  61  95 127 165 208 268 313 383
#     4  11  22  40  60  90 123 166 215 266 316 383
#     4  11  24  40  65  92 132 160 213 264 318 374
#
# _framework density 23.210764999999999
#
# number of rings (size 3 to 8) (size 9 to 14) (size 15 to 20)
#    0.000    1.429    2.857    2.143    2.000    1.143 
#    2.571    0.000    0.000    0.000    0.000    0.000 
#    0.000    0.000    0.000    0.000    0.000    0.000 
#
# Total GULP energy -346990.579909 kJ/mol
# GULP energy per Si atom -12392.520711 kJ/mol
# Density = 2.315794 g / cm^3
# Si number density = 23.210765 Si / 1000 Ang^3
#
#
#
# Elastic Constant Matrix: (Units=GPa)
#
#
# Indices 1 2 3 4 5 6 
#
# 1 76.7931 6.4256 6.0138 0.0000 -8.2604 0.0000
# 2 6.4256 59.6940 -6.0766 0.0000 -2.0423 0.0000
# 3 6.0138 -6.0766 77.2814 0.0000 -2.5393 0.0000
# 4 0.0000 0.0000 0.0000 28.2840 0.0000 3.4831
# 5 -8.2604 -2.0423 -2.5393 0.0000 26.5614 0.0000
# 6 0.0000 0.0000 0.0000 3.4831 0.0000 22.4379
#
#
#
# Elastic Compliance Matrix: (Units=1/GPa)
#
#
# Indices 1 2 3 4 5 6 
#
# 1 0.013658 -0.001438 -0.001043 0.000000 0.004037 0.000000
# 2 -0.001438 0.017093 0.001489 0.000000 0.001009 0.000000
# 3 -0.001043 0.001489 0.013172 0.000000 0.001049 0.000000
# 4 0.000000 0.000000 0.000000 0.036045 0.000000 -0.005595
# 5 0.004037 0.001009 0.001049 0.000000 0.039082 0.000000
# 6 0.000000 0.000000 0.000000 -0.005595 0.000000 0.045436
#
#
# Mechanical properties :
#
#
# Convention : Reuss Voigt Hill
#
# Bulk Modulus (GPa) = 23.84421 25.16601 24.50511
# Shear Modulus (GPa) = 27.70830 29.28370 28.49600
#
# Velocity S-wave (km/s) = 3.45885 3.55581 3.50767
# Velocity P-wave (km/s) = 5.12315 5.26539 5.19476
#
# Compressibility (1/GPa) = 0.04193890
#
# Stress axis : x y z
#
# Youngs Moduli (GPa) = 73.21537 58.50336 75.91584
#
# Poissons Ratio (x) = 0.08414 0.07920
# Poissons Ratio (y) = 0.10530 -0.11305
# Poissons Ratio (z) = 0.07638 -0.08712
#
# Static dielectric constant tensor:
#      x y z
#    x 4.289120 0.000000 0.305130 
#    y 0.000000 4.011570 0.000000 
#    z 0.305130 0.000000 4.409240 
# 
# 
# High freq. dielectric constant tensor:
#      x y z
#    x 1.914470 0.000000 0.008270 
#    y 0.000000 1.910590 0.000000 
#    z 0.008270 0.000000 1.911370 
# 
# From -- ./inp_files/48211.got.cif
#   From: 2010.03.12/outbox.cif.g09.slc.cpg/sg14_25_cif.got.tgz:48211.got - 2010.03.31 13:35:05.
