data_PCOD8127148
_publ_section_title
;
Structure prediction by ZEFSAII (Michael W. Deem and Ramdas Pophale) SiO2 
 PCOD8127148
Probable space group: P 21/C
;
_chemical_formula_sum "Si O2"
_cell_formula_units_Z 20
_cell_length_a 21.555841
_cell_length_b 8.134439
_cell_length_c 14.223993
_cell_angle_alpha 90.000000
_cell_angle_beta 160.132140
_cell_angle_gamma 90.000000
_cell_volume 847.625461
_symmetry_space_group_name_H-M "P 21/C"
_symmetry_group_IT_number 14
_symmetry_cell_setting 'monoclinic'
loop_
_space_group_symop_operation_xyz
x,y,z
-x,1/2+y,1/2-z
-x,-y,-z
x,1/2-y,1/2+z
loop_
_atom_site_type_symbol
_atom_site_label
_atom_site_fract_x
_atom_site_fract_y
_atom_site_fract_z
Si Si1 0.027503 0.912799 0.389257
Si Si2 0.325097 0.280425 0.892188
Si Si3 0.250018 0.336118 0.093336
Si Si4 0.906994 0.285374 0.822957
Si Si5 0.595029 0.030279 0.348993
O O1 0.136047 0.827365 0.629937
O O2 0.891173 0.051463 0.236574
O O3 0.918105 0.776191 0.176912
O O4 0.174986 0.994709 0.530901
O O5 0.364295 0.262875 0.836364
O O6 0.109701 0.289767 0.604600
O O7 0.405123 0.120952 0.059796
O O8 0.415534 0.445763 0.063126
O O9 0.378247 0.383087 0.188762
O O10 0.762942 0.155060 0.579700
#
# Coordination Sequence:
#
# PCOD8127148 Si02
#       5
#     4   4   4   4   4
#     4  10  22  39  72 102 134 178 229 270 344 398
#     4  11  26  44  69 103 134 184 229 280 339 406
#     4  11  23  43  68 104 140 176 231 280 334 407
#     4  10  23  46  72  95 140 180 226 282 339 401
#     4  12  26  46  71  98 141 180 227 283 344 398
#
# _framework density 23.595327000000001
#
# number of rings (size 3 to 8) (size 9 to 14) (size 15 to 20)
#    0.000    1.200    2.000    3.600   11.200    0.000 
#    0.000    2.000    0.000    0.000    0.000    0.000 
#    0.000    0.000    0.000    0.000    0.000    0.000 
#
# Total GULP energy -248042.237152 kJ/mol
# GULP energy per Si atom -12402.111858 kJ/mol
# Density = 2.354162 g / cm^3
# Si number density = 23.595327 Si / 1000 Ang^3
#
#
#
# Elastic Constant Matrix: (Units=GPa)
#
#
# Indices 1 2 3 4 5 6 
#
# 1 65.3190 23.3222 24.5051 0.0000 -27.1014 0.0000
# 2 23.3222 42.9511 6.5177 0.0000 -16.5257 0.0000
# 3 24.5051 6.5177 65.5132 0.0000 -9.8921 0.0000
# 4 0.0000 0.0000 0.0000 49.5589 0.0000 -6.5977
# 5 -27.1014 -16.5257 -9.8921 0.0000 26.1733 0.0000
# 6 0.0000 0.0000 0.0000 -6.5977 0.0000 40.4742
#
#
#
# Elastic Compliance Matrix: (Units=1/GPa)
#
#
# Indices 1 2 3 4 5 6 
#
# 1 0.030486 -0.005764 -0.007013 0.000000 0.025277 0.000000
# 2 -0.005764 0.031844 0.001191 0.000000 0.014588 0.000000
# 3 -0.007013 0.001191 0.017802 0.000000 0.000218 0.000000
# 4 0.000000 0.000000 0.000000 0.020626 0.000000 0.003362
# 5 0.025277 0.014588 0.000218 0.000000 0.073673 0.000000
# 6 0.000000 0.000000 0.000000 0.003362 0.000000 0.025255
#
#
# Mechanical properties :
#
#
# Convention : Reuss Voigt Hill
#
# Bulk Modulus (GPa) = 17.55647 31.38595 24.47121
# Shear Modulus (GPa) = 20.67428 31.20384 25.93906
#
# Velocity S-wave (km/s) = 2.96328 3.64051 3.31921
# Velocity P-wave (km/s) = 4.37777 5.56792 5.00832
#
# Compressibility (1/GPa) = 0.05695907
#
# Stress axis : x y z
#
# Youngs Moduli (GPa) = 32.80151 31.40287 56.17396
#
# Poissons Ratio (x) = 0.18101 0.39396
# Poissons Ratio (y) = 0.18907 -0.06688
# Poissons Ratio (z) = 0.23004 -0.03739
#
# Static dielectric constant tensor:
#      x y z
#    x 4.320300 0.000000 -0.442300 
#    y 0.000000 4.288160 0.000000 
#    z -0.442300 0.000000 4.127520 
# 
# 
# High freq. dielectric constant tensor:
#      x y z
#    x 1.931360 0.000000 -0.023530 
#    y 0.000000 1.937180 0.000000 
#    z -0.023530 0.000000 1.927300 
# 
# From -- ./inp_files/51101.got.cif
#   From: 2010.03.12/outbox.cif.g09.slc.cpg/sg14_26_cif.got.tgz:51101.got - 2010.03.31 13:35:05.
