data_PCOD8127245
_publ_section_title
;
Structure prediction by ZEFSAII (Michael W. Deem and Ramdas Pophale) SiO2 
 PCOD8127245
Probable space group: P 21/C
;
_chemical_formula_sum "Si O2"
_cell_formula_units_Z 16
_cell_length_a 9.560757
_cell_length_b 11.879281
_cell_length_c 9.193905
_cell_angle_alpha 90.000000
_cell_angle_beta 134.671865
_cell_angle_gamma 90.000000
_cell_volume 742.575266
_symmetry_space_group_name_H-M "P 21/C"
_symmetry_group_IT_number 14
_symmetry_cell_setting 'monoclinic'
loop_
_space_group_symop_operation_xyz
x,y,z
-x,1/2+y,1/2-z
-x,-y,-z
x,1/2-y,1/2+z
loop_
_atom_site_type_symbol
_atom_site_label
_atom_site_fract_x
_atom_site_fract_y
_atom_site_fract_z
Si Si1 0.387683 0.727835 0.354682
Si Si2 0.212747 0.181555 0.739703
Si Si3 0.181929 0.873320 0.433443
Si Si4 0.282382 0.121740 0.472540
O O1 0.562680 0.649596 0.551279
O O2 0.235554 0.772128 0.364326
O O3 0.272014 0.651274 0.157324
O O4 0.490168 0.836469 0.352471
O O5 0.174579 0.159531 0.542464
O O6 0.180444 0.314182 0.759947
O O7 0.052944 0.112216 0.717818
O O8 0.271570 0.989075 0.438467
#
# Coordination Sequence:
#
# PCOD8127245 Si02
#       4
#     4   4   4   4
#     4  10  22  41  59  92 123 152 211 243 286 376
#     4  10  22  42  58  93 124 150 211 249 279 378
#     4  12  22  41  66  85 125 167 187 253 313 334
#     4  10  22  43  61  89 126 154 201 252 296 357
#
# _framework density 21.546638000000002
#
# number of rings (size 3 to 8) (size 9 to 14) (size 15 to 20)
#    1.500    0.000    2.500    3.000    0.000    1.000 
#    4.500    2.500    0.000    0.000    0.000    0.000 
#    0.000    0.000    0.000    0.000    0.000    0.000 
#
# Total GULP energy -198225.466103 kJ/mol
# GULP energy per Si atom -12389.091631 kJ/mol
# Density = 2.149760 g / cm^3
# Si number density = 21.546638 Si / 1000 Ang^3
#
#
#
# Elastic Constant Matrix: (Units=GPa)
#
#
# Indices 1 2 3 4 5 6 
#
# 1 99.1207 -9.5093 5.9619 0.0000 0.7416 0.0000
# 2 -9.5093 58.3895 23.1136 0.0000 4.1039 0.0000
# 3 5.9619 23.1136 35.3296 0.0000 -2.0714 0.0000
# 4 0.0000 0.0000 0.0000 29.0688 0.0000 -3.6390
# 5 0.7416 4.1039 -2.0714 0.0000 16.8942 0.0000
# 6 0.0000 0.0000 0.0000 -3.6390 0.0000 22.4176
#
#
#
# Elastic Compliance Matrix: (Units=1/GPa)
#
#
# Indices 1 2 3 4 5 6 
#
# 1 0.010698 0.003549 -0.004236 0.000000 -0.001851 0.000000
# 2 0.003549 0.025279 -0.017633 0.000000 -0.008459 0.000000
# 3 -0.004236 -0.017633 0.041113 0.000000 0.009510 0.000000
# 4 0.000000 0.000000 0.000000 0.035115 0.000000 0.005700
# 5 -0.001851 -0.008459 0.009510 0.000000 0.062494 0.000000
# 6 0.000000 0.000000 0.000000 0.005700 0.000000 0.045533
#
#
# Mechanical properties :
#
#
# Convention : Reuss Voigt Hill
#
# Bulk Modulus (GPa) = 24.72145 25.77469 25.24807
# Shear Modulus (GPa) = 18.49422 25.22768 21.86095
#
# Velocity S-wave (km/s) = 2.93291 3.42547 3.18871
# Velocity P-wave (km/s) = 4.79246 5.25674 5.02996
#
# Compressibility (1/GPa) = 0.04045070
#
# Stress axis : x y z
#
# Youngs Moduli (GPa) = 93.47706 39.55861 24.32306
#
# Poissons Ratio (x) = -0.14040 0.10302
# Poissons Ratio (y) = -0.33175 0.42889
# Poissons Ratio (z) = 0.39594 0.69754
#
# Static dielectric constant tensor:
#      x y z
#    x 3.995410 0.000000 0.005250 
#    y 0.000000 3.433950 0.000000 
#    z 0.005250 0.000000 3.604340 
# 
# 
# High freq. dielectric constant tensor:
#      x y z
#    x 1.867380 0.000000 -0.003380 
#    y 0.000000 1.812750 0.000000 
#    z -0.003380 0.000000 1.822000 
# 
# From -- ./inp_files/5098.got.cif
#   From: 2010.03.12/outbox.cif.g09.slc.cpg/sg14_3_cif.got.tgz:5098.got - 2010.03.31 13:35:05.
