data_PCOD8127377
_publ_section_title
;
Structure prediction by ZEFSAII (Michael W. Deem and Ramdas Pophale) SiO2 
 PCOD8127377
Probable space group: P 21/C
;
_chemical_formula_sum "Si O2"
_cell_formula_units_Z 28
_cell_length_a 6.446787
_cell_length_b 14.313987
_cell_length_c 15.078915
_cell_angle_alpha 90.000000
_cell_angle_beta 68.851800
_cell_angle_gamma 90.000000
_cell_volume 1297.755548
_symmetry_space_group_name_H-M "P 21/C"
_symmetry_group_IT_number 14
_symmetry_cell_setting 'monoclinic'
loop_
_space_group_symop_operation_xyz
x,y,z
-x,1/2+y,1/2-z
-x,-y,-z
x,1/2-y,1/2+z
loop_
_atom_site_type_symbol
_atom_site_label
_atom_site_fract_x
_atom_site_fract_y
_atom_site_fract_z
Si Si1 0.328627 0.556330 0.966915
Si Si2 0.388640 0.765242 0.961108
Si Si3 0.536231 0.701593 0.632464
Si Si4 0.934173 0.133937 0.766334
Si Si5 0.984399 0.599021 0.549690
Si Si6 0.919381 0.972550 0.645847
Si Si7 0.737139 0.697289 0.265608
O O1 0.391973 0.659711 0.923687
O O2 0.290303 0.496025 0.884402
O O3 0.500000 0.500000 0.000000
O O4 0.105264 0.574346 0.056682
O O5 0.569489 0.817980 0.873009
O O6 0.453740 0.752527 0.053866
O O7 0.157083 0.822385 0.985986
O O8 0.328361 0.649013 0.709010
O O9 0.619513 0.777209 0.690704
O O10 0.732404 0.631772 0.575146
O O11 0.969249 0.082839 0.854281
O O12 0.072282 0.229158 0.738154
O O13 0.019361 0.065691 0.675800
O O14 0.000000 0.500000 0.500000
O O15 0.850020 0.902655 0.734444
#
# Coordination Sequence:
#
# PCOD8127377 Si02
#       7
#     4   4   4   4   4   4   4
#     4  11  23  43  66  95 131 169 218 273 334 393
#     4  11  24  42  67  95 131 176 219 274 335 388
#     4  10  22  42  64  88 134 167 218 274 325 388
#     4  10  23  42  63  93 132 166 219 274 322 392
#     4  10  24  42  63  94 129 174 222 264 327 393
#     4  11  24  40  66  96 130 167 221 268 327 393
#     4  11  24  42  64  99 129 174 219 270 333 392
#
# _framework density 21.575710000000001
#
# number of rings (size 3 to 8) (size 9 to 14) (size 15 to 20)
#    0.000    1.429    0.000    5.143    4.000    6.857 
#    2.571    0.000    0.000    0.000    0.000    0.000 
#    0.000    0.000    0.000    0.000    0.000    0.000 
#
# Total GULP energy -347237.175781 kJ/mol
# GULP energy per Si atom -12401.327706 kJ/mol
# Density = 2.152660 g / cm^3
# Si number density = 21.575710 Si / 1000 Ang^3
#
#
#
# Elastic Constant Matrix: (Units=GPa)
#
#
# Indices 1 2 3 4 5 6 
#
# 1 98.3622 37.0390 8.9637 0.0000 -7.0734 0.0000
# 2 37.0390 107.7990 18.0152 0.0000 1.5612 0.0000
# 3 8.9637 18.0152 81.6139 0.0000 -5.5514 0.0000
# 4 0.0000 0.0000 0.0000 43.5637 0.0000 3.2783
# 5 -7.0734 1.5612 -5.5514 0.0000 31.2478 0.0000
# 6 0.0000 0.0000 0.0000 3.2783 0.0000 27.6702
#
#
#
# Elastic Compliance Matrix: (Units=1/GPa)
#
#
# Indices 1 2 3 4 5 6 
#
# 1 0.011939 -0.004109 -0.000209 0.000000 0.002871 0.000000
# 2 -0.004109 0.011069 -0.002119 0.000000 -0.001860 0.000000
# 3 -0.000209 -0.002119 0.012903 0.000000 0.002351 0.000000
# 4 0.000000 0.000000 0.000000 0.023161 0.000000 -0.002744
# 5 0.002871 -0.001860 0.002351 0.000000 0.033163 0.000000
# 6 0.000000 0.000000 0.000000 -0.002744 0.000000 0.036465
#
#
# Mechanical properties :
#
#
# Convention : Reuss Voigt Hill
#
# Bulk Modulus (GPa) = 43.40503 46.20123 44.80313
# Shear Modulus (GPa) = 33.50002 35.41349 34.45675
#
# Velocity S-wave (km/s) = 3.94467 4.05576 4.00060
# Velocity P-wave (km/s) = 6.39597 6.58728 6.49233
#
# Compressibility (1/GPa) = 0.02303881
#
# Stress axis : x y z
#
# Youngs Moduli (GPa) = 83.75750 90.34000 77.49929
#
# Poissons Ratio (x) = 0.37120 0.01620
# Poissons Ratio (y) = 0.34415 0.16419
# Poissons Ratio (z) = 0.01751 0.19139
#
# Static dielectric constant tensor:
#      x y z
#    x 4.092870 0.000000 -0.031510 
#    y 0.000000 3.681210 0.000000 
#    z -0.031510 0.000000 3.947850 
# 
# 
# High freq. dielectric constant tensor:
#      x y z
#    x 1.853880 0.000000 0.000140 
#    y 0.000000 1.843510 0.000000 
#    z 0.000140 0.000000 1.857300 
# 
# From -- ./inp_files/53256.got.cif
#   From: 2010.03.12/outbox.cif.g09.slc.cpg/sg14_27_cif.got.tgz:53256.got - 2010.03.31 13:35:05.
