data_PCOD8127244
_publ_section_title
;
Structure prediction by ZEFSAII (Michael W. Deem and Ramdas Pophale) SiO2 
 PCOD8127244
Probable space group: P 21/C
;
_chemical_formula_sum "Si O2"
_cell_formula_units_Z 32
_cell_length_a 14.946138
_cell_length_b 22.547853
_cell_length_c 9.043397
_cell_angle_alpha 90.000000
_cell_angle_beta 151.607278
_cell_angle_gamma 90.000000
_cell_volume 1449.197872
_symmetry_space_group_name_H-M "P 21/C"
_symmetry_group_IT_number 14
_symmetry_cell_setting 'monoclinic'
loop_
_space_group_symop_operation_xyz
x,y,z
-x,1/2+y,1/2-z
-x,-y,-z
x,1/2-y,1/2+z
loop_
_atom_site_type_symbol
_atom_site_label
_atom_site_fract_x
_atom_site_fract_y
_atom_site_fract_z
Si Si1 0.160102 0.628960 0.821873
Si Si2 0.834473 0.044888 0.425403
Si Si3 0.162675 0.848383 0.988136
Si Si4 0.055010 0.720799 0.880883
Si Si5 0.555902 0.825176 0.886653
Si Si6 0.864757 0.582855 0.875065
Si Si7 0.360986 0.645674 0.495878
Si Si8 0.353802 0.236462 0.698621
O O1 0.168861 0.622351 0.659305
O O2 0.017081 0.678432 0.681649
O O3 0.122607 0.564978 0.842619
O O4 0.360993 0.653510 0.173257
O O5 0.652107 0.081192 0.101136
O O6 0.014109 0.062196 0.587886
O O7 0.795408 0.975000 0.364637
O O8 0.174483 0.777606 0.008361
O O9 0.339008 0.866478 0.140515
O O10 0.969445 0.872944 0.638599
O O11 0.858276 0.746104 0.660422
O O12 0.174438 0.684324 0.176890
O O13 0.522141 0.792446 0.679232
O O14 0.686790 0.882021 0.053417
O O15 0.639434 0.773764 0.115944
O O16 0.561765 0.676064 0.752852
#
# Coordination Sequence:
#
# PCOD8127244 Si02
#       8
#     4   4   4   4   4   4   4   4
#     4  11  24  38  62  93 128 169 206 270 323 373
#     4   9  20  44  66  88 123 172 222 263 309 384
#     4  11  21  36  61  89 123 164 207 260 322 372
#     4  11  21  38  59  88 128 166 208 259 320 388
#     4  12  24  40  58  99 124 168 210 262 323 384
#     4  10  22  42  69  90 123 172 222 261 315 386
#     4  10  22  41  59  89 126 171 208 256 322 379
#     4  12  24  37  60  90 129 164 210 258 313 390
#
# _framework density 22.081181000000001
#
# number of rings (size 3 to 8) (size 9 to 14) (size 15 to 20)
#    0.000    1.250    3.750    4.500    3.500    1.000 
#    0.000    0.000    0.000    6.750    0.000    0.000 
#    0.000    0.000    0.000    0.000    0.000    0.000 
#
# Total GULP energy -396595.246497 kJ/mol
# GULP energy per Si atom -12393.601453 kJ/mol
# Density = 2.203092 g / cm^3
# Si number density = 22.081181 Si / 1000 Ang^3
#
#
#
# Elastic Constant Matrix: (Units=GPa)
#
#
# Indices 1 2 3 4 5 6 
#
# 1 97.4046 13.4178 22.9489 0.0000 -13.1121 0.0000
# 2 13.4178 107.1814 16.6746 0.0000 -6.1432 0.0000
# 3 22.9489 16.6746 52.5009 0.0000 4.6836 0.0000
# 4 0.0000 0.0000 0.0000 24.5529 0.0000 5.1000
# 5 -13.1121 -6.1432 4.6836 0.0000 37.4883 0.0000
# 6 0.0000 0.0000 0.0000 5.1000 0.0000 29.1855
#
#
#
# Elastic Compliance Matrix: (Units=1/GPa)
#
#
# Indices 1 2 3 4 5 6 
#
# 1 0.012333 -0.000370 -0.005717 0.000000 0.004967 0.000000
# 2 -0.000370 0.009980 -0.003178 0.000000 0.001903 0.000000
# 3 -0.005717 -0.003178 0.023037 0.000000 -0.005398 0.000000
# 4 0.000000 0.000000 0.000000 0.042262 0.000000 -0.007385
# 5 0.004967 0.001903 -0.005398 0.000000 0.029399 0.000000
# 6 0.000000 0.000000 0.000000 -0.007385 0.000000 0.035554
#
#
# Mechanical properties :
#
#
# Convention : Reuss Voigt Hill
#
# Bulk Modulus (GPa) = 37.28379 40.35214 38.81797
# Shear Modulus (GPa) = 27.77265 31.84838 29.81052
#
# Velocity S-wave (km/s) = 3.55033 3.80192 3.67828
# Velocity P-wave (km/s) = 5.80758 6.13082 5.97139
#
# Compressibility (1/GPa) = 0.02682130
#
# Stress axis : x y z
#
# Youngs Moduli (GPa) = 81.08398 100.20320 43.40861
#
# Poissons Ratio (x) = 0.03706 0.24815
# Poissons Ratio (y) = 0.02999 0.13794
# Poissons Ratio (z) = 0.46352 0.31842
#
# Static dielectric constant tensor:
#      x y z
#    x 4.113290 0.000000 0.001920 
#    y 0.000000 4.087660 0.000000 
#    z 0.001920 0.000000 3.621410 
# 
# 
# High freq. dielectric constant tensor:
#      x y z
#    x 1.891090 0.000000 0.001690 
#    y 0.000000 1.854940 0.000000 
#    z 0.001690 0.000000 1.831920 
# 
# From -- ./inp_files/17056.got.cif
#   From: 2010.03.12/outbox.cif.g09.slc.cpg/sg14_9_cif.got.tgz:17056.got - 2010.03.31 13:35:05.
