data_PCOD8127785
_publ_section_title
;
Structure prediction by ZEFSAII (Michael W. Deem and Ramdas Pophale) SiO2 
 PCOD8127785
Probable space group: P 21/C
;
_chemical_formula_sum "Si O2"
_cell_formula_units_Z 28
_cell_length_a 11.338136
_cell_length_b 16.125508
_cell_length_c 13.069515
_cell_angle_alpha 90.000000
_cell_angle_beta 145.760168
_cell_angle_gamma 90.000000
_cell_volume 1344.495066
_symmetry_space_group_name_H-M "P 21/C"
_symmetry_group_IT_number 14
_symmetry_cell_setting 'monoclinic'
loop_
_space_group_symop_operation_xyz
x,y,z
-x,1/2+y,1/2-z
-x,-y,-z
x,1/2-y,1/2+z
loop_
_atom_site_type_symbol
_atom_site_label
_atom_site_fract_x
_atom_site_fract_y
_atom_site_fract_z
Si Si1 0.509842 0.633642 0.801332
Si Si2 0.400529 0.162884 0.409941
Si Si3 0.293754 0.785085 0.532426
Si Si4 0.228956 0.462428 0.173509
Si Si5 0.759226 0.981183 0.838659
Si Si6 0.182119 0.185644 0.788484
Si Si7 0.532311 0.603042 0.353184
O O1 0.381319 0.696008 0.634750
O O2 0.696485 0.588158 0.873560
O O3 0.354406 0.568767 0.742895
O O4 0.607624 0.674186 0.973016
O O5 0.621340 0.187609 0.517773
O O6 0.318703 0.073843 0.313427
O O7 0.246826 0.237338 0.262056
O O8 0.353476 0.854482 0.657155
O O9 0.046944 0.789336 0.337153
O O10 0.201880 0.401906 0.248328
O O11 0.405600 0.532297 0.325550
O O12 0.000000 0.500000 0.000000
O O13 0.713872 0.935840 0.912850
O O14 0.000000 0.000000 0.000000
O O15 0.352108 0.174232 0.000638
#
# Coordination Sequence:
#
# PCOD8127785 Si02
#       7
#     4   4   4   4   4   4   4
#     4  11  23  44  68  97 140 176 225 284 330 409
#     4  11  24  43  66 101 135 173 229 278 336 409
#     4  11  23  43  67  98 133 174 223 276 337 395
#     4  11  23  44  69  98 137 182 227 280 337 403
#     4  10  23  41  66  95 135 173 222 274 336 400
#     4  12  23  42  70  97 136 179 226 274 344 399
#     4  10  23  42  65  98 132 171 222 280 323 402
#
# _framework density 20.825662000000001
#
# number of rings (size 3 to 8) (size 9 to 14) (size 15 to 20)
#    0.000    1.143    4.286    1.714    2.000    1.143 
#    5.143    0.000    0.000    0.000    0.000    0.000 
#    0.000    0.000    0.000    0.000    0.000    0.000 
#
# Total GULP energy -346993.613929 kJ/mol
# GULP energy per Si atom -12392.629069 kJ/mol
# Density = 2.077826 g / cm^3
# Si number density = 20.825662 Si / 1000 Ang^3
#
#
#
# Elastic Constant Matrix: (Units=GPa)
#
#
# Indices 1 2 3 4 5 6 
#
# 1 90.8443 28.2541 45.5087 0.0000 21.6249 0.0000
# 2 28.2541 113.3260 31.2374 0.0000 14.7461 0.0000
# 3 45.5087 31.2374 90.3536 0.0000 23.3385 0.0000
# 4 0.0000 0.0000 0.0000 31.0469 0.0000 5.8846
# 5 21.6249 14.7461 23.3385 0.0000 38.8839 0.0000
# 6 0.0000 0.0000 0.0000 5.8846 0.0000 39.0929
#
#
#
# Elastic Compliance Matrix: (Units=1/GPa)
#
#
# Indices 1 2 3 4 5 6 
#
# 1 0.015658 -0.001627 -0.006194 0.000000 -0.004373 0.000000
# 2 -0.001627 0.010054 -0.002255 0.000000 -0.001554 0.000000
# 3 -0.006194 -0.002255 0.016399 0.000000 -0.005543 0.000000
# 4 0.000000 0.000000 0.000000 0.033155 0.000000 -0.004991
# 5 -0.004373 -0.001554 -0.005543 0.000000 0.032066 0.000000
# 6 0.000000 0.000000 0.000000 -0.004991 0.000000 0.026331
#
#
# Mechanical properties :
#
#
# Convention : Reuss Voigt Hill
#
# Bulk Modulus (GPa) = 45.54218 56.05826 50.80022
# Shear Modulus (GPa) = 31.02995 34.43965 32.73480
#
# Velocity S-wave (km/s) = 3.86422 4.07100 3.96896
# Velocity P-wave (km/s) = 6.46725 7.00526 6.74163
#
# Compressibility (1/GPa) = 0.02195766
#
# Stress axis : x y z
#
# Youngs Moduli (GPa) = 63.86500 99.46734 60.98034
#
# Poissons Ratio (x) = 0.16187 0.37773
# Poissons Ratio (y) = 0.10393 0.13749
# Poissons Ratio (z) = 0.39560 0.22426
#
# Static dielectric constant tensor:
#      x y z
#    x 3.920920 0.000000 -0.080120 
#    y 0.000000 4.277930 0.000000 
#    z -0.080120 0.000000 3.685300 
# 
# 
# High freq. dielectric constant tensor:
#      x y z
#    x 1.818830 0.000000 0.012890 
#    y 0.000000 1.844310 0.000000 
#    z 0.012890 0.000000 1.798210 
# 
# From -- ./inp_files/45288.got.cif
#   From: 2010.03.12/outbox.cif.g09.slc.cpg/sg14_23_cif.got.tgz:45288.got - 2010.03.31 13:35:05.
