data_PCOD8127736
_publ_section_title
;
Structure prediction by ZEFSAII (Michael W. Deem and Ramdas Pophale) SiO2 
 PCOD8127736
Probable space group: P 21/C
;
_chemical_formula_sum "Si O2"
_cell_formula_units_Z 28
_cell_length_a 9.365977
_cell_length_b 12.011802
_cell_length_c 13.327371
_cell_angle_alpha 90.000000
_cell_angle_beta 63.432355
_cell_angle_gamma 90.000000
_cell_volume 1341.037436
_symmetry_space_group_name_H-M "P 21/C"
_symmetry_group_IT_number 14
_symmetry_cell_setting 'monoclinic'
loop_
_space_group_symop_operation_xyz
x,y,z
-x,1/2+y,1/2-z
-x,-y,-z
x,1/2-y,1/2+z
loop_
_atom_site_type_symbol
_atom_site_label
_atom_site_fract_x
_atom_site_fract_y
_atom_site_fract_z
Si Si1 0.684345 0.238052 0.269625
Si Si2 0.332540 0.942011 0.549907
Si Si3 0.822367 0.845472 0.344297
Si Si4 0.990425 0.833321 0.912053
Si Si5 0.390412 0.894322 0.038009
Si Si6 0.491934 0.786631 0.365394
Si Si7 0.036756 0.582840 0.610110
O O1 0.683811 0.135679 0.346985
O O2 0.849526 0.237666 0.156459
O O3 0.656325 0.355016 0.335348
O O4 0.540595 0.233454 0.233371
O O5 0.343920 0.869439 0.443434
O O6 0.500000 0.000000 0.500000
O O7 0.195503 0.037445 0.588601
O O8 0.669260 0.839070 0.317624
O O9 0.844128 0.739876 0.411983
O O10 0.980395 0.848580 0.225129
O O11 0.954432 0.857947 0.040245
O O12 0.011655 0.954655 0.855091
O O13 0.225673 0.913618 0.030684
O O14 0.499012 0.805447 0.948711
O O15 0.500000 0.000000 0.000000
#
# Coordination Sequence:
#
# PCOD8127736 Si02
#       7
#     4   4   4   4   4   4   4
#     4  11  21  40  66  89 131 170 207 266 333 379
#     4   9  21  40  63  88 126 168 211 265 324 381
#     4  11  22  42  66  94 128 172 219 270 327 392
#     4  11  23  40  65  94 126 175 214 265 332 387
#     4  11  23  40  63  97 133 167 220 273 319 389
#     4  10  23  40  64  94 129 170 220 266 326 397
#     4  11  23  40  68  93 130 173 220 268 328 393
#
# _framework density 20.879356999999999
#
# number of rings (size 3 to 8) (size 9 to 14) (size 15 to 20)
#    0.000    1.429    4.286    0.857    0.000    8.000 
#    0.000    2.143    0.000    0.000    0.000    0.000 
#    0.000    0.000    0.000    0.000    0.000    0.000 
#
# Total GULP energy -346977.224945 kJ/mol
# GULP energy per Si atom -12392.043748 kJ/mol
# Density = 2.083183 g / cm^3
# Si number density = 20.879357 Si / 1000 Ang^3
#
#
#
# Elastic Constant Matrix: (Units=GPa)
#
#
# Indices 1 2 3 4 5 6 
#
# 1 82.9486 28.6529 25.3709 0.0000 4.0023 0.0000
# 2 28.6529 117.4923 47.7459 0.0000 4.3565 0.0000
# 3 25.3709 47.7459 78.0248 0.0000 -0.9553 0.0000
# 4 0.0000 0.0000 0.0000 24.9168 0.0000 -1.1533
# 5 4.0023 4.3565 -0.9553 0.0000 30.2048 0.0000
# 6 0.0000 0.0000 0.0000 -1.1533 0.0000 35.8869
#
#
#
# Elastic Compliance Matrix: (Units=1/GPa)
#
#
# Indices 1 2 3 4 5 6 
#
# 1 0.013828 -0.001964 -0.003315 0.000000 -0.001654 0.000000
# 2 -0.001964 0.011712 -0.006548 0.000000 -0.001636 0.000000
# 3 -0.003315 -0.006548 0.017925 0.000000 0.001951 0.000000
# 4 0.000000 0.000000 0.000000 0.040193 0.000000 0.001292
# 5 -0.001654 -0.001636 0.001951 0.000000 0.033624 0.000000
# 6 0.000000 0.000000 0.000000 0.001292 0.000000 0.027907
#
#
# Mechanical properties :
#
#
# Convention : Reuss Voigt Hill
#
# Bulk Modulus (GPa) = 50.47706 53.55612 52.01659
# Shear Modulus (GPa) = 28.49868 29.98142 29.24005
#
# Velocity S-wave (km/s) = 3.69849 3.79349 3.74629
# Velocity P-wave (km/s) = 6.51663 6.70025 6.60908
#
# Compressibility (1/GPa) = 0.01981098
#
# Stress axis : x y z
#
# Youngs Moduli (GPa) = 72.31868 85.38368 55.78705
#
# Poissons Ratio (x) = 0.16768 0.18492
# Poissons Ratio (y) = 0.14202 0.36531
# Poissons Ratio (z) = 0.23972 0.55912
#
# Static dielectric constant tensor:
#      x y z
#    x 3.544670 0.000000 -0.027010 
#    y 0.000000 4.412100 0.000000 
#    z -0.027010 0.000000 3.852360 
# 
# 
# High freq. dielectric constant tensor:
#      x y z
#    x 1.799740 0.000000 -0.010860 
#    y 0.000000 1.824470 0.000000 
#    z -0.010860 0.000000 1.817680 
# 
# From -- ./inp_files/40004.got.cif
#   From: 2010.03.12/outbox.cif.g09.slc.cpg/sg14_21_cif.got.tgz:40004.got - 2010.03.31 13:35:05.
