data_PCOD8127942
_publ_section_title
;
Structure prediction by ZEFSAII (Michael W. Deem and Ramdas Pophale) SiO2 
 PCOD8127942
Probable space group: P 21/C
;
_chemical_formula_sum "Si O2"
_cell_formula_units_Z 20
_cell_length_a 16.375869
_cell_length_b 7.475702
_cell_length_c 11.870722
_cell_angle_alpha 90.000000
_cell_angle_beta 150.651421
_cell_angle_gamma 90.000000
_cell_volume 712.258067
_symmetry_space_group_name_H-M "P 21/C"
_symmetry_group_IT_number 14
_symmetry_cell_setting 'monoclinic'
loop_
_space_group_symop_operation_xyz
x,y,z
-x,1/2+y,1/2-z
-x,-y,-z
x,1/2-y,1/2+z
loop_
_atom_site_type_symbol
_atom_site_label
_atom_site_fract_x
_atom_site_fract_y
_atom_site_fract_z
Si Si1 0.065026 0.800147 0.601709
Si Si2 0.238393 0.428383 0.134206
Si Si3 0.310805 0.980180 0.043645
Si Si4 0.509285 0.717773 0.414241
Si Si5 0.017975 0.956396 0.854836
O O1 0.075781 0.727034 0.486194
O O2 0.910016 0.950477 0.446532
O O3 0.995015 0.628176 0.583061
O O4 0.248451 0.839095 0.872911
O O5 0.351650 0.603914 0.266242
O O6 0.359263 0.266349 0.322761
O O7 0.156435 0.398367 0.914290
O O8 0.446438 0.908100 0.296130
O O9 0.395205 0.142405 0.080480
O O10 0.144921 0.025931 0.913091
#
# Coordination Sequence:
#
# PCOD8127942 Si02
#       5
#     4   4   4   4   4
#     4  10  23  43  70  98 129 184 224 275 329 407
#     4  10  24  43  68  92 138 174 228 270 330 400
#     4  11  26  43  70  98 142 173 226 275 338 402
#     4  11  26  44  65 105 133 178 219 284 339 396
#     4  10  23  44  66 100 134 176 227 273 330 405
#
# _framework density 28.079709000000001
#
# number of rings (size 3 to 8) (size 9 to 14) (size 15 to 20)
#    0.000    1.600    2.000    0.000   11.200    4.800 
#    0.000    2.000    0.000    0.000    0.000    0.000 
#    0.000    0.000    0.000    0.000    0.000    0.000 
#
# Total GULP energy -247902.828086 kJ/mol
# GULP energy per Si atom -12395.141404 kJ/mol
# Density = 2.801580 g / cm^3
# Si number density = 28.079709 Si / 1000 Ang^3
#
#
#
# Elastic Constant Matrix: (Units=GPa)
#
#
# Indices 1 2 3 4 5 6 
#
# 1 110.7904 23.4159 27.4527 0.0000 4.4139 0.0000
# 2 23.4159 54.3476 -0.1263 0.0000 10.2157 0.0000
# 3 27.4527 -0.1263 152.1935 0.0000 -0.7371 0.0000
# 4 0.0000 0.0000 0.0000 35.3938 0.0000 3.8929
# 5 4.4139 10.2157 -0.7371 0.0000 32.4709 0.0000
# 6 0.0000 0.0000 0.0000 3.8929 0.0000 28.4187
#
#
#
# Elastic Compliance Matrix: (Units=1/GPa)
#
#
# Indices 1 2 3 4 5 6 
#
# 1 0.010446 -0.004496 -0.001888 0.000000 -0.000048 0.000000
# 2 -0.004496 0.021492 0.000799 0.000000 -0.006132 0.000000
# 3 -0.001888 0.000799 0.006913 0.000000 0.000162 0.000000
# 4 0.000000 0.000000 0.000000 0.028686 0.000000 -0.003930
# 5 -0.000048 -0.006132 0.000162 0.000000 0.032736 0.000000
# 6 0.000000 0.000000 0.000000 -0.003930 0.000000 0.035726
#
#
# Mechanical properties :
#
#
# Convention : Reuss Voigt Hill
#
# Bulk Modulus (GPa) = 36.12695 46.53513 41.33104
# Shear Modulus (GPa) = 31.97014 37.02930 34.49972
#
# Velocity S-wave (km/s) = 3.37790 3.63536 3.50899
# Velocity P-wave (km/s) = 5.30164 5.85061 5.58288
#
# Compressibility (1/GPa) = 0.02768017
#
# Stress axis : x y z
#
# Youngs Moduli (GPa) = 95.72938 46.52950 144.66271
#
# Poissons Ratio (x) = 0.20920 0.27316
# Poissons Ratio (y) = 0.43040 -0.11560
# Poissons Ratio (z) = 0.18076 -0.03718
#
# Static dielectric constant tensor:
#      x y z
#    x 5.552380 0.000000 -0.220800 
#    y 0.000000 5.402050 0.000000 
#    z -0.220800 0.000000 5.829000 
# 
# 
# High freq. dielectric constant tensor:
#      x y z
#    x 2.160960 0.000000 -0.003700 
#    y 0.000000 2.130850 0.000000 
#    z -0.003700 0.000000 2.154060 
# 
# From -- ./inp_files/27954.got.cif
#   From: 2010.03.12/outbox.cif.g09.slc.cpg/sg14_14_cif.got.tgz:27954.got - 2010.03.31 13:35:05.
