data_PCOD8127996
_publ_section_title
;
Structure prediction by ZEFSAII (Michael W. Deem and Ramdas Pophale) SiO2 
 PCOD8127996
Probable space group: P 21/C
;
_chemical_formula_sum "Si O2"
_cell_formula_units_Z 28
_cell_length_a 6.763801
_cell_length_b 11.350258
_cell_length_c 19.516609
_cell_angle_alpha 90.000000
_cell_angle_beta 59.122173
_cell_angle_gamma 90.000000
_cell_volume 1285.942646
_symmetry_space_group_name_H-M "P 21/C"
_symmetry_group_IT_number 14
_symmetry_cell_setting 'monoclinic'
loop_
_space_group_symop_operation_xyz
x,y,z
-x,1/2+y,1/2-z
-x,-y,-z
x,1/2-y,1/2+z
loop_
_atom_site_type_symbol
_atom_site_label
_atom_site_fract_x
_atom_site_fract_y
_atom_site_fract_z
Si Si1 0.825039 0.087622 0.136788
Si Si2 0.653009 0.265285 0.058753
Si Si3 0.398750 0.649739 0.183933
Si Si4 0.768400 0.035344 0.640295
Si Si5 0.737830 0.062042 0.434633
Si Si6 0.435866 0.912925 0.184108
Si Si7 0.332721 0.068357 0.080158
O O1 0.792389 0.166895 0.075109
O O2 0.756380 0.151253 0.219960
O O3 0.092272 0.064175 0.085389
O O4 0.688737 0.964608 0.155554
O O5 0.641744 0.382233 0.107196
O O6 0.408884 0.203681 0.082783
O O7 0.764794 0.311119 0.967802
O O8 0.644036 0.590559 0.156858
O O9 0.261876 0.584814 0.146936
O O10 0.459565 0.782049 0.149913
O O11 0.724554 0.093789 0.721063
O O12 0.044325 0.019601 0.582242
O O13 0.500000 0.000000 0.500000
O O14 0.305968 0.998405 0.155342
O O15 0.500000 0.000000 0.000000
#
# Coordination Sequence:
#
# PCOD8127996 Si02
#       7
#     4   4   4   4   4   4   4
#     4  10  24  45  69  96 134 182 221 279 333 400
#     4  11  24  42  69  96 133 176 214 279 333 394
#     4  11  23  43  69  98 135 179 223 277 337 403
#     4  11  24  45  66  98 139 175 224 276 338 404
#     4  12  26  40  64 105 137 173 222 276 338 396
#     4  10  23  44  69  99 128 179 230 270 336 399
#     4  11  25  45  67  99 134 174 230 276 335 396
#
# _framework density 21.773909
#
# number of rings (size 3 to 8) (size 9 to 14) (size 15 to 20)
#    0.000    1.143    2.857    2.143    2.000    5.714 
#    5.143    0.000    0.000    0.000    0.000    0.000 
#    0.000    0.000    0.000    0.000    0.000    0.000 
#
# Total GULP energy -347125.851107 kJ/mol
# GULP energy per Si atom -12397.351825 kJ/mol
# Density = 2.172435 g / cm^3
# Si number density = 21.773909 Si / 1000 Ang^3
#
#
#
# Elastic Constant Matrix: (Units=GPa)
#
#
# Indices 1 2 3 4 5 6 
#
# 1 113.0963 32.5730 46.4117 0.0000 -14.3287 0.0000
# 2 32.5730 111.1125 18.1139 0.0000 -13.3061 0.0000
# 3 46.4117 18.1139 77.2272 0.0000 -3.7588 0.0000
# 4 0.0000 0.0000 0.0000 27.5594 0.0000 9.9766
# 5 -14.3287 -13.3061 -3.7588 0.0000 44.6712 0.0000
# 6 0.0000 0.0000 0.0000 9.9766 0.0000 26.5644
#
#
#
# Elastic Compliance Matrix: (Units=1/GPa)
#
#
# Indices 1 2 3 4 5 6 
#
# 1 0.012709 -0.002251 -0.006972 0.000000 0.002819 0.000000
# 2 -0.002251 0.010071 -0.000902 0.000000 0.002202 0.000000
# 3 -0.006972 -0.000902 0.017300 0.000000 -0.001049 0.000000
# 4 0.000000 0.000000 0.000000 0.041995 0.000000 -0.015772
# 5 0.002819 0.002202 -0.001049 0.000000 0.023858 0.000000
# 6 0.000000 0.000000 0.000000 -0.015772 0.000000 0.043568
#
#
# Mechanical properties :
#
#
# Convention : Reuss Voigt Hill
#
# Bulk Modulus (GPa) = 50.43489 55.07037 52.75263
# Shear Modulus (GPa) = 28.35115 33.38149 30.86632
#
# Velocity S-wave (km/s) = 3.61233 3.91972 3.76916
# Velocity P-wave (km/s) = 6.37275 6.76997 6.57436
#
# Compressibility (1/GPa) = 0.01982755
#
# Stress axis : x y z
#
# Youngs Moduli (GPa) = 78.68469 99.29919 57.80488
#
# Poissons Ratio (x) = 0.22356 0.40304
# Poissons Ratio (y) = 0.17715 0.05213
# Poissons Ratio (z) = 0.54863 0.08956
#
# Static dielectric constant tensor:
#      x y z
#    x 4.119520 0.000000 0.384320 
#    y 0.000000 4.002020 0.000000 
#    z 0.384320 0.000000 3.928810 
# 
# 
# High freq. dielectric constant tensor:
#      x y z
#    x 1.860180 0.000000 0.023100 
#    y 0.000000 1.860760 0.000000 
#    z 0.023100 0.000000 1.853830 
# 
# From -- ./inp_files/63433.got.cif
#   From: 2010.03.12/outbox.cif.g09.slc.cpg/sg14_32_cif.got.tgz:63433.got - 2010.03.31 13:35:05.
