data_PCOD8127430
_publ_section_title
;
Structure prediction by ZEFSAII (Michael W. Deem and Ramdas Pophale) SiO2 
 PCOD8127430
Probable space group: P 21/C
;
_chemical_formula_sum "Si O2"
_cell_formula_units_Z 24
_cell_length_a 7.597188
_cell_length_b 12.883288
_cell_length_c 11.802083
_cell_angle_alpha 90.000000
_cell_angle_beta 66.989440
_cell_angle_gamma 90.000000
_cell_volume 1063.237660
_symmetry_space_group_name_H-M "P 21/C"
_symmetry_group_IT_number 14
_symmetry_cell_setting 'monoclinic'
loop_
_space_group_symop_operation_xyz
x,y,z
-x,1/2+y,1/2-z
-x,-y,-z
x,1/2-y,1/2+z
loop_
_atom_site_type_symbol
_atom_site_label
_atom_site_fract_x
_atom_site_fract_y
_atom_site_fract_z
Si Si1 0.456137 0.722664 0.411082
Si Si2 0.741873 0.883657 0.435520
Si Si3 0.888147 0.256493 0.646422
Si Si4 0.308135 0.604643 0.645785
Si Si5 0.983137 0.462250 0.739376
Si Si6 0.675117 0.574832 0.203728
O O1 0.569177 0.824361 0.419320
O O2 0.237188 0.752786 0.436899
O O3 0.458850 0.635998 0.510671
O O4 0.553616 0.673420 0.275653
O O5 0.664986 0.933343 0.571215
O O6 0.914764 0.804941 0.420313
O O7 0.802854 0.976885 0.337246
O O8 0.766839 0.210563 0.780278
O O9 0.919202 0.377494 0.664804
O O10 0.406248 0.532095 0.718515
O O11 0.125235 0.543054 0.639435
O O12 0.103703 0.409914 0.812322
#
# Coordination Sequence:
#
# PCOD8127430 Si02
#       6
#     4   4   4   4   4   4
#     4  12  24  40  67  99 134 172 215 269 331 385
#     4  11  23  44  69  95 133 173 220 268 322 386
#     4  11  24  41  67  98 131 172 220 269 322 389
#     4   9  23  41  65  93 133 171 219 271 320 390
#     4   9  22  43  68  94 129 176 216 267 325 381
#     4  10  22  42  68  92 131 175 215 273 320 385
#
# _framework density 22.572565000000001
#
# number of rings (size 3 to 8) (size 9 to 14) (size 15 to 20)
#    1.000    0.667    1.667    2.000    2.333    2.000 
#    0.000    4.167    0.000    0.000    0.000    0.000 
#    0.000    0.000    0.000    0.000    0.000    0.000 
#
# Total GULP energy -297542.785957 kJ/mol
# GULP energy per Si atom -12397.616082 kJ/mol
# Density = 2.252119 g / cm^3
# Si number density = 22.572565 Si / 1000 Ang^3
#
#
#
# Elastic Constant Matrix: (Units=GPa)
#
#
# Indices 1 2 3 4 5 6 
#
# 1 72.9011 26.8972 -0.0196 0.0000 10.4842 0.0000
# 2 26.8972 88.7826 19.4043 0.0000 -3.0991 0.0000
# 3 -0.0196 19.4043 67.8191 0.0000 -12.5759 0.0000
# 4 0.0000 0.0000 0.0000 31.7079 0.0000 -8.6123
# 5 10.4842 -3.0991 -12.5759 0.0000 18.2755 0.0000
# 6 0.0000 0.0000 0.0000 -8.6123 0.0000 30.5665
#
#
#
# Elastic Compliance Matrix: (Units=1/GPa)
#
#
# Indices 1 2 3 4 5 6 
#
# 1 0.017384 -0.005551 -0.000493 0.000000 -0.011254 0.000000
# 2 -0.005551 0.013790 -0.003350 0.000000 0.003218 0.000000
# 3 -0.000493 -0.003350 0.017940 0.000000 0.012060 0.000000
# 4 0.000000 0.000000 0.000000 0.034151 0.000000 0.009622
# 5 -0.011254 0.003218 0.012060 0.000000 0.070018 0.000000
# 6 0.000000 0.000000 0.000000 0.009622 0.000000 0.035427
#
#
# Mechanical properties :
#
#
# Convention : Reuss Voigt Hill
#
# Bulk Modulus (GPa) = 32.97844 35.78517 34.38180
# Shear Modulus (GPa) = 22.97707 28.32471 25.65089
#
# Velocity S-wave (km/s) = 3.19395 3.54620 3.37467
# Velocity P-wave (km/s) = 5.31445 5.71447 5.51809
#
# Compressibility (1/GPa) = 0.03032284
#
# Stress axis : x y z
#
# Youngs Moduli (GPa) = 57.52503 72.51675 55.74173
#
# Poissons Ratio (x) = 0.40258 0.02750
# Poissons Ratio (y) = 0.31935 0.18676
# Poissons Ratio (z) = 0.02838 0.24297
#
# Static dielectric constant tensor:
#      x y z
#    x 3.916290 0.000000 -0.111670 
#    y 0.000000 3.964150 0.000000 
#    z -0.111670 0.000000 3.713960 
# 
# 
# High freq. dielectric constant tensor:
#      x y z
#    x 1.877980 0.000000 -0.006540 
#    y 0.000000 1.895820 0.000000 
#    z -0.006540 0.000000 1.874310 
# 
# From -- ./inp_files/24058.got.cif
#   From: 2010.03.12/outbox.cif.g09.slc.cpg/sg14_13_cif.got.tgz:24058.got - 2010.03.31 13:35:05.
