data_PCOD8127979
_publ_section_title
;
Structure prediction by ZEFSAII (Michael W. Deem and Ramdas Pophale) SiO2 
 PCOD8127979
Probable space group: P 21/C
;
_chemical_formula_sum "Si O2"
_cell_formula_units_Z 24
_cell_length_a 6.800607
_cell_length_b 14.282695
_cell_length_c 13.062634
_cell_angle_alpha 90.000000
_cell_angle_beta 115.935097
_cell_angle_gamma 90.000000
_cell_volume 1141.007198
_symmetry_space_group_name_H-M "P 21/C"
_symmetry_group_IT_number 14
_symmetry_cell_setting 'monoclinic'
loop_
_space_group_symop_operation_xyz
x,y,z
-x,1/2+y,1/2-z
-x,-y,-z
x,1/2-y,1/2+z
loop_
_atom_site_type_symbol
_atom_site_label
_atom_site_fract_x
_atom_site_fract_y
_atom_site_fract_z
Si Si1 0.930099 0.367864 0.699860
Si Si2 0.489986 0.097532 0.789159
Si Si3 0.507444 0.829517 0.992245
Si Si4 0.963749 0.524245 0.874587
Si Si5 0.799163 0.938308 0.916699
Si Si6 0.745177 0.176504 0.661777
O O1 0.701257 0.394046 0.589846
O O2 0.955553 0.429015 0.807563
O O3 0.927257 0.256967 0.726219
O O4 0.133673 0.384720 0.671148
O O5 0.259360 0.081962 0.682771
O O6 0.660018 0.145295 0.752085
O O7 0.585312 0.998612 0.845787
O O8 0.457636 0.165246 0.878765
O O9 0.729645 0.863048 0.986973
O O10 0.453820 0.721609 0.950003
O O11 0.159837 0.588791 0.878094
O O12 0.000000 0.500000 0.000000
O O13 0.000000 0.000000 0.000000
#
# Coordination Sequence:
#
# PCOD8127979 Si02
#       6
#     4   4   4   4   4   4
#     4  10  23  44  66 103 142 183 241 294 343 422
#     4  12  23  44  72 101 139 183 241 291 359 422
#     4  10  24  42  70 102 139 176 246 301 345 421
#     4  12  27  48  71 102 150 193 235 296 368 430
#     4  12  20  40  74 102 132 181 235 304 356 410
#     4  10  26  44  66 108 139 193 238 292 357 422
#
# _framework density 21.034046
#
# number of rings (size 3 to 8) (size 9 to 14) (size 15 to 20)
#    1.000    0.000    5.000    1.500    4.667    0.667 
#    3.000    0.000    0.000    0.000    0.000    0.000 
#    0.000    0.000    0.000    0.000    0.000    0.000 
#
# Total GULP energy -297588.541211 kJ/mol
# GULP energy per Si atom -12399.522550 kJ/mol
# Density = 2.098617 g / cm^3
# Si number density = 21.034046 Si / 1000 Ang^3
#
#
#
# Elastic Constant Matrix: (Units=GPa)
#
#
# Indices 1 2 3 4 5 6 
#
# 1 93.4468 25.7710 48.2705 0.0000 -24.7963 0.0000
# 2 25.7710 89.7878 48.6660 0.0000 -19.1167 0.0000
# 3 48.2705 48.6660 143.6322 0.0000 -24.5452 0.0000
# 4 0.0000 0.0000 0.0000 21.8122 0.0000 -2.0744
# 5 -24.7963 -19.1167 -24.5452 0.0000 46.3637 0.0000
# 6 0.0000 0.0000 0.0000 -2.0744 0.0000 28.9998
#
#
#
# Elastic Compliance Matrix: (Units=1/GPa)
#
#
# Indices 1 2 3 4 5 6 
#
# 1 0.014214 -0.001043 -0.003516 0.000000 0.005311 0.000000
# 2 -0.001043 0.014254 -0.003925 0.000000 0.003241 0.000000
# 3 -0.003516 -0.003925 0.009759 0.000000 0.001667 0.000000
# 4 0.000000 0.000000 0.000000 0.046160 0.000000 0.003302
# 5 0.005311 0.003241 0.001667 0.000000 0.026628 0.000000
# 6 0.000000 0.000000 0.000000 0.003302 0.000000 0.034719
#
#
# Mechanical properties :
#
#
# Convention : Reuss Voigt Hill
#
# Bulk Modulus (GPa) = 47.04022 63.58687 55.31355
# Shear Modulus (GPa) = 29.44810 33.04574 31.24692
#
# Velocity S-wave (km/s) = 3.74574 3.96796 3.85845
# Velocity P-wave (km/s) = 6.41248 7.16164 6.79738
#
# Compressibility (1/GPa) = 0.02125840
#
# Stress axis : x y z
#
# Youngs Moduli (GPa) = 70.35115 70.15345 102.47236
#
# Poissons Ratio (x) = 0.07320 0.36029
# Poissons Ratio (y) = 0.07341 0.40222
# Poissons Ratio (z) = 0.24735 0.27536
#
# Static dielectric constant tensor:
#      x y z
#    x 3.871880 0.000000 -0.052220 
#    y 0.000000 3.813410 0.000000 
#    z -0.052220 0.000000 3.610930 
# 
# 
# High freq. dielectric constant tensor:
#      x y z
#    x 1.836980 0.000000 -0.014720 
#    y 0.000000 1.816530 0.000000 
#    z -0.014720 0.000000 1.813410 
# 
# From -- ./inp_files/21288.got.cif
#   From: 2010.03.12/outbox.cif.g09.slc.cpg/sg14_11_cif.got.tgz:21288.got - 2010.03.31 13:35:05.
