data_PCOD8127371
_publ_section_title
;
Structure prediction by ZEFSAII (Michael W. Deem and Ramdas Pophale) SiO2 
 PCOD8127371
Probable space group: P 21/C
;
_chemical_formula_sum "Si O2"
_cell_formula_units_Z 16
_cell_length_a 18.489924
_cell_length_b 8.776289
_cell_length_c 13.768478
_cell_angle_alpha 90.000000
_cell_angle_beta 158.542522
_cell_angle_gamma 90.000000
_cell_volume 817.312768
_symmetry_space_group_name_H-M "P 21/C"
_symmetry_group_IT_number 14
_symmetry_cell_setting 'monoclinic'
loop_
_space_group_symop_operation_xyz
x,y,z
-x,1/2+y,1/2-z
-x,-y,-z
x,1/2-y,1/2+z
loop_
_atom_site_type_symbol
_atom_site_label
_atom_site_fract_x
_atom_site_fract_y
_atom_site_fract_z
Si Si1 0.688076 0.346874 0.491094
Si Si2 0.616210 0.358995 0.189094
Si Si3 0.359166 0.328923 0.493818
Si Si4 0.048298 0.675467 0.543337
O O1 0.724700 0.405528 0.426213
O O2 0.649491 0.489198 0.513541
O O3 0.878521 0.251768 0.764828
O O4 0.494693 0.236831 0.251485
O O5 0.778017 0.298998 0.316867
O O6 0.500000 0.500000 0.000000
O O7 0.457334 0.224450 0.014026
O O8 0.141665 0.261212 0.234446
O O9 0.000000 0.500000 0.500000
#
# Coordination Sequence:
#
# PCOD8127371 Si02
#       4
#     4   4   4   4
#     4  10  23  43  63  99 129 177 217 276 329 390
#     4  10  22  42  65  93 128 171 214 268 333 385
#     4  10  22  42  63  91 136 163 225 274 319 405
#     4  12  22  41  66  92 133 174 217 273 330 390
#
# _framework density 19.576350000000001
#
# number of rings (size 3 to 8) (size 9 to 14) (size 15 to 20)
#    1.500    0.000    2.500    3.750    0.000    3.000 
#    4.500    0.000    0.000    0.000    0.000    0.000 
#    0.000    0.000    0.000    0.000    0.000    0.000 
#
# Total GULP energy -198323.626730 kJ/mol
# GULP energy per Si atom -12395.226671 kJ/mol
# Density = 1.953179 g / cm^3
# Si number density = 19.576350 Si / 1000 Ang^3
#
#
#
# Elastic Constant Matrix: (Units=GPa)
#
#
# Indices 1 2 3 4 5 6 
#
# 1 86.6279 21.7005 6.4497 0.0000 8.4089 0.0000
# 2 21.7005 134.5485 48.3032 0.0000 -6.7241 0.0000
# 3 6.4497 48.3032 102.2272 0.0000 3.6314 0.0000
# 4 0.0000 0.0000 0.0000 47.3861 0.0000 -4.6643
# 5 8.4089 -6.7241 3.6314 0.0000 38.0552 0.0000
# 6 0.0000 0.0000 0.0000 -4.6643 0.0000 33.7155
#
#
#
# Elastic Compliance Matrix: (Units=1/GPa)
#
#
# Indices 1 2 3 4 5 6 
#
# 1 0.012401 -0.002311 0.000423 0.000000 -0.003189 0.000000
# 2 -0.002311 0.009534 -0.004452 0.000000 0.002620 0.000000
# 3 0.000423 -0.004452 0.011931 0.000000 -0.002019 0.000000
# 4 0.000000 0.000000 0.000000 0.021395 0.000000 0.002960
# 5 -0.003189 0.002620 -0.002019 0.000000 0.027638 0.000000
# 6 0.000000 0.000000 0.000000 0.002960 0.000000 0.030069
#
#
# Mechanical properties :
#
#
# Convention : Reuss Voigt Hill
#
# Bulk Modulus (GPa) = 47.20374 52.92337 50.06356
# Shear Modulus (GPa) = 37.67599 40.29472 38.98535
#
# Velocity S-wave (km/s) = 4.39175 4.54181 4.46741
# Velocity P-wave (km/s) = 7.06269 7.38898 7.22768
#
# Compressibility (1/GPa) = 0.02118476
#
# Stress axis : x y z
#
# Youngs Moduli (GPa) = 80.64096 104.88360 83.81585
#
# Poissons Ratio (x) = 0.24241 -0.03545
# Poissons Ratio (y) = 0.18638 0.37318
# Poissons Ratio (z) = -0.03411 0.46698
#
# Static dielectric constant tensor:
#      x y z
#    x 3.396400 0.000000 0.013180 
#    y 0.000000 3.491390 0.000000 
#    z 0.013180 0.000000 3.726880 
# 
# 
# High freq. dielectric constant tensor:
#      x y z
#    x 1.742920 0.000000 -0.002280 
#    y 0.000000 1.765230 0.000000 
#    z -0.002280 0.000000 1.772340 
# 
# From -- ./inp_files/38486.got.cif
#   From: 2010.03.12/outbox.cif.g09.slc.cpg/sg14_20_cif.got.tgz:38486.got - 2010.03.31 13:35:05.
