data_PCOD8127940
_publ_section_title
;
Structure prediction by ZEFSAII (Michael W. Deem and Ramdas Pophale) SiO2 
 PCOD8127940
Probable space group: P 21/C
;
_chemical_formula_sum "Si O2"
_cell_formula_units_Z 32
_cell_length_a 14.579402
_cell_length_b 17.211280
_cell_length_c 11.519128
_cell_angle_alpha 90.000000
_cell_angle_beta 30.131026
_cell_angle_gamma 90.000000
_cell_volume 1450.969095
_symmetry_space_group_name_H-M "P 21/C"
_symmetry_group_IT_number 14
_symmetry_cell_setting 'monoclinic'
loop_
_space_group_symop_operation_xyz
x,y,z
-x,1/2+y,1/2-z
-x,-y,-z
x,1/2-y,1/2+z
loop_
_atom_site_type_symbol
_atom_site_label
_atom_site_fract_x
_atom_site_fract_y
_atom_site_fract_z
Si Si1 0.142366 0.064344 0.883034
Si Si2 0.909956 0.296525 0.678089
Si Si3 0.470151 0.994312 0.894732
Si Si4 0.011092 0.336001 0.220217
Si Si5 0.766174 0.388978 0.050034
Si Si6 0.681044 0.231478 0.225753
Si Si7 0.621787 0.870762 0.562388
Si Si8 0.103370 0.013241 0.182233
O O1 0.315881 0.066119 0.604936
O O2 0.187314 0.045504 0.968131
O O3 0.061628 0.150747 0.948502
O O4 0.000000 0.000000 0.000000
O O5 0.000520 0.212943 0.610980
O O6 0.718450 0.289287 0.818418
O O7 0.852883 0.345821 0.849049
O O8 0.504221 0.911621 0.793762
O O9 0.609992 0.052490 0.679507
O O10 0.500000 0.000000 0.000000
O O11 0.262486 0.019408 0.102104
O O12 0.862737 0.296562 0.463651
O O13 0.968757 0.426061 0.250650
O O14 0.210974 0.326938 0.058027
O O15 0.672711 0.325496 0.235932
O O16 0.936076 0.436874 0.918446
O O17 0.501636 0.193660 0.367147
#
# Coordination Sequence:
#
# PCOD8127940 Si02
#       8
#     4   4   4   4   4   4   4   4
#     4  11  21  43  75 106 140 179 243 291 359 417
#     4  10  23  43  70 100 140 186 232 290 354 431
#     4  12  28  44  67 105 137 183 242 284 353 431
#     4  11  22  45  69  98 145 180 231 284 362 425
#     4  10  25  45  65 101 139 178 236 288 349 421
#     4  11  24  42  69 103 138 185 233 283 361 415
#     4  12  24  44  73 104 142 186 231 308 353 421
#     4  11  23  45  72 101 140 186 236 291 352 432
#
# _framework density 22.054224000000001
#
# number of rings (size 3 to 8) (size 9 to 14) (size 15 to 20)
#    0.000    1.000    5.000    0.750    3.500    5.000 
#    4.500    0.000    0.000    0.000    0.000    0.000 
#    0.000    0.000    0.000    0.000    0.000    0.000 
#
# Total GULP energy -396567.764199 kJ/mol
# GULP energy per Si atom -12392.742631 kJ/mol
# Density = 2.200403 g / cm^3
# Si number density = 22.054224 Si / 1000 Ang^3
#
#
#
# Elastic Constant Matrix: (Units=GPa)
#
#
# Indices 1 2 3 4 5 6 
#
# 1 154.4007 58.6198 37.1653 0.0000 -40.2372 0.0000
# 2 58.6198 111.8493 43.4467 0.0000 -17.1749 0.0000
# 3 37.1653 43.4467 71.9451 0.0000 -26.4973 0.0000
# 4 0.0000 0.0000 0.0000 28.3757 0.0000 -1.0509
# 5 -40.2372 -17.1749 -26.4973 0.0000 45.0276 0.0000
# 6 0.0000 0.0000 0.0000 -1.0509 0.0000 31.3232
#
#
#
# Elastic Compliance Matrix: (Units=1/GPa)
#
#
# Indices 1 2 3 4 5 6 
#
# 1 0.009934 -0.004097 0.000046 0.000000 0.007342 0.000000
# 2 -0.004097 0.013376 -0.006933 0.000000 -0.002639 0.000000
# 3 0.000046 -0.006933 0.021836 0.000000 0.010247 0.000000
# 4 0.000000 0.000000 0.000000 0.035285 0.000000 0.001184
# 5 0.007342 -0.002639 0.010247 0.000000 0.033793 0.000000
# 6 0.000000 0.000000 0.000000 0.001184 0.000000 0.031965
#
#
# Mechanical properties :
#
#
# Convention : Reuss Voigt Hill
#
# Bulk Modulus (GPa) = 43.14284 68.51762 55.83023
# Shear Modulus (GPa) = 28.42804 34.20953 31.31878
#
# Velocity S-wave (km/s) = 3.59417 3.94274 3.77248
# Velocity P-wave (km/s) = 6.06867 7.20154 6.65924
#
# Compressibility (1/GPa) = 0.02317882
#
# Stress axis : x y z
#
# Youngs Moduli (GPa) = 100.66066 74.76263 45.79570
#
# Poissons Ratio (x) = 0.30632 -0.00212
# Poissons Ratio (y) = 0.41243 0.31750
# Poissons Ratio (z) = -0.00467 0.51832
#
# Static dielectric constant tensor:
#      x y z
#    x 4.632880 0.000000 0.079880 
#    y 0.000000 5.083050 0.000000 
#    z 0.079880 0.000000 4.089310 
# 
# 
# High freq. dielectric constant tensor:
#      x y z
#    x 1.871210 0.000000 -0.001550 
#    y 0.000000 1.875780 0.000000 
#    z -0.001550 0.000000 1.859330 
# 
# From -- ./inp_files/32969.got.cif
#   From: 2010.03.12/outbox.cif.g09.slc.cpg/sg14_17_cif.got.tgz:32969.got - 2010.03.31 13:35:05.
