data_PCOD8127597
_publ_section_title
;
Structure prediction by ZEFSAII (Michael W. Deem and Ramdas Pophale) SiO2 
 PCOD8127597
Probable space group: P 21/C
;
_chemical_formula_sum "Si O2"
_cell_formula_units_Z 32
_cell_length_a 23.869700
_cell_length_b 10.744005
_cell_length_c 17.988954
_cell_angle_alpha 90.000000
_cell_angle_beta 17.982089
_cell_angle_gamma 90.000000
_cell_volume 1424.240659
_symmetry_space_group_name_H-M "P 21/C"
_symmetry_group_IT_number 14
_symmetry_cell_setting 'monoclinic'
loop_
_space_group_symop_operation_xyz
x,y,z
-x,1/2+y,1/2-z
-x,-y,-z
x,1/2-y,1/2+z
loop_
_atom_site_type_symbol
_atom_site_label
_atom_site_fract_x
_atom_site_fract_y
_atom_site_fract_z
Si Si1 0.424319 0.804367 0.645554
Si Si2 0.867156 0.910718 0.445842
Si Si3 0.523299 0.092372 0.122684
Si Si4 0.727623 0.885335 0.779648
Si Si5 0.059290 0.680233 0.138802
Si Si6 0.901796 0.750766 0.685724
Si Si7 0.429355 0.067609 0.402836
Si Si8 0.283859 0.840181 0.668095
O O1 0.618039 0.737150 0.392255
O O2 0.432719 0.898894 0.704415
O O3 0.381813 0.876603 0.622330
O O4 0.269822 0.701256 0.853598
O O5 0.686145 0.878100 0.629147
O O6 0.833731 0.936999 0.574836
O O7 0.998779 0.792009 0.270029
O O8 0.955309 0.042064 0.305211
O O9 0.544661 0.051087 0.181749
O O10 0.649334 0.209159 0.947215
O O11 0.584107 0.983764 0.991177
O O12 0.876783 0.855203 0.654103
O O13 0.937489 0.682102 0.218636
O O14 0.068073 0.661305 0.453571
O O15 0.716464 0.675072 0.926337
O O16 0.326797 0.940507 0.551086
#
# Coordination Sequence:
#
# PCOD8127597 Si02
#       8
#     4   4   4   4   4   4   4   4
#     4  10  22  44  70 101 131 185 231 278 349 421
#     4  12  25  45  71 104 139 185 231 293 352 413
#     4  12  25  42  70 102 135 183 232 290 342 411
#     4  11  23  45  74  95 137 183 237 275 343 426
#     4  11  25  45  71 100 143 177 233 293 349 413
#     4  10  24  45  67 103 135 179 228 291 345 415
#     4  11  25  42  70 101 144 175 228 292 351 413
#     4  11  24  43  69  98 138 182 230 281 354 416
#
# _framework density 22.468114
#
# number of rings (size 3 to 8) (size 9 to 14) (size 15 to 20)
#    0.000    1.000    3.750    2.625    3.500    6.000 
#    9.000    0.000    0.000    0.000    0.000    0.000 
#    0.000    0.000    0.000    0.000    0.000    0.000 
#
# Total GULP energy -396929.131955 kJ/mol
# GULP energy per Si atom -12404.035374 kJ/mol
# Density = 2.241698 g / cm^3
# Si number density = 22.468114 Si / 1000 Ang^3
#
#
#
# Elastic Constant Matrix: (Units=GPa)
#
#
# Indices 1 2 3 4 5 6 
#
# 1 92.9387 17.9558 34.5776 0.0000 15.2717 0.0000
# 2 17.9558 74.9404 18.1720 0.0000 10.0674 0.0000
# 3 34.5776 18.1720 59.8444 0.0000 7.3023 0.0000
# 4 0.0000 0.0000 0.0000 28.8531 0.0000 8.3145
# 5 15.2717 10.0674 7.3023 0.0000 40.7262 0.0000
# 6 0.0000 0.0000 0.0000 8.3145 0.0000 29.1393
#
#
#
# Elastic Compliance Matrix: (Units=1/GPa)
#
#
# Indices 1 2 3 4 5 6 
#
# 1 0.014392 -0.001119 -0.007515 0.000000 -0.003773 0.000000
# 2 -0.001119 0.014820 -0.003535 0.000000 -0.002610 0.000000
# 3 -0.007515 -0.003535 0.022160 0.000000 -0.000281 0.000000
# 4 0.000000 0.000000 0.000000 0.037763 0.000000 -0.010775
# 5 -0.003773 -0.002610 -0.000281 0.000000 0.026664 0.000000
# 6 0.000000 0.000000 0.000000 -0.010775 0.000000 0.037392
#
#
# Mechanical properties :
#
#
# Convention : Reuss Voigt Hill
#
# Bulk Modulus (GPa) = 36.99205 41.01491 39.00348
# Shear Modulus (GPa) = 26.80355 30.21158 28.50756
#
# Velocity S-wave (km/s) = 3.45767 3.67091 3.56589
# Velocity P-wave (km/s) = 5.69567 6.02178 5.86099
#
# Compressibility (1/GPa) = 0.02703284
#
# Stress axis : x y z
#
# Youngs Moduli (GPa) = 69.48306 67.47684 45.12617
#
# Poissons Ratio (x) = 0.07552 0.33914
# Poissons Ratio (y) = 0.07776 0.15952
# Poissons Ratio (z) = 0.52219 0.23853
#
# Static dielectric constant tensor:
#      x y z
#    x 4.268850 0.000000 -0.009790 
#    y 0.000000 3.936490 0.000000 
#    z -0.009790 0.000000 3.896930 
# 
# 
# High freq. dielectric constant tensor:
#      x y z
#    x 1.895500 0.000000 -0.003040 
#    y 0.000000 1.880720 0.000000 
#    z -0.003040 0.000000 1.879710 
# 
# From -- ./inp_files/61996.got.cif
#   From: 2010.03.12/outbox.cif.g09.slc.cpg/sg14_31_cif.got.tgz:61996.got - 2010.03.31 13:35:05.
