data_PCOD8127590
_publ_section_title
;
Structure prediction by ZEFSAII (Michael W. Deem and Ramdas Pophale) SiO2 
 PCOD8127590
Probable space group: P 21/C
;
_chemical_formula_sum "Si O2"
_cell_formula_units_Z 32
_cell_length_a 8.612004
_cell_length_b 18.948022
_cell_length_c 10.878716
_cell_angle_alpha 90.000000
_cell_angle_beta 57.272274
_cell_angle_gamma 90.000000
_cell_volume 1493.380360
_symmetry_space_group_name_H-M "P 21/C"
_symmetry_group_IT_number 14
_symmetry_cell_setting 'monoclinic'
loop_
_space_group_symop_operation_xyz
x,y,z
-x,1/2+y,1/2-z
-x,-y,-z
x,1/2-y,1/2+z
loop_
_atom_site_type_symbol
_atom_site_label
_atom_site_fract_x
_atom_site_fract_y
_atom_site_fract_z
Si Si1 0.399522 0.966201 0.928342
Si Si2 0.625096 0.593684 0.739242
Si Si3 0.565084 0.877501 0.675424
Si Si4 0.036553 0.610299 0.656970
Si Si5 0.307034 0.600079 0.074609
Si Si6 0.748232 0.248934 0.960077
Si Si7 0.107500 0.467669 0.065753
Si Si8 0.527881 0.268864 0.304773
O O1 0.519614 0.897814 0.836226
O O2 0.411719 0.021081 0.812506
O O3 0.189839 0.942199 0.037353
O O4 0.500000 0.000000 0.000000
O O5 0.575630 0.657966 0.670360
O O6 0.838865 0.598190 0.681197
O O7 0.494490 0.595555 0.913919
O O8 0.372479 0.892227 0.686141
O O9 0.724246 0.924964 0.557057
O O10 0.620239 0.795379 0.635575
O O11 0.084986 0.692904 0.619487
O O12 0.023603 0.586608 0.805104
O O13 0.187744 0.669791 0.088888
O O14 0.179138 0.531430 0.120855
O O15 0.613463 0.227455 0.904861
O O16 0.665283 0.248126 0.133472
O O17 0.000000 0.500000 0.000000
#
# Coordination Sequence:
#
# PCOD8127590 Si02
#       8
#     4   4   4   4   4   4   4   4
#     4  12  24  41  68  98 135 176 219 277 338 398
#     4  11  23  42  69  95 135 177 224 274 337 402
#     4  11  21  44  69  90 131 178 222 262 340 411
#     4  12  25  43  64 106 137 168 227 289 334 393
#     4  10  22  44  69  93 126 187 219 263 338 411
#     4  10  23  43  71  95 135 177 228 279 342 401
#     4  12  25  40  67 101 134 174 225 279 329 401
#     4  10  23  44  71  96 128 185 227 272 342 411
#
# _framework density 21.427897999999999
#
# number of rings (size 3 to 8) (size 9 to 14) (size 15 to 20)
#    0.000    1.000    3.750    3.000    3.500    1.000 
#    0.000    0.000    0.000    0.000    0.000    0.000 
#    0.000    0.000    0.000    0.000    0.000    0.000 
#
# Total GULP energy -396629.690873 kJ/mol
# GULP energy per Si atom -12394.677840 kJ/mol
# Density = 2.137913 g / cm^3
# Si number density = 21.427898 Si / 1000 Ang^3
#
#
#
# Elastic Constant Matrix: (Units=GPa)
#
#
# Indices 1 2 3 4 5 6 
#
# 1 -24.3853 104.9715 23.9377 0.0000 28.9655 0.0000
# 2 104.9715 -74.7984 19.7135 0.0000 -76.4849 0.0000
# 3 23.9377 19.7135 71.7140 0.0000 6.4499 0.0000
# 4 0.0000 0.0000 0.0000 -38.8159 0.0000 -22.3982
# 5 28.9655 -76.4849 6.4499 0.0000 9.0970 0.0000
# 6 0.0000 0.0000 0.0000 -22.3982 0.0000 28.1393
#
#
#
# Elastic Compliance Matrix: (Units=1/GPa)
#
#
# Indices 1 2 3 4 5 6 
#
# 1 0.031329 0.013513 -0.016469 0.000000 0.025537 0.000000
# 2 0.013513 0.004577 -0.005726 0.000000 -0.000481 0.000000
# 3 -0.016469 -0.005726 0.022034 0.000000 -0.011324 0.000000
# 4 0.000000 0.000000 0.000000 -0.017654 0.000000 -0.014052
# 5 0.025537 -0.000481 -0.011324 0.000000 0.032600 0.000000
# 6 0.000000 0.000000 0.000000 -0.014052 0.000000 0.024352
#
#
# Mechanical properties :
#
#
# Convention : Reuss Voigt Hill
#
# Bulk Modulus (GPa) = 24.64430 29.97508 27.30969
# Shear Modulus (GPa) = 39.02394 -12.05542 13.48426
#
# Velocity S-wave (km/s) = 4.27215 -2.37450 2.51128
# Velocity P-wave (km/s) = 5.98841 2.54981 4.60231
#
# Compressibility (1/GPa) = 0.04057734
#
# Stress axis : x y z
#
# Youngs Moduli (GPa) = 31.91969 218.46122 45.38481
#
# Poissons Ratio (x) = -2.95207 0.74743
# Poissons Ratio (y) = -0.43133 0.25986
# Poissons Ratio (z) = 0.52567 1.25082
#
# Static dielectric constant tensor:
#      x y z
#    x 4.304230 0.000000 0.128050 
#    y 0.000000 4.213230 0.000000 
#    z 0.128050 0.000000 3.897840 
# 
# 
# High freq. dielectric constant tensor:
#      x y z
#    x 1.826500 0.000000 0.021230 
#    y 0.000000 1.871010 0.000000 
#    z 0.021230 0.000000 1.839380 
# 
# From -- ./inp_files/26767.got.cif
#   From: 2010.03.12/outbox.cif.g09.slc.cpg/sg14_14_cif.got.tgz:26767.got - 2010.03.31 13:35:05.
