data_PCOD8127075
_publ_section_title
;
Structure prediction by ZEFSAII (Michael W. Deem and Ramdas Pophale) SiO2 
 PCOD8127075
Probable space group: P 21/C
;
_chemical_formula_sum "Si O2"
_cell_formula_units_Z 32
_cell_length_a 11.306249
_cell_length_b 8.628053
_cell_length_c 22.268891
_cell_angle_alpha 90.000000
_cell_angle_beta 45.893338
_cell_angle_gamma 90.000000
_cell_volume 1559.846381
_symmetry_space_group_name_H-M "P 21/C"
_symmetry_group_IT_number 14
_symmetry_cell_setting 'monoclinic'
loop_
_space_group_symop_operation_xyz
x,y,z
-x,1/2+y,1/2-z
-x,-y,-z
x,1/2-y,1/2+z
loop_
_atom_site_type_symbol
_atom_site_label
_atom_site_fract_x
_atom_site_fract_y
_atom_site_fract_z
Si Si1 0.508781 0.719198 0.081150
Si Si2 0.331071 0.814116 0.843695
Si Si3 0.556596 0.529704 0.793388
Si Si4 0.217545 0.716294 0.600384
Si Si5 0.743485 0.510673 0.518415
Si Si6 0.027436 0.794901 0.870651
Si Si7 0.120422 0.060339 0.758712
Si Si8 0.217998 0.441899 0.088117
O O1 0.493062 0.587566 0.136430
O O2 0.332012 0.774451 0.119020
O O3 0.594372 0.869180 0.079827
O O4 0.617153 0.650983 0.987922
O O5 0.429921 0.669331 0.834305
O O6 0.447073 0.936753 0.768126
O O7 0.243779 0.897418 0.929989
O O8 0.195502 0.752634 0.844757
O O9 0.738073 0.602092 0.742362
O O10 0.288104 0.585591 0.531353
O O11 0.029249 0.681850 0.686120
O O12 0.222601 0.881003 0.564204
O O13 0.915931 0.600661 0.453948
O O14 0.940917 0.633702 0.886168
O O15 0.056704 0.887741 0.797963
O O16 0.205661 0.060519 0.664132
#
# Coordination Sequence:
#
# PCOD8127075 Si02
#       8
#     4   4   4   4   4   4   4   4
#     4  11  23  41  63  94 131 160 208 260 316 367
#     4  11  23  42  64  87 125 168 210 252 308 371
#     4  11  24  42  61  92 123 167 208 258 306 369
#     4  11  22  39  63  96 128 163 204 258 317 368
#     4  10  22  41  63  92 121 167 206 256 311 372
#     4   9  22  41  61  88 125 164 206 257 311 369
#     4  10  22  39  60  90 128 162 206 252 318 367
#     4  11  21  37  64  93 125 162 202 262 310 371
#
# _framework density 20.51484
#
# number of rings (size 3 to 8) (size 9 to 14) (size 15 to 20)
#    0.000    1.500    1.250    3.375    3.500    1.000 
#    2.250    6.875    0.000    0.000    0.000    0.000 
#    0.000    0.000    0.000    0.000    0.000    0.000 
#
# Total GULP energy -396875.712900 kJ/mol
# GULP energy per Si atom -12402.366028 kJ/mol
# Density = 2.046815 g / cm^3
# Si number density = 20.514840 Si / 1000 Ang^3
#
#
#
# Elastic Constant Matrix: (Units=GPa)
#
#
# Indices 1 2 3 4 5 6 
#
# 1 85.8462 44.4455 33.2941 0.0000 -9.2921 0.0000
# 2 44.4455 85.8937 19.9950 0.0000 -11.6238 0.0000
# 3 33.2941 19.9950 76.6603 0.0000 7.4438 0.0000
# 4 0.0000 0.0000 0.0000 34.6704 0.0000 2.4578
# 5 -9.2921 -11.6238 7.4438 0.0000 34.0363 0.0000
# 6 0.0000 0.0000 0.0000 2.4578 0.0000 34.5614
#
#
#
# Elastic Compliance Matrix: (Units=1/GPa)
#
#
# Indices 1 2 3 4 5 6 
#
# 1 0.018461 -0.007532 -0.006429 0.000000 0.003874 0.000000
# 2 -0.007532 0.016379 -0.001374 0.000000 0.003838 0.000000
# 3 -0.006429 -0.001374 0.016767 0.000000 -0.005891 0.000000
# 4 0.000000 0.000000 0.000000 0.028989 0.000000 -0.002062
# 5 0.003874 0.003838 -0.005891 0.000000 0.033037 0.000000
# 6 0.000000 0.000000 0.000000 -0.002062 0.000000 0.029081
#
#
# Mechanical properties :
#
#
# Convention : Reuss Voigt Hill
#
# Bulk Modulus (GPa) = 47.76113 49.31881 48.53997
# Shear Modulus (GPa) = 27.72197 30.69799 29.20998
#
# Velocity S-wave (km/s) = 3.68001 3.87250 3.77748
# Velocity P-wave (km/s) = 6.43338 6.63986 6.53744
#
# Compressibility (1/GPa) = 0.02093753
#
# Stress axis : x y z
#
# Youngs Moduli (GPa) = 54.16823 61.05520 59.64013
#
# Poissons Ratio (x) = 0.45985 0.38345
# Poissons Ratio (y) = 0.40798 0.08192
# Poissons Ratio (z) = 0.34827 0.08386
#
# Static dielectric constant tensor:
#      x y z
#    x 3.576820 0.000000 -0.103580 
#    y 0.000000 3.832700 0.000000 
#    z -0.103580 0.000000 3.849780 
# 
# 
# High freq. dielectric constant tensor:
#      x y z
#    x 1.796160 0.000000 -0.004420 
#    y 0.000000 1.803950 0.000000 
#    z -0.004420 0.000000 1.812690 
# 
# From -- ./inp_files/73089.got.cif
#   From: 2010.03.12/outbox.cif.g09.slc.cpg/sg14_37_cif.got.tgz:73089.got - 2010.03.31 13:35:05.
