data_PCOD8127366
_publ_section_title
;
Structure prediction by ZEFSAII (Michael W. Deem and Ramdas Pophale) SiO2 
 PCOD8127366
Probable space group: P 21/C
;
_chemical_formula_sum "Si O2"
_cell_formula_units_Z 28
_cell_length_a 13.404918
_cell_length_b 9.382208
_cell_length_c 10.389761
_cell_angle_alpha 90.000000
_cell_angle_beta 117.988599
_cell_angle_gamma 90.000000
_cell_volume 1153.866703
_symmetry_space_group_name_H-M "P 21/C"
_symmetry_group_IT_number 14
_symmetry_cell_setting 'monoclinic'
loop_
_space_group_symop_operation_xyz
x,y,z
-x,1/2+y,1/2-z
-x,-y,-z
x,1/2-y,1/2+z
loop_
_atom_site_type_symbol
_atom_site_label
_atom_site_fract_x
_atom_site_fract_y
_atom_site_fract_z
Si Si1 0.525154 0.562929 0.215167
Si Si2 0.328020 0.908763 0.389099
Si Si3 0.379340 0.358706 0.258624
Si Si4 0.966478 0.157991 0.543304
Si Si5 0.187438 0.357359 0.312033
Si Si6 0.848278 0.317549 0.705435
Si Si7 0.176583 0.091715 0.459684
O O1 0.621299 0.460289 0.215592
O O2 0.476493 0.480367 0.311822
O O3 0.578034 0.715043 0.285783
O O4 0.427519 0.593709 0.053439
O O5 0.275639 0.750819 0.344164
O O6 0.224255 0.013654 0.361063
O O7 0.321979 0.327633 0.362968
O O8 0.273310 0.428058 0.122850
O O9 0.907471 0.249636 0.618057
O O10 0.922142 0.209026 0.378339
O O11 0.103034 0.177446 0.639021
O O12 0.936331 0.989633 0.556241
O O13 0.170615 0.518897 0.344664
O O14 0.150591 0.255365 0.407361
#
# Coordination Sequence:
#
# PCOD8127366 Si02
#       7
#     4   4   4   4   4   4   4
#     4  10  22  42  62  95 128 182 222 289 336 403
#     4   9  21  42  66  89 137 173 226 277 353 389
#     4  11  24  39  70  93 135 175 232 280 348 402
#     4  11  25  46  72 100 145 182 226 283 353 404
#     4  12  24  42  68 102 136 180 232 282 339 419
#     4  11  25  45  73 104 136 187 229 285 337 428
#     4  10  22  44  65  98 137 180 217 289 343 406
#
# _framework density 24.266235000000002
#
# number of rings (size 3 to 8) (size 9 to 14) (size 15 to 20)
#    0.000    1.429    2.857    1.286    4.000    2.286 
#    0.000    5.000    0.000    0.000    0.000    0.000 
#    0.000    0.000    0.000    0.000    0.000    0.000 
#
# Total GULP energy -347121.051948 kJ/mol
# GULP energy per Si atom -12397.180427 kJ/mol
# Density = 2.421100 g / cm^3
# Si number density = 24.266235 Si / 1000 Ang^3
#
#
#
# Elastic Constant Matrix: (Units=GPa)
#
#
# Indices 1 2 3 4 5 6 
#
# 1 151.9174 44.8014 15.9343 0.0000 3.2144 0.0000
# 2 44.8014 131.9662 14.4383 0.0000 -1.3989 0.0000
# 3 15.9343 14.4383 39.6680 0.0000 -9.5370 0.0000
# 4 0.0000 0.0000 0.0000 35.0431 0.0000 -1.4263
# 5 3.2144 -1.3989 -9.5370 0.0000 30.3877 0.0000
# 6 0.0000 0.0000 0.0000 -1.4263 0.0000 40.2940
#
#
#
# Elastic Compliance Matrix: (Units=1/GPa)
#
#
# Indices 1 2 3 4 5 6 
#
# 1 0.007573 -0.002303 -0.002620 0.000000 -0.001729 0.000000
# 2 -0.002303 0.008602 -0.002220 0.000000 -0.000057 0.000000
# 3 -0.002620 -0.002220 0.029324 0.000000 0.009378 0.000000
# 4 0.000000 0.000000 0.000000 0.028577 0.000000 0.001012
# 5 -0.001729 -0.000057 0.009378 0.000000 0.036032 0.000000
# 6 0.000000 0.000000 0.000000 0.001012 0.000000 0.024853
#
#
# Mechanical properties :
#
#
# Convention : Reuss Voigt Hill
#
# Bulk Modulus (GPa) = 32.03589 52.65551 42.34570
# Shear Modulus (GPa) = 31.31853 37.70346 34.51099
#
# Velocity S-wave (km/s) = 3.59642 3.94603 3.77527
# Velocity P-wave (km/s) = 5.52052 6.51979 6.04086
#
# Compressibility (1/GPa) = 0.03121499
#
# Stress axis : x y z
#
# Youngs Moduli (GPa) = 132.04889 116.25638 34.10167
#
# Poissons Ratio (x) = 0.26770 0.08933
# Poissons Ratio (y) = 0.30407 0.07569
# Poissons Ratio (z) = 0.34592 0.25804
#
# Static dielectric constant tensor:
#      x y z
#    x 5.066430 0.000000 0.073660 
#    y 0.000000 4.445620 0.000000 
#    z 0.073660 0.000000 3.988950 
# 
# 
# High freq. dielectric constant tensor:
#      x y z
#    x 1.999840 0.000000 0.001680 
#    y 0.000000 1.968280 0.000000 
#    z 0.001680 0.000000 1.930970 
# 
# From -- ./inp_files/31648.got.cif
#   From: 2010.03.12/outbox.cif.g09.slc.cpg/sg14_16_cif.got.tgz:31648.got - 2010.03.31 13:35:05.
