data_PCOD8127315
_publ_section_title
;
Structure prediction by ZEFSAII (Michael W. Deem and Ramdas Pophale) SiO2 
 PCOD8127315
Probable space group: P 21/C
;
_chemical_formula_sum "Si O2"
_cell_formula_units_Z 32
_cell_length_a 16.426065
_cell_length_b 11.604123
_cell_length_c 8.904337
_cell_angle_alpha 90.000000
_cell_angle_beta 123.014702
_cell_angle_gamma 90.000000
_cell_volume 1423.201725
_symmetry_space_group_name_H-M "P 21/C"
_symmetry_group_IT_number 14
_symmetry_cell_setting 'monoclinic'
loop_
_space_group_symop_operation_xyz
x,y,z
-x,1/2+y,1/2-z
-x,-y,-z
x,1/2-y,1/2+z
loop_
_atom_site_type_symbol
_atom_site_label
_atom_site_fract_x
_atom_site_fract_y
_atom_site_fract_z
Si Si1 0.717275 0.282520 0.722610
Si Si2 0.893670 0.159643 0.778783
Si Si3 0.158965 0.186254 0.559163
Si Si4 0.631551 0.396805 0.350393
Si Si5 0.668003 0.845378 0.839059
Si Si6 0.977450 0.730796 0.336304
Si Si7 0.253535 0.517443 0.024138
Si Si8 0.412186 0.360611 0.053488
O O1 0.824065 0.264821 0.760026
O O2 0.648924 0.329869 0.523149
O O3 0.678488 0.161839 0.750204
O O4 0.716744 0.365346 0.865606
O O5 0.944424 0.191795 0.672440
O O6 0.831821 0.044478 0.683337
O O7 0.971419 0.143494 0.992761
O O8 0.225217 0.301052 0.607262
O O9 0.085281 0.162534 0.347825
O O10 0.098189 0.188042 0.650793
O O11 0.225029 0.072648 0.626265
O O12 0.675661 0.525344 0.412031
O O13 0.516486 0.397513 0.215792
O O14 0.589672 0.845547 0.626831
O O15 0.626408 0.760500 0.922705
O O16 0.342978 0.467273 0.022578
#
# Coordination Sequence:
#
# PCOD8127315 Si02
#       8
#     4   4   4   4   4   4   4   4
#     4  12  25  44  70  99 140 183 232 289 353 409
#     4  11  21  44  64  98 133 180 221 284 346 407
#     4  10  23  42  65 102 132 179 223 285 346 407
#     4  12  27  44  74 101 141 187 239 282 346 417
#     4  11  25  45  72  99 147 182 225 292 352 410
#     4  10  22  41  67  94 139 167 240 273 336 434
#     4  11  24  41  71  93 145 176 228 291 350 405
#     4  11  26  45  70 106 138 182 240 285 339 421
#
# _framework density 22.484514999999998
#
# number of rings (size 3 to 8) (size 9 to 14) (size 15 to 20)
#    0.000    1.000    2.500    3.375    7.000    1.500 
#    0.000    1.250    0.000    0.000    0.000    0.000 
#    0.000    0.000    0.000    0.000    0.000    0.000 
#
# Total GULP energy -396810.878128 kJ/mol
# GULP energy per Si atom -12400.339942 kJ/mol
# Density = 2.243334 g / cm^3
# Si number density = 22.484515 Si / 1000 Ang^3
#
#
#
# Elastic Constant Matrix: (Units=GPa)
#
#
# Indices 1 2 3 4 5 6 
#
# 1 95.0133 36.7540 8.1791 0.0000 2.8868 0.0000
# 2 36.7540 119.8841 8.2825 0.0000 -2.8433 0.0000
# 3 8.1791 8.2825 68.7006 0.0000 1.1762 0.0000
# 4 0.0000 0.0000 0.0000 26.9245 0.0000 0.4225
# 5 2.8868 -2.8433 1.1762 0.0000 39.5004 0.0000
# 6 0.0000 0.0000 0.0000 0.4225 0.0000 28.5953
#
#
#
# Elastic Compliance Matrix: (Units=1/GPa)
#
#
# Indices 1 2 3 4 5 6 
#
# 1 0.012057 -0.003655 -0.000976 0.000000 -0.001115 0.000000
# 2 -0.003655 0.009536 -0.000731 0.000000 0.000975 0.000000
# 3 -0.000976 -0.000731 0.014767 0.000000 -0.000421 0.000000
# 4 0.000000 0.000000 0.000000 0.037150 0.000000 -0.000549
# 5 -0.001115 0.000975 -0.000421 0.000000 0.025480 0.000000
# 6 0.000000 0.000000 0.000000 -0.000549 0.000000 0.034979
#
#
# Mechanical properties :
#
#
# Convention : Reuss Voigt Hill
#
# Bulk Modulus (GPa) = 39.00829 43.33656 41.17242
# Shear Modulus (GPa) = 32.62893 34.36284 33.49588
#
# Velocity S-wave (km/s) = 3.81356 3.91358 3.86389
# Velocity P-wave (km/s) = 6.06445 6.30375 6.18526
#
# Compressibility (1/GPa) = 0.02563558
#
# Stress axis : x y z
#
# Youngs Moduli (GPa) = 82.94126 104.86904 67.71663
#
# Poissons Ratio (x) = 0.38334 0.06607
# Poissons Ratio (y) = 0.30318 0.04951
# Poissons Ratio (z) = 0.08092 0.07667
#
# Static dielectric constant tensor:
#      x y z
#    x 4.156030 0.000000 0.010620 
#    y 0.000000 3.900420 0.000000 
#    z 0.010620 0.000000 4.205090 
# 
# 
# High freq. dielectric constant tensor:
#      x y z
#    x 1.893780 0.000000 -0.001480 
#    y 0.000000 1.874430 0.000000 
#    z -0.001480 0.000000 1.901070 
# 
# From -- ./inp_files/17867.got.cif
#   From: 2010.03.12/outbox.cif.g09.slc.cpg/sg14_9_cif.got.tgz:17867.got - 2010.03.31 13:35:05.
