data_PCOD8127540
_publ_section_title
;
Structure prediction by ZEFSAII (Michael W. Deem and Ramdas Pophale) SiO2 
 PCOD8127540
Probable space group: P 21/C
;
_chemical_formula_sum "Si O2"
_cell_formula_units_Z 20
_cell_length_a 11.424647
_cell_length_b 9.349415
_cell_length_c 18.544865
_cell_angle_alpha 90.000000
_cell_angle_beta 25.819099
_cell_angle_gamma 90.000000
_cell_volume 862.720591
_symmetry_space_group_name_H-M "P 21/C"
_symmetry_group_IT_number 14
_symmetry_cell_setting 'monoclinic'
loop_
_space_group_symop_operation_xyz
x,y,z
-x,1/2+y,1/2-z
-x,-y,-z
x,1/2-y,1/2+z
loop_
_atom_site_type_symbol
_atom_site_label
_atom_site_fract_x
_atom_site_fract_y
_atom_site_fract_z
Si Si1 0.198536 0.398689 0.091607
Si Si2 0.156708 0.711111 0.119679
Si Si3 0.675464 0.633168 0.284012
Si Si4 0.858185 0.696354 0.025128
Si Si5 0.432594 0.815084 0.169109
O O1 0.232180 0.553438 0.109854
O O2 0.930528 0.316343 0.267301
O O3 0.154021 0.428970 0.030008
O O4 0.459390 0.293081 0.954491
O O5 0.899066 0.702458 0.210562
O O6 0.409562 0.771283 0.936498
O O7 0.775795 0.630122 0.146265
O O8 0.603757 0.470884 0.345706
O O9 0.658344 0.822094 0.108028
O O10 0.165814 0.751369 0.854146
#
# Coordination Sequence:
#
# PCOD8127540 Si02
#       5
#     4   4   4   4   4
#     4  10  26  43  71  96 137 173 227 270 335 393
#     4  12  27  45  69 101 135 178 224 276 333 401
#     4  12  25  44  71 100 135 176 225 273 338 392
#     4  10  23  41  72  97 133 172 223 273 331 392
#     4  10  22  43  72  94 134 176 219 274 331 392
#
# _framework density 23.182473999999999
#
# number of rings (size 3 to 8) (size 9 to 14) (size 15 to 20)
#    1.200    0.000    2.000    3.000    5.600    4.000 
#    0.000    3.000    0.000    0.000    0.000    0.000 
#    0.000    0.000    0.000    0.000    0.000    0.000 
#
# Total GULP energy -247862.723689 kJ/mol
# GULP energy per Si atom -12393.136184 kJ/mol
# Density = 2.312971 g / cm^3
# Si number density = 23.182474 Si / 1000 Ang^3
#
#
#
# Elastic Constant Matrix: (Units=GPa)
#
#
# Indices 1 2 3 4 5 6 
#
# 1 31.7225 22.5558 29.6770 0.0000 -3.2416 0.0000
# 2 22.5558 142.8796 75.6241 0.0000 0.7756 0.0000
# 3 29.6770 75.6241 183.4135 0.0000 -13.7656 0.0000
# 4 0.0000 0.0000 0.0000 35.9967 0.0000 -0.4713
# 5 -3.2416 0.7756 -13.7656 0.0000 52.4762 0.0000
# 6 0.0000 0.0000 0.0000 -0.4713 0.0000 26.2352
#
#
#
# Elastic Compliance Matrix: (Units=1/GPa)
#
#
# Indices 1 2 3 4 5 6 
#
# 1 0.038586 -0.003635 -0.004653 0.000000 0.001217 0.000000
# 2 -0.003635 0.009360 -0.003365 0.000000 -0.001246 0.000000
# 3 -0.004653 -0.003365 0.007727 0.000000 0.001789 0.000000
# 4 0.000000 0.000000 0.000000 0.027787 0.000000 0.000499
# 5 0.001217 -0.001246 0.001789 0.000000 0.019619 0.000000
# 6 0.000000 0.000000 0.000000 0.000499 0.000000 0.038126
#
#
# Mechanical properties :
#
#
# Convention : Reuss Voigt Hill
#
# Bulk Modulus (GPa) = 30.89603 68.19216 49.54409
# Shear Modulus (GPa) = 28.52265 38.28553 33.40409
#
# Velocity S-wave (km/s) = 3.51145 4.06826 3.80006
# Velocity P-wave (km/s) = 5.45862 7.17961 6.37744
#
# Compressibility (1/GPa) = 0.03236662
#
# Stress axis : x y z
#
# Youngs Moduli (GPa) = 25.91645 106.83271 129.42162
#
# Poissons Ratio (x) = 0.38835 0.60222
# Poissons Ratio (y) = 0.09421 0.43547
# Poissons Ratio (z) = 0.12059 0.35947
#
# Static dielectric constant tensor:
#      x y z
#    x 3.976600 0.000000 -0.206660 
#    y 0.000000 3.915800 0.000000 
#    z -0.206660 0.000000 4.462790 
# 
# 
# High freq. dielectric constant tensor:
#      x y z
#    x 1.910400 0.000000 -0.012390 
#    y 0.000000 1.895960 0.000000 
#    z -0.012390 0.000000 1.941440 
# 
# From -- ./inp_files/23084.got.cif
#   From: 2010.03.12/outbox.cif.g09.slc.cpg/sg14_12_cif.got.tgz:23084.got - 2010.03.31 13:35:05.
