data_PCOD8127687
_publ_section_title
;
Structure prediction by ZEFSAII (Michael W. Deem and Ramdas Pophale) SiO2 
 PCOD8127687
Probable space group: P 21/C
;
_chemical_formula_sum "Si O2"
_cell_formula_units_Z 28
_cell_length_a 11.555515
_cell_length_b 9.748416
_cell_length_c 14.371823
_cell_angle_alpha 90.000000
_cell_angle_beta 122.724947
_cell_angle_gamma 90.000000
_cell_volume 1361.988527
_symmetry_space_group_name_H-M "P 21/C"
_symmetry_group_IT_number 14
_symmetry_cell_setting 'monoclinic'
loop_
_space_group_symop_operation_xyz
x,y,z
-x,1/2+y,1/2-z
-x,-y,-z
x,1/2-y,1/2+z
loop_
_atom_site_type_symbol
_atom_site_label
_atom_site_fract_x
_atom_site_fract_y
_atom_site_fract_z
Si Si1 0.010532 0.891572 0.864933
Si Si2 0.398332 0.103017 0.131898
Si Si3 0.539907 0.303902 0.324604
Si Si4 0.543208 0.755404 0.017939
Si Si5 0.253597 0.703150 0.950762
Si Si6 0.093154 0.169574 0.985781
Si Si7 0.184326 0.399604 0.890824
O O1 0.146431 0.823928 0.877626
O O2 0.883689 0.873148 0.739170
O O3 0.027541 0.054050 0.890188
O O4 0.990315 0.811508 0.954378
O O5 0.483141 0.228450 0.210714
O O6 0.445392 0.961665 0.198122
O O7 0.427340 0.111274 0.033679
O O8 0.239340 0.116535 0.084639
O O9 0.432383 0.297309 0.364081
O O10 0.685681 0.237543 0.419820
O O11 0.654249 0.639060 0.040130
O O12 0.384249 0.703863 0.935653
O O13 0.175045 0.558479 0.915465
O O14 0.103039 0.311585 0.933420
#
# Coordination Sequence:
#
# PCOD8127687 Si02
#       7
#     4   4   4   4   4   4   4
#     4  11  22  43  61  89 126 166 207 250 312 370
#     4  11  21  40  64  92 124 166 204 251 316 357
#     4  10  23  37  62  93 125 159 202 254 310 362
#     4   9  22  40  64  91 127 156 205 257 305 365
#     4  10  23  42  60  93 131 152 209 261 301 363
#     4  10  23  40  64  86 127 164 207 256 301 373
#     4  11  22  40  67  91 120 168 207 252 310 371
#
# _framework density 20.558176
#
# number of rings (size 3 to 8) (size 9 to 14) (size 15 to 20)
#    0.857    0.857    1.429    2.571    4.000    1.714 
#    2.571    1.429    0.000    0.000    0.000    0.000 
#    0.000    0.000    0.000    0.000    0.000    0.000 
#
# Total GULP energy -347069.394161 kJ/mol
# GULP energy per Si atom -12395.335506 kJ/mol
# Density = 2.051138 g / cm^3
# Si number density = 20.558176 Si / 1000 Ang^3
#
#
#
# Elastic Constant Matrix: (Units=GPa)
#
#
# Indices 1 2 3 4 5 6 
#
# 1 79.3174 28.3289 29.7774 0.0000 10.5931 0.0000
# 2 28.3289 93.9243 37.2865 0.0000 1.7391 0.0000
# 3 29.7774 37.2865 78.5688 0.0000 1.0983 0.0000
# 4 0.0000 0.0000 0.0000 36.3158 0.0000 0.4750
# 5 10.5931 1.7391 1.0983 0.0000 16.8763 0.0000
# 6 0.0000 0.0000 0.0000 0.4750 0.0000 25.7616
#
#
#
# Elastic Compliance Matrix: (Units=1/GPa)
#
#
# Indices 1 2 3 4 5 6 
#
# 1 0.016804 -0.002971 -0.004820 0.000000 -0.009928 0.000000
# 2 -0.002971 0.013659 -0.005367 0.000000 0.000807 0.000000
# 3 -0.004820 -0.005367 0.017067 0.000000 0.002468 0.000000
# 4 0.000000 0.000000 0.000000 0.027543 0.000000 -0.000508
# 5 -0.009928 0.000807 0.002468 0.000000 0.065243 0.000000
# 6 0.000000 0.000000 0.000000 -0.000508 0.000000 0.038827
#
#
# Mechanical properties :
#
#
# Convention : Reuss Voigt Hill
#
# Bulk Modulus (GPa) = 47.14015 49.17735 48.15875
# Shear Modulus (GPa) = 23.52604 26.21856 24.87230
#
# Velocity S-wave (km/s) = 3.38652 3.57506 3.48206
# Velocity P-wave (km/s) = 6.18637 6.40425 6.29625
#
# Compressibility (1/GPa) = 0.02121334
#
# Stress axis : x y z
#
# Youngs Moduli (GPa) = 59.50913 73.21287 58.59211
#
# Poissons Ratio (x) = 0.21752 0.28241
# Poissons Ratio (y) = 0.17681 0.31448
# Poissons Ratio (z) = 0.28683 0.39296
#
# Static dielectric constant tensor:
#      x y z
#    x 3.626470 0.000000 0.074290 
#    y 0.000000 3.546410 0.000000 
#    z 0.074290 0.000000 3.528070 
# 
# 
# High freq. dielectric constant tensor:
#      x y z
#    x 1.798380 0.000000 0.005710 
#    y 0.000000 1.800000 0.000000 
#    z 0.005710 0.000000 1.795710 
# 
# From -- ./inp_files/43819.got.cif
#   From: 2010.03.12/outbox.cif.g09.slc.cpg/sg14_22_cif.got.tgz:43819.got - 2010.03.31 13:35:05.
