data_PCOD8127556
_publ_section_title
;
Structure prediction by ZEFSAII (Michael W. Deem and Ramdas Pophale) SiO2 
 PCOD8127556
Probable space group: P 21/C
;
_chemical_formula_sum "Si O2"
_cell_formula_units_Z 32
_cell_length_a 9.044741
_cell_length_b 12.148926
_cell_length_c 29.658092
_cell_angle_alpha 90.000000
_cell_angle_beta 26.013955
_cell_angle_gamma 90.000000
_cell_volume 1429.341488
_symmetry_space_group_name_H-M "P 21/C"
_symmetry_group_IT_number 14
_symmetry_cell_setting 'monoclinic'
loop_
_space_group_symop_operation_xyz
x,y,z
-x,1/2+y,1/2-z
-x,-y,-z
x,1/2-y,1/2+z
loop_
_atom_site_type_symbol
_atom_site_label
_atom_site_fract_x
_atom_site_fract_y
_atom_site_fract_z
Si Si1 0.705697 0.083875 0.573052
Si Si2 0.695217 0.585285 0.498299
Si Si3 0.253683 0.285000 0.604472
Si Si4 0.204443 0.240331 0.947561
Si Si5 0.991174 0.153024 0.914632
Si Si6 0.129265 0.846356 0.705701
Si Si7 0.334085 0.455076 0.090633
Si Si8 0.059335 0.367680 0.298786
O O1 0.644798 0.080511 0.536636
O O2 0.349898 0.058160 0.695758
O O3 0.836958 0.203562 0.552945
O O4 0.000000 0.000000 0.500000
O O5 0.837536 0.659169 0.418227
O O6 0.767890 0.641240 0.525784
O O7 0.893574 0.473272 0.448111
O O8 0.293398 0.564264 0.600827
O O9 0.653253 0.275420 0.502451
O O10 0.117414 0.157387 0.641230
O O11 0.102738 0.357523 0.686626
O O12 0.489887 0.330851 0.880519
O O13 0.234096 0.194612 0.888204
O O14 0.191206 0.164062 0.812511
O O15 0.004713 0.741267 0.712312
O O16 0.107635 0.952763 0.678670
O O17 0.500000 0.500000 0.000000
#
# Coordination Sequence:
#
# PCOD8127556 Si02
#       8
#     4   4   4   4   4   4   4   4
#     4  12  25  43  67  93 139 175 223 285 348 400
#     4  10  24  40  68  92 132 176 229 277 341 409
#     4  11  23  42  70  99 130 179 235 284 333 417
#     4  11  23  41  59  96 132 175 217 285 339 403
#     4  11  22  40  69  91 134 176 224 280 344 402
#     4  11  24  40  69  96 135 174 228 277 338 414
#     4  12  24  43  69  99 136 181 231 281 347 405
#     4  10  22  44  63  98 124 174 226 276 333 414
#
# _framework density 22.387931999999999
#
# number of rings (size 3 to 8) (size 9 to 14) (size 15 to 20)
#    0.000    1.000    3.750    4.125    3.500    1.000 
#    0.000    1.250    0.000    0.000    0.000    0.000 
#    0.000    0.000    0.000    0.000    0.000    0.000 
#
# Total GULP energy -396682.784765 kJ/mol
# GULP energy per Si atom -12396.337024 kJ/mol
# Density = 2.233698 g / cm^3
# Si number density = 22.387932 Si / 1000 Ang^3
#
#
#
# Elastic Constant Matrix: (Units=GPa)
#
#
# Indices 1 2 3 4 5 6 
#
# 1 113.4016 6.8090 36.2967 0.0000 29.9894 0.0000
# 2 6.8090 80.6292 28.5106 0.0000 4.9024 0.0000
# 3 36.2967 28.5106 107.2044 0.0000 25.0220 0.0000
# 4 0.0000 0.0000 0.0000 34.9365 0.0000 6.2560
# 5 29.9894 4.9024 25.0220 0.0000 36.2357 0.0000
# 6 0.0000 0.0000 0.0000 6.2560 0.0000 33.9234
#
#
#
# Elastic Compliance Matrix: (Units=1/GPa)
#
#
# Indices 1 2 3 4 5 6 
#
# 1 0.011649 0.000256 -0.002091 0.000000 -0.008232 0.000000
# 2 0.000256 0.013714 -0.003876 0.000000 0.000609 0.000000
# 3 -0.002091 -0.003876 0.012566 0.000000 -0.006422 0.000000
# 4 0.000000 0.000000 0.000000 0.029601 0.000000 -0.005459
# 5 -0.008232 0.000609 -0.006422 0.000000 0.038762 0.000000
# 6 0.000000 0.000000 0.000000 -0.005459 0.000000 0.030485
#
#
# Mechanical properties :
#
#
# Convention : Reuss Voigt Hill
#
# Bulk Modulus (GPa) = 37.72557 49.38530 43.55543
# Shear Modulus (GPa) = 31.84011 36.32705 34.08358
#
# Velocity S-wave (km/s) = 3.77530 4.03254 3.90604
# Velocity P-wave (km/s) = 5.99093 6.61730 6.31189
#
# Compressibility (1/GPa) = 0.02650722
#
# Stress axis : x y z
#
# Youngs Moduli (GPa) = 85.84450 72.91595 79.58162
#
# Poissons Ratio (x) = -0.01867 0.16639
# Poissons Ratio (y) = -0.02198 0.30848
# Poissons Ratio (z) = 0.17949 0.28264
#
# Static dielectric constant tensor:
#      x y z
#    x 3.305930 0.000000 -1.234610 
#    y 0.000000 4.641260 0.000000 
#    z -1.234610 0.000000 1.840850 
# 
# 
# High freq. dielectric constant tensor:
#      x y z
#    x 1.888000 0.000000 0.021950 
#    y 0.000000 1.899220 0.000000 
#    z 0.021950 0.000000 1.860190 
# 
# From -- ./inp_files/79597.got.cif
#   From: 2010.03.12/outbox.cif.g09.slc.cpg/sg14_40_cif.got.tgz:79597.got - 2010.03.31 13:35:05.
