data_PCOD8127275
_publ_section_title
;
Structure prediction by ZEFSAII (Michael W. Deem and Ramdas Pophale) SiO2 
 PCOD8127275
Probable space group: P 21/C
;
_chemical_formula_sum "Si O2"
_cell_formula_units_Z 32
_cell_length_a 8.750366
_cell_length_b 9.602532
_cell_length_c 20.074382
_cell_angle_alpha 90.000000
_cell_angle_beta 80.268033
_cell_angle_gamma 90.000000
_cell_volume 1662.489700
_symmetry_space_group_name_H-M "P 21/C"
_symmetry_group_IT_number 14
_symmetry_cell_setting 'monoclinic'
loop_
_space_group_symop_operation_xyz
x,y,z
-x,1/2+y,1/2-z
-x,-y,-z
x,1/2-y,1/2+z
loop_
_atom_site_type_symbol
_atom_site_label
_atom_site_fract_x
_atom_site_fract_y
_atom_site_fract_z
Si Si1 0.669303 0.985994 0.786979
Si Si2 0.184433 0.198468 0.731492
Si Si3 0.361445 0.384101 0.343252
Si Si4 0.922053 0.880922 0.049117
Si Si5 0.729257 0.494753 0.879708
Si Si6 0.604671 0.936530 0.642709
Si Si7 0.843187 0.583689 0.010488
Si Si8 0.890528 0.209275 0.836585
O O1 0.718857 0.830280 0.801116
O O2 0.655118 0.006468 0.708526
O O3 0.503766 0.009380 0.834270
O O4 0.792792 0.091463 0.807633
O O5 0.276659 0.106740 0.778606
O O6 0.024621 0.254420 0.775013
O O7 0.159771 0.097488 0.670646
O O8 0.243081 0.432206 0.409669
O O9 0.425261 0.228003 0.348322
O O10 0.887297 0.746604 0.006178
O O11 0.037426 0.845939 0.100522
O O12 0.000000 0.000000 0.000000
O O13 0.550130 0.510922 0.872057
O O14 0.783837 0.338454 0.863184
O O15 0.740549 0.541173 0.955040
O O16 0.747522 0.959995 0.582670
O O17 0.000000 0.500000 0.000000
#
# Coordination Sequence:
#
# PCOD8127275 Si02
#       8
#     4   4   4   4   4   4   4   4
#     4  11  21  40  65  94 124 161 207 258 316 368
#     4  10  23  37  60  98 125 156 212 259 300 370
#     4   9  19  41  64  87 127 163 197 254 315 362
#     4  10  23  45  63  89 125 164 205 256 306 369
#     4  12  22  41  64  91 127 165 208 252 313 369
#     4  10  22  41  63  90 128 163 201 258 310 369
#     4  11  24  42  63  90 123 167 210 250 303 372
#     4  11  23  40  66  89 126 167 200 255 323 364
#
# _framework density 19.248241
#
# number of rings (size 3 to 8) (size 9 to 14) (size 15 to 20)
#    0.000    1.500    3.750    1.875    3.500    0.000 
#    2.250    0.625    0.000    0.000    0.000    0.000 
#    0.000    0.000    0.000    0.000    0.000    0.000 
#
# Total GULP energy -396881.325130 kJ/mol
# GULP energy per Si atom -12402.541410 kJ/mol
# Density = 1.920443 g / cm^3
# Si number density = 19.248241 Si / 1000 Ang^3
#
#
#
# Elastic Constant Matrix: (Units=GPa)
#
#
# Indices 1 2 3 4 5 6 
#
# 1 81.5810 20.5788 16.2405 0.0000 -5.9838 0.0000
# 2 20.5788 67.1678 25.5298 0.0000 -8.6928 0.0000
# 3 16.2405 25.5298 74.7263 0.0000 -3.9768 0.0000
# 4 0.0000 0.0000 0.0000 33.0253 0.0000 -2.4738
# 5 -5.9838 -8.6928 -3.9768 0.0000 38.4538 0.0000
# 6 0.0000 0.0000 0.0000 -2.4738 0.0000 32.8976
#
#
#
# Elastic Compliance Matrix: (Units=1/GPa)
#
#
# Indices 1 2 3 4 5 6 
#
# 1 0.013531 -0.003333 -0.001740 0.000000 0.001172 0.000000
# 2 -0.003333 0.018353 -0.005382 0.000000 0.003074 0.000000
# 3 -0.001740 -0.005382 0.015606 0.000000 0.000126 0.000000
# 4 0.000000 0.000000 0.000000 0.030451 0.000000 0.002290
# 5 0.001172 0.003074 0.000126 0.000000 0.026895 0.000000
# 6 0.000000 0.000000 0.000000 0.002290 0.000000 0.030570
#
#
# Mechanical properties :
#
#
# Convention : Reuss Voigt Hill
#
# Bulk Modulus (GPa) = 37.62211 38.68591 38.15401
# Shear Modulus (GPa) = 30.27101 31.61708 30.94405
#
# Velocity S-wave (km/s) = 3.96998 4.05729 4.01388
# Velocity P-wave (km/s) = 6.37201 6.48775 6.43014
#
# Compressibility (1/GPa) = 0.02658012
#
# Stress axis : x y z
#
# Youngs Moduli (GPa) = 73.90597 54.48818 64.07872
#
# Poissons Ratio (x) = 0.18158 0.11148
# Poissons Ratio (y) = 0.24630 0.34488
# Poissons Ratio (z) = 0.12858 0.29327
#
# Static dielectric constant tensor:
#      x y z
#    x 3.671310 0.000000 0.000630 
#    y 0.000000 3.397250 0.000000 
#    z 0.000630 0.000000 3.680250 
# 
# 
# High freq. dielectric constant tensor:
#      x y z
#    x 1.761380 0.000000 -0.002900 
#    y 0.000000 1.740710 0.000000 
#    z -0.002900 0.000000 1.751330 
# 
# From -- ./inp_files/64819.got.cif
#   From: 2010.03.12/outbox.cif.g09.slc.cpg/sg14_33_cif.got.tgz:64819.got - 2010.03.31 13:35:05.
