data_PCOD8127936
_publ_section_title
;
Structure prediction by ZEFSAII (Michael W. Deem and Ramdas Pophale) SiO2 
 PCOD8127936
Probable space group: P 21/C
;
_chemical_formula_sum "Si O2"
_cell_formula_units_Z 28
_cell_length_a 14.064134
_cell_length_b 8.376735
_cell_length_c 21.388497
_cell_angle_alpha 90.000000
_cell_angle_beta 148.741089
_cell_angle_gamma 90.000000
_cell_volume 1307.545800
_symmetry_space_group_name_H-M "P 21/C"
_symmetry_group_IT_number 14
_symmetry_cell_setting 'monoclinic'
loop_
_space_group_symop_operation_xyz
x,y,z
-x,1/2+y,1/2-z
-x,-y,-z
x,1/2-y,1/2+z
loop_
_atom_site_type_symbol
_atom_site_label
_atom_site_fract_x
_atom_site_fract_y
_atom_site_fract_z
Si Si1 0.317574 0.240268 0.136775
Si Si2 0.131230 0.814869 0.804872
Si Si3 0.579857 0.470315 0.218106
Si Si4 0.490931 0.640852 0.044748
Si Si5 0.090821 0.713244 0.647240
Si Si6 0.851428 0.541305 0.865454
Si Si7 0.856256 0.667516 0.738969
O O1 0.454096 0.315929 0.162310
O O2 0.309879 0.360790 0.191776
O O3 0.401953 0.074757 0.208696
O O4 0.114388 0.209574 0.995374
O O5 0.076386 0.708182 0.713917
O O6 0.978259 0.796332 0.771985
O O7 0.145508 0.001163 0.798725
O O8 0.316071 0.749833 0.937566
O O9 0.477877 0.566800 0.106479
O O10 0.785913 0.430531 0.310077
O O11 0.654506 0.763651 0.128747
O O12 0.500000 0.500000 0.000000
O O13 0.210188 0.870821 0.696576
O O14 0.931868 0.643802 0.852424
O O15 0.000000 0.500000 0.000000
#
# Coordination Sequence:
#
# PCOD8127936 Si02
#       7
#     4   4   4   4   4   4   4
#     4  11  24  44  68  97 135 179 232 278 345 406
#     4  11  25  42  70 104 136 185 228 281 352 415
#     4  12  25  45  69 102 136 179 230 285 348 406
#     4  12  25  45  71  99 145 182 234 291 340 416
#     4  10  23  43  69  96 137 175 225 285 337 407
#     4   9  20  41  68  94 132 174 227 281 336 401
#     4  11  24  45  69 104 141 183 234 283 353 415
#
# _framework density 21.414164
#
# number of rings (size 3 to 8) (size 9 to 14) (size 15 to 20)
#    0.000    1.143    2.857    2.571    8.000    0.000 
#    2.571    0.000    0.000    0.000    0.000    0.000 
#    0.000    0.000    0.000    0.000    0.000    0.000 
#
# Total GULP energy -347161.544008 kJ/mol
# GULP energy per Si atom -12398.626572 kJ/mol
# Density = 2.136542 g / cm^3
# Si number density = 21.414164 Si / 1000 Ang^3
#
#
#
# Elastic Constant Matrix: (Units=GPa)
#
#
# Indices 1 2 3 4 5 6 
#
# 1 102.7997 25.6062 51.9604 0.0000 -12.5257 0.0000
# 2 25.6062 70.5803 34.5407 0.0000 -10.5805 0.0000
# 3 51.9604 34.5407 117.0997 0.0000 -10.3912 0.0000
# 4 0.0000 0.0000 0.0000 31.8976 0.0000 3.6745
# 5 -12.5257 -10.5805 -10.3912 0.0000 29.8848 0.0000
# 6 0.0000 0.0000 0.0000 3.6745 0.0000 52.8694
#
#
#
# Elastic Compliance Matrix: (Units=1/GPa)
#
#
# Indices 1 2 3 4 5 6 
#
# 1 0.013085 -0.001842 -0.004988 0.000000 0.003098 0.000000
# 2 -0.001842 0.017370 -0.003951 0.000000 0.004004 0.000000
# 3 -0.004988 -0.003951 0.011978 0.000000 0.000675 0.000000
# 4 0.000000 0.000000 0.000000 0.031603 0.000000 -0.002196
# 5 0.003098 0.004004 0.000675 0.000000 0.036413 0.000000
# 6 0.000000 0.000000 0.000000 -0.002196 0.000000 0.019067
#
#
# Mechanical properties :
#
#
# Convention : Reuss Voigt Hill
#
# Bulk Modulus (GPa) = 47.91110 57.18827 52.54969
# Shear Modulus (GPa) = 31.63826 34.82184 33.23005
#
# Velocity S-wave (km/s) = 3.84793 4.03688 3.94354
# Velocity P-wave (km/s) = 6.49339 6.96365 6.73263
#
# Compressibility (1/GPa) = 0.02087199
#
# Stress axis : x y z
#
# Youngs Moduli (GPa) = 76.42274 57.56953 83.48309
#
# Poissons Ratio (x) = 0.10603 0.41642
# Poissons Ratio (y) = 0.14075 0.32985
# Poissons Ratio (z) = 0.38120 0.22747
#
# Static dielectric constant tensor:
#      x y z
#    x 4.090180 0.000000 -0.239370 
#    y 0.000000 4.092670 0.000000 
#    z -0.239370 0.000000 3.812580 
# 
# 
# High freq. dielectric constant tensor:
#      x y z
#    x 1.850090 0.000000 -0.011340 
#    y 0.000000 1.849370 0.000000 
#    z -0.011340 0.000000 1.834720 
# 
# From -- ./inp_files/43279.got.cif
#   From: 2010.03.12/outbox.cif.g09.slc.cpg/sg14_22_cif.got.tgz:43279.got - 2010.03.31 13:35:05.
