data_PCOD8127373
_publ_section_title
;
Structure prediction by ZEFSAII (Michael W. Deem and Ramdas Pophale) SiO2 
 PCOD8127373
Probable space group: P 21/C
;
_chemical_formula_sum "Si O2"
_cell_formula_units_Z 28
_cell_length_a 8.287365
_cell_length_b 13.716110
_cell_length_c 12.004800
_cell_angle_alpha 90.000000
_cell_angle_beta 68.039356
_cell_angle_gamma 90.000000
_cell_volume 1265.577144
_symmetry_space_group_name_H-M "P 21/C"
_symmetry_group_IT_number 14
_symmetry_cell_setting 'monoclinic'
loop_
_space_group_symop_operation_xyz
x,y,z
-x,1/2+y,1/2-z
-x,-y,-z
x,1/2-y,1/2+z
loop_
_atom_site_type_symbol
_atom_site_label
_atom_site_fract_x
_atom_site_fract_y
_atom_site_fract_z
Si Si1 0.016242 0.887957 0.302872
Si Si2 0.411160 0.300958 0.710140
Si Si3 0.693189 0.352715 0.113911
Si Si4 0.435548 0.980755 0.709464
Si Si5 0.178115 0.368276 0.365783
Si Si6 0.124864 0.308685 0.619142
Si Si7 0.864154 0.406518 0.856503
O O1 0.215780 0.869110 0.288633
O O2 0.984185 0.880346 0.177718
O O3 0.895812 0.807152 0.394268
O O4 0.961448 0.993483 0.360689
O O5 0.595900 0.250483 0.640132
O O6 0.442806 0.403386 0.760827
O O7 0.285799 0.230816 0.814802
O O8 0.316955 0.327512 0.618289
O O9 0.559981 0.439523 0.120676
O O10 0.838827 0.348638 0.979108
O O11 0.326813 0.925623 0.643326
O O12 0.303207 0.037588 0.825662
O O13 0.101417 0.365906 0.509745
O O14 0.976054 0.341978 0.743319
#
# Coordination Sequence:
#
# PCOD8127373 Si02
#       7
#     4   4   4   4   4   4   4
#     4  10  23  41  64  93 126 171 217 263 320 377
#     4  10  23  41  64  96 130 171 215 269 325 372
#     4  11  23  41  67 101 127 167 219 268 318 382
#     4  10  22  42  63  95 132 168 214 268 323 374
#     4   9  23  42  64  92 129 171 219 265 318 387
#     4  11  24  43  64  95 129 175 214 263 323 387
#     4  11  24  41  66 100 128 174 215 260 322 388
#
# _framework density 22.124293000000002
#
# number of rings (size 3 to 8) (size 9 to 14) (size 15 to 20)
#    0.000    1.714    0.000    3.429    8.000    2.857 
#    2.571    0.000    0.000    0.000    0.000    0.000 
#    0.000    0.000    0.000    0.000    0.000    0.000 
#
# Total GULP energy -347239.260965 kJ/mol
# GULP energy per Si atom -12401.402177 kJ/mol
# Density = 2.207394 g / cm^3
# Si number density = 22.124293 Si / 1000 Ang^3
#
#
#
# Elastic Constant Matrix: (Units=GPa)
#
#
# Indices 1 2 3 4 5 6 
#
# 1 132.8260 3.0618 32.9199 0.0000 16.0805 0.0000
# 2 3.0618 63.3252 27.6225 0.0000 3.3135 0.0000
# 3 32.9199 27.6225 122.1357 0.0000 -0.7363 0.0000
# 4 0.0000 0.0000 0.0000 24.9838 0.0000 -2.2920
# 5 16.0805 3.3135 -0.7363 0.0000 21.9711 0.0000
# 6 0.0000 0.0000 0.0000 -2.2920 0.0000 40.2800
#
#
#
# Elastic Compliance Matrix: (Units=1/GPa)
#
#
# Indices 1 2 3 4 5 6 
#
# 1 0.009006 0.001109 -0.002720 0.000000 -0.006850 0.000000
# 2 0.001109 0.017827 -0.004353 0.000000 -0.003646 0.000000
# 3 -0.002720 -0.004353 0.009923 0.000000 0.002980 0.000000
# 4 0.000000 0.000000 0.000000 0.040236 0.000000 0.002290
# 5 -0.006850 -0.003646 0.002980 0.000000 0.051178 0.000000
# 6 0.000000 0.000000 0.000000 0.002290 0.000000 0.024957
#
#
# Mechanical properties :
#
#
# Convention : Reuss Voigt Hill
#
# Bulk Modulus (GPa) = 40.27325 49.49947 44.88636
# Shear Modulus (GPa) = 28.84662 34.42582 31.63622
#
# Velocity S-wave (km/s) = 3.61479 3.94892 3.78555
# Velocity P-wave (km/s) = 5.97202 6.57373 6.28008
#
# Compressibility (1/GPa) = 0.02483038
#
# Stress axis : x y z
#
# Youngs Moduli (GPa) = 111.03144 56.09349 100.77505
#
# Poissons Ratio (x) = -0.06223 0.27408
# Poissons Ratio (y) = -0.12317 0.43866
# Poissons Ratio (z) = 0.30198 0.24417
#
# Static dielectric constant tensor:
#      x y z
#    x 4.151770 0.000000 0.122620 
#    y 0.000000 4.060590 0.000000 
#    z 0.122620 0.000000 3.592610 
# 
# 
# High freq. dielectric constant tensor:
#      x y z
#    x 1.884830 0.000000 0.010600 
#    y 0.000000 1.880680 0.000000 
#    z 0.010600 0.000000 1.840460 
# 
# From -- ./inp_files/25416.got.cif
#   From: 2010.03.12/outbox.cif.g09.slc.cpg/sg14_13_cif.got.tgz:25416.got - 2010.03.31 13:35:05.
