data_PCOD8127445
_publ_section_title
;
Structure prediction by ZEFSAII (Michael W. Deem and Ramdas Pophale) SiO2 
 PCOD8127445
Probable space group: P 21/C
;
_chemical_formula_sum "Si O2"
_cell_formula_units_Z 32
_cell_length_a 17.565880
_cell_length_b 11.236401
_cell_length_c 24.110778
_cell_angle_alpha 90.000000
_cell_angle_beta 162.071889
_cell_angle_gamma 90.000000
_cell_volume 1464.907095
_symmetry_space_group_name_H-M "P 21/C"
_symmetry_group_IT_number 14
_symmetry_cell_setting 'monoclinic'
loop_
_space_group_symop_operation_xyz
x,y,z
-x,1/2+y,1/2-z
-x,-y,-z
x,1/2-y,1/2+z
loop_
_atom_site_type_symbol
_atom_site_label
_atom_site_fract_x
_atom_site_fract_y
_atom_site_fract_z
Si Si1 0.336292 0.547621 0.564222
Si Si2 0.158751 0.540108 0.208678
Si Si3 0.154621 0.527633 0.727058
Si Si4 0.742285 0.379193 0.877787
Si Si5 0.443511 0.656981 0.019611
Si Si6 0.075450 0.721378 0.586608
Si Si7 0.671426 0.424571 0.561565
Si Si8 0.508305 0.805877 0.687261
O O1 0.572777 0.460753 0.720651
O O2 0.204910 0.569355 0.413447
O O3 0.442218 0.671996 0.658401
O O4 0.136938 0.498326 0.469723
O O5 0.070194 0.663555 0.121768
O O6 0.452647 0.521694 0.408492
O O7 0.115168 0.545230 0.245414
O O8 0.011628 0.434843 0.076133
O O9 0.294814 0.403208 0.814950
O O10 0.208969 0.613529 0.711898
O O11 0.232454 0.590820 0.838324
O O12 0.784867 0.254233 0.874565
O O13 0.596109 0.379980 0.834026
O O14 0.385255 0.646909 0.044981
O O15 0.451152 0.796198 0.009488
O O16 0.800414 0.679068 0.382215
#
# Coordination Sequence:
#
# PCOD8127445 Si02
#       8
#     4   4   4   4   4   4   4   4
#     4  11  23  42  65 100 132 172 228 284 328 410
#     4  11  22  40  68  97 129 177 223 280 333 403
#     4  11  25  45  69  95 140 176 226 283 344 403
#     4  12  24  41  67  98 136 181 229 278 342 400
#     4  10  24  47  64  93 134 178 219 279 343 403
#     4  12  23  44  67  97 140 179 219 281 337 409
#     4  10  22  42  69  95 129 174 231 273 340 400
#     4  11  26  42  66  99 136 178 226 273 341 406
#
# _framework density 21.844387999999999
#
# number of rings (size 3 to 8) (size 9 to 14) (size 15 to 20)
#    0.000    1.000    5.000    1.875    5.250    1.500 
#    0.000    5.000    0.000    0.000    0.000    0.000 
#    0.000    0.000    0.000    0.000    0.000    0.000 
#
# Total GULP energy -396716.021190 kJ/mol
# GULP energy per Si atom -12397.375662 kJ/mol
# Density = 2.179467 g / cm^3
# Si number density = 21.844388 Si / 1000 Ang^3
#
#
#
# Elastic Constant Matrix: (Units=GPa)
#
#
# Indices 1 2 3 4 5 6 
#
# 1 98.4576 26.2181 33.1854 0.0000 -23.0077 0.0000
# 2 26.2181 72.8504 16.1295 0.0000 -5.2100 0.0000
# 3 33.1854 16.1295 83.6516 0.0000 -8.0993 0.0000
# 4 0.0000 0.0000 0.0000 23.3011 0.0000 -3.2068
# 5 -23.0077 -5.2100 -8.0993 0.0000 34.7930 0.0000
# 6 0.0000 0.0000 0.0000 -3.2068 0.0000 31.4657
#
#
#
# Elastic Compliance Matrix: (Units=1/GPa)
#
#
# Indices 1 2 3 4 5 6 
#
# 1 0.014439 -0.003684 -0.004242 0.000000 0.008009 0.000000
# 2 -0.003684 0.015360 -0.001548 0.000000 -0.000497 0.000000
# 3 -0.004242 -0.001548 0.013956 0.000000 0.000212 0.000000
# 4 0.000000 0.000000 0.000000 0.043527 0.000000 0.004436
# 5 0.008009 -0.000497 0.000212 0.000000 0.034012 0.000000
# 6 0.000000 0.000000 0.000000 0.004436 0.000000 0.032233
#
#
# Mechanical properties :
#
#
# Convention : Reuss Voigt Hill
#
# Bulk Modulus (GPa) = 40.31324 45.11396 42.71360
# Shear Modulus (GPa) = 27.66312 29.87372 28.76842
#
# Velocity S-wave (km/s) = 3.56247 3.70208 3.63295
# Velocity P-wave (km/s) = 5.95117 6.24268 6.09867
#
# Compressibility (1/GPa) = 0.02480575
#
# Stress axis : x y z
#
# Youngs Moduli (GPa) = 69.25589 65.10412 71.65227
#
# Poissons Ratio (x) = 0.23988 0.30397
# Poissons Ratio (y) = 0.25517 0.11093
# Poissons Ratio (z) = 0.29380 0.10079
#
# Static dielectric constant tensor:
#      x y z
#    x 3.996880 0.000000 -0.429820 
#    y 0.000000 3.864490 0.000000 
#    z -0.429820 0.000000 3.873250 
# 
# 
# High freq. dielectric constant tensor:
#      x y z
#    x 1.862660 0.000000 -0.028200 
#    y 0.000000 1.854100 0.000000 
#    z -0.028200 0.000000 1.852710 
# 
# From -- ./inp_files/74419.got.cif
#   From: 2010.03.12/outbox.cif.g09.slc.cpg/sg14_38_cif.got.tgz:74419.got - 2010.03.31 13:35:05.
