data_PCOD8127449
_publ_section_title
;
Structure prediction by ZEFSAII (Michael W. Deem and Ramdas Pophale) SiO2 
 PCOD8127449
Probable space group: P 21/C
;
_chemical_formula_sum "Si O2"
_cell_formula_units_Z 20
_cell_length_a 8.248507
_cell_length_b 11.322079
_cell_length_c 18.018024
_cell_angle_alpha 90.000000
_cell_angle_beta 32.814879
_cell_angle_gamma 90.000000
_cell_volume 911.903870
_symmetry_space_group_name_H-M "P 21/C"
_symmetry_group_IT_number 14
_symmetry_cell_setting 'monoclinic'
loop_
_space_group_symop_operation_xyz
x,y,z
-x,1/2+y,1/2-z
-x,-y,-z
x,1/2-y,1/2+z
loop_
_atom_site_type_symbol
_atom_site_label
_atom_site_fract_x
_atom_site_fract_y
_atom_site_fract_z
Si Si1 0.557788 0.956766 0.159548
Si Si2 0.162477 0.717248 0.731719
Si Si3 0.781030 0.109505 0.573731
Si Si4 0.144692 0.841247 0.889561
Si Si5 0.506657 0.135574 0.520361
O O1 0.300296 0.911681 0.201964
O O2 0.504075 0.896294 0.260851
O O3 0.573225 0.097132 0.175080
O O4 0.866334 0.929036 0.999751
O O5 0.219578 0.812287 0.775287
O O6 0.314823 0.776872 0.602398
O O7 0.819387 0.692201 0.845944
O O8 0.968612 0.224038 0.525569
O O9 0.674611 0.132108 0.532836
O O10 0.000000 0.000000 0.500000
O O11 0.500000 0.000000 0.500000
#
# Coordination Sequence:
#
# PCOD8127449 Si02
#       5
#     4   4   4   4   4
#     4  10  22  42  70  97 137 182 232 287 342 424
#     4  11  24  46  69 107 145 181 238 298 360 422
#     4  11  26  41  71  95 135 183 239 276 347 424
#     4  10  22  42  69  99 136 185 233 281 346 422
#     4  12  26  45  70 102 146 186 232 301 362 418
#
# _framework density 21.932137000000001
#
# number of rings (size 3 to 8) (size 9 to 14) (size 15 to 20)
#    0.000    1.200    2.000    3.600    8.400    1.600 
#    0.000    2.000    0.000    0.000    0.000    0.000 
#    0.000    0.000    0.000    0.000    0.000    0.000 
#
# Total GULP energy -247776.159990 kJ/mol
# GULP energy per Si atom -12388.807999 kJ/mol
# Density = 2.188222 g / cm^3
# Si number density = 21.932137 Si / 1000 Ang^3
#
#
#
# Elastic Constant Matrix: (Units=GPa)
#
#
# Indices 1 2 3 4 5 6 
#
# 1 146.5236 56.5605 62.9829 0.0000 12.2741 0.0000
# 2 56.5605 112.6462 34.9807 0.0000 -3.1266 0.0000
# 3 62.9829 34.9807 111.2706 0.0000 -0.6907 0.0000
# 4 0.0000 0.0000 0.0000 31.0948 0.0000 -3.1675
# 5 12.2741 -3.1266 -0.6907 0.0000 33.7087 0.0000
# 6 0.0000 0.0000 0.0000 -3.1675 0.0000 42.9865
#
#
#
# Elastic Compliance Matrix: (Units=1/GPa)
#
#
# Indices 1 2 3 4 5 6 
#
# 1 0.010872 -0.004059 -0.004905 0.000000 -0.004436 0.000000
# 2 -0.004059 0.011377 -0.001264 0.000000 0.002507 0.000000
# 3 -0.004905 -0.001264 0.012173 0.000000 0.001918 0.000000
# 4 0.000000 0.000000 0.000000 0.032403 0.000000 0.002388
# 5 -0.004436 0.002507 0.001918 0.000000 0.031553 0.000000
# 6 0.000000 0.000000 0.000000 0.002388 0.000000 0.023439
#
#
# Mechanical properties :
#
#
# Convention : Reuss Voigt Hill
#
# Bulk Modulus (GPa) = 71.60110 75.49872 73.54991
# Shear Modulus (GPa) = 34.03036 35.95240 34.99138
#
# Velocity S-wave (km/s) = 3.94334 4.05317 3.99863
# Velocity P-wave (km/s) = 7.31100 7.51017 7.41126
#
# Compressibility (1/GPa) = 0.01396627
#
# Stress axis : x y z
#
# Youngs Moduli (GPa) = 91.98268 87.89471 82.14958
#
# Poissons Ratio (x) = 0.35673 0.40297
# Poissons Ratio (y) = 0.37332 0.10383
# Poissons Ratio (z) = 0.45120 0.11109
#
# Static dielectric constant tensor:
#      x y z
#    x 4.217620 0.000000 0.154890 
#    y 0.000000 4.459430 0.000000 
#    z 0.154890 0.000000 4.062000 
# 
# 
# High freq. dielectric constant tensor:
#      x y z
#    x 1.853060 0.000000 0.005410 
#    y 0.000000 1.873990 0.000000 
#    z 0.005410 0.000000 1.873510 
# 
# From -- ./inp_files/55557.got.cif
#   From: 2010.03.12/outbox.cif.g09.slc.cpg/sg14_28_cif.got.tgz:55557.got - 2010.03.31 13:35:05.
