data_PCOD8127468
_publ_section_title
;
Structure prediction by ZEFSAII (Michael W. Deem and Ramdas Pophale) SiO2 
 PCOD8127468
Probable space group: P 21/C
;
_chemical_formula_sum "Si O2"
_cell_formula_units_Z 24
_cell_length_a 8.534255
_cell_length_b 13.340298
_cell_length_c 9.057853
_cell_angle_alpha 90.000000
_cell_angle_beta 87.974334
_cell_angle_gamma 90.000000
_cell_volume 1030.587656
_symmetry_space_group_name_H-M "P 21/C"
_symmetry_group_IT_number 14
_symmetry_cell_setting 'monoclinic'
loop_
_space_group_symop_operation_xyz
x,y,z
-x,1/2+y,1/2-z
-x,-y,-z
x,1/2-y,1/2+z
loop_
_atom_site_type_symbol
_atom_site_label
_atom_site_fract_x
_atom_site_fract_y
_atom_site_fract_z
Si Si1 0.812363 0.791614 0.200260
Si Si2 0.247626 0.476164 0.100327
Si Si3 0.868458 0.174978 0.343592
Si Si4 0.590477 0.485028 0.199475
Si Si5 0.658114 0.232724 0.617340
Si Si6 0.642056 0.649417 0.411640
O O1 0.816139 0.870958 0.335083
O O2 0.706215 0.701674 0.260869
O O3 0.981559 0.745640 0.161372
O O4 0.751897 0.843799 0.051883
O O5 0.106572 0.554287 0.146904
O O6 0.411566 0.513249 0.166529
O O7 0.285663 0.469164 0.923903
O O8 0.766496 0.192556 0.488471
O O9 0.762616 0.192723 0.206362
O O10 0.598715 0.364081 0.212871
O O11 0.624484 0.533490 0.360194
O O12 0.519043 0.294825 0.545879
#
# Coordination Sequence:
#
# PCOD8127468 Si02
#       6
#     4   4   4   4   4   4
#     4  12  26  43  70 105 144 179 229 285 353 407
#     4  10  22  44  72 100 137 182 232 282 345 410
#     4  11  25  45  67 100 143 184 221 284 350 415
#     4  10  22  42  74 104 130 177 241 285 332 403
#     4  11  23  43  71  99 136 181 232 279 341 408
#     4  12  24  43  72 105 137 181 234 288 336 408
#
# _framework density 23.287686000000001
#
# number of rings (size 3 to 8) (size 9 to 14) (size 15 to 20)
#    0.000    1.000    3.333    3.000    2.333    3.333 
#    0.000    6.667    0.000    0.000    0.000    0.000 
#    0.000    0.000    0.000    0.000    0.000    0.000 
#
# Total GULP energy -297482.927120 kJ/mol
# GULP energy per Si atom -12395.121963 kJ/mol
# Density = 2.323468 g / cm^3
# Si number density = 23.287686 Si / 1000 Ang^3
#
#
#
# Elastic Constant Matrix: (Units=GPa)
#
#
# Indices 1 2 3 4 5 6 
#
# 1 84.6076 19.6766 3.2322 0.0000 2.7372 0.0000
# 2 19.6766 88.5112 17.8538 0.0000 -15.4781 0.0000
# 3 3.2322 17.8538 52.6395 0.0000 2.9991 0.0000
# 4 0.0000 0.0000 0.0000 42.6731 0.0000 -5.7032
# 5 2.7372 -15.4781 2.9991 0.0000 17.9904 0.0000
# 6 0.0000 0.0000 0.0000 -5.7032 0.0000 31.9486
#
#
#
# Elastic Compliance Matrix: (Units=1/GPa)
#
#
# Indices 1 2 3 4 5 6 
#
# 1 0.012901 -0.004022 0.000889 0.000000 -0.005571 0.000000
# 2 -0.004022 0.016138 -0.006110 0.000000 0.015515 0.000000
# 3 0.000889 -0.006110 0.021527 0.000000 -0.008981 0.000000
# 4 0.000000 0.000000 0.000000 0.024007 0.000000 0.004285
# 5 -0.005571 0.015515 -0.008981 0.000000 0.071278 0.000000
# 6 0.000000 0.000000 0.000000 0.004285 0.000000 0.032065
#
#
# Mechanical properties :
#
#
# Convention : Reuss Voigt Hill
#
# Bulk Modulus (GPa) = 31.17232 34.14261 32.65746
# Shear Modulus (GPa) = 24.14369 30.85549 27.49959
#
# Velocity S-wave (km/s) = 3.22337 3.64396 3.44010
# Velocity P-wave (km/s) = 5.22190 5.69190 5.46196
#
# Compressibility (1/GPa) = 0.03207975
#
# Stress axis : x y z
#
# Youngs Moduli (GPa) = 77.51466 61.96704 46.45394
#
# Poissons Ratio (x) = 0.24920 -0.04131
# Poissons Ratio (y) = 0.31173 0.28385
# Poissons Ratio (z) = -0.06893 0.37864
#
# Static dielectric constant tensor:
#      x y z
#    x 4.135840 0.000000 -0.129760 
#    y 0.000000 4.899530 0.000000 
#    z -0.129760 0.000000 4.104040 
# 
# 
# High freq. dielectric constant tensor:
#      x y z
#    x 1.907640 0.000000 -0.007570 
#    y 0.000000 1.932340 0.000000 
#    z -0.007570 0.000000 1.924330 
# 
# From -- ./inp_files/8472.got.cif
#   From: 2010.03.12/outbox.cif.g09.slc.cpg/sg14_5_cif.got.tgz:8472.got - 2010.03.31 13:35:05.
