data_PCOD8127165
_publ_section_title
;
Structure prediction by ZEFSAII (Michael W. Deem and Ramdas Pophale) SiO2 
 PCOD8127165
Probable space group: P 21/C
;
_chemical_formula_sum "Si O2"
_cell_formula_units_Z 32
_cell_length_a 9.141872
_cell_length_b 18.698841
_cell_length_c 14.168527
_cell_angle_alpha 90.000000
_cell_angle_beta 137.862598
_cell_angle_gamma 90.000000
_cell_volume 1624.947481
_symmetry_space_group_name_H-M "P 21/C"
_symmetry_group_IT_number 14
_symmetry_cell_setting 'monoclinic'
loop_
_space_group_symop_operation_xyz
x,y,z
-x,1/2+y,1/2-z
-x,-y,-z
x,1/2-y,1/2+z
loop_
_atom_site_type_symbol
_atom_site_label
_atom_site_fract_x
_atom_site_fract_y
_atom_site_fract_z
Si Si1 0.570871 0.682490 0.916470
Si Si2 0.423878 0.485252 0.066134
Si Si3 0.546680 0.938743 0.097683
Si Si4 0.891505 0.790099 0.411885
Si Si5 0.233460 0.963344 0.121798
Si Si6 0.002893 0.556994 0.921384
Si Si7 0.103645 0.682115 0.652823
Si Si8 0.253024 0.297353 0.365647
O O1 0.628338 0.598739 0.950194
O O2 0.664253 0.706061 0.859526
O O3 0.323966 0.711100 0.805479
O O4 0.675825 0.722989 0.054773
O O5 0.598540 0.508191 0.231185
O O6 0.500000 0.500000 0.000000
O O7 0.217588 0.538231 0.966359
O O8 0.351775 0.944894 0.079921
O O9 0.558711 0.858489 0.057675
O O10 0.784484 0.950831 0.255672
O O11 0.500000 0.000000 0.000000
O O12 0.846586 0.772053 0.281482
O O13 0.021553 0.864893 0.476973
O O14 0.035366 0.730468 0.531786
O O15 0.180812 0.892314 0.150589
O O16 0.000000 0.000000 0.000000
O O17 0.000000 0.500000 0.000000
O O18 0.926897 0.669504 0.649899
#
# Coordination Sequence:
#
# PCOD8127165 Si02
#       8
#     4   4   4   4   4   4   4   4
#     4  10  22  42  59  88 128 158 203 258 307 362
#     4  11  24  40  63  93 123 164 205 261 312 366
#     4  11  24  41  65  92 123 166 206 253 309 376
#     4  10  22  40  62  88 121 162 205 254 305 369
#     4  11  24  43  62  91 132 160 200 262 313 364
#     4  11  20  42  65  88 122 162 212 255 307 368
#     4  10  22  40  61  89 124 159 201 258 310 360
#     4  10  22  40  63  90 119 163 210 248 306 372
#
# _framework density 19.692944000000001
#
# number of rings (size 3 to 8) (size 9 to 14) (size 15 to 20)
#    0.000    1.500    2.500    3.000    8.750    4.000 
#    4.500    0.000    0.000    0.000    0.000    0.000 
#    0.000    0.000    0.000    0.000    0.000    0.000 
#
# Total GULP energy -396503.015340 kJ/mol
# GULP energy per Si atom -12390.719229 kJ/mol
# Density = 1.964812 g / cm^3
# Si number density = 19.692944 Si / 1000 Ang^3
#
#
#
# Elastic Constant Matrix: (Units=GPa)
#
#
# Indices 1 2 3 4 5 6 
#
# 1 143.8713 21.8092 50.6417 0.0000 1.1335 0.0000
# 2 21.8092 38.7912 33.0553 0.0000 0.4799 0.0000
# 3 50.6417 33.0553 80.7602 0.0000 3.8451 0.0000
# 4 0.0000 0.0000 0.0000 28.3414 0.0000 -1.7486
# 5 1.1335 0.4799 3.8451 0.0000 42.7068 0.0000
# 6 0.0000 0.0000 0.0000 -1.7486 0.0000 36.1645
#
#
#
# Elastic Compliance Matrix: (Units=1/GPa)
#
#
# Indices 1 2 3 4 5 6 
#
# 1 0.008926 -0.000371 -0.005458 0.000000 0.000259 0.000000
# 2 -0.000371 0.039645 -0.016042 0.000000 0.001009 0.000000
# 3 -0.005458 -0.016042 0.022452 0.000000 -0.001696 0.000000
# 4 0.000000 0.000000 0.000000 0.035390 0.000000 0.001711
# 5 0.000259 0.001009 -0.001696 0.000000 0.023550 0.000000
# 6 0.000000 0.000000 0.000000 0.001711 0.000000 0.027734
#
#
# Mechanical properties :
#
#
# Convention : Reuss Voigt Hill
#
# Bulk Modulus (GPa) = 36.65548 52.71500 44.68524
# Shear Modulus (GPa) = 23.74935 31.97032 27.85983
#
# Velocity S-wave (km/s) = 3.47649 4.03357 3.76535
# Velocity P-wave (km/s) = 5.89649 6.96559 6.45322
#
# Compressibility (1/GPa) = 0.02728105
#
# Stress axis : x y z
#
# Youngs Moduli (GPa) = 112.03377 25.22359 44.54034
#
# Poissons Ratio (x) = 0.00936 0.24308
# Poissons Ratio (y) = 0.04155 0.71453
# Poissons Ratio (z) = 0.61143 0.40465
#
# Static dielectric constant tensor:
#      x y z
#    x 3.807850 0.000000 0.026410 
#    y 0.000000 3.395350 0.000000 
#    z 0.026410 0.000000 3.568260 
# 
# 
# High freq. dielectric constant tensor:
#      x y z
#    x 1.791190 0.000000 -0.002600 
#    y 0.000000 1.766290 0.000000 
#    z -0.002600 0.000000 1.766600 
# 
# From -- ./inp_files/42006.got.cif
#   From: 2010.03.12/outbox.cif.g09.slc.cpg/sg14_22_cif.got.tgz:42006.got - 2010.03.31 13:35:05.
