data_PCOD8127474
_publ_section_title
;
Structure prediction by ZEFSAII (Michael W. Deem and Ramdas Pophale) SiO2 
 PCOD8127474
Probable space group: P 21/C
;
_chemical_formula_sum "Si O2"
_cell_formula_units_Z 32
_cell_length_a 17.272286
_cell_length_b 8.097962
_cell_length_c 27.525508
_cell_angle_alpha 90.000000
_cell_angle_beta 157.180577
_cell_angle_gamma 90.000000
_cell_volume 1493.138654
_symmetry_space_group_name_H-M "P 21/C"
_symmetry_group_IT_number 14
_symmetry_cell_setting 'monoclinic'
loop_
_space_group_symop_operation_xyz
x,y,z
-x,1/2+y,1/2-z
-x,-y,-z
x,1/2-y,1/2+z
loop_
_atom_site_type_symbol
_atom_site_label
_atom_site_fract_x
_atom_site_fract_y
_atom_site_fract_z
Si Si1 0.746687 0.421531 0.571403
Si Si2 0.439923 0.090450 0.123143
Si Si3 0.349124 0.074386 0.523600
Si Si4 0.388779 0.252493 0.691001
Si Si5 0.139110 0.240837 0.318511
Si Si6 0.806518 0.651049 0.831261
Si Si7 0.748117 0.075839 0.434899
Si Si8 0.612464 0.694741 0.128971
O O1 0.720256 0.484311 0.500512
O O2 0.809781 0.567668 0.644192
O O3 0.539970 0.344034 0.469468
O O4 0.910969 0.277201 0.669263
O O5 0.467790 0.270649 0.115083
O O6 0.353822 0.113067 0.128009
O O7 0.657157 0.005129 0.249731
O O8 0.245449 0.955618 0.503535
O O9 0.508393 0.973850 0.584498
O O10 0.171805 0.139610 0.386923
O O11 0.228246 0.271016 0.642112
O O12 0.611467 0.264652 0.843745
O O13 0.372488 0.071902 0.659443
O O14 0.275244 0.159188 0.355945
O O15 0.769508 0.752910 0.761013
O O16 0.033177 0.588143 0.961642
#
# Coordination Sequence:
#
# PCOD8127474 Si02
#       8
#     4   4   4   4   4   4   4   4
#     4  10  23  42  64  93 130 165 219 258 325 382
#     4   9  22  42  62  94 131 166 208 269 316 380
#     4  10  22  43  61  94 132 163 213 272 315 373
#     4  11  21  42  66  90 130 163 210 266 315 373
#     4  11  23  41  65  94 125 174 209 262 328 381
#     4  11  23  40  67  93 125 176 212 253 333 394
#     4  11  24  42  66  92 126 170 214 260 320 388
#     4  11  23  40  65  93 128 166 213 269 316 383
#
# _framework density 21.431363999999999
#
# number of rings (size 3 to 8) (size 9 to 14) (size 15 to 20)
#    0.000    1.500    2.500    1.875    3.500    0.000 
#    6.750    0.625    0.000    0.000    0.000    0.000 
#    0.000    0.000    0.000    0.000    0.000    0.000 
#
# Total GULP energy -396793.060188 kJ/mol
# GULP energy per Si atom -12399.783131 kJ/mol
# Density = 2.138259 g / cm^3
# Si number density = 21.431364 Si / 1000 Ang^3
#
#
#
# Elastic Constant Matrix: (Units=GPa)
#
#
# Indices 1 2 3 4 5 6 
#
# 1 115.6484 2.7162 41.7732 0.0000 -5.7240 0.0000
# 2 2.7162 42.4503 23.4396 0.0000 -10.6003 0.0000
# 3 41.7732 23.4396 97.0818 0.0000 -1.2129 0.0000
# 4 0.0000 0.0000 0.0000 29.2121 0.0000 -2.0935
# 5 -5.7240 -10.6003 -1.2129 0.0000 27.9107 0.0000
# 6 0.0000 0.0000 0.0000 -2.0935 0.0000 28.5851
#
#
#
# Elastic Compliance Matrix: (Units=1/GPa)
#
#
# Indices 1 2 3 4 5 6 
#
# 1 0.010629 0.002994 -0.005258 0.000000 0.003088 0.000000
# 2 0.002994 0.031163 -0.008662 0.000000 0.012073 0.000000
# 3 -0.005258 -0.008662 0.014608 0.000000 -0.003733 0.000000
# 4 0.000000 0.000000 0.000000 0.034413 0.000000 0.002520
# 5 0.003088 0.012073 -0.003733 0.000000 0.040885 0.000000
# 6 0.000000 0.000000 0.000000 0.002520 0.000000 0.035168
#
#
# Mechanical properties :
#
#
# Convention : Reuss Voigt Hill
#
# Bulk Modulus (GPa) = 28.94452 43.44873 36.19663
# Shear Modulus (GPa) = 24.97118 29.62502 27.29810
#
# Velocity S-wave (km/s) = 3.41716 3.72199 3.57283
# Velocity P-wave (km/s) = 5.39484 6.22803 5.82635
#
# Compressibility (1/GPa) = 0.03454885
#
# Stress axis : x y z
#
# Youngs Moduli (GPa) = 94.08616 32.08963 68.45782
#
# Poissons Ratio (x) = -0.09608 0.35993
# Poissons Ratio (y) = -0.28172 0.59295
# Poissons Ratio (z) = 0.49468 0.27795
#
# Static dielectric constant tensor:
#      x y z
#    x 4.082380 0.000000 -0.349490 
#    y 0.000000 3.920710 0.000000 
#    z -0.349490 0.000000 3.749960 
# 
# 
# High freq. dielectric constant tensor:
#      x y z
#    x 1.849630 0.000000 -0.025610 
#    y 0.000000 1.842410 0.000000 
#    z -0.025610 0.000000 1.832310 
# 
# From -- ./inp_files/80411.got.cif
#   From: 2010.03.12/outbox.cif.g09.slc.cpg/sg14_41_cif.got.tgz:80411.got - 2010.03.31 13:35:05.
