data_PCOD8127658
_publ_section_title
;
Structure prediction by ZEFSAII (Michael W. Deem and Ramdas Pophale) SiO2 
 PCOD8127658
Probable space group: P 21/C
;
_chemical_formula_sum "Si O2"
_cell_formula_units_Z 28
_cell_length_a 13.504617
_cell_length_b 9.218143
_cell_length_c 9.950181
_cell_angle_alpha 90.000000
_cell_angle_beta 67.740014
_cell_angle_gamma 90.000000
_cell_volume 1146.360330
_symmetry_space_group_name_H-M "P 21/C"
_symmetry_group_IT_number 14
_symmetry_cell_setting 'monoclinic'
loop_
_space_group_symop_operation_xyz
x,y,z
-x,1/2+y,1/2-z
-x,-y,-z
x,1/2-y,1/2+z
loop_
_atom_site_type_symbol
_atom_site_label
_atom_site_fract_x
_atom_site_fract_y
_atom_site_fract_z
Si Si1 0.053980 0.826052 0.228837
Si Si2 0.459726 0.814288 0.027047
Si Si3 0.317538 0.466212 0.760029
Si Si4 0.181932 0.787074 0.429032
Si Si5 0.652459 0.809596 0.100611
Si Si6 0.625143 0.387882 0.710639
Si Si7 0.858652 0.867140 0.848334
O O1 0.093508 0.811957 0.360565
O O2 0.931057 0.774979 0.286147
O O3 0.066444 0.990610 0.165767
O O4 0.123491 0.717205 0.101848
O O5 0.587662 0.814771 0.991763
O O6 0.410451 0.674613 0.127618
O O7 0.403660 0.960263 0.115316
O O8 0.437652 0.807474 0.879812
O O9 0.270886 0.586599 0.885297
O O10 0.376444 0.342931 0.815748
O O11 0.215364 0.396912 0.740682
O O12 0.247523 0.637968 0.374476
O O13 0.607105 0.938987 0.218266
O O14 0.779334 0.830353 0.012535
#
# Coordination Sequence:
#
# PCOD8127658 Si02
#       7
#     4   4   4   4   4   4   4
#     4  11  25  44  69  97 132 184 223 287 345 399
#     4  11  24  45  72  99 144 182 225 279 356 403
#     4  10  24  44  67 103 139 181 225 287 341 411
#     4  10  22  46  68  94 139 180 223 276 352 402
#     4  12  24  42  69 101 138 182 229 286 336 416
#     4  11  22  46  71 100 137 186 226 279 345 418
#     4  11  26  44  67  99 138 176 232 284 345 398
#
# _framework density 24.425131
#
# number of rings (size 3 to 8) (size 9 to 14) (size 15 to 20)
#    0.000    1.143    2.857    3.000    6.000    2.857 
#    5.143    3.571    0.000    0.000    0.000    0.000 
#    0.000    0.000    0.000    0.000    0.000    0.000 
#
# Total GULP energy -347215.494352 kJ/mol
# GULP energy per Si atom -12400.553370 kJ/mol
# Density = 2.436954 g / cm^3
# Si number density = 24.425131 Si / 1000 Ang^3
#
#
#
# Elastic Constant Matrix: (Units=GPa)
#
#
# Indices 1 2 3 4 5 6 
#
# 1 94.2676 17.1069 7.6753 0.0000 -27.4997 0.0000
# 2 17.1069 66.8462 26.0525 0.0000 -6.9267 0.0000
# 3 7.6753 26.0525 76.1519 0.0000 -16.4083 0.0000
# 4 0.0000 0.0000 0.0000 19.1143 0.0000 6.9663
# 5 -27.4997 -6.9267 -16.4083 0.0000 42.0911 0.0000
# 6 0.0000 0.0000 0.0000 6.9663 0.0000 37.5796
#
#
#
# Elastic Compliance Matrix: (Units=1/GPa)
#
#
# Indices 1 2 3 4 5 6 
#
# 1 0.013704 -0.003220 0.001676 0.000000 0.009077 0.000000
# 2 -0.003220 0.018031 -0.006177 0.000000 -0.001544 0.000000
# 3 0.001676 -0.006177 0.016477 0.000000 0.006502 0.000000
# 4 0.000000 0.000000 0.000000 0.056107 0.000000 -0.010401
# 5 0.009077 -0.001544 0.006502 0.000000 0.031969 0.000000
# 6 0.000000 0.000000 0.000000 -0.010401 0.000000 0.028538
#
#
# Mechanical properties :
#
#
# Convention : Reuss Voigt Hill
#
# Bulk Modulus (GPa) = 30.51513 37.65946 34.08730
# Shear Modulus (GPa) = 26.15196 32.18574 29.16885
#
# Velocity S-wave (km/s) = 3.27570 3.63399 3.45949
# Velocity P-wave (km/s) = 5.17952 5.74975 5.47207
#
# Compressibility (1/GPa) = 0.03277063
#
# Stress axis : x y z
#
# Youngs Moduli (GPa) = 72.97263 55.46003 60.69139
#
# Poissons Ratio (x) = 0.17856 -0.10172
# Poissons Ratio (y) = 0.23495 0.37488
# Poissons Ratio (z) = -0.12230 0.34257
#
# Static dielectric constant tensor:
#      x y z
#    x 4.342540 0.000000 -0.190210 
#    y 0.000000 4.502240 0.000000 
#    z -0.190210 0.000000 4.154690 
# 
# 
# High freq. dielectric constant tensor:
#      x y z
#    x 1.969930 0.000000 -0.016940 
#    y 0.000000 1.974770 0.000000 
#    z -0.016940 0.000000 1.965170 
# 
# From -- ./inp_files/31721.got.cif
#   From: 2010.03.12/outbox.cif.g09.slc.cpg/sg14_16_cif.got.tgz:31721.got - 2010.03.31 13:35:05.
