data_PCOD8127988
_publ_section_title
;
Structure prediction by ZEFSAII (Michael W. Deem and Ramdas Pophale) SiO2 
 PCOD8127988
Probable space group: P 21/C
;
_chemical_formula_sum "Si O2"
_cell_formula_units_Z 28
_cell_length_a 15.151887
_cell_length_b 9.095588
_cell_length_c 15.233987
_cell_angle_alpha 90.000000
_cell_angle_beta 141.255616
_cell_angle_gamma 90.000000
_cell_volume 1313.951324
_symmetry_space_group_name_H-M "P 21/C"
_symmetry_group_IT_number 14
_symmetry_cell_setting 'monoclinic'
loop_
_space_group_symop_operation_xyz
x,y,z
-x,1/2+y,1/2-z
-x,-y,-z
x,1/2-y,1/2+z
loop_
_atom_site_type_symbol
_atom_site_label
_atom_site_fract_x
_atom_site_fract_y
_atom_site_fract_z
Si Si1 0.644814 0.216088 0.895954
Si Si2 0.066125 0.921668 0.635990
Si Si3 0.819030 0.016102 0.565590
Si Si4 0.201762 0.476088 0.588989
Si Si5 0.898830 0.418632 0.319905
Si Si6 0.358361 0.511884 0.447404
Si Si7 0.652823 0.731181 0.412860
O O1 0.684786 0.080689 0.866825
O O2 0.498364 0.277204 0.748394
O O3 0.758661 0.344211 0.966560
O O4 0.635336 0.161480 0.989754
O O5 0.074656 0.747483 0.626222
O O6 0.222756 0.982815 0.777931
O O7 0.965731 0.957803 0.640801
O O8 0.000000 0.000000 0.500000
O O9 0.698413 0.893148 0.476594
O O10 0.839142 0.079148 0.677519
O O11 0.211784 0.497790 0.701691
O O12 0.239314 0.314452 0.581784
O O13 0.042911 0.512744 0.435275
O O14 0.500000 0.500000 0.500000
O O15 0.341313 0.371067 0.496839
#
# Coordination Sequence:
#
# PCOD8127988 Si02
#       7
#     4   4   4   4   4   4   4
#     4  11  24  45  70  98 145 186 227 290 349 425
#     4  12  27  45  73 105 141 189 236 293 350 415
#     4  12  24  43  72 101 138 176 242 284 353 409
#     4  10  23  44  68  95 142 174 231 277 356 410
#     4  11  24  43  71 103 132 179 230 300 338 414
#     4  11  27  46  69 103 145 185 237 287 350 421
#     4  11  25  44  68 101 140 190 225 288 357 419
#
# _framework density 21.309768999999999
#
# number of rings (size 3 to 8) (size 9 to 14) (size 15 to 20)
#    0.000    0.857    2.857    4.286    6.000    3.429 
#    0.000    2.143    0.000    0.000    0.000    0.000 
#    0.000    0.000    0.000    0.000    0.000    0.000 
#
# Total GULP energy -347215.661897 kJ/mol
# GULP energy per Si atom -12400.559353 kJ/mol
# Density = 2.126127 g / cm^3
# Si number density = 21.309769 Si / 1000 Ang^3
#
#
#
# Elastic Constant Matrix: (Units=GPa)
#
#
# Indices 1 2 3 4 5 6 
#
# 1 114.7518 18.5181 38.7228 0.0000 4.4392 0.0000
# 2 18.5181 83.6945 22.2274 0.0000 -7.2581 0.0000
# 3 38.7228 22.2274 130.6437 0.0000 -0.7158 0.0000
# 4 0.0000 0.0000 0.0000 38.1766 0.0000 0.2804
# 5 4.4392 -7.2581 -0.7158 0.0000 33.4050 0.0000
# 6 0.0000 0.0000 0.0000 0.2804 0.0000 31.1490
#
#
#
# Elastic Compliance Matrix: (Units=1/GPa)
#
#
# Indices 1 2 3 4 5 6 
#
# 1 0.009951 -0.001641 -0.002680 0.000000 -0.001736 0.000000
# 2 -0.001641 0.013028 -0.001714 0.000000 0.003012 0.000000
# 3 -0.002680 -0.001714 0.008741 0.000000 0.000171 0.000000
# 4 0.000000 0.000000 0.000000 0.026196 0.000000 -0.000236
# 5 -0.001736 0.003012 0.000171 0.000000 0.030824 0.000000
# 6 0.000000 0.000000 0.000000 -0.000236 0.000000 0.032106
#
#
# Mechanical properties :
#
#
# Convention : Reuss Voigt Hill
#
# Bulk Modulus (GPa) = 50.88716 54.22515 52.55616
# Shear Modulus (GPa) = 35.85156 37.18757 36.51956
#
# Velocity S-wave (km/s) = 4.10616 4.18197 4.14423
# Velocity P-wave (km/s) = 6.81266 6.98712 6.90044
#
# Compressibility (1/GPa) = 0.01965132
#
# Stress axis : x y z
#
# Youngs Moduli (GPa) = 100.49592 76.76061 114.40088
#
# Poissons Ratio (x) = 0.12593 0.30657
# Poissons Ratio (y) = 0.16487 0.19605
# Poissons Ratio (z) = 0.26931 0.13155
#
# Static dielectric constant tensor:
#      x y z
#    x 4.004590 0.000000 -0.007590 
#    y 0.000000 4.007160 0.000000 
#    z -0.007590 0.000000 3.795550 
# 
# 
# High freq. dielectric constant tensor:
#      x y z
#    x 1.842720 0.000000 0.004030 
#    y 0.000000 1.843490 0.000000 
#    z 0.004030 0.000000 1.838660 
# 
# From -- ./inp_files/46746.got.cif
#   From: 2010.03.12/outbox.cif.g09.slc.cpg/sg14_24_cif.got.tgz:46746.got - 2010.03.31 13:35:05.
