data_PCOD8127120
_publ_section_title
;
Structure prediction by ZEFSAII (Michael W. Deem and Ramdas Pophale) SiO2 
 PCOD8127120
Probable space group: P 21/C
;
_chemical_formula_sum "Si O2"
_cell_formula_units_Z 28
_cell_length_a 12.582920
_cell_length_b 5.315767
_cell_length_c 21.018999
_cell_angle_alpha 90.000000
_cell_angle_beta 62.516771
_cell_angle_gamma 90.000000
_cell_volume 1247.252771
_symmetry_space_group_name_H-M "P 21/C"
_symmetry_group_IT_number 14
_symmetry_cell_setting 'monoclinic'
loop_
_space_group_symop_operation_xyz
x,y,z
-x,1/2+y,1/2-z
-x,-y,-z
x,1/2-y,1/2+z
loop_
_atom_site_type_symbol
_atom_site_label
_atom_site_fract_x
_atom_site_fract_y
_atom_site_fract_z
Si Si1 0.084817 0.270770 0.806012
Si Si2 0.855026 0.574897 0.843722
Si Si3 0.586142 0.000251 0.415409
Si Si4 0.241290 0.444763 0.429192
Si Si5 0.034818 0.379546 0.578041
Si Si6 0.510445 0.503314 0.572913
Si Si7 0.822563 0.426203 0.117530
O O1 0.152909 0.158831 0.727196
O O2 0.171954 0.491242 0.809233
O O3 0.952114 0.354057 0.821367
O O4 0.066829 0.076821 0.870019
O O5 0.723594 0.483102 0.900190
O O6 0.888871 0.800959 0.881303
O O7 0.558691 0.249975 0.381359
O O8 0.500000 0.000000 0.500000
O O9 0.554954 0.749422 0.382898
O O10 0.121010 0.505979 0.502319
O O11 0.352497 0.474474 0.445036
O O12 0.253805 0.669925 0.373406
O O13 0.232818 0.156932 0.407391
O O14 0.963770 0.143860 0.565703
O O15 0.500000 0.500000 0.500000
#
# Coordination Sequence:
#
# PCOD8127120 Si02
#       7
#     4   4   4   4   4   4   4
#     4  11  24  41  64 102 136 183 222 268 339 420
#     4  11  24  40  68 100 144 178 223 283 345 406
#     4  10  22  39  64  96 132 166 216 276 338 389
#     4  12  24  40  69  94 140 173 217 291 336 400
#     4  11  23  39  64 100 137 175 226 269 345 409
#     4  10  22  40  61  98 127 165 219 272 344 384
#     4  11  25  42  62  98 136 181 224 266 340 417
#
# _framework density 22.449338000000001
#
# number of rings (size 3 to 8) (size 9 to 14) (size 15 to 20)
#    0.000    1.143    2.857    3.429   10.000    0.000 
#    0.000    0.000    0.000    3.429    0.000    0.000 
#    0.000    0.000    0.000    0.000    0.000    0.000 
#
# Total GULP energy -346935.308263 kJ/mol
# GULP energy per Si atom -12390.546724 kJ/mol
# Density = 2.239824 g / cm^3
# Si number density = 22.449338 Si / 1000 Ang^3
#
#
#
# Elastic Constant Matrix: (Units=GPa)
#
#
# Indices 1 2 3 4 5 6 
#
# 1 133.7746 49.2590 8.1297 0.0000 0.6664 0.0000
# 2 49.2590 172.6715 16.5102 0.0000 7.4700 0.0000
# 3 8.1297 16.5102 43.3632 0.0000 0.9096 0.0000
# 4 0.0000 0.0000 0.0000 21.9368 0.0000 4.4424
# 5 0.6664 7.4700 0.9096 0.0000 25.8473 0.0000
# 6 0.0000 0.0000 0.0000 4.4424 0.0000 40.5148
#
#
#
# Elastic Compliance Matrix: (Units=1/GPa)
#
#
# Indices 1 2 3 4 5 6 
#
# 1 0.008378 -0.002345 -0.000688 0.000000 0.000486 0.000000
# 2 -0.002345 0.006739 -0.002088 0.000000 -0.001814 0.000000
# 3 -0.000688 -0.002088 0.023990 0.000000 -0.000223 0.000000
# 4 0.000000 0.000000 0.000000 0.046621 0.000000 -0.005112
# 5 0.000486 -0.001814 -0.000223 0.000000 0.039208 0.000000
# 6 0.000000 0.000000 0.000000 -0.005112 0.000000 0.025243
#
#
# Mechanical properties :
#
#
# Convention : Reuss Voigt Hill
#
# Bulk Modulus (GPa) = 34.64524 55.28966 44.96745
# Shear Modulus (GPa) = 29.40452 36.05380 32.72916
#
# Velocity S-wave (km/s) = 3.62307 4.01185 3.82240
# Velocity P-wave (km/s) = 5.74180 6.79279 6.28929
#
# Compressibility (1/GPa) = 0.02886399
#
# Stress axis : x y z
#
# Youngs Moduli (GPa) = 119.35641 148.40074 41.68466
#
# Poissons Ratio (x) = 0.34805 0.02868
# Poissons Ratio (y) = 0.27993 0.08703
# Poissons Ratio (z) = 0.08211 0.30984
#
# Static dielectric constant tensor:
#      x y z
#    x 4.064450 0.000000 0.175270 
#    y 0.000000 6.605660 0.000000 
#    z 0.175270 0.000000 3.532470 
# 
# 
# High freq. dielectric constant tensor:
#      x y z
#    x 1.893860 0.000000 0.013990 
#    y 0.000000 1.910190 0.000000 
#    z 0.013990 0.000000 1.826540 
# 
# From -- ./inp_files/66396.got.cif
#   From: 2010.03.12/outbox.cif.g09.slc.cpg/sg14_34_cif.got.tgz:66396.got - 2010.03.31 13:35:05.
