data_PCOD8127098
_publ_section_title
;
Structure prediction by ZEFSAII (Michael W. Deem and Ramdas Pophale) SiO2 
 PCOD8127098
Probable space group: P 21/C
;
_chemical_formula_sum "Si O2"
_cell_formula_units_Z 28
_cell_length_a 10.093903
_cell_length_b 9.579870
_cell_length_c 22.452419
_cell_angle_alpha 90.000000
_cell_angle_beta 32.372490
_cell_angle_gamma 90.000000
_cell_volume 1162.458763
_symmetry_space_group_name_H-M "P 21/C"
_symmetry_group_IT_number 14
_symmetry_cell_setting 'monoclinic'
loop_
_space_group_symop_operation_xyz
x,y,z
-x,1/2+y,1/2-z
-x,-y,-z
x,1/2-y,1/2+z
loop_
_atom_site_type_symbol
_atom_site_label
_atom_site_fract_x
_atom_site_fract_y
_atom_site_fract_z
Si Si1 0.975255 0.227111 0.229890
Si Si2 0.864935 0.625448 0.630251
Si Si3 0.691423 0.026135 0.874405
Si Si4 0.723221 0.582521 0.554487
Si Si5 0.857546 0.633962 0.943545
Si Si6 0.164190 0.066510 0.385981
Si Si7 0.570001 0.451676 0.821432
O O1 0.855331 0.333112 0.323890
O O2 0.768913 0.165040 0.263580
O O3 0.163740 0.315824 0.116463
O O4 0.127291 0.105287 0.204601
O O5 0.714594 0.571657 0.629009
O O6 0.935238 0.787160 0.601392
O O7 0.708495 0.595549 0.750471
O O8 0.115395 0.536949 0.538334
O O9 0.550831 0.057090 0.866275
O O10 0.500000 0.000000 0.000000
O O11 0.835399 0.734113 0.496384
O O12 0.118530 0.549812 0.851619
O O13 0.625594 0.531721 0.049730
O O14 0.437546 0.091960 0.308943
O O15 0.000000 0.000000 0.500000
#
# Coordination Sequence:
#
# PCOD8127098 Si02
#       7
#     4   4   4   4   4   4   4
#     4  12  25  49  77 102 142 197 253 302 373 425
#     4  11  22  40  69 110 143 189 232 289 371 446
#     4  12  25  52  77 103 143 195 251 310 365 432
#     4  11  22  43  73 102 146 190 236 302 367 426
#     4  11  22  46  71 104 141 190 236 298 365 436
#     4  10  22  39  63 103 145 178 228 283 353 434
#     4  11  22  41  72 103 149 185 231 292 368 433
#
# _framework density 24.086877000000001
#
# number of rings (size 3 to 8) (size 9 to 14) (size 15 to 20)
#    0.000    0.857    7.143    0.000    4.000    0.000 
#   12.857    1.429    0.000    0.000    0.000    0.000 
#    0.000    0.000    0.000    0.000    0.000    0.000 
#
# Total GULP energy -346956.341862 kJ/mol
# GULP energy per Si atom -12391.297924 kJ/mol
# Density = 2.403205 g / cm^3
# Si number density = 24.086877 Si / 1000 Ang^3
#
#
#
# Elastic Constant Matrix: (Units=GPa)
#
#
# Indices 1 2 3 4 5 6 
#
# 1 58.1548 45.0527 29.0414 0.0000 -20.2666 0.0000
# 2 45.0527 181.1689 65.8694 0.0000 -12.8578 0.0000
# 3 29.0414 65.8694 104.1142 0.0000 3.8932 0.0000
# 4 0.0000 0.0000 0.0000 41.2285 0.0000 10.1109
# 5 -20.2666 -12.8578 3.8932 0.0000 32.6936 0.0000
# 6 0.0000 0.0000 0.0000 10.1109 0.0000 32.3158
#
#
#
# Elastic Compliance Matrix: (Units=1/GPa)
#
#
# Indices 1 2 3 4 5 6 
#
# 1 0.029450 -0.003702 -0.006530 0.000000 0.017578 0.000000
# 2 -0.003702 0.008025 -0.004095 0.000000 0.001349 0.000000
# 3 -0.006530 -0.004095 0.014292 0.000000 -0.007360 0.000000
# 4 0.000000 0.000000 0.000000 0.026271 0.000000 -0.008220
# 5 0.017578 0.001349 -0.007360 0.000000 0.042890 0.000000
# 6 0.000000 0.000000 0.000000 -0.008220 0.000000 0.033516
#
#
# Mechanical properties :
#
#
# Convention : Reuss Voigt Hill
#
# Bulk Modulus (GPa) = 43.26459 69.26276 56.26367
# Shear Modulus (GPa) = 26.20512 34.81254 30.50883
#
# Velocity S-wave (km/s) = 3.30197 3.80582 3.56282
# Velocity P-wave (km/s) = 5.70423 6.93759 6.35092
#
# Compressibility (1/GPa) = 0.02311359
#
# Stress axis : x y z
#
# Youngs Moduli (GPa) = 33.95585 124.61325 69.96830
#
# Poissons Ratio (x) = 0.46131 0.45689
# Poissons Ratio (y) = 0.12570 0.28651
# Poissons Ratio (z) = 0.22173 0.51027
#
# Static dielectric constant tensor:
#      x y z
#    x 4.507290 0.000000 -0.263080 
#    y 0.000000 4.542590 0.000000 
#    z -0.263080 0.000000 4.428440 
# 
# 
# High freq. dielectric constant tensor:
#      x y z
#    x 1.939070 0.000000 -0.005490 
#    y 0.000000 1.956330 0.000000 
#    z -0.005490 0.000000 1.953850 
# 
# From -- ./inp_files/77090.got.cif
#   From: 2010.03.12/outbox.cif.g09.slc.cpg/sg14_39_cif.got.tgz:77090.got - 2010.03.31 13:35:05.
