data_PCOD8127030
_publ_section_title
;
Structure prediction by ZEFSAII (Michael W. Deem and Ramdas Pophale) SiO2 
 PCOD8127030
Probable space group: P 21/C
;
_chemical_formula_sum "Si O2"
_cell_formula_units_Z 24
_cell_length_a 14.183868
_cell_length_b 5.038340
_cell_length_c 22.233055
_cell_angle_alpha 90.000000
_cell_angle_beta 41.270282
_cell_angle_gamma 90.000000
_cell_volume 1048.020523
_symmetry_space_group_name_H-M "P 21/C"
_symmetry_group_IT_number 14
_symmetry_cell_setting 'monoclinic'
loop_
_space_group_symop_operation_xyz
x,y,z
-x,1/2+y,1/2-z
-x,-y,-z
x,1/2-y,1/2+z
loop_
_atom_site_type_symbol
_atom_site_label
_atom_site_fract_x
_atom_site_fract_y
_atom_site_fract_z
Si Si1 0.136723 0.854546 0.240793
Si Si2 0.529897 0.482138 0.773230
Si Si3 0.281966 0.193066 0.473653
Si Si4 0.157876 0.911879 0.852165
Si Si5 0.814283 0.853144 0.353857
Si Si6 0.877605 0.301378 0.496414
O O1 0.167596 0.811246 0.296206
O O2 0.216211 0.635308 0.161630
O O3 0.969032 0.831948 0.309797
O O4 0.202424 0.136173 0.190642
O O5 0.543900 0.241547 0.719035
O O6 0.436217 0.386769 0.874421
O O7 0.689623 0.560029 0.716866
O O8 0.297048 0.202670 0.538702
O O9 0.237181 0.475719 0.467763
O O10 0.161397 0.979205 0.513624
O O11 0.116753 0.768331 0.934319
O O12 0.034685 0.125717 0.895202
#
# Coordination Sequence:
#
# PCOD8127030 Si02
#       6
#     4   4   4   4   4   4
#     4  10  22  38  63  92 130 166 217 273 314 383
#     4  12  25  44  63  96 138 179 210 265 343 403
#     4  12  22  45  65  97 133 175 220 266 335 397
#     4  11  24  43  65 104 133 169 223 274 333 386
#     4  10  22  39  62  92 128 171 215 266 326 372
#     4  11  25  38  70  99 132 164 223 282 327 387
#
# _framework density 22.900313000000001
#
# number of rings (size 3 to 8) (size 9 to 14) (size 15 to 20)
#    0.000    1.000    5.000    1.000    4.667    6.667 
#    0.000    1.667    0.000    0.000    0.000    0.000 
#    0.000    0.000    0.000    0.000    0.000    0.000 
#
# Total GULP energy -297753.280145 kJ/mol
# GULP energy per Si atom -12406.386673 kJ/mol
# Density = 2.284819 g / cm^3
# Si number density = 22.900313 Si / 1000 Ang^3
#
#
#
# Elastic Constant Matrix: (Units=GPa)
#
#
# Indices 1 2 3 4 5 6 
#
# 1 41.2451 -3.8554 24.9831 0.0000 -0.1016 0.0000
# 2 -3.8554 66.2110 -3.4886 0.0000 3.9035 0.0000
# 3 24.9831 -3.4886 124.9462 0.0000 4.2291 0.0000
# 4 0.0000 0.0000 0.0000 25.4463 0.0000 2.7417
# 5 -0.1016 3.9035 4.2291 0.0000 38.9520 0.0000
# 6 0.0000 0.0000 0.0000 2.7417 0.0000 19.0501
#
#
#
# Elastic Compliance Matrix: (Units=1/GPa)
#
#
# Indices 1 2 3 4 5 6 
#
# 1 0.027713 0.001291 -0.005524 0.000000 0.000543 0.000000
# 2 0.001291 0.015282 0.000221 0.000000 -0.001552 0.000000
# 3 -0.005524 0.000221 0.009149 0.000000 -0.001030 0.000000
# 4 0.000000 0.000000 0.000000 0.039917 0.000000 -0.005745
# 5 0.000543 -0.001552 -0.001030 0.000000 0.025941 0.000000
# 6 0.000000 0.000000 0.000000 -0.005745 0.000000 0.053320
#
#
# Mechanical properties :
#
#
# Convention : Reuss Voigt Hill
#
# Bulk Modulus (GPa) = 22.66548 29.74228 26.20388
# Shear Modulus (GPa) = 25.76621 31.00721 28.38671
#
# Velocity S-wave (km/s) = 3.35796 3.68368 3.52458
# Velocity P-wave (km/s) = 4.99534 5.57750 5.29443
#
# Compressibility (1/GPa) = 0.04411997
#
# Stress axis : x y z
#
# Youngs Moduli (GPa) = 36.08413 65.43840 109.30244
#
# Poissons Ratio (x) = -0.08446 0.60374
# Poissons Ratio (y) = -0.04657 -0.02417
# Poissons Ratio (z) = 0.19931 -0.01447
#
# Static dielectric constant tensor:
#      x y z
#    x 3.855040 0.000000 0.169580 
#    y 0.000000 4.053330 0.000000 
#    z 0.169580 0.000000 4.193270 
# 
# 
# High freq. dielectric constant tensor:
#      x y z
#    x 1.876650 0.000000 0.020130 
#    y 0.000000 1.904710 0.000000 
#    z 0.020130 0.000000 1.912880 
# 
# From -- ./inp_files/73467.got.cif
#   From: 2010.03.12/outbox.cif.g09.slc.cpg/sg14_37_cif.got.tgz:73467.got - 2010.03.31 13:35:05.
