data_PCOD8127260
_publ_section_title
;
Structure prediction by ZEFSAII (Michael W. Deem and Ramdas Pophale) SiO2 
 PCOD8127260
Probable space group: P 21/C
;
_chemical_formula_sum "Si O2"
_cell_formula_units_Z 32
_cell_length_a 14.111248
_cell_length_b 13.320279
_cell_length_c 9.220032
_cell_angle_alpha 90.000000
_cell_angle_beta 111.415306
_cell_angle_gamma 90.000000
_cell_volume 1613.397601
_symmetry_space_group_name_H-M "P 21/C"
_symmetry_group_IT_number 14
_symmetry_cell_setting 'monoclinic'
loop_
_space_group_symop_operation_xyz
x,y,z
-x,1/2+y,1/2-z
-x,-y,-z
x,1/2-y,1/2+z
loop_
_atom_site_type_symbol
_atom_site_label
_atom_site_fract_x
_atom_site_fract_y
_atom_site_fract_z
Si Si1 0.388949 0.382759 0.384051
Si Si2 0.354665 0.636666 0.750553
Si Si3 0.951502 0.994713 0.186995
Si Si4 0.157465 0.152522 0.678686
Si Si5 0.555315 0.272190 0.924611
Si Si6 0.515119 0.961071 0.782286
Si Si7 0.848217 0.469887 0.341012
Si Si8 0.887847 0.648383 0.181125
O O1 0.271504 0.363809 0.294053
O O2 0.445992 0.281161 0.369526
O O3 0.409328 0.406480 0.563544
O O4 0.426400 0.476882 0.311144
O O5 0.363816 0.697257 0.605387
O O6 0.416526 0.532265 0.780941
O O7 0.237581 0.614640 0.723719
O O8 0.402027 0.712573 0.891931
O O9 0.909507 0.942334 0.307955
O O10 0.043582 0.929723 0.163220
O O11 0.996865 0.103594 0.258859
O O12 0.861120 0.005032 0.018940
O O13 0.154693 0.163958 0.504197
O O14 0.109936 0.248250 0.731305
O O15 0.544472 0.379775 0.844802
O O16 0.816616 0.569849 0.231564
#
# Coordination Sequence:
#
# PCOD8127260 Si02
#       8
#     4   4   4   4   4   4   4   4
#     4  10  24  39  64  94 125 168 210 263 317 373
#     4  11  23  41  65  89 127 166 209 257 315 381
#     4   9  21  45  64  89 127 158 208 262 314 375
#     4  12  23  39  66  94 122 167 210 259 312 380
#     4  11  23  41  61  95 126 163 215 258 308 383
#     4  10  22  41  62  87 128 165 206 265 316 359
#     4   9  21  43  64  89 123 165 201 258 316 373
#     4  10  24  38  64  93 128 155 215 253 316 372
#
# _framework density 19.833921
#
# number of rings (size 3 to 8) (size 9 to 14) (size 15 to 20)
#    0.750    1.000    1.250    2.250    5.250    0.000 
#    2.250    0.000    0.000    0.000    0.000    0.000 
#    0.000    0.000    0.000    0.000    0.000    0.000 
#
# Total GULP energy -396762.939648 kJ/mol
# GULP energy per Si atom -12398.841864 kJ/mol
# Density = 1.978878 g / cm^3
# Si number density = 19.833921 Si / 1000 Ang^3
#
#
#
# Elastic Constant Matrix: (Units=GPa)
#
#
# Indices 1 2 3 4 5 6 
#
# 1 80.8854 36.1174 23.5342 0.0000 5.0307 0.0000
# 2 36.1174 94.3631 36.5248 0.0000 -1.1442 0.0000
# 3 23.5342 36.5248 85.6661 0.0000 -7.3248 0.0000
# 4 0.0000 0.0000 0.0000 32.8312 0.0000 -0.1143
# 5 5.0307 -1.1442 -7.3248 0.0000 16.1028 0.0000
# 6 0.0000 0.0000 0.0000 -0.1143 0.0000 26.2640
#
#
#
# Elastic Compliance Matrix: (Units=1/GPa)
#
#
# Indices 1 2 3 4 5 6 
#
# 1 0.015838 -0.005078 -0.002746 0.000000 -0.006558 0.000000
# 2 -0.005078 0.014361 -0.004687 0.000000 0.000475 0.000000
# 3 -0.002746 -0.004687 0.015057 0.000000 0.007374 0.000000
# 4 0.000000 0.000000 0.000000 0.030459 0.000000 0.000133
# 5 -0.006558 0.000475 0.007374 0.000000 0.067538 0.000000
# 6 0.000000 0.000000 0.000000 0.000133 0.000000 0.038076
#
#
# Mechanical properties :
#
#
# Convention : Reuss Voigt Hill
#
# Bulk Modulus (GPa) = 49.42822 50.36304 49.89563
# Shear Modulus (GPa) = 23.46354 26.02214 24.74284
#
# Velocity S-wave (km/s) = 3.44321 3.62609 3.53583
# Velocity P-wave (km/s) = 6.38614 6.55582 6.47154
#
# Compressibility (1/GPa) = 0.02023136
#
# Stress axis : x y z
#
# Youngs Moduli (GPa) = 63.14014 69.63225 66.41539
#
# Poissons Ratio (x) = 0.35362 0.18241
# Poissons Ratio (y) = 0.32065 0.31131
# Poissons Ratio (z) = 0.17341 0.32639
#
# Static dielectric constant tensor:
#      x y z
#    x 3.394650 0.000000 -0.134330 
#    y 0.000000 3.557240 0.000000 
#    z -0.134330 0.000000 3.594990 
# 
# 
# High freq. dielectric constant tensor:
#      x y z
#    x 1.761920 0.000000 -0.008940 
#    y 0.000000 1.771110 0.000000 
#    z -0.008940 0.000000 1.778950 
# 
# From -- ./inp_files/15852.got.cif
#   From: 2010.03.12/outbox.cif.g09.slc.cpg/sg14_8_cif.got.tgz:15852.got - 2010.03.31 13:35:05.
