data_PCOD8127486
_publ_section_title
;
Structure prediction by ZEFSAII (Michael W. Deem and Ramdas Pophale) SiO2 
 PCOD8127486
Probable space group: P 21/C
;
_chemical_formula_sum "Si O2"
_cell_formula_units_Z 20
_cell_length_a 12.530699
_cell_length_b 11.927277
_cell_length_c 14.710990
_cell_angle_alpha 90.000000
_cell_angle_beta 27.066564
_cell_angle_gamma 90.000000
_cell_volume 1000.446978
_symmetry_space_group_name_H-M "P 21/C"
_symmetry_group_IT_number 14
_symmetry_cell_setting 'monoclinic'
loop_
_space_group_symop_operation_xyz
x,y,z
-x,1/2+y,1/2-z
-x,-y,-z
x,1/2-y,1/2+z
loop_
_atom_site_type_symbol
_atom_site_label
_atom_site_fract_x
_atom_site_fract_y
_atom_site_fract_z
Si Si1 0.247731 0.991719 0.359288
Si Si2 0.435793 0.625507 0.025045
Si Si3 0.536449 0.731251 0.286538
Si Si4 0.584380 0.800434 0.054266
Si Si5 0.898641 0.149548 0.367082
O O1 0.407458 0.903897 0.183668
O O2 0.202702 0.954622 0.497140
O O3 0.386493 0.107400 0.246826
O O4 0.000000 0.000000 0.500000
O O5 0.457316 0.698125 0.099918
O O6 0.167827 0.624490 0.188531
O O7 0.500000 0.500000 0.000000
O O8 0.600251 0.681802 0.820691
O O9 0.658270 0.767469 0.100399
O O10 0.251058 0.739026 0.489032
O O11 0.828257 0.833365 0.820811
#
# Coordination Sequence:
#
# PCOD8127486 Si02
#       5
#     4   4   4   4   4
#     4  11  23  40  68  98 136 172 221 274 334 392
#     4  10  22  43  65  93 132 174 220 270 331 395
#     4   9  23  41  62  96 134 167 225 269 328 397
#     4  11  23  42  68  95 136 174 219 282 329 388
#     4   9  23  42  62 101 128 173 225 269 328 402
#
# _framework density 19.991063
#
# number of rings (size 3 to 8) (size 9 to 14) (size 15 to 20)
#    1.200    0.800    0.000    2.400    2.800    6.400 
#    0.000    1.000    0.000    0.000    0.000    0.000 
#    0.000    0.000    0.000    0.000    0.000    0.000 
#
# Total GULP energy -247770.701841 kJ/mol
# GULP energy per Si atom -12388.535092 kJ/mol
# Density = 1.994556 g / cm^3
# Si number density = 19.991063 Si / 1000 Ang^3
#
#
#
# Elastic Constant Matrix: (Units=GPa)
#
#
# Indices 1 2 3 4 5 6 
#
# 1 103.2994 65.5778 35.2463 0.0000 0.0109 0.0000
# 2 65.5778 180.4367 61.5292 0.0000 -5.5148 0.0000
# 3 35.2463 61.5292 107.2554 0.0000 -15.1932 0.0000
# 4 0.0000 0.0000 0.0000 22.0238 0.0000 -1.0406
# 5 0.0109 -5.5148 -15.1932 0.0000 38.3821 0.0000
# 6 0.0000 0.0000 0.0000 -1.0406 0.0000 41.0997
#
#
#
# Elastic Compliance Matrix: (Units=1/GPa)
#
#
# Indices 1 2 3 4 5 6 
#
# 1 0.012970 -0.004022 -0.002159 0.000000 -0.001436 0.000000
# 2 -0.004022 0.008150 -0.003377 0.000000 -0.000165 0.000000
# 3 -0.002159 -0.003377 0.012609 0.000000 0.004506 0.000000
# 4 0.000000 0.000000 0.000000 0.045460 0.000000 0.001151
# 5 -0.001436 -0.000165 0.004506 0.000000 0.027814 0.000000
# 6 0.000000 0.000000 0.000000 0.001151 0.000000 0.024360
#
#
# Mechanical properties :
#
#
# Convention : Reuss Voigt Hill
#
# Bulk Modulus (GPa) = 68.42677 79.52200 73.97439
# Shear Modulus (GPa) = 32.18524 35.54367 33.86446
#
# Velocity S-wave (km/s) = 4.01681 4.22118 4.12026
# Velocity P-wave (km/s) = 7.47101 7.97640 7.72784
#
# Compressibility (1/GPa) = 0.01461416
#
# Stress axis : x y z
#
# Youngs Moduli (GPa) = 77.09847 122.69296 79.31022
#
# Poissons Ratio (x) = 0.49344 0.17120
# Poissons Ratio (y) = 0.31007 0.26786
# Poissons Ratio (z) = 0.16642 0.41438
#
# Static dielectric constant tensor:
#      x y z
#    x 3.628330 0.000000 0.175660 
#    y 0.000000 3.511890 0.000000 
#    z 0.175660 0.000000 3.369310 
# 
# 
# High freq. dielectric constant tensor:
#      x y z
#    x 1.791660 0.000000 0.004000 
#    y 0.000000 1.775530 0.000000 
#    z 0.004000 0.000000 1.761100 
# 
# From -- ./inp_files/44528.got.cif
#   From: 2010.03.12/outbox.cif.g09.slc.cpg/sg14_23_cif.got.tgz:44528.got - 2010.03.31 13:35:05.
