data_PCOD8127870
_publ_section_title
;
Structure prediction by ZEFSAII (Michael W. Deem and Ramdas Pophale) SiO2 
 PCOD8127870
Probable space group: P 21/C
;
_chemical_formula_sum "Si O2"
_cell_formula_units_Z 20
_cell_length_a 10.492725
_cell_length_b 16.977713
_cell_length_c 5.358034
_cell_angle_alpha 90.000000
_cell_angle_beta 56.308671
_cell_angle_gamma 90.000000
_cell_volume 794.174883
_symmetry_space_group_name_H-M "P 21/C"
_symmetry_group_IT_number 14
_symmetry_cell_setting 'monoclinic'
loop_
_space_group_symop_operation_xyz
x,y,z
-x,1/2+y,1/2-z
-x,-y,-z
x,1/2-y,1/2+z
loop_
_atom_site_type_symbol
_atom_site_label
_atom_site_fract_x
_atom_site_fract_y
_atom_site_fract_z
Si Si1 0.872353 0.503516 0.843742
Si Si2 0.342371 0.799623 0.923876
Si Si3 0.422555 0.073747 0.210714
Si Si4 0.949001 0.132370 0.562512
Si Si5 0.748030 0.704183 0.360298
O O1 0.000000 0.500000 0.500000
O O2 0.938569 0.564495 0.969124
O O3 0.706440 0.540628 0.952314
O O4 0.845376 0.413449 0.969086
O O5 0.370631 0.757563 0.160471
O O6 0.165678 0.829460 0.110349
O O7 0.454953 0.873944 0.772610
O O8 0.341177 0.122216 0.074718
O O9 0.500000 0.000000 0.000000
O O10 0.066245 0.197296 0.325888
O O11 0.695994 0.744860 0.673414
#
# Coordination Sequence:
#
# PCOD8127870 Si02
#       5
#     4   4   4   4   4
#     4  10  23  44  73 108 143 186 251 301 359 428
#     4  12  27  48  73 108 149 191 241 300 370 436
#     4  11  24  48  73 106 147 192 242 301 365 432
#     4  10  23  42  71 106 140 189 244 297 358 429
#     4  11  25  45  71 104 144 188 237 296 360 426
#
# _framework density 25.183371999999999
#
# number of rings (size 3 to 8) (size 9 to 14) (size 15 to 20)
#    0.000    1.200    2.000    2.400    8.400    0.000 
#    7.200    5.000    0.000    0.000    0.000    0.000 
#    0.000    0.000    0.000    0.000    0.000    0.000 
#
# Total GULP energy -247815.288897 kJ/mol
# GULP energy per Si atom -12390.764445 kJ/mol
# Density = 2.512605 g / cm^3
# Si number density = 25.183372 Si / 1000 Ang^3
#
#
#
# Elastic Constant Matrix: (Units=GPa)
#
#
# Indices 1 2 3 4 5 6 
#
# 1 73.3645 43.8528 31.2609 0.0000 -16.8520 0.0000
# 2 43.8528 115.8687 52.9216 0.0000 -12.3202 0.0000
# 3 31.2609 52.9216 117.0016 0.0000 -22.5621 0.0000
# 4 0.0000 0.0000 0.0000 41.5199 0.0000 -27.3596
# 5 -16.8520 -12.3202 -22.5621 0.0000 53.3656 0.0000
# 6 0.0000 0.0000 0.0000 -27.3596 0.0000 32.6420
#
#
#
# Elastic Compliance Matrix: (Units=1/GPa)
#
#
# Indices 1 2 3 4 5 6 
#
# 1 0.018759 -0.005974 -0.001561 0.000000 0.003885 0.000000
# 2 -0.005974 0.012791 -0.004337 0.000000 -0.000767 0.000000
# 3 -0.001561 -0.004337 0.011582 0.000000 0.003402 0.000000
# 4 0.000000 0.000000 0.000000 0.053799 0.000000 0.045093
# 5 0.003885 -0.000767 0.003402 0.000000 0.021227 0.000000
# 6 0.000000 0.000000 0.000000 0.045093 0.000000 0.068431
#
#
# Mechanical properties :
#
#
# Convention : Reuss Voigt Hill
#
# Bulk Modulus (GPa) = 51.57957 62.47839 57.02898
# Shear Modulus (GPa) = 23.06335 37.38544 30.22439
#
# Velocity S-wave (km/s) = 3.02953 3.85714 3.46811
# Velocity P-wave (km/s) = 5.72394 6.68580 6.22348
#
# Compressibility (1/GPa) = 0.01938752
#
# Stress axis : x y z
#
# Youngs Moduli (GPa) = 53.30868 78.18165 86.34161
#
# Poissons Ratio (x) = 0.46702 0.13478
# Poissons Ratio (y) = 0.31844 0.37449
# Poissons Ratio (z) = 0.08321 0.33910
#
# Static dielectric constant tensor:
#      x y z
#    x 4.823120 0.000000 -0.611180 
#    y 0.000000 4.812580 0.000000 
#    z -0.611180 0.000000 4.433330 
# 
# 
# High freq. dielectric constant tensor:
#      x y z
#    x 1.993500 0.000000 -0.039430 
#    y 0.000000 2.022070 0.000000 
#    z -0.039430 0.000000 1.999720 
# 
# From -- ./inp_files/1062.got.cif
#   From: 2010.03.12/outbox.cif.g09.slc.cpg/sg14_1_cif.got.tgz:1062.got - 2010.03.31 13:35:05.
