data_PCOD8127638
_publ_section_title
;
Structure prediction by ZEFSAII (Michael W. Deem and Ramdas Pophale) SiO2 
 PCOD8127638
Probable space group: P 21/C
;
_chemical_formula_sum "Si O2"
_cell_formula_units_Z 28
_cell_length_a 13.728909
_cell_length_b 16.783162
_cell_length_c 9.029496
_cell_angle_alpha 90.000000
_cell_angle_beta 32.985772
_cell_angle_gamma 90.000000
_cell_volume 1132.702799
_symmetry_space_group_name_H-M "P 21/C"
_symmetry_group_IT_number 14
_symmetry_cell_setting 'monoclinic'
loop_
_space_group_symop_operation_xyz
x,y,z
-x,1/2+y,1/2-z
-x,-y,-z
x,1/2-y,1/2+z
loop_
_atom_site_type_symbol
_atom_site_label
_atom_site_fract_x
_atom_site_fract_y
_atom_site_fract_z
Si Si1 0.546913 0.653454 0.078017
Si Si2 0.114931 0.432767 0.435236
Si Si3 0.953114 0.846547 0.421938
Si Si4 0.541430 0.686901 0.754296
Si Si5 0.749987 0.466244 0.500025
Si Si6 0.958592 0.813102 0.745655
Si Si7 0.385055 0.432770 0.564785
O O1 0.496494 0.726681 0.248174
O O2 0.431668 0.582185 0.290795
O O3 0.759950 0.629627 0.819021
O O4 0.469030 0.674716 0.013243
O O5 0.268137 0.478455 0.332784
O O6 0.980290 0.381699 0.713790
O O7 0.000000 0.500000 0.500000
O O8 0.031025 0.825290 0.486674
O O9 0.003500 0.773313 0.251831
O O10 0.740084 0.870385 0.680928
O O11 0.068378 0.917802 0.209107
O O12 0.750013 0.675995 0.499933
O O13 0.480296 0.618303 0.713768
O O14 0.768131 0.521531 0.332792
O O15 0.500000 0.500000 0.500000
#
# Coordination Sequence:
#
# PCOD8127638 Si02
#       7
#     4   4   4   4   4   4   4
#     4  11  25  46  69 100 143 181 235 277 350 411
#     4  11  24  44  72 102 132 187 232 290 347 401
#     4  11  25  46  69 100 143 181 235 277 350 411
#     4  10  22  45  70  98 137 184 231 280 344 418
#     4  12  26  44  66 102 148 176 228 302 330 412
#     4  10  22  45  70  98 137 184 231 280 344 418
#     4  11  24  44  72 102 132 187 232 290 347 401
#
# _framework density 24.719633999999999
#
# number of rings (size 3 to 8) (size 9 to 14) (size 15 to 20)
#    0.000    1.143    4.286    4.286    8.000    1.143 
#    0.000    0.000    0.000    0.000    0.000    0.000 
#    0.000    0.000    0.000    0.000    0.000    0.000 
#
# Total GULP energy -346930.049268 kJ/mol
# GULP energy per Si atom -12390.358902 kJ/mol
# Density = 2.466337 g / cm^3
# Si number density = 24.719634 Si / 1000 Ang^3
#
#
#
# Elastic Constant Matrix: (Units=GPa)
#
#
# Indices 1 2 3 4 5 6 
#
# 1 58.8774 35.0256 2.2863 0.0000 7.0652 0.0000
# 2 35.0256 137.7271 9.4573 0.0000 9.9508 0.0000
# 3 2.2863 9.4573 54.3565 0.0000 11.1228 0.0000
# 4 0.0000 0.0000 0.0000 24.1313 0.0000 2.5690
# 5 7.0652 9.9508 11.1228 0.0000 28.1274 0.0000
# 6 0.0000 0.0000 0.0000 2.5690 0.0000 57.4496
#
#
#
# Elastic Compliance Matrix: (Units=1/GPa)
#
#
# Indices 1 2 3 4 5 6 
#
# 1 0.020345 -0.004962 0.000755 0.000000 -0.003654 0.000000
# 2 -0.004962 0.008695 -0.001012 0.000000 -0.001430 0.000000
# 3 0.000755 -0.001012 0.020136 0.000000 -0.007795 0.000000
# 4 0.000000 0.000000 0.000000 0.041638 0.000000 -0.001862
# 5 -0.003654 -0.001430 -0.007795 0.000000 0.040058 0.000000
# 6 0.000000 0.000000 0.000000 -0.001862 0.000000 0.017490
#
#
# Mechanical properties :
#
#
# Convention : Reuss Voigt Hill
#
# Bulk Modulus (GPa) = 25.81286 38.27770 32.04528
# Shear Modulus (GPa) = 29.11827 35.55446 32.33637
#
# Velocity S-wave (km/s) = 3.43584 3.79662 3.62072
# Velocity P-wave (km/s) = 5.11907 5.89385 5.52007
#
# Compressibility (1/GPa) = 0.03874037
#
# Stress axis : x y z
#
# Youngs Moduli (GPa) = 49.15123 115.00350 49.66161
#
# Poissons Ratio (x) = 0.57064 -0.03751
# Poissons Ratio (y) = 0.24389 0.05024
# Poissons Ratio (z) = -0.03712 0.11634
#
# Static dielectric constant tensor:
#      x y z
#    x 6.811910 0.000000 2.725960 
#    y 0.000000 5.012330 0.000000 
#    z 2.725960 0.000000 6.116870 
# 
# 
# High freq. dielectric constant tensor:
#      x y z
#    x 1.970100 0.000000 0.032340 
#    y 0.000000 2.016460 0.000000 
#    z 0.032340 0.000000 1.950870 
# 
# From -- ./inp_files/16407.got.cif
#   From: 2010.03.12/outbox.cif.g09.slc.cpg/sg14_9_cif.got.tgz:16407.got - 2010.03.31 13:35:05.
