data_PCOD8127311
_publ_section_title
;
Structure prediction by ZEFSAII (Michael W. Deem and Ramdas Pophale) SiO2 
 PCOD8127311
Probable space group: P 21/C
;
_chemical_formula_sum "Si O2"
_cell_formula_units_Z 32
_cell_length_a 14.451524
_cell_length_b 9.267790
_cell_length_c 21.643965
_cell_angle_alpha 90.000000
_cell_angle_beta 148.993748
_cell_angle_gamma 90.000000
_cell_volume 1493.292388
_symmetry_space_group_name_H-M "P 21/C"
_symmetry_group_IT_number 14
_symmetry_cell_setting 'monoclinic'
loop_
_space_group_symop_operation_xyz
x,y,z
-x,1/2+y,1/2-z
-x,-y,-z
x,1/2-y,1/2+z
loop_
_atom_site_type_symbol
_atom_site_label
_atom_site_fract_x
_atom_site_fract_y
_atom_site_fract_z
Si Si1 0.560063 0.198445 0.904565
Si Si2 0.704880 0.632001 0.163824
Si Si3 0.452643 0.664048 0.911384
Si Si4 0.987979 0.547407 0.162024
Si Si5 0.642919 0.628949 0.896218
Si Si6 0.687543 0.068140 0.230048
Si Si7 0.425023 0.647285 0.211192
Si Si8 0.934132 0.237332 0.178311
O O1 0.402552 0.305724 0.838406
O O2 0.634328 0.255776 0.881117
O O3 0.478490 0.039014 0.853677
O O4 0.733255 0.185863 0.047476
O O5 0.687921 0.458441 0.147500
O O6 0.915406 0.674414 0.282930
O O7 0.610015 0.699603 0.049607
O O8 0.538368 0.603388 0.898916
O O9 0.353435 0.813485 0.845213
O O10 0.145153 0.490123 0.206358
O O11 0.027396 0.682095 0.230051
O O12 0.931097 0.412023 0.172077
O O13 0.848721 0.600040 0.029941
O O14 0.554172 0.517417 0.797379
O O15 0.609559 0.787067 0.846726
O O16 0.722800 0.145646 0.317066
#
# Coordination Sequence:
#
# PCOD8127311 Si02
#       8
#     4   4   4   4   4   4   4   4
#     4  12  24  45  68 101 140 180 232 288 348 417
#     4  11  22  42  68  97 140 183 220 282 355 417
#     4  10  22  41  66  97 133 183 222 282 347 413
#     4  12  26  46  67 109 138 185 228 291 348 424
#     4  11  22  44  69  91 137 180 234 283 345 401
#     4  11  26  43  70  98 138 184 236 280 348 416
#     4  11  23  44  67  96 128 189 228 287 334 406
#     4  12  27  41  71 107 144 176 230 289 353 418
#
# _framework density 21.429158999999999
#
# number of rings (size 3 to 8) (size 9 to 14) (size 15 to 20)
#    0.000    0.750    6.250    0.750    5.250    1.500 
#    2.250    0.000    0.000    3.750    0.000    0.000 
#    0.000    0.000    0.000    0.000    0.000    0.000 
#
# Total GULP energy -396547.093533 kJ/mol
# GULP energy per Si atom -12392.096673 kJ/mol
# Density = 2.138039 g / cm^3
# Si number density = 21.429159 Si / 1000 Ang^3
#
#
#
# Elastic Constant Matrix: (Units=GPa)
#
#
# Indices 1 2 3 4 5 6 
#
# 1 110.3488 38.5286 44.4229 0.0000 -2.1396 0.0000
# 2 38.5286 90.5329 36.4813 0.0000 -8.5274 0.0000
# 3 44.4229 36.4813 82.9074 0.0000 2.6023 0.0000
# 4 0.0000 0.0000 0.0000 29.6237 0.0000 -8.2542
# 5 -2.1396 -8.5274 2.6023 0.0000 38.6137 0.0000
# 6 0.0000 0.0000 0.0000 -8.2542 0.0000 35.9225
#
#
#
# Elastic Compliance Matrix: (Units=1/GPa)
#
#
# Indices 1 2 3 4 5 6 
#
# 1 0.012243 -0.003075 -0.005218 0.000000 0.000351 0.000000
# 2 -0.003075 0.014651 -0.004906 0.000000 0.003396 0.000000
# 3 -0.005218 -0.004906 0.017096 0.000000 -0.002525 0.000000
# 4 0.000000 0.000000 0.000000 0.036066 0.000000 0.008287
# 5 0.000351 0.003396 -0.002525 0.000000 0.026837 0.000000
# 6 0.000000 0.000000 0.000000 0.008287 0.000000 0.029742
#
#
# Mechanical properties :
#
#
# Convention : Reuss Voigt Hill
#
# Bulk Modulus (GPa) = 56.84316 58.07273 57.45794
# Shear Modulus (GPa) = 29.60400 31.78906 30.69653
#
# Velocity S-wave (km/s) = 3.72086 3.85574 3.78890
# Velocity P-wave (km/s) = 6.71144 6.85427 6.78323
#
# Compressibility (1/GPa) = 0.01759227
#
# Stress axis : x y z
#
# Youngs Moduli (GPa) = 81.67826 68.25504 58.49457
#
# Poissons Ratio (x) = 0.20986 0.30524
# Poissons Ratio (y) = 0.25113 0.28697
# Poissons Ratio (z) = 0.42621 0.33486
#
# Static dielectric constant tensor:
#      x y z
#    x 4.137220 0.000000 -0.129140 
#    y 0.000000 3.874460 0.000000 
#    z -0.129140 0.000000 3.797630 
# 
# 
# High freq. dielectric constant tensor:
#      x y z
#    x 1.857060 0.000000 -0.008670 
#    y 0.000000 1.847930 0.000000 
#    z -0.008670 0.000000 1.814630 
# 
# From -- ./inp_files/73764.got.cif
#   From: 2010.03.12/outbox.cif.g09.slc.cpg/sg14_37_cif.got.tgz:73764.got - 2010.03.31 13:35:05.
