data_PCOD8127544
_publ_section_title
;
Structure prediction by ZEFSAII (Michael W. Deem and Ramdas Pophale) SiO2 
 PCOD8127544
Probable space group: P 21/C
;
_chemical_formula_sum "Si O2"
_cell_formula_units_Z 32
_cell_length_a 15.213419
_cell_length_b 8.773900
_cell_length_c 11.531302
_cell_angle_alpha 90.000000
_cell_angle_beta 65.571750
_cell_angle_gamma 90.000000
_cell_volume 1401.419641
_symmetry_space_group_name_H-M "P 21/C"
_symmetry_group_IT_number 14
_symmetry_cell_setting 'monoclinic'
loop_
_space_group_symop_operation_xyz
x,y,z
-x,1/2+y,1/2-z
-x,-y,-z
x,1/2-y,1/2+z
loop_
_atom_site_type_symbol
_atom_site_label
_atom_site_fract_x
_atom_site_fract_y
_atom_site_fract_z
Si Si1 0.566600 0.522994 0.696912
Si Si2 0.690625 0.342316 0.455213
Si Si3 0.386807 0.977696 0.580605
Si Si4 0.851479 0.236012 0.537957
Si Si5 0.379833 0.146349 0.367683
Si Si6 0.773559 0.545101 0.212392
Si Si7 0.049839 0.557090 0.356711
Si Si8 0.046117 0.228628 0.292232
O O1 0.606828 0.402583 0.583821
O O2 0.634327 0.520992 0.774728
O O3 0.567869 0.692219 0.642995
O O4 0.456045 0.480808 0.783392
O O5 0.649158 0.193608 0.416644
O O6 0.788322 0.312598 0.472682
O O7 0.714066 0.470820 0.348872
O O8 0.500000 0.000000 0.500000
O O9 0.335661 0.091160 0.515912
O O10 0.804857 0.079266 0.601555
O O11 0.857951 0.344785 0.649603
O O12 0.957225 0.205286 0.428154
O O13 0.295218 0.161378 0.319450
O O14 0.864580 0.634296 0.210032
O O15 0.076605 0.407701 0.266125
O O16 0.000000 0.500000 0.500000
O O17 0.980544 0.668471 0.321103
#
# Coordination Sequence:
#
# PCOD8127544 Si02
#       8
#     4   4   4   4   4   4   4   4
#     4  11  26  46  73 101 147 183 243 295 361 425
#     4  12  25  45  75 105 144 190 240 295 366 432
#     4  10  23  45  73 104 141 188 239 290 353 428
#     4  11  23  45  71 100 137 192 235 295 357 424
#     4  11  26  47  72 105 141 193 236 298 358 431
#     4  12  26  44  67 107 144 181 246 291 363 427
#     4  10  22  43  72  98 139 181 237 290 357 422
#     4  11  24  45  69 102 139 193 234 296 356 426
#
# _framework density 22.833988000000002
#
# number of rings (size 3 to 8) (size 9 to 14) (size 15 to 20)
#    0.000    1.000    1.250    5.625    7.000    1.500 
#    2.250    0.000    0.000    0.000    0.000    0.000 
#    0.000    0.000    0.000    0.000    0.000    0.000 
#
# Total GULP energy -396854.199242 kJ/mol
# GULP energy per Si atom -12401.693726 kJ/mol
# Density = 2.278202 g / cm^3
# Si number density = 22.833988 Si / 1000 Ang^3
#
#
#
# Elastic Constant Matrix: (Units=GPa)
#
#
# Indices 1 2 3 4 5 6 
#
# 1 83.6428 -2.5674 18.1626 0.0000 20.6536 0.0000
# 2 -2.5674 88.7707 15.6259 0.0000 9.5344 0.0000
# 3 18.1626 15.6259 77.1882 0.0000 14.7242 0.0000
# 4 0.0000 0.0000 0.0000 36.1645 0.0000 7.4623
# 5 20.6536 9.5344 14.7242 0.0000 37.3163 0.0000
# 6 0.0000 0.0000 0.0000 7.4623 0.0000 35.0894
#
#
#
# Elastic Compliance Matrix: (Units=1/GPa)
#
#
# Indices 1 2 3 4 5 6 
#
# 1 0.014340 0.001616 -0.002280 0.000000 -0.007450 0.000000
# 2 0.001616 0.012036 -0.002227 0.000000 -0.003091 0.000000
# 3 -0.002280 -0.002227 0.014700 0.000000 -0.003969 0.000000
# 4 0.000000 0.000000 0.000000 0.028921 0.000000 -0.006150
# 5 -0.007450 -0.003091 -0.003969 0.000000 0.033277 0.000000
# 6 0.000000 0.000000 0.000000 -0.006150 0.000000 0.029807
#
#
# Mechanical properties :
#
#
# Convention : Reuss Voigt Hill
#
# Bulk Modulus (GPa) = 28.33405 34.67153 31.50279
# Shear Modulus (GPa) = 33.19462 36.27275 34.73368
#
# Velocity S-wave (km/s) = 3.81693 3.98998 3.90441
# Velocity P-wave (km/s) = 5.64455 6.03686 5.84400
#
# Compressibility (1/GPa) = 0.03529323
#
# Stress axis : x y z
#
# Youngs Moduli (GPa) = 69.73516 83.08580 68.02753
#
# Poissons Ratio (x) = -0.13429 0.15512
# Poissons Ratio (y) = -0.11271 0.15151
# Poissons Ratio (z) = 0.15902 0.18505
#
# Static dielectric constant tensor:
#      x y z
#    x 4.325040 0.000000 0.395190 
#    y 0.000000 4.157830 0.000000 
#    z 0.395190 0.000000 4.406370 
# 
# 
# High freq. dielectric constant tensor:
#      x y z
#    x 1.904730 0.000000 0.018510 
#    y 0.000000 1.910180 0.000000 
#    z 0.018510 0.000000 1.905040 
# 
# From -- ./inp_files/31806.got.cif
#   From: 2010.03.12/outbox.cif.g09.slc.cpg/sg14_16_cif.got.tgz:31806.got - 2010.03.31 13:35:05.
