data_PCOD8127560
_publ_section_title
;
Structure prediction by ZEFSAII (Michael W. Deem and Ramdas Pophale) SiO2 
 PCOD8127560
Probable space group: P 21/C
;
_chemical_formula_sum "Si O2"
_cell_formula_units_Z 28
_cell_length_a 13.414757
_cell_length_b 10.792947
_cell_length_c 13.670032
_cell_angle_alpha 90.000000
_cell_angle_beta 136.424176
_cell_angle_gamma 90.000000
_cell_volume 1364.298598
_symmetry_space_group_name_H-M "P 21/C"
_symmetry_group_IT_number 14
_symmetry_cell_setting 'monoclinic'
loop_
_space_group_symop_operation_xyz
x,y,z
-x,1/2+y,1/2-z
-x,-y,-z
x,1/2-y,1/2+z
loop_
_atom_site_type_symbol
_atom_site_label
_atom_site_fract_x
_atom_site_fract_y
_atom_site_fract_z
Si Si1 0.655916 0.337346 0.864668
Si Si2 0.051170 0.577271 0.131163
Si Si3 0.187909 0.428083 0.701176
Si Si4 0.773091 0.571382 0.049913
Si Si5 0.108052 0.680558 0.565241
Si Si6 0.642000 0.765535 0.295354
Si Si7 0.638064 0.001360 0.166801
O O1 0.792705 0.248697 0.944279
O O2 0.528304 0.254196 0.815921
O O3 0.605281 0.399288 0.727579
O O4 0.692595 0.443664 0.968205
O O5 0.048382 0.722212 0.102151
O O6 0.212184 0.538552 0.280901
O O7 0.942277 0.554559 0.143095
O O8 0.000000 0.500000 0.000000
O O9 0.251496 0.401874 0.853687
O O10 0.197261 0.574376 0.685369
O O11 0.281035 0.360297 0.683964
O O12 0.023581 0.381316 0.586006
O O13 0.707288 0.687522 0.944300
O O14 0.668675 0.866475 0.231171
O O15 0.500000 0.000000 0.000000
#
# Coordination Sequence:
#
# PCOD8127560 Si02
#       7
#     4   4   4   4   4   4   4
#     4  10  24  42  66  89 137 175 218 271 339 399
#     4  11  18  46  71  88 132 176 223 275 325 407
#     4  11  25  41  66 101 131 172 221 284 338 397
#     4  11  24  43  70  97 125 189 222 268 348 401
#     4  10  22  44  64  94 133 168 220 283 330 396
#     4  11  24  44  63  95 141 169 219 283 331 402
#     4  10  23  40  67  98 123 175 227 272 329 397
#
# _framework density 20.523367
#
# number of rings (size 3 to 8) (size 9 to 14) (size 15 to 20)
#    0.000    1.429    5.714    0.000    6.000    5.143 
#    2.571    0.000    0.000    0.000    0.000    0.000 
#    0.000    0.000    0.000    0.000    0.000    0.000 
#
# Total GULP energy -347298.079952 kJ/mol
# GULP energy per Si atom -12403.502855 kJ/mol
# Density = 2.047665 g / cm^3
# Si number density = 20.523367 Si / 1000 Ang^3
#
#
#
# Elastic Constant Matrix: (Units=GPa)
#
#
# Indices 1 2 3 4 5 6 
#
# 1 67.4987 17.0942 20.0154 0.0000 8.5751 0.0000
# 2 17.0942 109.1727 23.6687 0.0000 -3.6137 0.0000
# 3 20.0154 23.6687 105.8939 0.0000 0.3791 0.0000
# 4 0.0000 0.0000 0.0000 24.2761 0.0000 11.3082
# 5 8.5751 -3.6137 0.3791 0.0000 33.7372 0.0000
# 6 0.0000 0.0000 0.0000 11.3082 0.0000 25.9033
#
#
#
# Elastic Compliance Matrix: (Units=1/GPa)
#
#
# Indices 1 2 3 4 5 6 
#
# 1 0.016723 -0.002190 -0.002655 0.000000 -0.004455 0.000000
# 2 -0.002190 0.009951 -0.001816 0.000000 0.001643 0.000000
# 3 -0.002655 -0.001816 0.010350 0.000000 0.000364 0.000000
# 4 0.000000 0.000000 0.000000 0.051708 0.000000 -0.022573
# 5 -0.004455 0.001643 0.000364 0.000000 0.030945 0.000000
# 6 0.000000 0.000000 0.000000 -0.022573 0.000000 0.048460
#
#
# Mechanical properties :
#
#
# Convention : Reuss Voigt Hill
#
# Bulk Modulus (GPa) = 42.19314 44.90242 43.54778
# Shear Modulus (GPa) = 26.40467 31.56911 28.98689
#
# Velocity S-wave (km/s) = 3.59076 3.92625 3.76225
# Velocity P-wave (km/s) = 6.14774 6.51767 6.33541
#
# Compressibility (1/GPa) = 0.02370053
#
# Stress axis : x y z
#
# Youngs Moduli (GPa) = 59.79708 100.49389 96.61902
#
# Poissons Ratio (x) = 0.22011 0.25656
# Poissons Ratio (y) = 0.13097 0.17546
# Poissons Ratio (z) = 0.15879 0.18250
#
# Static dielectric constant tensor:
#      x y z
#    x 3.709170 0.000000 0.360630 
#    y 0.000000 3.899840 0.000000 
#    z 0.360630 0.000000 3.865860 
# 
# 
# High freq. dielectric constant tensor:
#      x y z
#    x 1.795630 0.000000 0.018520 
#    y 0.000000 1.816430 0.000000 
#    z 0.018520 0.000000 1.792230 
# 
# From -- ./inp_files/46958.got.cif
#   From: 2010.03.12/outbox.cif.g09.slc.cpg/sg14_24_cif.got.tgz:46958.got - 2010.03.31 13:35:05.
