data_PCOD8127145
_publ_section_title
;
Structure prediction by ZEFSAII (Michael W. Deem and Ramdas Pophale) SiO2 
 PCOD8127145
Probable space group: P 21/C
;
_chemical_formula_sum "Si O2"
_cell_formula_units_Z 28
_cell_length_a 14.318421
_cell_length_b 14.770268
_cell_length_c 9.049332
_cell_angle_alpha 90.000000
_cell_angle_beta 42.113284
_cell_angle_gamma 90.000000
_cell_volume 1283.401922
_symmetry_space_group_name_H-M "P 21/C"
_symmetry_group_IT_number 14
_symmetry_cell_setting 'monoclinic'
loop_
_space_group_symop_operation_xyz
x,y,z
-x,1/2+y,1/2-z
-x,-y,-z
x,1/2-y,1/2+z
loop_
_atom_site_type_symbol
_atom_site_label
_atom_site_fract_x
_atom_site_fract_y
_atom_site_fract_z
Si Si1 0.642797 0.011927 0.923153
Si Si2 0.746914 0.213946 0.113836
Si Si3 0.532016 0.529598 0.124261
Si Si4 0.183141 0.343732 0.815564
Si Si5 0.132338 0.647722 0.817078
Si Si6 0.575122 0.329448 0.092087
Si Si7 0.311447 0.202767 0.466605
O O1 0.764573 0.077159 0.718537
O O2 0.707112 0.914422 0.879192
O O3 0.603217 0.061824 0.124698
O O4 0.500000 0.000000 0.000000
O O5 0.848665 0.258412 0.116624
O O6 0.625721 0.167365 0.358439
O O7 0.836069 0.150815 0.897480
O O8 0.681578 0.286596 0.080506
O O9 0.642662 0.609897 0.005674
O O10 0.500000 0.500000 0.000000
O O11 0.569234 0.432796 0.158443
O O12 0.208452 0.250590 0.701106
O O13 0.213295 0.328817 0.950732
O O14 0.027579 0.381428 0.976184
O O15 0.433982 0.269045 0.264077
#
# Coordination Sequence:
#
# PCOD8127145 Si02
#       7
#     4   4   4   4   4   4   4
#     4  12  24  44  68 101 129 177 232 283 332 401
#     4  10  22  39  69  92 130 173 224 275 338 398
#     4  12  23  39  65 101 136 168 222 291 336 386
#     4  12  26  44  66  96 140 178 219 280 343 419
#     4  11  24  44  66  97 137 179 222 270 349 410
#     4  11  21  40  65 101 128 168 226 289 328 391
#     4  12  25  41  68 101 137 178 229 280 350 401
#
# _framework density 21.817018999999998
#
# number of rings (size 3 to 8) (size 9 to 14) (size 15 to 20)
#    0.000    0.571    2.857    7.286    0.000    0.000 
#    0.000    0.000    0.000    3.429    0.000    0.000 
#    0.000    0.000    0.000    0.000    0.000    0.000 
#
# Total GULP energy -346892.640060 kJ/mol
# GULP energy per Si atom -12389.022859 kJ/mol
# Density = 2.176736 g / cm^3
# Si number density = 21.817019 Si / 1000 Ang^3
#
#
#
# Elastic Constant Matrix: (Units=GPa)
#
#
# Indices 1 2 3 4 5 6 
#
# 1 110.2980 21.7574 68.0987 0.0000 -13.3035 0.0000
# 2 21.7574 98.3398 32.9632 0.0000 -17.7170 0.0000
# 3 68.0987 32.9632 109.1541 0.0000 -7.1711 0.0000
# 4 0.0000 0.0000 0.0000 30.7764 0.0000 22.0165
# 5 -13.3035 -17.7170 -7.1711 0.0000 45.4048 0.0000
# 6 0.0000 0.0000 0.0000 22.0165 0.0000 -59.2549
#
#
#
# Elastic Compliance Matrix: (Units=1/GPa)
#
#
# Indices 1 2 3 4 5 6 
#
# 1 0.015143 0.000340 -0.009347 0.000000 0.003093 0.000000
# 2 0.000340 0.012055 -0.003574 0.000000 0.004239 0.000000
# 3 -0.009347 -0.003574 0.015966 0.000000 -0.001612 0.000000
# 4 0.000000 0.000000 0.000000 0.025670 0.000000 0.009538
# 5 0.003093 0.004239 -0.001612 0.000000 0.024330 0.000000
# 6 0.000000 0.000000 0.000000 0.009538 0.000000 -0.013332
#
#
# Mechanical properties :
#
#
# Convention : Reuss Voigt Hill
#
# Bulk Modulus (GPa) = 55.54786 62.60338 59.07562
# Shear Modulus (GPa) = 45.04704 16.38344 30.71524
#
# Velocity S-wave (km/s) = 4.54890 2.74332 3.75621
# Velocity P-wave (km/s) = 7.28739 6.22828 6.77855
#
# Compressibility (1/GPa) = 0.01800250
#
# Stress axis : x y z
#
# Youngs Moduli (GPa) = 66.03595 82.95046 62.63237
#
# Poissons Ratio (x) = -0.02820 0.58542
# Poissons Ratio (y) = -0.02245 0.22386
# Poissons Ratio (z) = 0.61724 0.29648
#
# Static dielectric constant tensor:
#      x y z
#    x 3.864850 0.000000 0.258770 
#    y 0.000000 4.024850 0.000000 
#    z 0.258770 0.000000 4.217430 
# 
# 
# High freq. dielectric constant tensor:
#      x y z
#    x 1.855610 0.000000 0.015470 
#    y 0.000000 1.866310 0.000000 
#    z 0.015470 0.000000 1.859000 
# 
# From -- ./inp_files/16398.got.cif
#   From: 2010.03.12/outbox.cif.g09.slc.cpg/sg14_9_cif.got.tgz:16398.got - 2010.03.31 13:35:05.
