data_PCOD8127201
_publ_section_title
;
Structure prediction by ZEFSAII (Michael W. Deem and Ramdas Pophale) SiO2 
 PCOD8127201
Probable space group: P 21/C
;
_chemical_formula_sum "Si O2"
_cell_formula_units_Z 32
_cell_length_a 22.853314
_cell_length_b 11.640604
_cell_length_c 18.015305
_cell_angle_alpha 90.000000
_cell_angle_beta 19.556932
_cell_angle_gamma 90.000000
_cell_volume 1604.273022
_symmetry_space_group_name_H-M "P 21/C"
_symmetry_group_IT_number 14
_symmetry_cell_setting 'monoclinic'
loop_
_space_group_symop_operation_xyz
x,y,z
-x,1/2+y,1/2-z
-x,-y,-z
x,1/2-y,1/2+z
loop_
_atom_site_type_symbol
_atom_site_label
_atom_site_fract_x
_atom_site_fract_y
_atom_site_fract_z
Si Si1 0.707728 0.814093 0.567888
Si Si2 0.047815 0.743940 0.751232
Si Si3 0.294608 0.587778 0.378958
Si Si4 0.336284 0.923094 0.397301
Si Si5 0.482894 0.882228 0.377875
Si Si6 0.917991 0.822002 0.060269
Si Si7 0.195428 0.578183 0.334578
Si Si8 0.615098 0.747913 0.018164
O O1 0.534947 0.751307 0.807041
O O2 0.722349 0.784157 0.463862
O O3 0.875981 0.765434 0.407810
O O4 0.685382 0.949433 0.608272
O O5 0.168936 0.631137 0.595132
O O6 0.159905 0.853580 0.588847
O O7 0.003534 0.751457 0.890927
O O8 0.334016 0.452740 0.341539
O O9 0.200425 0.616543 0.413957
O O10 0.483427 0.645830 0.157317
O O11 0.356040 0.922570 0.462897
O O12 0.508567 0.867034 0.153706
O O13 0.385891 0.903030 0.571254
O O14 0.756547 0.745479 0.283120
O O15 0.855184 0.945214 0.106835
O O16 0.058246 0.839560 0.957737
#
# Coordination Sequence:
#
# PCOD8127201 Si02
#       8
#     4   4   4   4   4   4   4   4
#     4  11  23  39  66  89 127 172 211 258 318 382
#     4  11  25  38  63  90 129 166 211 259 314 377
#     4  11  22  38  61  94 128 162 207 259 322 381
#     4  10  22  43  59  92 131 168 212 255 317 384
#     4  11  21  38  65  97 125 164 208 266 318 372
#     4  11  22  39  61  96 128 165 210 272 311 367
#     4  11  22  35  66  94 132 154 215 271 318 361
#     4  10  22  40  64  91 126 167 206 263 319 372
#
# _framework density 19.946729999999999
#
# number of rings (size 3 to 8) (size 9 to 14) (size 15 to 20)
#    0.000    1.250    3.750    1.875    7.000    0.000 
#    0.000    0.625    0.000    3.750    0.000    0.000 
#    0.000    0.000    0.000    0.000    0.000    0.000 
#
# Total GULP energy -396890.293586 kJ/mol
# GULP energy per Si atom -12402.821675 kJ/mol
# Density = 1.990133 g / cm^3
# Si number density = 19.946730 Si / 1000 Ang^3
#
#
#
# Elastic Constant Matrix: (Units=GPa)
#
#
# Indices 1 2 3 4 5 6 
#
# 1 114.8153 34.4317 39.7737 0.0000 -9.7210 0.0000
# 2 34.4317 92.4460 41.4686 0.0000 2.2157 0.0000
# 3 39.7737 41.4686 117.6662 0.0000 14.5305 0.0000
# 4 0.0000 0.0000 0.0000 28.4105 0.0000 -2.0555
# 5 -9.7210 2.2157 14.5305 0.0000 35.2089 0.0000
# 6 0.0000 0.0000 0.0000 -2.0555 0.0000 24.3888
#
#
#
# Elastic Compliance Matrix: (Units=1/GPa)
#
#
# Indices 1 2 3 4 5 6 
#
# 1 0.011082 -0.002734 -0.003352 0.000000 0.004615 0.000000
# 2 -0.002734 0.013565 -0.003854 0.000000 -0.000018 0.000000
# 3 -0.003352 -0.003854 0.011669 0.000000 -0.005499 0.000000
# 4 0.000000 0.000000 0.000000 0.035414 0.000000 0.002985
# 5 0.004615 -0.000018 -0.005499 0.000000 0.031946 0.000000
# 6 0.000000 0.000000 0.000000 0.002985 0.000000 0.041254
#
#
# Mechanical properties :
#
#
# Convention : Reuss Voigt Hill
#
# Bulk Modulus (GPa) = 60.84802 61.80838 61.32820
# Shear Modulus (GPa) = 29.36184 31.55188 30.45686
#
# Velocity S-wave (km/s) = 3.84084 3.98151 3.91181
# Velocity P-wave (km/s) = 7.08808 7.22430 7.15652
#
# Compressibility (1/GPa) = 0.01643439
#
# Stress axis : x y z
#
# Youngs Moduli (GPa) = 90.23988 73.72019 85.69717
#
# Poissons Ratio (x) = 0.20158 0.28726
# Poissons Ratio (y) = 0.24675 0.33029
# Poissons Ratio (z) = 0.30249 0.28412
#
# Static dielectric constant tensor:
#      x y z
#    x 3.660600 0.000000 -0.095440 
#    y 0.000000 3.576720 0.000000 
#    z -0.095440 0.000000 3.682070 
# 
# 
# High freq. dielectric constant tensor:
#      x y z
#    x 1.780460 0.000000 -0.014270 
#    y 0.000000 1.761720 0.000000 
#    z -0.014270 0.000000 1.782950 
# 
# From -- ./inp_files/61994.got.cif
#   From: 2010.03.12/outbox.cif.g09.slc.cpg/sg14_31_cif.got.tgz:61994.got - 2010.03.31 13:35:05.
