data_PCOD8127029
_publ_section_title
;
Structure prediction by ZEFSAII (Michael W. Deem and Ramdas Pophale) SiO2 
 PCOD8127029
Probable space group: P 21/C
;
_chemical_formula_sum "Si O2"
_cell_formula_units_Z 24
_cell_length_a 8.947376
_cell_length_b 9.517467
_cell_length_c 28.433045
_cell_angle_alpha 90.000000
_cell_angle_beta 149.934404
_cell_angle_gamma 90.000000
_cell_volume 1213.027088
_symmetry_space_group_name_H-M "P 21/C"
_symmetry_group_IT_number 14
_symmetry_cell_setting 'monoclinic'
loop_
_space_group_symop_operation_xyz
x,y,z
-x,1/2+y,1/2-z
-x,-y,-z
x,1/2-y,1/2+z
loop_
_atom_site_type_symbol
_atom_site_label
_atom_site_fract_x
_atom_site_fract_y
_atom_site_fract_z
Si Si1 0.153061 0.294738 0.666613
Si Si2 0.751800 0.014453 0.199926
Si Si3 0.326074 0.510315 0.215100
Si Si4 0.544242 0.387296 0.470925
Si Si5 0.202013 0.712700 0.838807
Si Si6 0.685617 0.863307 0.537801
O O1 0.404881 0.414118 0.738440
O O2 0.891015 0.344635 0.560442
O O3 0.013825 0.275807 0.680087
O O4 0.288997 0.147414 0.684787
O O5 0.544056 0.947608 0.103548
O O6 0.073646 0.937360 0.287441
O O7 0.597816 0.000569 0.208769
O O8 0.800597 0.179477 0.204904
O O9 0.029218 0.600252 0.124156
O O10 0.500000 0.500000 0.500000
O O11 0.344827 0.250778 0.428828
O O12 0.539527 0.697201 0.950068
O O13 0.500000 0.000000 0.500000
#
# Coordination Sequence:
#
# PCOD8127029 Si02
#       6
#     4   4   4   4   4   4
#     4  10  23  40  57  91 120 165 193 245 310 363
#     4  11  21  37  62  96 115 159 205 261 283 362
#     4  11  24  39  64  88 126 159 203 249 306 359
#     4  11  21  38  65  89 121 159 206 248 300 365
#     4  10  22  38  63  91 121 155 211 241 305 358
#     4  11  19  41  61  89 119 168 197 245 303 367
#
# _framework density 19.785214
#
# number of rings (size 3 to 8) (size 9 to 14) (size 15 to 20)
#    0.000    1.333    8.333    1.000    2.333    2.000 
#    0.000    1.667    0.000    6.000    0.000    0.000 
#    0.000    0.000    0.000    0.000    0.000    0.000 
#
# Total GULP energy -297593.977379 kJ/mol
# GULP energy per Si atom -12399.749057 kJ/mol
# Density = 1.974018 g / cm^3
# Si number density = 19.785214 Si / 1000 Ang^3
#
#
#
# Elastic Constant Matrix: (Units=GPa)
#
#
# Indices 1 2 3 4 5 6 
#
# 1 36.4075 20.3191 39.1657 0.0000 -7.4457 0.0000
# 2 20.3191 103.1122 30.4067 0.0000 -0.5168 0.0000
# 3 39.1657 30.4067 122.1856 0.0000 -1.3568 0.0000
# 4 0.0000 0.0000 0.0000 44.6700 0.0000 1.5257
# 5 -7.4457 -0.5168 -1.3568 0.0000 31.8786 0.0000
# 6 0.0000 0.0000 0.0000 1.5257 0.0000 33.2610
#
#
#
# Elastic Compliance Matrix: (Units=1/GPa)
#
#
# Indices 1 2 3 4 5 6 
#
# 1 0.047283 -0.005213 -0.013744 0.000000 0.010374 0.000000
# 2 -0.005213 0.011041 -0.001089 0.000000 -0.001085 0.000000
# 3 -0.013744 -0.001089 0.012831 0.000000 -0.002682 0.000000
# 4 0.000000 0.000000 0.000000 0.022421 0.000000 -0.001028
# 5 0.010374 -0.001085 -0.002682 0.000000 0.033660 0.000000
# 6 0.000000 0.000000 0.000000 -0.001028 0.000000 0.030112
#
#
# Mechanical properties :
#
#
# Convention : Reuss Voigt Hill
#
# Bulk Modulus (GPa) = 32.19132 49.05426 40.62279
# Shear Modulus (GPa) = 24.06235 33.41618 28.73927
#
# Velocity S-wave (km/s) = 3.49116 4.11414 3.81539
# Velocity P-wave (km/s) = 5.70584 6.88588 6.32345
#
# Compressibility (1/GPa) = 0.03106427
#
# Stress axis : x y z
#
# Youngs Moduli (GPa) = 21.14947 90.57161 77.93686
#
# Poissons Ratio (x) = 0.47211 1.07114
# Poissons Ratio (y) = 0.11024 0.08486
# Poissons Ratio (z) = 0.29067 0.09862
#
# Static dielectric constant tensor:
#      x y z
#    x 3.241770 0.000000 -0.062100 
#    y 0.000000 3.178780 0.000000 
#    z -0.062100 0.000000 4.215040 
# 
# 
# High freq. dielectric constant tensor:
#      x y z
#    x 1.727340 0.000000 -0.007210 
#    y 0.000000 1.796520 0.000000 
#    z -0.007210 0.000000 1.780110 
# 
# From -- ./inp_files/66918.got.cif
#   From: 2010.03.12/outbox.cif.g09.slc.cpg/sg14_34_cif.got.tgz:66918.got - 2010.03.31 13:35:05.
