data_PCOD8127397
_publ_section_title
;
Structure prediction by ZEFSAII (Michael W. Deem and Ramdas Pophale) SiO2 
 PCOD8127397
Probable space group: P 21/C
;
_chemical_formula_sum "Si O2"
_cell_formula_units_Z 32
_cell_length_a 13.152764
_cell_length_b 9.133245
_cell_length_c 14.076555
_cell_angle_alpha 90.000000
_cell_angle_beta 118.697999
_cell_angle_gamma 90.000000
_cell_volume 1483.265136
_symmetry_space_group_name_H-M "P 21/C"
_symmetry_group_IT_number 14
_symmetry_cell_setting 'monoclinic'
loop_
_space_group_symop_operation_xyz
x,y,z
-x,1/2+y,1/2-z
-x,-y,-z
x,1/2-y,1/2+z
loop_
_atom_site_type_symbol
_atom_site_label
_atom_site_fract_x
_atom_site_fract_y
_atom_site_fract_z
Si Si1 0.446520 0.160521 0.468826
Si Si2 0.986267 0.230176 0.350009
Si Si3 0.256037 0.245120 0.238429
Si Si4 0.977230 0.610421 0.821574
Si Si5 0.153376 0.757424 0.034193
Si Si6 0.123971 0.067311 0.031418
Si Si7 0.402707 0.689425 0.124937
Si Si8 0.445341 0.138317 0.679200
O O1 0.324655 0.174334 0.357934
O O2 0.543576 0.249199 0.450982
O O3 0.426961 0.216913 0.567863
O O4 0.500000 0.000000 0.500000
O O5 0.872625 0.252105 0.364563
O O6 0.963677 0.320001 0.244248
O O7 0.104223 0.296543 0.451009
O O8 0.006117 0.060751 0.335195
O O9 0.160787 0.360536 0.234761
O O10 0.339113 0.326183 0.201112
O O11 0.191477 0.113541 0.156018
O O12 0.037680 0.688137 0.938050
O O13 0.185597 0.923365 0.013578
O O14 0.265398 0.662516 0.057323
O O15 0.000000 0.000000 0.000000
O O16 0.434764 0.802142 0.222887
O O17 0.462467 0.534770 0.176166
#
# Coordination Sequence:
#
# PCOD8127397 Si02
#       8
#     4   4   4   4   4   4   4   4
#     4   9  22  42  66  97 124 169 221 266 328 388
#     4  11  25  42  64  97 141 177 218 268 330 400
#     4  11  23  40  68  94 132 170 221 271 330 397
#     4  12  25  41  66 101 136 175 224 269 334 408
#     4  11  24  42  66  97 135 174 218 275 335 392
#     4  10  22  42  65  95 133 173 218 267 337 393
#     4  10  23  42  67  94 127 167 222 269 332 390
#     4  10  23  44  65  94 125 172 218 274 329 389
#
# _framework density 21.574027000000001
#
# number of rings (size 3 to 8) (size 9 to 14) (size 15 to 20)
#    0.000    1.500    2.500    1.875   10.500    2.000 
#    0.000    3.750    0.000    0.000    0.000    0.000 
#    0.000    0.000    0.000    0.000    0.000    0.000 
#
# Total GULP energy -396618.476411 kJ/mol
# GULP energy per Si atom -12394.327388 kJ/mol
# Density = 2.152492 g / cm^3
# Si number density = 21.574027 Si / 1000 Ang^3
#
#
#
# Elastic Constant Matrix: (Units=GPa)
#
#
# Indices 1 2 3 4 5 6 
#
# 1 109.3694 19.9745 54.6183 0.0000 -5.0718 0.0000
# 2 19.9745 124.8008 44.5099 0.0000 -7.8091 0.0000
# 3 54.6183 44.5099 108.4465 0.0000 -9.3960 0.0000
# 4 0.0000 0.0000 0.0000 37.6094 0.0000 2.7609
# 5 -5.0718 -7.8091 -9.3960 0.0000 35.3396 0.0000
# 6 0.0000 0.0000 0.0000 2.7609 0.0000 25.3718
#
#
#
# Elastic Compliance Matrix: (Units=1/GPa)
#
#
# Indices 1 2 3 4 5 6 
#
# 1 0.012225 0.000286 -0.006261 0.000000 0.000153 0.000000
# 2 0.000286 0.009434 -0.003922 0.000000 0.001083 0.000000
# 3 -0.006261 -0.003922 0.014157 0.000000 0.001999 0.000000
# 4 0.000000 0.000000 0.000000 0.026803 0.000000 -0.002917
# 5 0.000153 0.001083 0.001999 0.000000 0.029090 0.000000
# 6 0.000000 0.000000 0.000000 -0.002917 0.000000 0.039731
#
#
# Mechanical properties :
#
#
# Convention : Reuss Voigt Hill
#
# Bulk Modulus (GPa) = 62.41597 64.53578 63.47588
# Shear Modulus (GPa) = 31.93361 34.56509 33.24935
#
# Velocity S-wave (km/s) = 3.85149 4.00704 3.93004
# Velocity P-wave (km/s) = 6.98374 7.16848 7.07671
#
# Compressibility (1/GPa) = 0.01602154
#
# Stress axis : x y z
#
# Youngs Moduli (GPa) = 81.79992 106.00481 70.63435
#
# Poissons Ratio (x) = -0.03031 0.44225
# Poissons Ratio (y) = -0.02339 0.27703
# Poissons Ratio (z) = 0.51216 0.41575
#
# Static dielectric constant tensor:
#      x y z
#    x 3.978570 0.000000 -0.191660 
#    y 0.000000 4.392280 0.000000 
#    z -0.191660 0.000000 4.205020 
# 
# 
# High freq. dielectric constant tensor:
#      x y z
#    x 1.845530 0.000000 -0.006550 
#    y 0.000000 1.843100 0.000000 
#    z -0.006550 0.000000 1.848880 
# 
# From -- ./inp_files/46523.got.cif
#   From: 2010.03.12/outbox.cif.g09.slc.cpg/sg14_24_cif.got.tgz:46523.got - 2010.03.31 13:35:05.
