data_PCOD8127277
_publ_section_title
;
Structure prediction by ZEFSAII (Michael W. Deem and Ramdas Pophale) SiO2 
 PCOD8127277
Probable space group: P 21/C
;
_chemical_formula_sum "Si O2"
_cell_formula_units_Z 28
_cell_length_a 8.652236
_cell_length_b 11.398567
_cell_length_c 16.716502
_cell_angle_alpha 90.000000
_cell_angle_beta 119.753049
_cell_angle_gamma 90.000000
_cell_volume 1431.297776
_symmetry_space_group_name_H-M "P 21/C"
_symmetry_group_IT_number 14
_symmetry_cell_setting 'monoclinic'
loop_
_space_group_symop_operation_xyz
x,y,z
-x,1/2+y,1/2-z
-x,-y,-z
x,1/2-y,1/2+z
loop_
_atom_site_type_symbol
_atom_site_label
_atom_site_fract_x
_atom_site_fract_y
_atom_site_fract_z
Si Si1 0.437847 0.586120 0.416184
Si Si2 0.386566 0.407692 0.264994
Si Si3 0.061107 0.392843 0.070025
Si Si4 0.871129 0.239931 0.652552
Si Si5 0.381703 0.571631 0.823846
Si Si6 0.749794 0.813236 0.684682
Si Si7 0.682588 0.800177 0.483077
O O1 0.500000 0.500000 0.500000
O O2 0.409945 0.519455 0.326652
O O3 0.259302 0.651914 0.398974
O O4 0.593025 0.677618 0.440678
O O5 0.204720 0.435733 0.171620
O O6 0.552650 0.392471 0.247777
O O7 0.377266 0.288825 0.314437
O O8 0.149098 0.299795 0.032643
O O9 0.899736 0.331157 0.076625
O O10 0.000000 0.500000 0.000000
O O11 0.787742 0.151363 0.696509
O O12 0.052247 0.294383 0.732272
O O13 0.327560 0.436522 0.806670
O O14 0.543480 0.593974 0.928266
O O15 0.753122 0.811013 0.590367
#
# Coordination Sequence:
#
# PCOD8127277 Si02
#       7
#     4   4   4   4   4   4   4
#     4  11  23  44  62  89 135 168 211 256 314 397
#     4  10  24  40  64  93 123 175 208 255 323 378
#     4  10  22  43  64  96 128 158 218 269 316 371
#     4  10  25  40  65  97 126 166 212 264 323 371
#     4  10  23  41  64  90 127 161 216 262 314 382
#     4  11  22  40  67  92 128 161 215 267 318 371
#     4  10  22  41  63  93 122 169 212 256 322 378
#
# _framework density 19.562667000000001
#
# number of rings (size 3 to 8) (size 9 to 14) (size 15 to 20)
#    0.000    1.714    1.429    1.286   14.000    3.429 
#    2.571    0.714    0.000    0.000    0.000    0.000 
#    0.000    0.000    0.000    0.000    0.000    0.000 
#
# Total GULP energy -347241.720395 kJ/mol
# GULP energy per Si atom -12401.490014 kJ/mol
# Density = 1.951814 g / cm^3
# Si number density = 19.562667 Si / 1000 Ang^3
#
#
#
# Elastic Constant Matrix: (Units=GPa)
#
#
# Indices 1 2 3 4 5 6 
#
# 1 136.1058 66.0743 44.2772 0.0000 -24.8012 0.0000
# 2 66.0743 121.0470 39.9521 0.0000 0.1436 0.0000
# 3 44.2772 39.9521 106.1227 0.0000 -14.7061 0.0000
# 4 0.0000 0.0000 0.0000 42.6852 0.0000 -2.5656
# 5 -24.8012 0.1436 -14.7061 0.0000 26.1612 0.0000
# 6 0.0000 0.0000 0.0000 -2.5656 0.0000 29.8646
#
#
#
# Elastic Compliance Matrix: (Units=1/GPa)
#
#
# Indices 1 2 3 4 5 6 
#
# 1 0.013239 -0.006805 -0.001320 0.000000 0.011846 0.000000
# 2 -0.006805 0.013052 -0.003230 0.000000 -0.008338 0.000000
# 3 -0.001320 -0.003230 0.011950 0.000000 0.005483 0.000000
# 4 0.000000 0.000000 0.000000 0.023549 0.000000 0.002023
# 5 0.011846 -0.008338 0.005483 0.000000 0.052583 0.000000
# 6 0.000000 0.000000 0.000000 0.002023 0.000000 0.033658
#
#
# Mechanical properties :
#
#
# Convention : Reuss Voigt Hill
#
# Bulk Modulus (GPa) = 64.39032 73.76475 69.07753
# Shear Modulus (GPa) = 28.42261 33.94033 31.18147
#
# Velocity S-wave (km/s) = 3.81583 4.16980 3.99673
# Velocity P-wave (km/s) = 7.23881 7.80844 7.52901
#
# Compressibility (1/GPa) = 0.01553028
#
# Stress axis : x y z
#
# Youngs Moduli (GPa) = 75.53625 76.61889 83.68389
#
# Poissons Ratio (x) = 0.52137 0.11048
# Poissons Ratio (y) = 0.51400 0.27029
# Poissons Ratio (z) = 0.09972 0.24747
#
# Static dielectric constant tensor:
#      x y z
#    x 3.772830 0.000000 -0.072360 
#    y 0.000000 3.664980 0.000000 
#    z -0.072360 0.000000 3.623160 
# 
# 
# High freq. dielectric constant tensor:
#      x y z
#    x 1.769830 0.000000 -0.009330 
#    y 0.000000 1.768710 0.000000 
#    z -0.009330 0.000000 1.766000 
# 
# From -- ./inp_files/40119.got.cif
#   From: 2010.03.12/outbox.cif.g09.slc.cpg/sg14_21_cif.got.tgz:40119.got - 2010.03.31 13:35:05.
