data_PCOD8127211
_publ_section_title
;
Structure prediction by ZEFSAII (Michael W. Deem and Ramdas Pophale) SiO2 
 PCOD8127211
Probable space group: P 21/C
;
_chemical_formula_sum "Si O2"
_cell_formula_units_Z 32
_cell_length_a 9.468425
_cell_length_b 11.439062
_cell_length_c 16.867165
_cell_angle_alpha 90.000000
_cell_angle_beta 59.230836
_cell_angle_gamma 90.000000
_cell_volume 1569.720703
_symmetry_space_group_name_H-M "P 21/C"
_symmetry_group_IT_number 14
_symmetry_cell_setting 'monoclinic'
loop_
_space_group_symop_operation_xyz
x,y,z
-x,1/2+y,1/2-z
-x,-y,-z
x,1/2-y,1/2+z
loop_
_atom_site_type_symbol
_atom_site_label
_atom_site_fract_x
_atom_site_fract_y
_atom_site_fract_z
Si Si1 0.091295 0.429152 0.645218
Si Si2 0.180612 0.829987 0.674710
Si Si3 0.964479 0.348534 0.946864
Si Si4 0.934187 0.904281 0.078999
Si Si5 0.240672 0.522626 0.869776
Si Si6 0.518823 0.929730 0.577153
Si Si7 0.332145 0.325793 0.448850
Si Si8 0.316966 0.587120 0.673061
O O1 0.966673 0.533947 0.654510
O O2 0.183821 0.361305 0.549100
O O3 0.236072 0.471184 0.661595
O O4 0.977662 0.338841 0.724308
O O5 0.144004 0.883562 0.598277
O O6 0.338258 0.899809 0.662181
O O7 0.221112 0.693822 0.660893
O O8 0.953449 0.209913 0.956943
O O9 0.149879 0.398264 0.880942
O O10 0.891951 0.395130 0.049782
O O11 0.747718 0.857803 0.114793
O O12 0.000000 0.000000 0.000000
O O13 0.398434 0.511395 0.881018
O O14 0.301191 0.585262 0.772586
O O15 0.625186 0.809129 0.543285
O O16 0.500000 0.000000 0.500000
O O17 0.493122 0.406468 0.408574
#
# Coordination Sequence:
#
# PCOD8127211 Si02
#       8
#     4   4   4   4   4   4   4   4
#     4  11  23  41  67  92 126 175 217 265 321 382
#     4  11  24  40  64  97 128 163 218 268 317 393
#     4  11  21  42  66  94 128 169 214 267 323 382
#     4  10  22  40  65  92 129 170 213 260 317 389
#     4  11  24  39  68  93 130 170 215 270 328 381
#     4  11  23  44  64  93 132 169 212 271 333 386
#     4  10  24  43  63  91 134 166 214 271 322 388
#     4  11  24  42  63  96 129 167 215 267 323 386
#
# _framework density 20.385791000000001
#
# number of rings (size 3 to 8) (size 9 to 14) (size 15 to 20)
#    0.000    1.250    5.000    0.375    5.250    1.000 
#    0.000    2.500    0.000    0.000    0.000    0.000 
#    0.000    0.000    0.000    0.000    0.000    0.000 
#
# Total GULP energy -396559.843790 kJ/mol
# GULP energy per Si atom -12392.495118 kJ/mol
# Density = 2.033939 g / cm^3
# Si number density = 20.385791 Si / 1000 Ang^3
#
#
#
# Elastic Constant Matrix: (Units=GPa)
#
#
# Indices 1 2 3 4 5 6 
#
# 1 127.1900 24.8457 24.0772 0.0000 0.4799 0.0000
# 2 24.8457 60.2466 9.3801 0.0000 -6.9100 0.0000
# 3 24.0772 9.3801 78.0790 0.0000 -8.0538 0.0000
# 4 0.0000 0.0000 0.0000 22.0802 0.0000 2.9030
# 5 0.4799 -6.9100 -8.0538 0.0000 37.6470 0.0000
# 6 0.0000 0.0000 0.0000 2.9030 0.0000 41.4406
#
#
#
# Elastic Compliance Matrix: (Units=1/GPa)
#
#
# Indices 1 2 3 4 5 6 
#
# 1 0.009019 -0.003479 -0.002496 0.000000 -0.001287 0.000000
# 2 -0.003479 0.018535 -0.000817 0.000000 0.003272 0.000000
# 3 -0.002496 -0.000817 0.013971 0.000000 0.002871 0.000000
# 4 0.000000 0.000000 0.000000 0.045710 0.000000 -0.003202
# 5 -0.001287 0.003272 0.002871 0.000000 0.027794 0.000000
# 6 0.000000 0.000000 0.000000 -0.003202 0.000000 0.024355
#
#
# Mechanical properties :
#
#
# Convention : Reuss Voigt Hill
#
# Bulk Modulus (GPa) = 35.78654 42.45797 39.12225
# Shear Modulus (GPa) = 30.81051 34.04774 32.42912
#
# Velocity S-wave (km/s) = 3.89185 4.09121 3.99277
# Velocity P-wave (km/s) = 6.14720 6.57189 6.36309
#
# Compressibility (1/GPa) = 0.02794347
#
# Stress axis : x y z
#
# Youngs Moduli (GPa) = 110.87539 53.95092 71.57430
#
# Poissons Ratio (x) = 0.18767 0.17866
# Poissons Ratio (y) = 0.38568 0.05845
# Poissons Ratio (z) = 0.27676 0.04406
#
# Static dielectric constant tensor:
#      x y z
#    x 4.147450 0.000000 0.118210 
#    y 0.000000 3.706610 0.000000 
#    z 0.118210 0.000000 3.426070 
# 
# 
# High freq. dielectric constant tensor:
#      x y z
#    x 1.821470 0.000000 0.004920 
#    y 0.000000 1.794310 0.000000 
#    z 0.004920 0.000000 1.774170 
# 
# From -- ./inp_files/55566.got.cif
#   From: 2010.03.12/outbox.cif.g09.slc.cpg/sg14_28_cif.got.tgz:55566.got - 2010.03.31 13:35:05.
