data_PCOD8127947
_publ_section_title
;
Structure prediction by ZEFSAII (Michael W. Deem and Ramdas Pophale) SiO2 
 PCOD8127947
Probable space group: P 21/C
;
_chemical_formula_sum "Si O2"
_cell_formula_units_Z 28
_cell_length_a 7.923132
_cell_length_b 9.365356
_cell_length_c 18.729909
_cell_angle_alpha 90.000000
_cell_angle_beta 122.597084
_cell_angle_gamma 90.000000
_cell_volume 1170.890694
_symmetry_space_group_name_H-M "P 21/C"
_symmetry_group_IT_number 14
_symmetry_cell_setting 'monoclinic'
loop_
_space_group_symop_operation_xyz
x,y,z
-x,1/2+y,1/2-z
-x,-y,-z
x,1/2-y,1/2+z
loop_
_atom_site_type_symbol
_atom_site_label
_atom_site_fract_x
_atom_site_fract_y
_atom_site_fract_z
Si Si1 0.127891 0.989519 0.238008
Si Si2 0.656193 0.957796 0.931998
Si Si3 0.181625 0.521466 0.093984
Si Si4 0.308812 0.800864 0.166247
Si Si5 0.716108 0.604981 0.599731
Si Si6 0.433488 0.078205 0.413947
Si Si7 0.272837 0.235991 0.184292
O O1 0.285618 0.890197 0.232720
O O2 0.914605 0.909542 0.193731
O O3 0.222200 0.013176 0.337760
O O4 0.111159 0.138664 0.189469
O O5 0.737363 0.102668 0.913997
O O6 0.427708 0.978138 0.906014
O O7 0.663731 0.828226 0.877876
O O8 0.783567 0.920376 0.032276
O O9 0.151796 0.668879 0.131203
O O10 0.390686 0.548935 0.101908
O O11 0.184255 0.392353 0.150463
O O12 0.000000 0.500000 0.000000
O O13 0.539016 0.746600 0.218893
O O14 0.600534 0.754412 0.580012
O O15 0.500000 0.000000 0.500000
#
# Coordination Sequence:
#
# PCOD8127947 Si02
#       7
#     4   4   4   4   4   4   4
#     4  11  26  45  74 102 137 188 242 288 354 427
#     4  10  23  43  71  95 142 188 226 289 358 417
#     4  12  26  43  73 107 135 185 235 297 356 412
#     4  11  22  45  70 100 139 183 237 293 348 414
#     4  11  25  45  72 106 143 190 232 287 361 443
#     4  12  26  51  67 104 153 183 235 302 358 426
#     4  11  22  45  72  98 139 181 237 296 345 411
#
# _framework density 23.913419000000001
#
# number of rings (size 3 to 8) (size 9 to 14) (size 15 to 20)
#    0.000    0.857    4.286    1.714    6.000    2.286 
#    7.714    0.000    0.000    0.000    0.000    0.000 
#    0.000    0.000    0.000    0.000    0.000    0.000 
#
# Total GULP energy -347229.514680 kJ/mol
# GULP energy per Si atom -12401.054096 kJ/mol
# Density = 2.385899 g / cm^3
# Si number density = 23.913419 Si / 1000 Ang^3
#
#
#
# Elastic Constant Matrix: (Units=GPa)
#
#
# Indices 1 2 3 4 5 6 
#
# 1 36.3490 10.8599 10.7670 0.0000 4.0874 0.0000
# 2 10.8599 149.0468 54.1490 0.0000 -2.6468 0.0000
# 3 10.7670 54.1490 154.9531 0.0000 2.0729 0.0000
# 4 0.0000 0.0000 0.0000 42.4680 0.0000 2.2994
# 5 4.0874 -2.6468 2.0729 0.0000 40.3822 0.0000
# 6 0.0000 0.0000 0.0000 2.2994 0.0000 19.3684
#
#
#
# Elastic Compliance Matrix: (Units=1/GPa)
#
#
# Indices 1 2 3 4 5 6 
#
# 1 0.028743 -0.001644 -0.001383 0.000000 -0.002946 0.000000
# 2 -0.001644 0.007796 -0.002621 0.000000 0.000812 0.000000
# 3 -0.001383 -0.002621 0.007471 0.000000 -0.000415 0.000000
# 4 0.000000 0.000000 0.000000 0.023699 0.000000 -0.002814
# 5 -0.002946 0.000812 -0.000415 0.000000 0.025136 0.000000
# 6 0.000000 0.000000 0.000000 -0.002814 0.000000 0.051964
#
#
# Mechanical properties :
#
#
# Convention : Reuss Voigt Hill
#
# Bulk Modulus (GPa) = 30.56829 54.65563 42.61196
# Shear Modulus (GPa) = 29.93813 38.08191 34.01002
#
# Velocity S-wave (km/s) = 3.54211 3.99493 3.77532
# Velocity P-wave (km/s) = 5.43502 6.64715 6.07141
#
# Compressibility (1/GPa) = 0.03271364
#
# Stress axis : x y z
#
# Youngs Moduli (GPa) = 34.79071 128.27624 133.84892
#
# Poissons Ratio (x) = 0.21090 0.18515
# Poissons Ratio (y) = 0.05720 0.35080
# Poissons Ratio (z) = 0.04813 0.33619
#
# Static dielectric constant tensor:
#      x y z
#    x 4.068250 0.000000 -0.131040 
#    y 0.000000 31.331530 0.000000 
#    z -0.131040 0.000000 4.536010 
# 
# 
# High freq. dielectric constant tensor:
#      x y z
#    x 1.929640 0.000000 -0.008790 
#    y 0.000000 1.962710 0.000000 
#    z -0.008790 0.000000 1.954950 
# 
# From -- ./inp_files/65018.got.cif
#   From: 2010.03.12/outbox.cif.g09.slc.cpg/sg14_33_cif.got.tgz:65018.got - 2010.03.31 13:35:05.
