data_PCOD8127125
_publ_section_title
;
Structure prediction by ZEFSAII (Michael W. Deem and Ramdas Pophale) SiO2 
 PCOD8127125
Probable space group: P 21/C
;
_chemical_formula_sum "Si O2"
_cell_formula_units_Z 28
_cell_length_a 5.163086
_cell_length_b 22.946521
_cell_length_c 12.055497
_cell_angle_alpha 90.000000
_cell_angle_beta 107.431338
_cell_angle_gamma 90.000000
_cell_volume 1362.682203
_symmetry_space_group_name_H-M "P 21/C"
_symmetry_group_IT_number 14
_symmetry_cell_setting 'monoclinic'
loop_
_space_group_symop_operation_xyz
x,y,z
-x,1/2+y,1/2-z
-x,-y,-z
x,1/2-y,1/2+z
loop_
_atom_site_type_symbol
_atom_site_label
_atom_site_fract_x
_atom_site_fract_y
_atom_site_fract_z
Si Si1 0.718850 0.024330 0.236063
Si Si2 0.847130 0.382619 0.932780
Si Si3 0.145702 0.077359 0.136104
Si Si4 0.413199 0.198278 0.840398
Si Si5 0.030896 0.858133 0.096122
Si Si6 0.279177 0.329908 0.832849
Si Si7 0.119062 0.398490 0.199108
O O1 0.430570 0.045366 0.151897
O O2 0.808033 0.059090 0.356930
O O3 0.945430 0.033172 0.171619
O O4 0.701144 0.956541 0.263926
O O5 0.955395 0.402212 0.065160
O O6 0.047297 0.337276 0.896492
O O7 0.558889 0.353321 0.918825
O O8 0.190394 0.136329 0.211209
O O9 0.002546 0.093605 0.002704
O O10 0.250969 0.178324 0.930604
O O11 0.329375 0.263872 0.802015
O O12 0.320615 0.157479 0.724841
O O13 0.732017 0.188151 0.901622
O O14 0.083964 0.891066 0.220795
#
# Coordination Sequence:
#
# PCOD8127125 Si02
#       7
#     4   4   4   4   4   4   4
#     4  10  22  39  65  88 119 158 202 247 299 355
#     4  10  22  40  63  89 119 158 199 251 299 357
#     4  10  22  41  61  87 117 162 201 247 294 359
#     4  10  23  39  57  90 119 157 201 247 298 355
#     4  10  23  40  56  90 119 157 198 241 303 350
#     4  10  22  40  62  86 115 158 207 241 301 353
#     4  10  25  39  61  93 125 153 200 245 309 349
#
# _framework density 20.547713000000002
#
# number of rings (size 3 to 8) (size 9 to 14) (size 15 to 20)
#    0.857    1.143    0.000    2.143    4.000    3.429 
#    0.000    4.286    0.000    0.000    0.000    0.000 
#    0.000    0.000    0.000    0.000    0.000    0.000 
#
# Total GULP energy -347116.581564 kJ/mol
# GULP energy per Si atom -12397.020770 kJ/mol
# Density = 2.050095 g / cm^3
# Si number density = 20.547713 Si / 1000 Ang^3
#
#
#
# Elastic Constant Matrix: (Units=GPa)
#
#
# Indices 1 2 3 4 5 6 
#
# 1 114.0621 15.7296 23.2070 0.0000 3.5979 0.0000
# 2 15.7296 110.4016 15.2932 0.0000 -4.5035 0.0000
# 3 23.2070 15.2932 70.9407 0.0000 -6.2000 0.0000
# 4 0.0000 0.0000 0.0000 16.3113 0.0000 5.5659
# 5 3.5979 -4.5035 -6.2000 0.0000 15.8366 0.0000
# 6 0.0000 0.0000 0.0000 5.5659 0.0000 20.9986
#
#
#
# Elastic Compliance Matrix: (Units=1/GPa)
#
#
# Indices 1 2 3 4 5 6 
#
# 1 0.009702 -0.001084 -0.003272 0.000000 -0.003793 0.000000
# 2 -0.001084 0.009515 -0.001490 0.000000 0.002369 0.000000
# 3 -0.003272 -0.001490 0.016065 0.000000 0.006609 0.000000
# 4 0.000000 0.000000 0.000000 0.067404 0.000000 -0.017866
# 5 -0.003793 0.002369 0.006609 0.000000 0.067268 0.000000
# 6 0.000000 0.000000 0.000000 -0.017866 0.000000 0.052358
#
#
# Mechanical properties :
#
#
# Convention : Reuss Voigt Hill
#
# Bulk Modulus (GPa) = 42.38705 44.87379 43.63042
# Shear Modulus (GPa) = 20.67256 26.70759 23.69007
#
# Velocity S-wave (km/s) = 3.17531 3.60916 3.39917
# Velocity P-wave (km/s) = 5.84096 6.26533 6.05686
#
# Compressibility (1/GPa) = 0.02359211
#
# Stress axis : x y z
#
# Youngs Moduli (GPa) = 103.07235 105.09447 62.24588
#
# Poissons Ratio (x) = 0.11390 0.20365
# Poissons Ratio (y) = 0.11171 0.09273
# Poissons Ratio (z) = 0.33722 0.15656
#
# Static dielectric constant tensor:
#      x y z
#    x 3.833190 0.000000 -0.043790 
#    y 0.000000 3.599590 0.000000 
#    z -0.043790 0.000000 3.459650 
# 
# 
# High freq. dielectric constant tensor:
#      x y z
#    x 1.812980 0.000000 -0.000200 
#    y 0.000000 1.803510 0.000000 
#    z -0.000200 0.000000 1.788190 
# 
# From -- ./inp_files/22007.got.cif
#   From: 2010.03.12/outbox.cif.g09.slc.cpg/sg14_12_cif.got.tgz:22007.got - 2010.03.31 13:35:05.
