data_PCOD8127977
_publ_section_title
;
Structure prediction by ZEFSAII (Michael W. Deem and Ramdas Pophale) SiO2 
 PCOD8127977
Probable space group: P 21/C
;
_chemical_formula_sum "Si O2"
_cell_formula_units_Z 32
_cell_length_a 15.740151
_cell_length_b 18.823106
_cell_length_c 12.475765
_cell_angle_alpha 90.000000
_cell_angle_beta 157.222178
_cell_angle_gamma 90.000000
_cell_volume 1431.055302
_symmetry_space_group_name_H-M "P 21/C"
_symmetry_group_IT_number 14
_symmetry_cell_setting 'monoclinic'
loop_
_space_group_symop_operation_xyz
x,y,z
-x,1/2+y,1/2-z
-x,-y,-z
x,1/2-y,1/2+z
loop_
_atom_site_type_symbol
_atom_site_label
_atom_site_fract_x
_atom_site_fract_y
_atom_site_fract_z
Si Si1 0.354574 0.451726 0.754561
Si Si2 0.928836 0.825160 0.747263
Si Si3 0.934204 0.978355 0.673333
Si Si4 0.563443 0.095431 0.288894
Si Si5 0.809720 0.685878 0.345339
Si Si6 0.785101 0.260717 0.064681
Si Si7 0.346887 0.066034 0.834049
Si Si8 0.539490 0.792813 0.146086
O O1 0.504736 0.408781 0.845560
O O2 0.242717 0.397231 0.705685
O O3 0.180228 0.494463 0.478673
O O4 0.500000 0.500000 0.000000
O O5 0.908035 0.910521 0.720100
O O6 0.912311 0.798533 0.849232
O O7 0.726388 0.788994 0.452927
O O8 0.159414 0.797589 0.963320
O O9 0.889833 0.950446 0.497881
O O10 0.756782 0.038736 0.493298
O O11 0.634320 0.175920 0.344254
O O12 0.346448 0.081976 0.961541
O O13 0.594342 0.734162 0.118117
O O14 0.988064 0.703227 0.641151
O O15 0.687071 0.222194 0.055718
O O16 0.470851 0.130014 0.918514
O O17 0.500000 0.000000 0.000000
#
# Coordination Sequence:
#
# PCOD8127977 Si02
#       8
#     4   4   4   4   4   4   4   4
#     4  12  26  41  70 103 138 190 231 285 359 418
#     4  10  25  41  66  96 135 182 225 283 345 414
#     4  10  23  47  64  98 145 173 237 291 346 417
#     4  11  23  43  70 101 138 182 236 288 348 426
#     4  11  24  42  64 100 135 179 228 282 348 411
#     4  11  24  41  68  98 137 182 228 285 351 414
#     4   9  22  43  71  98 132 184 229 289 344 414
#     4  10  23  44  65  98 137 174 234 283 342 417
#
# _framework density 22.361121000000001
#
# number of rings (size 3 to 8) (size 9 to 14) (size 15 to 20)
#    0.000    1.500    2.500    0.750    5.250    5.500 
#    0.000    2.500    0.000    0.000    0.000    0.000 
#    0.000    0.000    0.000    0.000    0.000    0.000 
#
# Total GULP energy -396614.593500 kJ/mol
# GULP energy per Si atom -12394.206047 kJ/mol
# Density = 2.231023 g / cm^3
# Si number density = 22.361121 Si / 1000 Ang^3
#
#
#
# Elastic Constant Matrix: (Units=GPa)
#
#
# Indices 1 2 3 4 5 6 
#
# 1 132.5607 43.8153 30.8692 0.0000 -7.3155 0.0000
# 2 43.8153 131.3211 40.3842 0.0000 -3.5655 0.0000
# 3 30.8692 40.3842 99.2293 0.0000 -9.8174 0.0000
# 4 0.0000 0.0000 0.0000 31.0145 0.0000 -0.9194
# 5 -7.3155 -3.5655 -9.8174 0.0000 31.5327 0.0000
# 6 0.0000 0.0000 0.0000 -0.9194 0.0000 30.4533
#
#
#
# Elastic Compliance Matrix: (Units=1/GPa)
#
#
# Indices 1 2 3 4 5 6 
#
# 1 0.008785 -0.002395 -0.001634 0.000000 0.001259 0.000000
# 2 -0.002395 0.009357 -0.003109 0.000000 -0.000466 0.000000
# 3 -0.001634 -0.003109 0.012153 0.000000 0.003053 0.000000
# 4 0.000000 0.000000 0.000000 0.032272 0.000000 0.000974
# 5 0.001259 -0.000466 0.003053 0.000000 0.032903 0.000000
# 6 0.000000 0.000000 0.000000 0.000974 0.000000 0.032867
#
#
# Mechanical properties :
#
#
# Convention : Reuss Voigt Hill
#
# Bulk Modulus (GPa) = 62.42059 65.91648 64.16853
# Shear Modulus (GPa) = 33.79442 35.13626 34.46534
#
# Velocity S-wave (km/s) = 3.89176 3.96828 3.93021
# Velocity P-wave (km/s) = 6.94045 7.10904 7.02525
#
# Compressibility (1/GPa) = 0.01602035
#
# Stress axis : x y z
#
# Youngs Moduli (GPa) = 113.82881 106.86693 82.28083
#
# Poissons Ratio (x) = 0.25589 0.13444
# Poissons Ratio (y) = 0.27256 0.25585
# Poissons Ratio (z) = 0.18599 0.33229
#
# Static dielectric constant tensor:
#      x y z
#    x 3.883390 0.000000 -0.251660 
#    y 0.000000 4.188160 0.000000 
#    z -0.251660 0.000000 4.200190 
# 
# 
# High freq. dielectric constant tensor:
#      x y z
#    x 1.869180 0.000000 -0.015750 
#    y 0.000000 1.897940 0.000000 
#    z -0.015750 0.000000 1.875970 
# 
# From -- ./inp_files/33004.got.cif
#   From: 2010.03.12/outbox.cif.g09.slc.cpg/sg14_17_cif.got.tgz:33004.got - 2010.03.31 13:35:05.
