data_PCOD8127578
_publ_section_title
;
Structure prediction by ZEFSAII (Michael W. Deem and Ramdas Pophale) SiO2 
 PCOD8127578
Probable space group: P 21/C
;
_chemical_formula_sum "Si O2"
_cell_formula_units_Z 32
_cell_length_a 9.457899
_cell_length_b 18.707621
_cell_length_c 10.650591
_cell_angle_alpha 90.000000
_cell_angle_beta 55.466030
_cell_angle_gamma 90.000000
_cell_volume 1552.399800
_symmetry_space_group_name_H-M "P 21/C"
_symmetry_group_IT_number 14
_symmetry_cell_setting 'monoclinic'
loop_
_space_group_symop_operation_xyz
x,y,z
-x,1/2+y,1/2-z
-x,-y,-z
x,1/2-y,1/2+z
loop_
_atom_site_type_symbol
_atom_site_label
_atom_site_fract_x
_atom_site_fract_y
_atom_site_fract_z
Si Si1 0.524648 0.576634 0.052754
Si Si2 0.587725 0.073424 0.110702
Si Si3 0.877590 0.182992 0.919878
Si Si4 0.861664 0.654477 0.912436
Si Si5 0.208148 0.836822 0.618150
Si Si6 0.030808 0.428382 0.909950
Si Si7 0.300463 0.428551 0.560676
Si Si8 0.901625 0.689585 0.456371
O O1 0.515198 0.567799 0.207569
O O2 0.389647 0.635998 0.076178
O O3 0.500000 0.500000 0.000000
O O4 0.710563 0.608897 0.922751
O O5 0.464541 0.097205 0.058489
O O6 0.741452 0.129361 0.048395
O O7 0.663312 0.996186 0.043462
O O8 0.777402 0.257188 0.946082
O O9 0.959330 0.146865 0.754102
O O10 0.041080 0.196995 0.928175
O O11 0.818915 0.738340 0.942455
O O12 0.880553 0.628930 0.045289
O O13 0.148796 0.894260 0.543815
O O14 0.070960 0.834889 0.798156
O O15 0.147198 0.446844 0.732410
O O16 0.000000 0.500000 0.000000
O O17 0.248756 0.367818 0.487115
#
# Coordination Sequence:
#
# PCOD8127578 Si02
#       8
#     4   4   4   4   4   4   4   4
#     4  12  26  44  64 100 135 171 214 276 327 384
#     4  11  24  45  66  93 133 170 220 265 324 390
#     4  11  23  44  68  96 128 174 218 266 325 391
#     4  11  24  41  66  96 129 172 217 265 329 387
#     4  10  23  42  65  96 129 168 218 265 323 382
#     4  11  20  40  65  92 129 169 210 267 321 382
#     4  10  24  42  64  95 127 173 213 265 320 390
#     4  10  22  44  67  94 128 169 221 266 322 389
#
# _framework density 20.613247999999999
#
# number of rings (size 3 to 8) (size 9 to 14) (size 15 to 20)
#    0.000    1.250    3.750    1.500    3.500    1.500 
#    0.000    0.000    0.000    0.000    0.000    0.000 
#    0.000    0.000    0.000    0.000    0.000    0.000 
#
# Total GULP energy -396843.990623 kJ/mol
# GULP energy per Si atom -12401.374707 kJ/mol
# Density = 2.056633 g / cm^3
# Si number density = 20.613248 Si / 1000 Ang^3
#
#
#
# Elastic Constant Matrix: (Units=GPa)
#
#
# Indices 1 2 3 4 5 6 
#
# 1 77.7907 46.1888 10.0238 0.0000 7.8563 0.0000
# 2 46.1888 114.3962 36.1035 0.0000 0.6170 0.0000
# 3 10.0238 36.1035 64.4145 0.0000 1.5628 0.0000
# 4 0.0000 0.0000 0.0000 28.3288 0.0000 1.2303
# 5 7.8563 0.6170 1.5628 0.0000 28.4529 0.0000
# 6 0.0000 0.0000 0.0000 1.2303 0.0000 44.5656
#
#
#
# Elastic Compliance Matrix: (Units=1/GPa)
#
#
# Indices 1 2 3 4 5 6 
#
# 1 0.017652 -0.007619 0.001640 0.000000 -0.004799 0.000000
# 2 -0.007619 0.013909 -0.006663 0.000000 0.002168 0.000000
# 3 0.001640 -0.006663 0.019036 0.000000 -0.001354 0.000000
# 4 0.000000 0.000000 0.000000 0.035342 0.000000 -0.000976
# 5 -0.004799 0.002168 -0.001354 0.000000 0.036498 0.000000
# 6 0.000000 0.000000 0.000000 -0.000976 0.000000 0.022466
#
#
# Mechanical properties :
#
#
# Convention : Reuss Voigt Hill
#
# Bulk Modulus (GPa) = 39.50407 49.02596 44.26501
# Shear Modulus (GPa) = 27.99158 31.22181 29.60669
#
# Velocity S-wave (km/s) = 3.68902 3.89607 3.79396
# Velocity P-wave (km/s) = 6.11156 6.63886 6.38066
#
# Compressibility (1/GPa) = 0.02531385
#
# Stress axis : x y z
#
# Youngs Moduli (GPa) = 56.65038 71.89670 52.53067
#
# Poissons Ratio (x) = 0.54777 -0.08614
# Poissons Ratio (y) = 0.43161 0.35000
# Poissons Ratio (z) = -0.09290 0.47903
#
# Static dielectric constant tensor:
#      x y z
#    x 3.792720 0.000000 0.160870 
#    y 0.000000 3.868840 0.000000 
#    z 0.160870 0.000000 3.902010 
# 
# 
# High freq. dielectric constant tensor:
#      x y z
#    x 1.809610 0.000000 0.010270 
#    y 0.000000 1.816300 0.000000 
#    z 0.010270 0.000000 1.800730 
# 
# From -- ./inp_files/26047.got.cif
#   From: 2010.03.12/outbox.cif.g09.slc.cpg/sg14_14_cif.got.tgz:26047.got - 2010.03.31 13:35:05.
