data_PCOD8127036
_publ_section_title
;
Structure prediction by ZEFSAII (Michael W. Deem and Ramdas Pophale) SiO2 
 PCOD8127036
Probable space group: P 21/C
;
_chemical_formula_sum "Si O2"
_cell_formula_units_Z 28
_cell_length_a 8.835921
_cell_length_b 11.656625
_cell_length_c 18.230645
_cell_angle_alpha 90.000000
_cell_angle_beta 140.661632
_cell_angle_gamma 90.000000
_cell_volume 1190.273331
_symmetry_space_group_name_H-M "P 21/C"
_symmetry_group_IT_number 14
_symmetry_cell_setting 'monoclinic'
loop_
_space_group_symop_operation_xyz
x,y,z
-x,1/2+y,1/2-z
-x,-y,-z
x,1/2-y,1/2+z
loop_
_atom_site_type_symbol
_atom_site_label
_atom_site_fract_x
_atom_site_fract_y
_atom_site_fract_z
Si Si1 0.050385 0.305396 0.640364
Si Si2 0.098658 0.829741 0.074826
Si Si3 0.818313 0.555642 0.171490
Si Si4 0.814918 0.409323 0.822973
Si Si5 0.382777 0.363393 0.198085
Si Si6 0.601869 0.809860 0.920265
Si Si7 0.643052 0.170969 0.555534
O O1 0.063312 0.400380 0.709004
O O2 0.297539 0.233330 0.725182
O O3 0.979317 0.363386 0.536819
O O4 0.842993 0.214672 0.576216
O O5 0.146507 0.694265 0.106009
O O6 0.338883 0.897911 0.185608
O O7 0.864002 0.864945 0.035353
O O8 0.771916 0.419160 0.159331
O O9 0.974951 0.586268 0.158632
O O10 0.560453 0.613330 0.069089
O O11 0.787223 0.525700 0.859379
O O12 0.562018 0.395886 0.686916
O O13 0.349751 0.310442 0.104819
O O14 0.465160 0.780053 0.943186
#
# Coordination Sequence:
#
# PCOD8127036 Si02
#       7
#     4   4   4   4   4   4   4
#     4  11  22  41  64  93 132 164 208 262 315 370
#     4  10  23  42  62  94 128 166 206 265 315 371
#     4  11  23  38  66  95 128 164 213 260 310 375
#     4  11  21  41  65  90 124 167 214 254 312 378
#     4  10  23  40  63  93 124 167 213 258 311 377
#     4  10  22  38  64  90 127 162 206 264 312 367
#     4  11  22  39  64  98 122 166 213 258 313 366
#
# _framework density 23.524011000000002
#
# number of rings (size 3 to 8) (size 9 to 14) (size 15 to 20)
#    0.000    1.429    4.286    0.857    0.000    8.571 
#    0.000    3.571    0.000    0.000    0.000    0.000 
#    0.000    0.000    0.000    0.000    0.000    0.000 
#
# Total GULP energy -347094.000884 kJ/mol
# GULP energy per Si atom -12396.214317 kJ/mol
# Density = 2.347047 g / cm^3
# Si number density = 23.524011 Si / 1000 Ang^3
#
#
#
# Elastic Constant Matrix: (Units=GPa)
#
#
# Indices 1 2 3 4 5 6 
#
# 1 85.4375 -3.2736 19.1078 0.0000 16.1126 0.0000
# 2 -3.2736 21.9553 -11.7135 0.0000 0.2436 0.0000
# 3 19.1078 -11.7135 81.8275 0.0000 23.7498 0.0000
# 4 0.0000 0.0000 0.0000 22.7831 0.0000 2.1603
# 5 16.1126 0.2436 23.7498 0.0000 43.1401 0.0000
# 6 0.0000 0.0000 0.0000 2.1603 0.0000 25.4205
#
#
#
# Elastic Compliance Matrix: (Units=1/GPa)
#
#
# Indices 1 2 3 4 5 6 
#
# 1 0.012859 0.001034 -0.001737 0.000000 -0.003853 0.000000
# 2 0.001034 0.050303 0.008514 0.000000 -0.005358 0.000000
# 3 -0.001737 0.008514 0.016271 0.000000 -0.008357 0.000000
# 4 0.000000 0.000000 0.000000 0.044249 0.000000 -0.003760
# 5 -0.003853 -0.005358 -0.008357 0.000000 0.029250 0.000000
# 6 0.000000 0.000000 0.000000 -0.003760 0.000000 0.039658
#
#
# Mechanical properties :
#
#
# Convention : Reuss Voigt Hill
#
# Bulk Modulus (GPa) = 10.52014 21.94019 16.23017
# Shear Modulus (GPa) = 23.96332 30.60871 27.28602
#
# Velocity S-wave (km/s) = 3.19513 3.61109 3.40946
# Velocity P-wave (km/s) = 4.25366 5.17045 4.73430
#
# Compressibility (1/GPa) = 0.09505574
#
# Stress axis : x y z
#
# Youngs Moduli (GPa) = 77.76657 19.87944 61.45997
#
# Poissons Ratio (x) = -0.02055 0.10673
# Poissons Ratio (y) = -0.08037 -0.52330
# Poissons Ratio (z) = 0.13505 -0.16926
#
# Static dielectric constant tensor:
#      x y z
#    x 4.326550 0.000000 0.473470 
#    y 0.000000 3.939140 0.000000 
#    z 0.473470 0.000000 4.207760 
# 
# 
# High freq. dielectric constant tensor:
#      x y z
#    x 1.940390 0.000000 0.028480 
#    y 0.000000 1.909040 0.000000 
#    z 0.028480 0.000000 1.929270 
# 
# From -- ./inp_files/65639.got.cif
#   From: 2010.03.12/outbox.cif.g09.slc.cpg/sg14_33_cif.got.tgz:65639.got - 2010.03.31 13:35:05.
