data_PCOD8127176
_publ_section_title
;
Structure prediction by ZEFSAII (Michael W. Deem and Ramdas Pophale) SiO2 
 PCOD8127176
Probable space group: P 21/C
;
_chemical_formula_sum "Si O2"
_cell_formula_units_Z 28
_cell_length_a 21.059781
_cell_length_b 9.081981
_cell_length_c 9.924011
_cell_angle_alpha 90.000000
_cell_angle_beta 137.304092
_cell_angle_gamma 90.000000
_cell_volume 1287.122909
_symmetry_space_group_name_H-M "P 21/C"
_symmetry_group_IT_number 14
_symmetry_cell_setting 'monoclinic'
loop_
_space_group_symop_operation_xyz
x,y,z
-x,1/2+y,1/2-z
-x,-y,-z
x,1/2-y,1/2+z
loop_
_atom_site_type_symbol
_atom_site_label
_atom_site_fract_x
_atom_site_fract_y
_atom_site_fract_z
Si Si1 0.779590 0.651162 0.309962
Si Si2 0.504427 0.393529 0.806193
Si Si3 0.566396 0.804833 0.523352
Si Si4 0.794349 0.285774 0.946281
Si Si5 0.080721 0.959533 0.803437
Si Si6 0.126953 0.457122 0.078727
Si Si7 0.711757 0.123709 0.583570
O O1 0.677403 0.665595 0.221982
O O2 0.860147 0.588464 0.533509
O O3 0.823807 0.800406 0.320849
O O4 0.758930 0.539400 0.153833
O O5 0.478866 0.293146 0.897535
O O6 0.437920 0.343497 0.576597
O O7 0.507283 0.566065 0.853150
O O8 0.602831 0.366489 0.887966
O O9 0.721681 0.191249 0.747289
O O10 0.892898 0.200259 0.095621
O O11 0.800690 0.448697 0.896570
O O12 0.760463 0.280416 0.046136
O O13 0.969853 0.961191 0.656351
O O14 0.106273 0.965004 0.686750
#
# Coordination Sequence:
#
# PCOD8127176 Si02
#       7
#     4   4   4   4   4   4   4
#     4  10  24  40  63  95 128 166 215 269 313 380
#     4  10  22  41  61  95 126 170 208 263 313 378
#     4  10  23  40  66  92 132 167 211 261 323 367
#     4  11  21  41  62  93 119 172 208 259 317 382
#     4  10  23  43  60  91 130 162 215 263 320 385
#     4  11  23  39  66  91 123 171 208 265 325 379
#     4  10  22  40  63  89 133 162 214 260 315 376
#
# _framework density 21.753945000000002
#
# number of rings (size 3 to 8) (size 9 to 14) (size 15 to 20)
#    0.000    1.714    1.429    1.714    4.000    4.000 
#    0.000    2.143    0.000    0.000    0.000    0.000 
#    0.000    0.000    0.000    0.000    0.000    0.000 
#
# Total GULP energy -346896.694357 kJ/mol
# GULP energy per Si atom -12389.167656 kJ/mol
# Density = 2.170443 g / cm^3
# Si number density = 21.753945 Si / 1000 Ang^3
#
#
#
# Elastic Constant Matrix: (Units=GPa)
#
#
# Indices 1 2 3 4 5 6 
#
# 1 56.8368 26.6797 12.6370 0.0000 5.2345 0.0000
# 2 26.6797 95.2527 29.8536 0.0000 6.5636 0.0000
# 3 12.6370 29.8536 58.8984 0.0000 12.5135 0.0000
# 4 0.0000 0.0000 0.0000 28.5073 0.0000 0.0354
# 5 5.2345 6.5636 12.5135 0.0000 29.7553 0.0000
# 6 0.0000 0.0000 0.0000 0.0354 0.0000 26.5033
#
#
#
# Elastic Compliance Matrix: (Units=1/GPa)
#
#
# Indices 1 2 3 4 5 6 
#
# 1 0.020506 -0.005184 -0.001371 0.000000 -0.001887 0.000000
# 2 -0.005184 0.013792 -0.005958 0.000000 0.000375 0.000000
# 3 -0.001371 -0.005958 0.021921 0.000000 -0.007663 0.000000
# 4 0.000000 0.000000 0.000000 0.035079 0.000000 -0.000047
# 5 -0.001887 0.000375 -0.007663 0.000000 0.037079 0.000000
# 6 0.000000 0.000000 0.000000 -0.000047 0.000000 0.037731
#
#
# Mechanical properties :
#
#
# Convention : Reuss Voigt Hill
#
# Bulk Modulus (GPa) = 32.05916 38.81427 35.43672
# Shear Modulus (GPa) = 24.80992 26.40768 25.60880
#
# Velocity S-wave (km/s) = 3.38076 3.48792 3.43476
# Velocity P-wave (km/s) = 5.47801 5.83969 5.66174
#
# Compressibility (1/GPa) = 0.03119233
#
# Stress axis : x y z
#
# Youngs Moduli (GPa) = 48.76553 72.50647 45.61897
#
# Poissons Ratio (x) = 0.37586 0.06255
# Poissons Ratio (y) = 0.25279 0.27180
# Poissons Ratio (z) = 0.06687 0.43200
#
# Static dielectric constant tensor:
#      x y z
#    x 3.689550 0.000000 0.124770 
#    y 0.000000 3.889390 0.000000 
#    z 0.124770 0.000000 3.923600 
# 
# 
# High freq. dielectric constant tensor:
#      x y z
#    x 1.847670 0.000000 0.006980 
#    y 0.000000 1.852440 0.000000 
#    z 0.006980 0.000000 1.856950 
# 
# From -- ./inp_files/18721.got.cif
#   From: 2010.03.12/outbox.cif.g09.slc.cpg/sg14_10_cif.got.tgz:18721.got - 2010.03.31 13:35:05.
