data_PCOD8127617
_publ_section_title
;
Structure prediction by ZEFSAII (Michael W. Deem and Ramdas Pophale) SiO2 
 PCOD8127617
Probable space group: P 21/C
;
_chemical_formula_sum "Si O2"
_cell_formula_units_Z 20
_cell_length_a 13.632388
_cell_length_b 7.207735
_cell_length_c 22.882453
_cell_angle_alpha 90.000000
_cell_angle_beta 161.365527
_cell_angle_gamma 90.000000
_cell_volume 718.429701
_symmetry_space_group_name_H-M "P 21/C"
_symmetry_group_IT_number 14
_symmetry_cell_setting 'monoclinic'
loop_
_space_group_symop_operation_xyz
x,y,z
-x,1/2+y,1/2-z
-x,-y,-z
x,1/2-y,1/2+z
loop_
_atom_site_type_symbol
_atom_site_label
_atom_site_fract_x
_atom_site_fract_y
_atom_site_fract_z
Si Si1 0.345607 0.702822 0.381208
Si Si2 0.151524 0.172266 0.748207
Si Si3 0.406183 0.985647 0.194925
Si Si4 0.173551 0.467042 0.437025
Si Si5 0.911003 0.797981 0.421033
O O1 0.525291 0.745540 0.542587
O O2 0.100511 0.530230 0.250054
O O3 0.166040 0.882893 0.260314
O O4 0.586460 0.634376 0.468397
O O5 0.873261 0.313643 0.604460
O O6 0.187316 0.137987 0.698814
O O7 0.781351 0.952297 0.397150
O O8 0.316831 0.119955 0.197250
O O9 0.260511 0.777702 0.126246
O O10 0.261436 0.060783 0.053774
#
# Coordination Sequence:
#
# PCOD8127617 Si02
#       5
#     4   4   4   4   4
#     4  11  25  43  73 102 141 186 228 287 352 417
#     4  10  24  45  68 101 142 183 226 286 350 409
#     4  10  23  44  67  97 135 178 230 282 346 407
#     4  11  25  45  67 108 137 183 236 284 347 418
#     4  10  22  45  66  98 133 175 228 281 339 411
#
# _framework density 27.838491000000001
#
# number of rings (size 3 to 8) (size 9 to 14) (size 15 to 20)
#    0.000    1.600    2.000    0.600    5.600    7.200 
#   10.800    0.000    0.000    0.000    0.000    0.000 
#    0.000    0.000    0.000    0.000    0.000    0.000 
#
# Total GULP energy -247897.554153 kJ/mol
# GULP energy per Si atom -12394.877708 kJ/mol
# Density = 2.777513 g / cm^3
# Si number density = 27.838491 Si / 1000 Ang^3
#
#
#
# Elastic Constant Matrix: (Units=GPa)
#
#
# Indices 1 2 3 4 5 6 
#
# 1 72.8411 21.1368 37.9863 0.0000 20.9273 0.0000
# 2 21.1368 58.9250 12.6249 0.0000 -2.7085 0.0000
# 3 37.9863 12.6249 110.5032 0.0000 -1.8120 0.0000
# 4 0.0000 0.0000 0.0000 42.4974 0.0000 -1.8919
# 5 20.9273 -2.7085 -1.8120 0.0000 51.7657 0.0000
# 6 0.0000 0.0000 0.0000 -1.8919 0.0000 38.5798
#
#
#
# Elastic Compliance Matrix: (Units=1/GPa)
#
#
# Indices 1 2 3 4 5 6 
#
# 1 0.022095 -0.006871 -0.006967 0.000000 -0.009536 0.000000
# 2 -0.006871 0.019570 0.000189 0.000000 0.003808 0.000000
# 3 -0.006967 0.000189 0.011476 0.000000 0.003228 0.000000
# 4 0.000000 0.000000 0.000000 0.023582 0.000000 0.001156
# 5 -0.009536 0.003808 0.003228 0.000000 0.023485 0.000000
# 6 0.000000 0.000000 0.000000 0.001156 0.000000 0.025977
#
#
# Mechanical properties :
#
#
# Convention : Reuss Voigt Hill
#
# Bulk Modulus (GPa) = 38.69629 42.86282 40.77956
# Shear Modulus (GPa) = 30.84544 37.93666 34.39105
#
# Velocity S-wave (km/s) = 3.33230 3.69554 3.51861
# Velocity P-wave (km/s) = 5.36060 5.79998 5.58461
#
# Compressibility (1/GPa) = 0.02584227
#
# Stress axis : x y z
#
# Youngs Moduli (GPa) = 45.25874 51.09813 87.14029
#
# Poissons Ratio (x) = 0.35111 0.60708
# Poissons Ratio (y) = 0.31099 -0.01644
# Poissons Ratio (z) = 0.31530 -0.00964
#
# Static dielectric constant tensor:
#      x y z
#    x 5.021070 0.000000 0.264860 
#    y 0.000000 5.783150 0.000000 
#    z 0.264860 0.000000 5.031800 
# 
# 
# High freq. dielectric constant tensor:
#      x y z
#    x 2.127130 0.000000 0.013010 
#    y 0.000000 2.154210 0.000000 
#    z 0.013010 0.000000 2.129470 
# 
# From -- ./inp_files/73782.got.cif
#   From: 2010.03.12/outbox.cif.g09.slc.cpg/sg14_37_cif.got.tgz:73782.got - 2010.03.31 13:35:05.
