data_PCOD8127608
_publ_section_title
;
Structure prediction by ZEFSAII (Michael W. Deem and Ramdas Pophale) SiO2 
 PCOD8127608
Probable space group: P 21/C
;
_chemical_formula_sum "Si O2"
_cell_formula_units_Z 24
_cell_length_a 5.564441
_cell_length_b 13.857002
_cell_length_c 14.049664
_cell_angle_alpha 90.000000
_cell_angle_beta 82.229911
_cell_angle_gamma 90.000000
_cell_volume 1073.373554
_symmetry_space_group_name_H-M "P 21/C"
_symmetry_group_IT_number 14
_symmetry_cell_setting 'monoclinic'
loop_
_space_group_symop_operation_xyz
x,y,z
-x,1/2+y,1/2-z
-x,-y,-z
x,1/2-y,1/2+z
loop_
_atom_site_type_symbol
_atom_site_label
_atom_site_fract_x
_atom_site_fract_y
_atom_site_fract_z
Si Si1 0.699617 0.401701 0.694304
Si Si2 0.191585 0.778183 0.978853
Si Si3 0.733940 0.882810 0.670016
Si Si4 0.068691 0.451430 0.191440
Si Si5 0.322578 0.167844 0.531276
Si Si6 0.101563 0.769935 0.196180
O O1 0.784624 0.377050 0.583217
O O2 0.416017 0.419868 0.729696
O O3 0.833545 0.499411 0.717236
O O4 0.735115 0.310871 0.763414
O O5 0.442321 0.722742 0.939966
O O6 0.937280 0.725728 0.964280
O O7 0.206412 0.804391 0.089166
O O8 0.597142 0.872507 0.576225
O O9 0.840111 0.778339 0.692460
O O10 0.928558 0.966729 0.640134
O O11 0.281861 0.417475 0.109328
O O12 0.909442 0.360172 0.232244
#
# Coordination Sequence:
#
# PCOD8127608 Si02
#       6
#     4   4   4   4   4   4
#     4  11  23  41  65  96 133 174 222 275 324 400
#     4  11  24  43  72  94 132 183 218 265 331 399
#     4  10  23  41  65  98 131 170 226 274 324 397
#     4  11  24  39  67  99 133 172 219 278 333 388
#     4  11  23  43  70  97 131 177 220 274 332 382
#     4  10  22  45  63  93 134 176 218 270 332 392
#
# _framework density 22.359413
#
# number of rings (size 3 to 8) (size 9 to 14) (size 15 to 20)
#    0.000    1.333    3.333    1.500    4.667    2.667 
#    0.000    0.833    0.000    0.000    0.000    0.000 
#    0.000    0.000    0.000    0.000    0.000    0.000 
#
# Total GULP energy -297357.632701 kJ/mol
# GULP energy per Si atom -12389.901363 kJ/mol
# Density = 2.230852 g / cm^3
# Si number density = 22.359413 Si / 1000 Ang^3
#
#
#
# Elastic Constant Matrix: (Units=GPa)
#
#
# Indices 1 2 3 4 5 6 
#
# 1 85.5036 4.0705 -6.2587 0.0000 -7.0056 0.0000
# 2 4.0705 58.7347 1.1018 0.0000 -1.6143 0.0000
# 3 -6.2587 1.1018 78.3806 0.0000 -6.4837 0.0000
# 4 0.0000 0.0000 0.0000 28.2036 0.0000 0.7705
# 5 -7.0056 -1.6143 -6.4837 0.0000 32.5122 0.0000
# 6 0.0000 0.0000 0.0000 0.7705 0.0000 19.1133
#
#
#
# Elastic Compliance Matrix: (Units=1/GPa)
#
#
# Indices 1 2 3 4 5 6 
#
# 1 0.012050 -0.000781 0.001205 0.000000 0.002798 0.000000
# 2 -0.000781 0.017102 -0.000251 0.000000 0.000631 0.000000
# 3 0.001205 -0.000251 0.013094 0.000000 0.002858 0.000000
# 4 0.000000 0.000000 0.000000 0.035496 0.000000 -0.001431
# 5 0.002798 0.000631 0.002858 0.000000 0.031962 0.000000
# 6 0.000000 0.000000 0.000000 -0.001431 0.000000 0.052377
#
#
# Mechanical properties :
#
#
# Convention : Reuss Voigt Hill
#
# Bulk Modulus (GPa) = 23.47814 24.49402 23.98608
# Shear Modulus (GPa) = 28.42004 30.87949 29.64977
#
# Velocity S-wave (km/s) = 3.56905 3.72028 3.64545
# Velocity P-wave (km/s) = 5.24474 5.42517 5.33572
#
# Compressibility (1/GPa) = 0.04259280
#
# Stress axis : x y z
#
# Youngs Moduli (GPa) = 82.98747 58.47320 76.36840
#
# Poissons Ratio (x) = 0.04566 -0.09199
# Poissons Ratio (y) = 0.06480 0.01914
# Poissons Ratio (z) = -0.09997 0.01465
#
# Static dielectric constant tensor:
#      x y z
#    x 3.974610 0.000000 -0.040980 
#    y 0.000000 3.812790 0.000000 
#    z -0.040980 0.000000 4.086020 
# 
# 
# High freq. dielectric constant tensor:
#      x y z
#    x 1.879320 0.000000 -0.008070 
#    y 0.000000 1.862370 0.000000 
#    z -0.008070 0.000000 1.888030 
# 
# From -- ./inp_files/37182.got.cif
#   From: 2010.03.12/outbox.cif.g09.slc.cpg/sg14_19_cif.got.tgz:37182.got - 2010.03.31 13:35:05.
