data_PCOD8127632
_publ_section_title
;
Structure prediction by ZEFSAII (Michael W. Deem and Ramdas Pophale) SiO2 
 PCOD8127632
Probable space group: P 21/C
;
_chemical_formula_sum "Si O2"
_cell_formula_units_Z 20
_cell_length_a 8.982145
_cell_length_b 11.150741
_cell_length_c 10.089079
_cell_angle_alpha 90.000000
_cell_angle_beta 71.112024
_cell_angle_gamma 90.000000
_cell_volume 956.085712
_symmetry_space_group_name_H-M "P 21/C"
_symmetry_group_IT_number 14
_symmetry_cell_setting 'monoclinic'
loop_
_space_group_symop_operation_xyz
x,y,z
-x,1/2+y,1/2-z
-x,-y,-z
x,1/2-y,1/2+z
loop_
_atom_site_type_symbol
_atom_site_label
_atom_site_fract_x
_atom_site_fract_y
_atom_site_fract_z
Si Si1 0.031022 0.360742 0.529973
Si Si2 0.635619 0.838411 0.957651
Si Si3 0.432709 0.621174 0.966462
Si Si4 0.133336 0.743262 0.166018
Si Si5 0.343392 0.937091 0.201839
O O1 0.215960 0.332876 0.486819
O O2 0.000000 0.500000 0.500000
O O3 0.966394 0.266815 0.438850
O O4 0.958999 0.329675 0.694729
O O5 0.581387 0.710800 0.915995
O O6 0.674829 0.920967 0.818461
O O7 0.495846 0.893410 0.081709
O O8 0.356035 0.596528 0.849065
O O9 0.500000 0.500000 0.000000
O O10 0.293354 0.668993 0.098788
O O11 0.183187 0.875917 0.197627
#
# Coordination Sequence:
#
# PCOD8127632 Si02
#       5
#     4   4   4   4   4
#     4  12  26  46  71 105 145 188 231 297 361 417
#     4  10  25  42  71  97 137 185 229 285 357 418
#     4  11  26  42  71 101 139 183 235 289 344 426
#     4  11  25  46  69 103 143 181 237 294 349 418
#     4  10  22  45  68  98 134 183 236 284 340 417
#
# _framework density 20.918627000000001
#
# number of rings (size 3 to 8) (size 9 to 14) (size 15 to 20)
#    0.000    1.200    4.000    0.000   11.200    0.000 
#    0.000    3.000    0.000    0.000    0.000    0.000 
#    0.000    0.000    0.000    0.000    0.000    0.000 
#
# Total GULP energy -247950.047459 kJ/mol
# GULP energy per Si atom -12397.502373 kJ/mol
# Density = 2.087102 g / cm^3
# Si number density = 20.918627 Si / 1000 Ang^3
#
#
#
# Elastic Constant Matrix: (Units=GPa)
#
#
# Indices 1 2 3 4 5 6 
#
# 1 106.7972 43.8128 11.9810 0.0000 28.5066 0.0000
# 2 43.8128 140.7459 37.4030 0.0000 4.6224 0.0000
# 3 11.9810 37.4030 87.8427 0.0000 17.3543 0.0000
# 4 0.0000 0.0000 0.0000 31.6689 0.0000 8.8496
# 5 28.5066 4.6224 17.3543 0.0000 29.2466 0.0000
# 6 0.0000 0.0000 0.0000 8.8496 0.0000 23.3100
#
#
#
# Elastic Compliance Matrix: (Units=1/GPa)
#
#
# Indices 1 2 3 4 5 6 
#
# 1 0.015418 -0.005140 0.003278 0.000000 -0.016161 0.000000
# 2 -0.005140 0.009744 -0.004682 0.000000 0.006248 0.000000
# 3 0.003278 -0.004682 0.015197 0.000000 -0.011473 0.000000
# 4 0.000000 0.000000 0.000000 0.035324 0.000000 -0.013411
# 5 -0.016161 0.006248 -0.011473 0.000000 0.055765 0.000000
# 6 0.000000 0.000000 0.000000 -0.013411 0.000000 0.047991
#
#
# Mechanical properties :
#
#
# Convention : Reuss Voigt Hill
#
# Bulk Modulus (GPa) = 36.66808 57.97550 47.32179
# Shear Modulus (GPa) = 24.79936 32.99102 28.89519
#
# Velocity S-wave (km/s) = 3.44687 3.97560 3.72064
# Velocity P-wave (km/s) = 5.77998 6.98919 6.41315
#
# Compressibility (1/GPa) = 0.02727168
#
# Stress axis : x y z
#
# Youngs Moduli (GPa) = 64.85870 102.62560 65.80153
#
# Poissons Ratio (x) = 0.52749 -0.21573
# Poissons Ratio (y) = 0.33337 0.30811
# Poissons Ratio (z) = -0.21264 0.48053
#
# Static dielectric constant tensor:
#      x y z
#    x 3.895170 0.000000 -0.040910 
#    y 0.000000 4.087890 0.000000 
#    z -0.040910 0.000000 3.659040 
# 
# 
# High freq. dielectric constant tensor:
#      x y z
#    x 1.833710 0.000000 0.009510 
#    y 0.000000 1.826240 0.000000 
#    z 0.009510 0.000000 1.816230 
# 
# From -- ./inp_files/7841.got.cif
#   From: 2010.03.12/outbox.cif.g09.slc.cpg/sg14_4_cif.got.tgz:7841.got - 2010.03.31 13:35:05.
