data_PCOD8127185
_publ_section_title
;
Structure prediction by ZEFSAII (Michael W. Deem and Ramdas Pophale) SiO2 
 PCOD8127185
Probable space group: P 21/C
;
_chemical_formula_sum "Si O2"
_cell_formula_units_Z 32
_cell_length_a 8.672968
_cell_length_b 10.493499
_cell_length_c 24.376211
_cell_angle_alpha 90.000000
_cell_angle_beta 138.662970
_cell_angle_gamma 90.000000
_cell_volume 1465.273142
_symmetry_space_group_name_H-M "P 21/C"
_symmetry_group_IT_number 14
_symmetry_cell_setting 'monoclinic'
loop_
_space_group_symop_operation_xyz
x,y,z
-x,1/2+y,1/2-z
-x,-y,-z
x,1/2-y,1/2+z
loop_
_atom_site_type_symbol
_atom_site_label
_atom_site_fract_x
_atom_site_fract_y
_atom_site_fract_z
Si Si1 0.103334 0.160753 0.855150
Si Si2 0.132526 0.415856 0.676591
Si Si3 0.172089 0.176404 0.622562
Si Si4 0.616513 0.743559 0.169076
Si Si5 0.537331 0.964816 0.218270
Si Si6 0.544236 0.807328 0.475580
Si Si7 0.301666 0.919444 0.513688
Si Si8 0.616928 0.273462 0.681860
O O1 0.261661 0.169139 0.843859
O O2 0.852741 0.220739 0.772511
O O3 0.237918 0.227561 0.941683
O O4 0.076898 0.012299 0.864970
O O5 0.071014 0.315877 0.612352
O O6 0.190450 0.332219 0.745083
O O7 0.348675 0.500705 0.713460
O O8 0.229150 0.084630 0.689306
O O9 0.399037 0.191701 0.645764
O O10 0.960941 0.106438 0.535678
O O11 0.455099 0.840494 0.161308
O O12 0.464831 0.630080 0.105081
O O13 0.598287 0.079939 0.194229
O O14 0.355490 0.844712 0.471314
O O15 0.398714 0.734557 0.388768
O O16 0.661022 0.931731 0.481563
#
# Coordination Sequence:
#
# PCOD8127185 Si02
#       8
#     4   4   4   4   4   4   4   4
#     4  11  23  41  65  95 132 167 215 271 321 382
#     4  10  22  42  63  92 133 166 217 264 311 398
#     4  10  22  40  63  93 123 175 212 260 326 376
#     4  10  24  40  66  97 123 174 212 265 336 371
#     4  10  22  41  62  91 128 170 216 255 320 388
#     4  10  24  41  65  99 124 172 214 268 329 381
#     4  10  22  43  62  91 135 156 219 276 314 395
#     4  11  23  40  65  93 127 172 213 264 322 381
#
# _framework density 21.838930999999999
#
# number of rings (size 3 to 8) (size 9 to 14) (size 15 to 20)
#    0.000    1.750    1.250    1.500    5.250    2.500 
#    0.000    5.000    0.000    0.000    0.000    0.000 
#    0.000    0.000    0.000    0.000    0.000    0.000 
#
# Total GULP energy -396654.931946 kJ/mol
# GULP energy per Si atom -12395.466623 kJ/mol
# Density = 2.178922 g / cm^3
# Si number density = 21.838931 Si / 1000 Ang^3
#
#
#
# Elastic Constant Matrix: (Units=GPa)
#
#
# Indices 1 2 3 4 5 6 
#
# 1 34.5225 14.7630 18.8210 0.0000 0.5834 0.0000
# 2 14.7630 85.7162 15.8260 0.0000 -3.5785 0.0000
# 3 18.8210 15.8260 77.7097 0.0000 -1.6630 0.0000
# 4 0.0000 0.0000 0.0000 31.4916 0.0000 1.2729
# 5 0.5834 -3.5785 -1.6630 0.0000 35.2883 0.0000
# 6 0.0000 0.0000 0.0000 1.2729 0.0000 40.7612
#
#
#
# Elastic Compliance Matrix: (Units=1/GPa)
#
#
# Indices 1 2 3 4 5 6 
#
# 1 0.035138 -0.004711 -0.007581 0.000000 -0.001416 0.000000
# 2 -0.004711 0.012798 -0.001437 0.000000 0.001308 0.000000
# 3 -0.007581 -0.001437 0.015012 0.000000 0.000687 0.000000
# 4 0.000000 0.000000 0.000000 0.031795 0.000000 -0.000993
# 5 -0.001416 0.001308 0.000687 0.000000 0.028526 0.000000
# 6 0.000000 0.000000 0.000000 -0.000993 0.000000 0.024564
#
#
# Mechanical properties :
#
#
# Convention : Reuss Voigt Hill
#
# Bulk Modulus (GPa) = 28.17808 32.97426 30.57617
# Shear Modulus (GPa) = 26.72045 31.41077 29.06561
#
# Velocity S-wave (km/s) = 3.50169 3.79660 3.65212
# Velocity P-wave (km/s) = 5.41108 5.86093 5.64049
#
# Compressibility (1/GPa) = 0.03548858
#
# Stress axis : x y z
#
# Youngs Moduli (GPa) = 28.45887 78.13833 66.61355
#
# Poissons Ratio (x) = 0.36813 0.50501
# Poissons Ratio (y) = 0.13408 0.09574
# Poissons Ratio (z) = 0.21575 0.11231
#
# Static dielectric constant tensor:
#      x y z
#    x 3.878920 0.000000 -0.137900 
#    y 0.000000 4.080930 0.000000 
#    z -0.137900 0.000000 3.824190 
# 
# 
# High freq. dielectric constant tensor:
#      x y z
#    x 1.856200 0.000000 -0.008940 
#    y 0.000000 1.873670 0.000000 
#    z -0.008940 0.000000 1.848580 
# 
# From -- ./inp_files/72373.got.cif
#   From: 2010.03.12/outbox.cif.g09.slc.cpg/sg14_37_cif.got.tgz:72373.got - 2010.03.31 13:35:05.
