data_PCOD8127044
_publ_section_title
;
Structure prediction by ZEFSAII (Michael W. Deem and Ramdas Pophale) SiO2 
 PCOD8127044
Probable space group: P 21/C
;
_chemical_formula_sum "Si O2"
_cell_formula_units_Z 32
_cell_length_a 14.200929
_cell_length_b 8.548488
_cell_length_c 10.808026
_cell_angle_alpha 90.000000
_cell_angle_beta 87.225657
_cell_angle_gamma 90.000000
_cell_volume 1310.518371
_symmetry_space_group_name_H-M "P 21/C"
_symmetry_group_IT_number 14
_symmetry_cell_setting 'monoclinic'
loop_
_space_group_symop_operation_xyz
x,y,z
-x,1/2+y,1/2-z
-x,-y,-z
x,1/2-y,1/2+z
loop_
_atom_site_type_symbol
_atom_site_label
_atom_site_fract_x
_atom_site_fract_y
_atom_site_fract_z
Si Si1 0.326127 0.652465 0.639929
Si Si2 0.670842 0.860298 0.603420
Si Si3 0.865032 0.486355 0.061158
Si Si4 0.132115 0.838311 0.057842
Si Si5 0.387252 0.308138 0.631735
Si Si6 0.949608 0.498135 0.646527
Si Si7 0.963060 0.672595 0.862425
Si Si8 0.596044 0.317171 0.104506
O O1 0.213795 0.610163 0.648128
O O2 0.386405 0.494857 0.622686
O O3 0.345933 0.758415 0.518536
O O4 0.354029 0.734829 0.768493
O O5 0.650326 0.756808 0.728675
O O6 0.676139 0.760104 0.477069
O O7 0.766609 0.956984 0.623396
O O8 0.590179 0.993739 0.596726
O O9 0.852036 0.346431 0.962763
O O10 0.914830 0.639097 0.997119
O O11 0.934434 0.414149 0.160135
O O12 0.138905 0.944415 0.932021
O O13 0.021059 0.865946 0.093986
O O14 0.492491 0.251430 0.605731
O O15 0.898990 0.580728 0.766029
O O16 0.021585 0.353536 0.668060
#
# Coordination Sequence:
#
# PCOD8127044 Si02
#       8
#     4   4   4   4   4   4   4   4
#     4  11  25  43  74 104 139 185 231 301 342 442
#     4  11  25  46  73 103 142 188 228 299 345 441
#     4  10  22  42  62  97 134 181 237 279 351 408
#     4  10  22  43  62 100 135 184 239 284 352 413
#     4  11  26  46  70 106 143 179 235 296 360 424
#     4  10  22  39  67  92 142 181 231 294 343 421
#     4  10  22  38  66  93 137 185 226 293 344 415
#     4  11  24  47  72 101 140 187 229 292 367 417
#
# _framework density 24.417818
#
# number of rings (size 3 to 8) (size 9 to 14) (size 15 to 20)
#    0.000    1.500    1.250    2.250    5.250    5.000 
#    2.250    0.000    0.000    0.000    0.000    0.000 
#    0.000    0.000    0.000    0.000    0.000    0.000 
#
# Total GULP energy -396425.755154 kJ/mol
# GULP energy per Si atom -12388.304849 kJ/mol
# Density = 2.436224 g / cm^3
# Si number density = 24.417818 Si / 1000 Ang^3
#
#
#
# Elastic Constant Matrix: (Units=GPa)
#
#
# Indices 1 2 3 4 5 6 
#
# 1 79.4651 -1.5798 2.0340 0.0000 3.3026 0.0000
# 2 -1.5798 45.3141 26.8847 0.0000 -3.5448 0.0000
# 3 2.0340 26.8847 134.3074 0.0000 14.8472 0.0000
# 4 0.0000 0.0000 0.0000 45.9681 0.0000 3.3127
# 5 3.3026 -3.5448 14.8472 0.0000 32.4757 0.0000
# 6 0.0000 0.0000 0.0000 3.3127 0.0000 24.4568
#
#
#
# Elastic Compliance Matrix: (Units=1/GPa)
#
#
# Indices 1 2 3 4 5 6 
#
# 1 0.012645 0.000438 -0.000150 0.000000 -0.001170 0.000000
# 2 0.000438 0.025952 -0.005803 0.000000 0.005441 0.000000
# 3 -0.000150 -0.005803 0.009140 0.000000 -0.004797 0.000000
# 4 0.000000 0.000000 0.000000 0.021969 0.000000 -0.002976
# 5 -0.001170 0.005441 -0.004797 0.000000 0.033698 0.000000
# 6 0.000000 0.000000 0.000000 -0.002976 0.000000 0.041292
#
#
# Mechanical properties :
#
#
# Convention : Reuss Voigt Hill
#
# Bulk Modulus (GPa) = 27.24221 34.86271 31.05246
# Shear Modulus (GPa) = 29.76891 36.02997 32.89944
#
# Velocity S-wave (km/s) = 3.49542 3.84547 3.67461
# Velocity P-wave (km/s) = 5.24133 5.83313 5.54513
#
# Compressibility (1/GPa) = 0.03670774
#
# Stress axis : x y z
#
# Youngs Moduli (GPa) = 79.08074 38.53264 109.41229
#
# Poissons Ratio (x) = -0.01689 0.01641
# Poissons Ratio (y) = -0.03466 0.63492
# Poissons Ratio (z) = 0.01186 0.22361
#
# Static dielectric constant tensor:
#      x y z
#    x 4.196630 0.000000 0.234370 
#    y 0.000000 4.322440 0.000000 
#    z 0.234370 0.000000 4.912970 
# 
# 
# High freq. dielectric constant tensor:
#      x y z
#    x 1.950910 0.000000 0.009510 
#    y 0.000000 1.965220 0.000000 
#    z 0.009510 0.000000 1.986740 
# 
# From -- ./inp_files/31845.got.cif
#   From: 2010.03.12/outbox.cif.g09.slc.cpg/sg14_16_cif.got.tgz:31845.got - 2010.03.31 13:35:05.
