data_PCOD8127813
_publ_section_title
;
Structure prediction by ZEFSAII (Michael W. Deem and Ramdas Pophale) SiO2 
 PCOD8127813
Probable space group: P 21/C
;
_chemical_formula_sum "Si O2"
_cell_formula_units_Z 24
_cell_length_a 8.868200
_cell_length_b 8.667206
_cell_length_c 13.726005
_cell_angle_alpha 90.000000
_cell_angle_beta 98.703215
_cell_angle_gamma 90.000000
_cell_volume 1042.867201
_symmetry_space_group_name_H-M "P 21/C"
_symmetry_group_IT_number 14
_symmetry_cell_setting 'monoclinic'
loop_
_space_group_symop_operation_xyz
x,y,z
-x,1/2+y,1/2-z
-x,-y,-z
x,1/2-y,1/2+z
loop_
_atom_site_type_symbol
_atom_site_label
_atom_site_fract_x
_atom_site_fract_y
_atom_site_fract_z
Si Si1 0.452300 0.265476 0.855839
Si Si2 0.629378 0.416412 0.225374
Si Si3 0.186432 0.288595 0.961799
Si Si4 0.998901 0.798320 0.884261
Si Si5 0.965630 0.366200 0.304759
Si Si6 0.286689 0.860175 0.475961
O O1 0.371764 0.399489 0.785107
O O2 0.490514 0.133073 0.781649
O O3 0.331176 0.204224 0.924328
O O4 0.602473 0.330074 0.923212
O O5 0.783305 0.360217 0.292837
O O6 0.617862 0.343213 0.115766
O O7 0.217367 0.468906 0.977843
O O8 0.036911 0.265707 0.880048
O O9 0.151743 0.208715 0.062425
O O10 0.980975 0.667663 0.800178
O O11 0.148249 0.761406 0.964230
O O12 0.025648 0.966234 0.841912
#
# Coordination Sequence:
#
# PCOD8127813 Si02
#       6
#     4   4   4   4   4   4
#     4  11  24  43  66  94 128 171 213 262 324 379
#     4  10  23  42  63  91 128 166 215 263 314 385
#     4  11  23  41  66  94 126 168 213 263 317 375
#     4  11  23  42  66  95 130 168 214 268 317 379
#     4  11  24  42  65  97 129 167 217 265 316 376
#     4  10  23  42  65  93 127 172 213 259 322 382
#
# _framework density 23.013477999999999
#
# number of rings (size 3 to 8) (size 9 to 14) (size 15 to 20)
#    0.000    1.333    0.000    7.000    0.000   10.667 
#    0.000    2.500    0.000    0.000    0.000    0.000 
#    0.000    0.000    0.000    0.000    0.000    0.000 
#
# Total GULP energy -297624.557310 kJ/mol
# GULP energy per Si atom -12401.023221 kJ/mol
# Density = 2.296110 g / cm^3
# Si number density = 23.013478 Si / 1000 Ang^3
#
#
#
# Elastic Constant Matrix: (Units=GPa)
#
#
# Indices 1 2 3 4 5 6 
#
# 1 94.1239 34.8340 53.4354 0.0000 -35.1709 0.0000
# 2 34.8340 56.6810 29.1525 0.0000 -11.0253 0.0000
# 3 53.4354 29.1525 97.2169 0.0000 -10.9659 0.0000
# 4 0.0000 0.0000 0.0000 33.7075 0.0000 3.4436
# 5 -35.1709 -11.0253 -10.9659 0.0000 50.0255 0.0000
# 6 0.0000 0.0000 0.0000 3.4436 0.0000 38.3079
#
#
#
# Elastic Compliance Matrix: (Units=1/GPa)
#
#
# Indices 1 2 3 4 5 6 
#
# 1 0.023237 -0.007058 -0.009216 0.000000 0.012761 0.000000
# 2 -0.007058 0.023552 -0.003237 0.000000 -0.000481 0.000000
# 3 -0.009216 -0.003237 0.015905 0.000000 -0.003707 0.000000
# 4 0.000000 0.000000 0.000000 0.029942 0.000000 -0.002692
# 5 0.012761 -0.000481 -0.003707 0.000000 0.028043 0.000000
# 6 0.000000 0.000000 0.000000 -0.002692 0.000000 0.026346
#
#
# Mechanical properties :
#
#
# Convention : Reuss Voigt Hill
#
# Bulk Modulus (GPa) = 42.24753 53.65172 47.94963
# Shear Modulus (GPa) = 25.78142 33.11483 29.44813
#
# Velocity S-wave (km/s) = 3.35068 3.79744 3.58104
# Velocity P-wave (km/s) = 5.77642 6.52619 6.16272
#
# Compressibility (1/GPa) = 0.02367002
#
# Stress axis : x y z
#
# Youngs Moduli (GPa) = 43.03468 42.45986 62.87466
#
# Poissons Ratio (x) = 0.29969 0.57947
# Poissons Ratio (y) = 0.30375 0.20354
# Poissons Ratio (z) = 0.39662 0.13745
#
# Static dielectric constant tensor:
#      x y z
#    x 4.257750 0.000000 -0.098370 
#    y 0.000000 3.823570 0.000000 
#    z -0.098370 0.000000 4.311320 
# 
# 
# High freq. dielectric constant tensor:
#      x y z
#    x 1.910680 0.000000 -0.005090 
#    y 0.000000 1.888060 0.000000 
#    z -0.005090 0.000000 1.922780 
# 
# From -- ./inp_files/39043.got.cif
#   From: 2010.03.12/outbox.cif.g09.slc.cpg/sg14_20_cif.got.tgz:39043.got - 2010.03.31 13:35:05.
