data_PCOD8127227
_publ_section_title
;
Structure prediction by ZEFSAII (Michael W. Deem and Ramdas Pophale) SiO2 
 PCOD8127227
Probable space group: P 21/C
;
_chemical_formula_sum "Si O2"
_cell_formula_units_Z 28
_cell_length_a 21.155199
_cell_length_b 13.535773
_cell_length_c 9.378644
_cell_angle_alpha 90.000000
_cell_angle_beta 30.479105
_cell_angle_gamma 90.000000
_cell_volume 1362.197606
_symmetry_space_group_name_H-M "P 21/C"
_symmetry_group_IT_number 14
_symmetry_cell_setting 'monoclinic'
loop_
_space_group_symop_operation_xyz
x,y,z
-x,1/2+y,1/2-z
-x,-y,-z
x,1/2-y,1/2+z
loop_
_atom_site_type_symbol
_atom_site_label
_atom_site_fract_x
_atom_site_fract_y
_atom_site_fract_z
Si Si1 0.801311 0.285077 0.747689
Si Si2 0.718931 0.759889 0.206978
Si Si3 0.980288 0.064219 0.760730
Si Si4 0.233601 0.052226 0.396345
Si Si5 0.029762 0.144246 0.361224
Si Si6 0.383271 0.149429 0.329778
Si Si7 0.328987 0.847651 0.208715
O O1 0.688835 0.240283 0.870731
O O2 0.859287 0.380677 0.557407
O O3 0.900929 0.197432 0.572117
O O4 0.747061 0.319824 0.002604
O O5 0.716610 0.649781 0.284922
O O6 0.643712 0.751603 0.203843
O O7 0.653356 0.839903 0.433878
O O8 0.861454 0.782049 0.893882
O O9 0.083077 0.056363 0.686813
O O10 0.035105 0.124163 0.519423
O O11 0.946303 0.954757 0.775176
O O12 0.295044 0.061613 0.436720
O O13 0.275908 0.949432 0.244358
O O14 0.528622 0.128405 0.033022
#
# Coordination Sequence:
#
# PCOD8127227 Si02
#       7
#     4   4   4   4   4   4   4
#     4  12  24  41  68  94 129 173 204 266 327 378
#     4  10  22  40  67  90 125 169 208 260 314 367
#     4  11  23  41  63  96 130 164 206 264 329 374
#     4  10  23  39  68  92 125 164 214 265 310 373
#     4  11  23  41  63  95 135 159 212 263 317 391
#     4  10  23  43  63  92 127 169 213 261 302 381
#     4  12  25  44  64  95 130 168 216 260 322 375
#
# _framework density 20.555021
#
# number of rings (size 3 to 8) (size 9 to 14) (size 15 to 20)
#    0.857    0.286    4.286    2.143    2.000    1.714 
#    0.000    0.000    0.000    3.429    0.000    0.000 
#    0.000    0.000    0.000    0.000    0.000    0.000 
#
# Total GULP energy -346955.767933 kJ/mol
# GULP energy per Si atom -12391.277426 kJ/mol
# Density = 2.050824 g / cm^3
# Si number density = 20.555021 Si / 1000 Ang^3
#
#
#
# Elastic Constant Matrix: (Units=GPa)
#
#
# Indices 1 2 3 4 5 6 
#
# 1 72.8954 21.4827 18.0321 0.0000 -15.5851 0.0000
# 2 21.4827 78.5890 21.3507 0.0000 0.1672 0.0000
# 3 18.0321 21.3507 67.1425 0.0000 -0.0385 0.0000
# 4 0.0000 0.0000 0.0000 18.8524 0.0000 -1.5762
# 5 -15.5851 0.1672 -0.0385 0.0000 25.8710 0.0000
# 6 0.0000 0.0000 0.0000 -1.5762 0.0000 32.4077
#
#
#
# Elastic Compliance Matrix: (Units=1/GPa)
#
#
# Indices 1 2 3 4 5 6 
#
# 1 0.018124 -0.004003 -0.003588 0.000000 0.010939 0.000000
# 2 -0.004003 0.014812 -0.003636 0.000000 -0.002512 0.000000
# 3 -0.003588 -0.003636 0.017013 0.000000 -0.002113 0.000000
# 4 0.000000 0.000000 0.000000 0.053260 0.000000 0.002590
# 5 0.010939 -0.002512 -0.002113 0.000000 0.045256 0.000000
# 6 0.000000 0.000000 0.000000 0.002590 0.000000 0.030983
#
#
# Mechanical properties :
#
#
# Convention : Reuss Voigt Hill
#
# Bulk Modulus (GPa) = 36.37233 37.81754 37.09493
# Shear Modulus (GPa) = 23.68907 25.94366 24.81637
#
# Velocity S-wave (km/s) = 3.39849 3.55654 3.47841
# Velocity P-wave (km/s) = 5.75614 5.94167 5.84964
#
# Compressibility (1/GPa) = 0.02749343
#
# Stress axis : x y z
#
# Youngs Moduli (GPa) = 55.17446 67.51330 58.78006
#
# Poissons Ratio (x) = 0.27024 0.21093
# Poissons Ratio (y) = 0.22085 0.21375
# Poissons Ratio (z) = 0.19799 0.24551
#
# Static dielectric constant tensor:
#      x y z
#    x 3.765800 0.000000 -0.081300 
#    y 0.000000 3.744120 0.000000 
#    z -0.081300 0.000000 3.386630 
# 
# 
# High freq. dielectric constant tensor:
#      x y z
#    x 1.806150 0.000000 -0.011140 
#    y 0.000000 1.809290 0.000000 
#    z -0.011140 0.000000 1.782720 
# 
# From -- ./inp_files/19109.got.cif
#   From: 2010.03.12/outbox.cif.g09.slc.cpg/sg14_10_cif.got.tgz:19109.got - 2010.03.31 13:35:05.
