data_PCOD8127667
_publ_section_title
;
Structure prediction by ZEFSAII (Michael W. Deem and Ramdas Pophale) SiO2 
 PCOD8127667
Probable space group: P 21/C
;
_chemical_formula_sum "Si O2"
_cell_formula_units_Z 28
_cell_length_a 6.170697
_cell_length_b 10.982610
_cell_length_c 20.149555
_cell_angle_alpha 90.000000
_cell_angle_beta 59.109795
_cell_angle_gamma 90.000000
_cell_volume 1171.844022
_symmetry_space_group_name_H-M "P 21/C"
_symmetry_group_IT_number 14
_symmetry_cell_setting 'monoclinic'
loop_
_space_group_symop_operation_xyz
x,y,z
-x,1/2+y,1/2-z
-x,-y,-z
x,1/2-y,1/2+z
loop_
_atom_site_type_symbol
_atom_site_label
_atom_site_fract_x
_atom_site_fract_y
_atom_site_fract_z
Si Si1 0.540108 0.333225 0.902634
Si Si2 0.680670 0.828239 0.265996
Si Si3 0.454626 0.412518 0.656662
Si Si4 0.701806 0.242560 0.018429
Si Si5 0.790111 0.865174 0.107352
Si Si6 0.751087 0.042227 0.612108
Si Si7 0.974878 0.998068 0.302571
O O1 0.448845 0.206282 0.885968
O O2 0.310996 0.429888 0.927377
O O3 0.784897 0.386560 0.825712
O O4 0.596548 0.312618 0.971196
O O5 0.546293 0.697516 0.290657
O O6 0.843903 0.823820 0.173983
O O7 0.464049 0.931884 0.298128
O O8 0.852120 0.867744 0.302173
O O9 0.477036 0.345838 0.580908
O O10 0.705835 0.494242 0.622796
O O11 0.196667 0.484303 0.713225
O O12 0.788814 0.339966 0.060261
O O13 0.945496 0.156505 0.970059
O O14 0.979845 0.008384 0.624991
#
# Coordination Sequence:
#
# PCOD8127667 Si02
#       7
#     4   4   4   4   4   4   4
#     4  11  25  44  73 104 143 188 242 294 353 419
#     4  10  24  44  71 102 134 185 240 296 355 419
#     4  11  25  46  69 103 143 183 233 291 364 420
#     4  11  26  45  69 105 151 190 229 288 367 434
#     4  12  26  45  69 105 147 189 235 295 357 432
#     4  10  22  46  73 103 138 186 243 296 347 416
#     4  11  24  46  77 104 133 187 249 303 342 419
#
# _framework density 23.893965000000001
#
# number of rings (size 3 to 8) (size 9 to 14) (size 15 to 20)
#    0.000    1.143    1.429    3.429    6.000    6.286 
#    5.143    0.000    0.000    0.000    0.000    0.000 
#    0.000    0.000    0.000    0.000    0.000    0.000 
#
# Total GULP energy -346910.806976 kJ/mol
# GULP energy per Si atom -12389.671678 kJ/mol
# Density = 2.383958 g / cm^3
# Si number density = 23.893965 Si / 1000 Ang^3
#
#
#
# Elastic Constant Matrix: (Units=GPa)
#
#
# Indices 1 2 3 4 5 6 
#
# 1 105.3260 44.0720 38.7658 0.0000 14.3776 0.0000
# 2 44.0720 125.7103 44.6647 0.0000 4.9312 0.0000
# 3 38.7658 44.6647 126.7339 0.0000 6.6866 0.0000
# 4 0.0000 0.0000 0.0000 37.1604 0.0000 -3.6561
# 5 14.3776 4.9312 6.6866 0.0000 20.1302 0.0000
# 6 0.0000 0.0000 0.0000 -3.6561 0.0000 35.9279
#
#
#
# Elastic Compliance Matrix: (Units=1/GPa)
#
#
# Indices 1 2 3 4 5 6 
#
# 1 0.012786 -0.003359 -0.002330 0.000000 -0.007535 0.000000
# 2 -0.003359 0.010004 -0.002540 0.000000 0.000792 0.000000
# 3 -0.002330 -0.002540 0.009545 0.000000 -0.000885 0.000000
# 4 0.000000 0.000000 0.000000 0.027183 0.000000 0.002766
# 5 -0.007535 0.000792 -0.000885 0.000000 0.055158 0.000000
# 6 0.000000 0.000000 0.000000 0.002766 0.000000 0.028115
#
#
# Mechanical properties :
#
#
# Convention : Reuss Voigt Hill
#
# Bulk Modulus (GPa) = 62.98301 68.08614 65.53457
# Shear Modulus (GPa) = 30.38767 33.99489 32.19128
#
# Velocity S-wave (km/s) = 3.57006 3.77601 3.67448
# Velocity P-wave (km/s) = 6.58865 6.89696 6.74457
#
# Compressibility (1/GPa) = 0.01587730
#
# Stress axis : x y z
#
# Youngs Moduli (GPa) = 78.21060 99.96147 104.76781
#
# Poissons Ratio (x) = 0.33580 0.24406
# Poissons Ratio (y) = 0.26273 0.26610
# Poissons Ratio (z) = 0.18219 0.25389
#
# Static dielectric constant tensor:
#      x y z
#    x 4.108010 0.000000 -0.165650 
#    y 0.000000 4.427400 0.000000 
#    z -0.165650 0.000000 4.463710 
# 
# 
# High freq. dielectric constant tensor:
#      x y z
#    x 1.926810 0.000000 -0.005560 
#    y 0.000000 1.957460 0.000000 
#    z -0.005560 0.000000 1.957940 
# 
# From -- ./inp_files/63426.got.cif
#   From: 2010.03.12/outbox.cif.g09.slc.cpg/sg14_32_cif.got.tgz:63426.got - 2010.03.31 13:35:05.
