data_PCOD8127612
_publ_section_title
;
Structure prediction by ZEFSAII (Michael W. Deem and Ramdas Pophale) SiO2 
 PCOD8127612
Probable space group: P 21/C
;
_chemical_formula_sum "Si O2"
_cell_formula_units_Z 24
_cell_length_a 11.060617
_cell_length_b 9.221326
_cell_length_c 10.923197
_cell_angle_alpha 90.000000
_cell_angle_beta 101.856842
_cell_angle_gamma 90.000000
_cell_volume 1090.325384
_symmetry_space_group_name_H-M "P 21/C"
_symmetry_group_IT_number 14
_symmetry_cell_setting 'monoclinic'
loop_
_space_group_symop_operation_xyz
x,y,z
-x,1/2+y,1/2-z
-x,-y,-z
x,1/2-y,1/2+z
loop_
_atom_site_type_symbol
_atom_site_label
_atom_site_fract_x
_atom_site_fract_y
_atom_site_fract_z
Si Si1 0.885049 0.713536 0.735638
Si Si2 0.273110 0.777462 0.165751
Si Si3 0.337119 0.372610 0.432428
Si Si4 0.409661 0.688126 0.433222
Si Si5 0.049881 0.926908 0.631157
Si Si6 0.128283 0.048970 0.078328
O O1 0.734799 0.714860 0.688552
O O2 0.941514 0.551058 0.761919
O O3 0.906436 0.804613 0.860782
O O4 0.957092 0.796194 0.642708
O O5 0.360710 0.776145 0.304952
O O6 0.187368 0.635832 0.143237
O O7 0.191750 0.921566 0.170721
O O8 0.344050 0.778521 0.049898
O O9 0.398686 0.519268 0.394344
O O10 0.444094 0.276224 0.518750
O O11 0.221644 0.411859 0.491675
O O12 0.000000 0.000000 0.500000
O O13 0.000000 0.000000 0.000000
#
# Coordination Sequence:
#
# PCOD8127612 Si02
#       6
#     4   4   4   4   4   4
#     4  12  24  42  69  97 138 179 235 292 363 424
#     4  11  24  45  71 103 138 186 236 294 359 427
#     4  10  22  45  65  99 138 189 225 283 358 428
#     4  10  24  44  73  97 143 185 233 288 355 422
#     4  12  26  41  68 103 138 181 238 300 359 440
#     4  11  24  43  69 100 141 184 234 292 362 418
#
# _framework density 22.011778
#
# number of rings (size 3 to 8) (size 9 to 14) (size 15 to 20)
#    0.000    1.000    1.667    5.000    9.333    0.000 
#    0.000    0.833    0.000    0.000    0.000    0.000 
#    0.000    0.000    0.000    0.000    0.000    0.000 
#
# Total GULP energy -297459.169568 kJ/mol
# GULP energy per Si atom -12394.132065 kJ/mol
# Density = 2.196168 g / cm^3
# Si number density = 22.011778 Si / 1000 Ang^3
#
#
#
# Elastic Constant Matrix: (Units=GPa)
#
#
# Indices 1 2 3 4 5 6 
#
# 1 135.3303 39.4084 54.7798 0.0000 33.9585 0.0000
# 2 39.4084 100.2624 34.8317 0.0000 14.6774 0.0000
# 3 54.7798 34.8317 125.9595 0.0000 21.5222 0.0000
# 4 0.0000 0.0000 0.0000 38.8622 0.0000 4.8792
# 5 33.9585 14.6774 21.5222 0.0000 42.4963 0.0000
# 6 0.0000 0.0000 0.0000 4.8792 0.0000 31.3807
#
#
#
# Elastic Compliance Matrix: (Units=1/GPa)
#
#
# Indices 1 2 3 4 5 6 
#
# 1 0.010874 -0.002297 -0.003005 0.000000 -0.006374 0.000000
# 2 -0.002297 0.011763 -0.002051 0.000000 -0.001189 0.000000
# 3 -0.003005 -0.002051 0.010161 0.000000 -0.002037 0.000000
# 4 0.000000 0.000000 0.000000 0.026244 0.000000 -0.004081
# 5 -0.006374 -0.001189 -0.002037 0.000000 0.030067 0.000000
# 6 0.000000 0.000000 0.000000 -0.004081 0.000000 0.032501
#
#
# Mechanical properties :
#
#
# Convention : Reuss Voigt Hill
#
# Bulk Modulus (GPa) = 55.27055 68.84357 62.05706
# Shear Modulus (GPa) = 35.12553 38.05001 36.58777
#
# Velocity S-wave (km/s) = 3.99903 4.16218 4.08142
# Velocity P-wave (km/s) = 6.81814 7.37848 7.10384
#
# Compressibility (1/GPa) = 0.01809282
#
# Stress axis : x y z
#
# Youngs Moduli (GPa) = 91.96242 85.01129 98.41632
#
# Poissons Ratio (x) = 0.19528 0.29572
# Poissons Ratio (y) = 0.21124 0.20183
# Poissons Ratio (z) = 0.27632 0.17434
#
# Static dielectric constant tensor:
#      x y z
#    x 4.214870 0.000000 0.312320 
#    y 0.000000 4.359550 0.000000 
#    z 0.312320 0.000000 4.128370 
# 
# 
# High freq. dielectric constant tensor:
#      x y z
#    x 1.871220 0.000000 0.015440 
#    y 0.000000 1.864770 0.000000 
#    z 0.015440 0.000000 1.874590 
# 
# From -- ./inp_files/28203.got.cif
#   From: 2010.03.12/outbox.cif.g09.slc.cpg/sg14_15_cif.got.tgz:28203.got - 2010.03.31 13:35:05.
