data_PCOD8127095
_publ_section_title
;
Structure prediction by ZEFSAII (Michael W. Deem and Ramdas Pophale) SiO2 
 PCOD8127095
Probable space group: P 21/C
;
_chemical_formula_sum "Si O2"
_cell_formula_units_Z 32
_cell_length_a 11.235451
_cell_length_b 8.136683
_cell_length_c 27.484877
_cell_angle_alpha 90.000000
_cell_angle_beta 33.528195
_cell_angle_gamma 90.000000
_cell_volume 1387.854430
_symmetry_space_group_name_H-M "P 21/C"
_symmetry_group_IT_number 14
_symmetry_cell_setting 'monoclinic'
loop_
_space_group_symop_operation_xyz
x,y,z
-x,1/2+y,1/2-z
-x,-y,-z
x,1/2-y,1/2+z
loop_
_atom_site_type_symbol
_atom_site_label
_atom_site_fract_x
_atom_site_fract_y
_atom_site_fract_z
Si Si1 0.973142 0.192079 0.903540
Si Si2 0.124393 0.683540 0.763408
Si Si3 0.647964 0.637277 0.278387
Si Si4 0.350820 0.249367 0.568006
Si Si5 0.519396 0.385999 0.813595
Si Si6 0.581736 0.122606 0.575350
Si Si7 0.269465 0.886673 0.112459
Si Si8 0.657230 0.562179 0.676353
O O1 0.856147 0.119797 0.896126
O O2 0.177037 0.305270 0.820512
O O3 0.084316 0.053056 0.900526
O O4 0.813504 0.293230 0.992329
O O5 0.253854 0.519945 0.729207
O O6 0.130182 0.701170 0.702291
O O7 0.880808 0.673392 0.867057
O O8 0.240666 0.835716 0.750170
O O9 0.597345 0.774141 0.334844
O O10 0.420967 0.588349 0.330247
O O11 0.477625 0.112447 0.556918
O O12 0.500609 0.291149 0.470226
O O13 0.313268 0.421830 0.609709
O O14 0.391383 0.449308 0.905514
O O15 0.538009 0.538945 0.769603
O O16 0.400559 0.234005 0.829367
#
# Coordination Sequence:
#
# PCOD8127095 Si02
#       8
#     4   4   4   4   4   4   4   4
#     4  11  23  40  68  91 130 170 209 267 328 368
#     4  11  24  38  68  94 125 179 209 263 328 379
#     4  11  23  43  62  95 130 163 224 269 311 384
#     4  10  22  39  62  96 134 169 213 262 317 388
#     4  11  23  41  67  94 125 166 219 264 322 382
#     4  11  23  40  65  95 129 168 209 267 324 384
#     4  10  22  40  63  97 132 167 217 264 313 392
#     4  11  22  43  66  90 125 169 213 272 317 377
#
# _framework density 23.057175000000001
#
# number of rings (size 3 to 8) (size 9 to 14) (size 15 to 20)
#    0.000    1.250    3.750    1.500    1.750    2.000 
#    0.000    2.500    0.000    0.000    0.000    0.000 
#    0.000    0.000    0.000    0.000    0.000    0.000 
#
# Total GULP energy -396593.461453 kJ/mol
# GULP energy per Si atom -12393.545670 kJ/mol
# Density = 2.300470 g / cm^3
# Si number density = 23.057175 Si / 1000 Ang^3
#
#
#
# Elastic Constant Matrix: (Units=GPa)
#
#
# Indices 1 2 3 4 5 6 
#
# 1 81.1218 11.6708 7.5943 0.0000 -14.1647 0.0000
# 2 11.6708 52.5649 1.0978 0.0000 8.7488 0.0000
# 3 7.5943 1.0978 80.1507 0.0000 -18.7870 0.0000
# 4 0.0000 0.0000 0.0000 22.7510 0.0000 2.6684
# 5 -14.1647 8.7488 -18.7870 0.0000 32.1979 0.0000
# 6 0.0000 0.0000 0.0000 2.6684 0.0000 27.6335
#
#
#
# Elastic Compliance Matrix: (Units=1/GPa)
#
#
# Indices 1 2 3 4 5 6 
#
# 1 0.014287 -0.004485 0.000541 0.000000 0.007819 0.000000
# 2 -0.004485 0.021556 -0.001976 0.000000 -0.008983 0.000000
# 3 0.000541 -0.001976 0.014636 0.000000 0.009314 0.000000
# 4 0.000000 0.000000 0.000000 0.044458 0.000000 -0.004293
# 5 0.007819 -0.008983 0.009314 0.000000 0.042373 0.000000
# 6 0.000000 0.000000 0.000000 -0.004293 0.000000 0.036603
#
#
# Mechanical properties :
#
#
# Convention : Reuss Voigt Hill
#
# Bulk Modulus (GPa) = 25.88093 28.28479 27.08286
# Shear Modulus (GPa) = 25.17213 29.41479 27.29346
#
# Velocity S-wave (km/s) = 3.30771 3.57561 3.44427
# Velocity P-wave (km/s) = 5.08301 5.41669 5.25250
#
# Compressibility (1/GPa) = 0.03863849
#
# Stress axis : x y z
#
# Youngs Moduli (GPa) = 69.99328 46.39023 68.32662
#
# Poissons Ratio (x) = 0.20805 -0.03693
# Poissons Ratio (y) = 0.31391 0.13501
# Poissons Ratio (z) = -0.03783 0.09166
#
# Static dielectric constant tensor:
#      x y z
#    x 4.468110 0.000000 -0.082620 
#    y 0.000000 4.133130 0.000000 
#    z -0.082620 0.000000 4.089310 
# 
# 
# High freq. dielectric constant tensor:
#      x y z
#    x 1.920130 0.000000 -0.002220 
#    y 0.000000 1.901940 0.000000 
#    z -0.002220 0.000000 1.897960 
# 
# From -- ./inp_files/79937.got.cif
#   From: 2010.03.12/outbox.cif.g09.slc.cpg/sg14_40_cif.got.tgz:79937.got - 2010.03.31 13:35:05.
