data_PCOD8127606
_publ_section_title
;
Structure prediction by ZEFSAII (Michael W. Deem and Ramdas Pophale) SiO2 
 PCOD8127606
Probable space group: P 21/C
;
_chemical_formula_sum "Si O2"
_cell_formula_units_Z 32
_cell_length_a 22.243315
_cell_length_b 8.634709
_cell_length_c 13.930574
_cell_angle_alpha 90.000000
_cell_angle_beta 32.085206
_cell_angle_gamma 90.000000
_cell_volume 1421.208534
_symmetry_space_group_name_H-M "P 21/C"
_symmetry_group_IT_number 14
_symmetry_cell_setting 'monoclinic'
loop_
_space_group_symop_operation_xyz
x,y,z
-x,1/2+y,1/2-z
-x,-y,-z
x,1/2-y,1/2+z
loop_
_atom_site_type_symbol
_atom_site_label
_atom_site_fract_x
_atom_site_fract_y
_atom_site_fract_z
Si Si1 0.536882 0.672848 0.970203
Si Si2 0.299084 0.684352 0.352629
Si Si3 0.171171 0.901827 0.672881
Si Si4 0.931134 0.656006 0.809187
Si Si5 0.084905 0.415728 0.959065
Si Si6 0.270659 0.306977 0.135589
Si Si7 0.303651 0.170866 0.901149
Si Si8 0.863334 0.263448 0.087103
O O1 0.424849 0.755878 0.162652
O O2 0.500000 0.500000 0.000000
O O3 0.643607 0.676440 0.894975
O O4 0.589075 0.744086 0.801651
O O5 0.244268 0.793653 0.505511
O O6 0.297382 0.511681 0.394187
O O7 0.234158 0.674336 0.338426
O O8 0.113838 0.801151 0.835807
O O9 0.078897 0.989639 0.731578
O O10 0.251714 0.025352 0.615442
O O11 0.019907 0.756537 0.629951
O O12 0.975580 0.633679 0.858635
O O13 0.811787 0.744518 0.974284
O O14 0.149829 0.267383 0.829073
O O15 0.173472 0.555276 0.861527
O O16 0.000000 0.500000 0.000000
O O17 0.328401 0.196051 0.979213
#
# Coordination Sequence:
#
# PCOD8127606 Si02
#       8
#     4   4   4   4   4   4   4   4
#     4  10  22  44  72 101 136 185 237 294 361 421
#     4  11  25  43  69 102 138 181 235 300 357 420
#     4  11  24  46  65 103 137 181 239 287 360 430
#     4  11  25  44  70  98 141 187 234 288 360 435
#     4  12  26  44  68 103 140 186 240 285 361 434
#     4  11  24  44  72  99 140 188 234 294 359 428
#     4  10  22  45  69  99 135 186 234 288 360 431
#     4  12  27  42  68 100 142 182 231 294 356 431
#
# _framework density 22.516048000000001
#
# number of rings (size 3 to 8) (size 9 to 14) (size 15 to 20)
#    0.000    1.000    2.500    4.125    5.250    3.000 
#    0.000    5.625    0.000    0.000    0.000    0.000 
#    0.000    0.000    0.000    0.000    0.000    0.000 
#
# Total GULP energy -396664.436565 kJ/mol
# GULP energy per Si atom -12395.763643 kJ/mol
# Density = 2.246480 g / cm^3
# Si number density = 22.516048 Si / 1000 Ang^3
#
#
#
# Elastic Constant Matrix: (Units=GPa)
#
#
# Indices 1 2 3 4 5 6 
#
# 1 98.8391 12.2145 52.4074 0.0000 22.9943 0.0000
# 2 12.2145 79.7216 26.2347 0.0000 8.1689 0.0000
# 3 52.4074 26.2347 135.2010 0.0000 13.1844 0.0000
# 4 0.0000 0.0000 0.0000 30.4151 0.0000 4.9302
# 5 22.9943 8.1689 13.1844 0.0000 41.0630 0.0000
# 6 0.0000 0.0000 0.0000 4.9302 0.0000 33.1380
#
#
#
# Elastic Compliance Matrix: (Units=1/GPa)
#
#
# Indices 1 2 3 4 5 6 
#
# 1 0.014188 0.000092 -0.004894 0.000000 -0.006392 0.000000
# 2 0.000092 0.013543 -0.002473 0.000000 -0.001952 0.000000
# 3 -0.004894 -0.002473 0.009764 0.000000 0.000098 0.000000
# 4 0.000000 0.000000 0.000000 0.033691 0.000000 -0.005012
# 5 -0.006392 -0.001952 0.000098 0.000000 0.028289 0.000000
# 6 0.000000 0.000000 0.000000 -0.005012 0.000000 0.030923
#
#
# Mechanical properties :
#
#
# Convention : Reuss Voigt Hill
#
# Bulk Modulus (GPa) = 43.58420 55.05274 49.31847
# Shear Modulus (GPa) = 32.76597 35.78359 34.27478
#
# Velocity S-wave (km/s) = 3.81888 3.99086 3.90582
# Velocity P-wave (km/s) = 6.23251 6.76310 6.50322
#
# Compressibility (1/GPa) = 0.02294409
#
# Stress axis : x y z
#
# Youngs Moduli (GPa) = 70.48123 73.83640 102.41816
#
# Poissons Ratio (x) = -0.00677 0.50125
# Poissons Ratio (y) = -0.00646 0.25330
# Poissons Ratio (z) = 0.34495 0.18261
#
# Static dielectric constant tensor:
#      x y z
#    x 4.313860 0.000000 0.256450 
#    y 0.000000 4.229260 0.000000 
#    z 0.256450 0.000000 4.459690 
# 
# 
# High freq. dielectric constant tensor:
#      x y z
#    x 1.896360 0.000000 0.024090 
#    y 0.000000 1.892280 0.000000 
#    z 0.024090 0.000000 1.889590 
# 
# From -- ./inp_files/51256.got.cif
#   From: 2010.03.12/outbox.cif.g09.slc.cpg/sg14_26_cif.got.tgz:51256.got - 2010.03.31 13:35:05.
