data_PCOD8127441
_publ_section_title
;
Structure prediction by ZEFSAII (Michael W. Deem and Ramdas Pophale) SiO2 
 PCOD8127441
Probable space group: P 21/C
;
_chemical_formula_sum "Si O2"
_cell_formula_units_Z 20
_cell_length_a 11.571720
_cell_length_b 8.488847
_cell_length_c 11.909593
_cell_angle_alpha 90.000000
_cell_angle_beta 121.834506
_cell_angle_gamma 90.000000
_cell_volume 993.906110
_symmetry_space_group_name_H-M "P 21/C"
_symmetry_group_IT_number 14
_symmetry_cell_setting 'monoclinic'
loop_
_space_group_symop_operation_xyz
x,y,z
-x,1/2+y,1/2-z
-x,-y,-z
x,1/2-y,1/2+z
loop_
_atom_site_type_symbol
_atom_site_label
_atom_site_fract_x
_atom_site_fract_y
_atom_site_fract_z
Si Si1 0.969045 0.624371 0.148889
Si Si2 0.524634 0.032008 0.141704
Si Si3 0.660497 0.325077 0.301074
Si Si4 0.075648 0.544711 0.652751
Si Si5 0.794694 0.483259 0.881877
O O1 0.945388 0.591037 0.267234
O O2 0.000629 0.806187 0.164859
O O3 0.088184 0.521751 0.152476
O O4 0.832755 0.590755 0.007116
O O5 0.401095 0.952114 0.145449
O O6 0.544394 0.222123 0.174377
O O7 0.662333 0.943653 0.252510
O O8 0.500000 0.000000 0.000000
O O9 0.761962 0.425634 0.274302
O O10 0.758228 0.193462 0.410679
O O11 0.000000 0.500000 0.500000
#
# Coordination Sequence:
#
# PCOD8127441 Si02
#       5
#     4   4   4   4   4
#     4  10  22  43  67  94 135 170 213 288 326 392
#     4  10  22  42  69  86 135 179 217 270 330 385
#     4   9  23  42  62  98 131 168 230 263 322 401
#     4  11  26  41  70 101 133 173 227 273 342 395
#     4   8  21  40  65  90 132 168 223 262 333 379
#
# _framework density 20.122623999999998
#
# number of rings (size 3 to 8) (size 9 to 14) (size 15 to 20)
#    1.200    1.200    0.000    0.000   14.000    1.600 
#    0.000    2.000    0.000    0.000    0.000    0.000 
#    0.000    0.000    0.000    0.000    0.000    0.000 
#
# Total GULP energy -247761.544752 kJ/mol
# GULP energy per Si atom -12388.077238 kJ/mol
# Density = 2.007682 g / cm^3
# Si number density = 20.122624 Si / 1000 Ang^3
#
#
#
# Elastic Constant Matrix: (Units=GPa)
#
#
# Indices 1 2 3 4 5 6 
#
# 1 122.2760 67.7261 67.8220 0.0000 -8.5461 0.0000
# 2 67.7261 85.5860 43.8404 0.0000 -17.4651 0.0000
# 3 67.8220 43.8404 138.4844 0.0000 -16.0002 0.0000
# 4 0.0000 0.0000 0.0000 31.1700 0.0000 1.4791
# 5 -8.5461 -17.4651 -16.0002 0.0000 31.9563 0.0000
# 6 0.0000 0.0000 0.0000 1.4791 0.0000 48.8761
#
#
#
# Elastic Compliance Matrix: (Units=1/GPa)
#
#
# Indices 1 2 3 4 5 6 
#
# 1 0.017445 -0.012039 -0.005258 0.000000 -0.004547 0.000000
# 2 -0.012039 0.023324 -0.000410 0.000000 0.009322 0.000000
# 3 -0.005258 -0.000410 0.010335 0.000000 0.003544 0.000000
# 4 0.000000 0.000000 0.000000 0.032128 0.000000 -0.000972
# 5 -0.004547 0.009322 0.003544 0.000000 0.036946 0.000000
# 6 0.000000 0.000000 0.000000 -0.000972 0.000000 0.020489
#
#
# Mechanical properties :
#
#
# Convention : Reuss Voigt Hill
#
# Bulk Modulus (GPa) = 63.73768 78.34705 71.04236
# Shear Modulus (GPa) = 27.57675 33.53099 30.55387
#
# Velocity S-wave (km/s) = 3.70595 4.08650 3.90087
# Velocity P-wave (km/s) = 7.07499 7.82850 7.46126
#
# Compressibility (1/GPa) = 0.01568931
#
# Stress axis : x y z
#
# Youngs Moduli (GPa) = 57.32319 42.87491 96.75533
#
# Poissons Ratio (x) = 0.51619 0.50870
# Poissons Ratio (y) = 0.69013 0.03971
# Poissons Ratio (z) = 0.30138 0.01760
#
# Static dielectric constant tensor:
#      x y z
#    x 3.719850 0.000000 0.165030 
#    y 0.000000 2.923740 0.000000 
#    z 0.165030 0.000000 3.461580 
# 
# 
# High freq. dielectric constant tensor:
#      x y z
#    x 1.789560 0.000000 0.005370 
#    y 0.000000 1.775120 0.000000 
#    z 0.005370 0.000000 1.771310 
# 
# From -- ./inp_files/27861.got.cif
#   From: 2010.03.12/outbox.cif.g09.slc.cpg/sg14_14_cif.got.tgz:27861.got - 2010.03.31 13:35:05.
