data_PCOD8127900
_publ_section_title
;
Structure prediction by ZEFSAII (Michael W. Deem and Ramdas Pophale) SiO2 
 PCOD8127900
Probable space group: P 21/C
;
_chemical_formula_sum "Si O2"
_cell_formula_units_Z 24
_cell_length_a 18.406485
_cell_length_b 14.607151
_cell_length_c 9.313815
_cell_angle_alpha 90.000000
_cell_angle_beta 151.940075
_cell_angle_gamma 90.000000
_cell_volume 1177.948958
_symmetry_space_group_name_H-M "P 21/C"
_symmetry_group_IT_number 14
_symmetry_cell_setting 'monoclinic'
loop_
_space_group_symop_operation_xyz
x,y,z
-x,1/2+y,1/2-z
-x,-y,-z
x,1/2-y,1/2+z
loop_
_atom_site_type_symbol
_atom_site_label
_atom_site_fract_x
_atom_site_fract_y
_atom_site_fract_z
Si Si1 0.663802 0.103674 0.861930
Si Si2 0.891185 0.249420 0.652790
Si Si3 0.356779 0.890765 0.841236
Si Si4 0.893541 0.757786 0.721758
Si Si5 0.660130 0.602572 0.701151
Si Si6 0.353188 0.391029 0.654421
O O1 0.514250 0.133500 0.510799
O O2 0.695003 0.995665 0.901367
O O3 0.814025 0.153574 0.059472
O O4 0.635267 0.132308 0.976566
O O5 0.768579 0.168927 0.461668
O O6 0.946612 0.245692 0.585458
O O7 0.049179 0.231813 0.015556
O O8 0.311821 0.995071 0.734441
O O9 0.520360 0.864950 0.057588
O O10 0.813121 0.849816 0.526855
O O11 0.779893 0.671243 0.508496
O O12 0.626137 0.629956 0.477855
#
# Coordination Sequence:
#
# PCOD8127900 Si02
#       6
#     4   4   4   4   4   4
#     4  10  23  43  66  89 120 165 208 248 300 364
#     4  12  25  40  62  93 126 163 201 250 309 364
#     4  10  23  43  65  90 122 161 207 254 299 358
#     4  12  25  40  62  93 126 163 201 250 309 364
#     4  10  23  43  65  90 122 161 207 254 299 358
#     4  10  23  43  66  89 120 165 208 248 300 364
#
# _framework density 20.374396999999998
#
# number of rings (size 3 to 8) (size 9 to 14) (size 15 to 20)
#    0.000    1.333    3.333    1.000    4.667    5.333 
#    0.000    0.000    0.000    0.000    0.000    0.000 
#    0.000    0.000    0.000    0.000    0.000    0.000 
#
# Total GULP energy -297742.878812 kJ/mol
# GULP energy per Si atom -12405.953284 kJ/mol
# Density = 2.032802 g / cm^3
# Si number density = 20.374397 Si / 1000 Ang^3
#
#
#
# Elastic Constant Matrix: (Units=GPa)
#
#
# Indices 1 2 3 4 5 6 
#
# 1 101.4850 36.8825 14.7261 0.0000 13.5372 0.0000
# 2 36.8825 72.9953 46.6529 0.0000 4.2750 0.0000
# 3 14.7261 46.6529 117.1835 0.0000 -5.1006 0.0000
# 4 0.0000 0.0000 0.0000 32.3757 0.0000 2.5803
# 5 13.5372 4.2750 -5.1006 0.0000 29.1330 0.0000
# 6 0.0000 0.0000 0.0000 2.5803 0.0000 30.3810
#
#
#
# Elastic Compliance Matrix: (Units=1/GPa)
#
#
# Indices 1 2 3 4 5 6 
#
# 1 0.012824 -0.006751 0.000867 0.000000 -0.004816 0.000000
# 2 -0.006751 0.022406 -0.008140 0.000000 -0.001576 0.000000
# 3 0.000867 -0.008140 0.011790 0.000000 0.002856 0.000000
# 4 0.000000 0.000000 0.000000 0.031098 0.000000 -0.002641
# 5 -0.004816 -0.001576 0.002856 0.000000 0.037295 0.000000
# 6 0.000000 0.000000 0.000000 -0.002641 0.000000 0.033140
#
#
# Mechanical properties :
#
#
# Convention : Reuss Voigt Hill
#
# Bulk Modulus (GPa) = 52.71630 54.24299 53.47965
# Shear Modulus (GPa) = 27.33359 31.27144 29.30252
#
# Velocity S-wave (km/s) = 3.66671 3.92195 3.79648
# Velocity P-wave (km/s) = 6.62241 6.86949 6.74708
#
# Compressibility (1/GPa) = 0.01896947
#
# Stress axis : x y z
#
# Youngs Moduli (GPa) = 77.97851 44.63137 84.81887
#
# Poissons Ratio (x) = 0.30133 -0.07351
# Poissons Ratio (y) = 0.52647 0.69045
# Poissons Ratio (z) = -0.06758 0.36331
#
# Static dielectric constant tensor:
#      x y z
#    x 3.793320 0.000000 -0.057450 
#    y 0.000000 3.657690 0.000000 
#    z -0.057450 0.000000 3.616590 
# 
# 
# High freq. dielectric constant tensor:
#      x y z
#    x 1.804950 0.000000 -0.003460 
#    y 0.000000 1.800580 0.000000 
#    z -0.003460 0.000000 1.802100 
# 
# From -- ./inp_files/16140.got.cif
#   From: 2010.03.12/outbox.cif.g09.slc.cpg/sg14_9_cif.got.tgz:16140.got - 2010.03.31 13:35:05.
