data_PCOD8127838
_publ_section_title
;
Structure prediction by ZEFSAII (Michael W. Deem and Ramdas Pophale) SiO2 
 PCOD8127838
Probable space group: P 21/C
;
_chemical_formula_sum "Si O2"
_cell_formula_units_Z 32
_cell_length_a 15.606249
_cell_length_b 8.207065
_cell_length_c 24.336812
_cell_angle_alpha 90.000000
_cell_angle_beta 151.043623
_cell_angle_gamma 90.000000
_cell_volume 1509.121703
_symmetry_space_group_name_H-M "P 21/C"
_symmetry_group_IT_number 14
_symmetry_cell_setting 'monoclinic'
loop_
_space_group_symop_operation_xyz
x,y,z
-x,1/2+y,1/2-z
-x,-y,-z
x,1/2-y,1/2+z
loop_
_atom_site_type_symbol
_atom_site_label
_atom_site_fract_x
_atom_site_fract_y
_atom_site_fract_z
Si Si1 0.550167 0.569462 0.149578
Si Si2 0.754093 0.323644 0.529121
Si Si3 0.298701 0.767415 0.787005
Si Si4 0.376507 0.398224 0.148874
Si Si5 0.293165 0.524111 0.383579
Si Si6 0.982298 0.433872 0.928593
Si Si7 0.860649 0.707210 0.783942
Si Si8 0.525036 0.949743 0.833980
O O1 0.376239 0.668980 0.030871
O O2 0.597924 0.402097 0.144802
O O3 0.512634 0.512034 0.191100
O O4 0.726226 0.674150 0.240121
O O5 0.778628 0.434942 0.596516
O O6 0.682362 0.427793 0.437464
O O7 0.947317 0.280090 0.617003
O O8 0.439953 0.898999 0.843932
O O9 0.235758 0.826519 0.811598
O O10 0.133718 0.767166 0.649139
O O11 0.417702 0.208101 0.167867
O O12 0.387604 0.450846 0.218678
O O13 0.178721 0.418029 0.014547
O O14 0.500000 0.500000 0.500000
O O15 0.209614 0.354401 0.314752
O O16 0.869386 0.558481 0.830078
O O17 0.000000 0.500000 0.000000
#
# Coordination Sequence:
#
# PCOD8127838 Si02
#       8
#     4   4   4   4   4   4   4   4
#     4  11  24  44  67  97 138 168 226 277 336 405
#     4  12  24  46  70  96 134 178 225 285 333 405
#     4  10  23  42  66  98 129 174 220 277 339 399
#     4  11  24  40  66  99 135 180 219 272 335 405
#     4  11  22  46  70  90 131 177 218 276 342 392
#     4  11  22  41  67  96 133 176 221 273 333 402
#     4  11  26  44  67 100 132 177 227 278 342 401
#     4  11  23  40  65  95 134 176 218 266 339 397
#
# _framework density 21.204386
#
# number of rings (size 3 to 8) (size 9 to 14) (size 15 to 20)
#    0.000    1.000    5.000    1.500    3.500    1.500 
#    4.500    1.250    0.000    0.000    0.000    0.000 
#    0.000    0.000    0.000    0.000    0.000    0.000 
#
# Total GULP energy -396515.690962 kJ/mol
# GULP energy per Si atom -12391.115343 kJ/mol
# Density = 2.115612 g / cm^3
# Si number density = 21.204386 Si / 1000 Ang^3
#
#
#
# Elastic Constant Matrix: (Units=GPa)
#
#
# Indices 1 2 3 4 5 6 
#
# 1 52.1127 32.9245 28.3873 0.0000 14.1904 0.0000
# 2 32.9245 108.2492 52.0264 0.0000 5.7382 0.0000
# 3 28.3873 52.0264 127.7969 0.0000 17.7947 0.0000
# 4 0.0000 0.0000 0.0000 35.9430 0.0000 1.6716
# 5 14.1904 5.7382 17.7947 0.0000 46.7446 0.0000
# 6 0.0000 0.0000 0.0000 1.6716 0.0000 25.9887
#
#
#
# Elastic Compliance Matrix: (Units=1/GPa)
#
#
# Indices 1 2 3 4 5 6 
#
# 1 0.026302 -0.006564 -0.002292 0.000000 -0.006306 0.000000
# 2 -0.006564 0.013130 -0.004161 0.000000 0.001965 0.000000
# 3 -0.002292 -0.004161 0.010412 0.000000 -0.002757 0.000000
# 4 0.000000 0.000000 0.000000 0.027905 0.000000 -0.001795
# 5 -0.006306 0.001965 -0.002757 0.000000 0.024116 0.000000
# 6 0.000000 0.000000 0.000000 -0.001795 0.000000 0.038594
#
#
# Mechanical properties :
#
#
# Convention : Reuss Voigt Hill
#
# Bulk Modulus (GPa) = 41.99900 57.20393 49.60146
# Shear Modulus (GPa) = 28.66497 33.38996 31.02746
#
# Velocity S-wave (km/s) = 3.68073 3.97252 3.82940
# Velocity P-wave (km/s) = 6.15739 6.93377 6.55708
#
# Compressibility (1/GPa) = 0.02381009
#
# Stress axis : x y z
#
# Youngs Moduli (GPa) = 38.01985 76.16137 96.04468
#
# Poissons Ratio (x) = 0.49992 0.22015
# Poissons Ratio (y) = 0.24956 0.39962
# Poissons Ratio (z) = 0.08715 0.31689
#
# Static dielectric constant tensor:
#      x y z
#    x 4.011260 0.000000 -0.083910 
#    y 0.000000 4.318510 0.000000 
#    z -0.083910 0.000000 4.178990 
# 
# 
# High freq. dielectric constant tensor:
#      x y z
#    x 1.829220 0.000000 0.006650 
#    y 0.000000 1.830850 0.000000 
#    z 0.006650 0.000000 1.835170 
# 
# From -- ./inp_files/73871.got.cif
#   From: 2010.03.12/outbox.cif.g09.slc.cpg/sg14_37_cif.got.tgz:73871.got - 2010.03.31 13:35:05.
