data_PCOD8127019
_publ_section_title
;
Structure prediction by ZEFSAII (Michael W. Deem and Ramdas Pophale) SiO2 
 PCOD8127019
Probable space group: P 21/C
;
_chemical_formula_sum "Si O2"
_cell_formula_units_Z 32
_cell_length_a 8.370334
_cell_length_b 15.610798
_cell_length_c 22.829904
_cell_angle_alpha 90.000000
_cell_angle_beta 32.025950
_cell_angle_gamma 90.000000
_cell_volume 1581.962952
_symmetry_space_group_name_H-M "P 21/C"
_symmetry_group_IT_number 14
_symmetry_cell_setting 'monoclinic'
loop_
_space_group_symop_operation_xyz
x,y,z
-x,1/2+y,1/2-z
-x,-y,-z
x,1/2-y,1/2+z
loop_
_atom_site_type_symbol
_atom_site_label
_atom_site_fract_x
_atom_site_fract_y
_atom_site_fract_z
Si Si1 0.063176 0.620975 0.623715
Si Si2 0.883886 0.050054 0.710824
Si Si3 0.962449 0.282353 0.259687
Si Si4 0.727045 0.837719 0.910298
Si Si5 0.285219 0.247821 0.965161
Si Si6 0.156931 0.438435 0.998754
Si Si7 0.811331 0.916936 0.078157
Si Si8 0.148044 0.530031 0.233866
O O1 0.029743 0.708101 0.671991
O O2 0.422800 0.605657 0.505193
O O3 0.908900 0.622908 0.609404
O O4 0.889879 0.556115 0.718573
O O5 0.003955 0.132230 0.708508
O O6 0.528355 0.051541 0.812295
O O7 0.037900 0.038025 0.600081
O O8 0.968815 0.970787 0.727352
O O9 0.640254 0.241087 0.341136
O O10 0.240018 0.219724 0.158521
O O11 0.761042 0.770711 0.952204
O O12 0.010349 0.901162 0.821574
O O13 0.109886 0.335709 0.001627
O O14 0.146528 0.163290 0.977945
O O15 0.507842 0.455838 0.887800
O O16 0.000000 0.500000 0.000000
O O17 0.000000 0.000000 0.000000
#
# Coordination Sequence:
#
# PCOD8127019 Si02
#       8
#     4   4   4   4   4   4   4   4
#     4  10  22  38  60  99 125 159 210 278 320 381
#     4  10  22  42  64  89 127 169 214 264 327 392
#     4   9  19  39  64  87 122 164 214 272 316 380
#     4  11  19  39  69  89 120 164 223 264 320 384
#     4  10  22  40  63  92 124 174 219 255 328 396
#     4  12  24  41  60  91 132 179 215 267 328 387
#     4  11  22  43  66  97 136 166 205 278 337 383
#     4  11  22  40  66  91 118 168 224 265 324 390
#
# _framework density 20.228034000000001
#
# number of rings (size 3 to 8) (size 9 to 14) (size 15 to 20)
#    0.000    1.500    2.500    3.750    0.000    0.000 
#    9.000    0.000    0.000    0.000    0.000    0.000 
#    0.000    0.000    0.000    0.000    0.000    0.000 
#
# Total GULP energy -396495.205181 kJ/mol
# GULP energy per Si atom -12390.475162 kJ/mol
# Density = 2.018199 g / cm^3
# Si number density = 20.228034 Si / 1000 Ang^3
#
#
#
# Elastic Constant Matrix: (Units=GPa)
#
#
# Indices 1 2 3 4 5 6 
#
# 1 90.2363 27.5769 17.5640 0.0000 4.3715 0.0000
# 2 27.5769 87.6884 28.1926 0.0000 -3.8530 0.0000
# 3 17.5640 28.1926 95.7394 0.0000 1.4646 0.0000
# 4 0.0000 0.0000 0.0000 33.6157 0.0000 -1.3091
# 5 4.3715 -3.8530 1.4646 0.0000 30.6351 0.0000
# 6 0.0000 0.0000 0.0000 -1.3091 0.0000 22.6183
#
#
#
# Elastic Compliance Matrix: (Units=1/GPa)
#
#
# Indices 1 2 3 4 5 6 
#
# 1 0.012537 -0.003657 -0.001190 0.000000 -0.002192 0.000000
# 2 -0.003657 0.013759 -0.003418 0.000000 0.002416 0.000000
# 3 -0.001190 -0.003418 0.011682 0.000000 -0.000819 0.000000
# 4 0.000000 0.000000 0.000000 0.029815 0.000000 0.001726
# 5 -0.002192 0.002416 -0.000819 0.000000 0.033298 0.000000
# 6 0.000000 0.000000 0.000000 0.001726 0.000000 0.044312
#
#
# Mechanical properties :
#
#
# Convention : Reuss Voigt Hill
#
# Bulk Modulus (GPa) = 46.61951 46.70346 46.66148
# Shear Modulus (GPa) = 29.57146 30.72918 30.15032
#
# Velocity S-wave (km/s) = 3.82763 3.90184 3.86492
# Velocity P-wave (km/s) = 6.52927 6.59073 6.56007
#
# Compressibility (1/GPa) = 0.02145025
#
# Stress axis : x y z
#
# Youngs Moduli (GPa) = 79.76216 72.67995 85.60005
#
# Poissons Ratio (x) = 0.26576 0.10184
# Poissons Ratio (y) = 0.29166 0.29256
# Poissons Ratio (z) = 0.09490 0.24840
#
# Static dielectric constant tensor:
#      x y z
#    x 5.100920 0.000000 1.096370 
#    y 0.000000 3.892360 0.000000 
#    z 1.096370 0.000000 4.452520 
# 
# 
# High freq. dielectric constant tensor:
#      x y z
#    x 1.772520 0.000000 0.015040 
#    y 0.000000 1.790640 0.000000 
#    z 0.015040 0.000000 1.808960 
# 
# From -- ./inp_files/72438.got.cif
#   From: 2010.03.12/outbox.cif.g09.slc.cpg/sg14_37_cif.got.tgz:72438.got - 2010.03.31 13:35:05.
