data_PCOD8127729
_publ_section_title
;
Structure prediction by ZEFSAII (Michael W. Deem and Ramdas Pophale) SiO2 
 PCOD8127729
Probable space group: P 21/C
;
_chemical_formula_sum "Si O2"
_cell_formula_units_Z 24
_cell_length_a 12.122124
_cell_length_b 10.270367
_cell_length_c 8.431409
_cell_angle_alpha 90.000000
_cell_angle_beta 72.133847
_cell_angle_gamma 90.000000
_cell_volume 999.078247
_symmetry_space_group_name_H-M "P 21/C"
_symmetry_group_IT_number 14
_symmetry_cell_setting 'monoclinic'
loop_
_space_group_symop_operation_xyz
x,y,z
-x,1/2+y,1/2-z
-x,-y,-z
x,1/2-y,1/2+z
loop_
_atom_site_type_symbol
_atom_site_label
_atom_site_fract_x
_atom_site_fract_y
_atom_site_fract_z
Si Si1 0.349135 0.364318 0.844033
Si Si2 0.002482 0.280520 0.961599
Si Si3 0.497518 0.219480 0.538401
Si Si4 0.150865 0.364318 0.155967
Si Si5 0.152108 0.855244 0.748973
Si Si6 0.347892 0.644755 0.751027
O O1 0.386736 0.261331 0.693072
O O2 0.304179 0.495790 0.777453
O O3 0.458406 0.383630 0.918388
O O4 0.250000 0.303222 0.000000
O O5 0.113264 0.238668 0.806928
O O6 0.896069 0.334405 0.906938
O O7 0.041595 0.383630 0.081612
O O8 0.951304 0.154513 0.077383
O O9 0.603931 0.165595 0.593062
O O10 0.548696 0.345487 0.422617
O O11 0.195821 0.495790 0.222547
O O12 0.250000 0.750000 0.750000
#
# Coordination Sequence:
#
# PCOD8127729 Si02
#       6
#     4   4   4   4   4   4
#     4  11  22  40  63  91 126 166 209 259 310 374
#     4  10  23  40  61  93 127 165 209 258 316 368
#     4  10  23  40  61  93 127 165 209 258 316 368
#     4  11  22  40  63  91 126 166 209 259 310 374
#     4  11  22  40  64  94 126 165 210 259 313 372
#     4  11  22  40  64  94 126 165 210 259 313 372
#
# _framework density 24.022141999999999
#
# number of rings (size 3 to 8) (size 9 to 14) (size 15 to 20)
#    0.000    1.333    0.000    6.000    0.000    2.667 
#    0.000   10.000    0.000    0.000    0.000    0.000 
#    0.000    0.000    0.000    0.000    0.000    0.000 
#
# Total GULP energy -297338.072951 kJ/mol
# GULP energy per Si atom -12389.086373 kJ/mol
# Density = 2.396747 g / cm^3
# Si number density = 24.022142 Si / 1000 Ang^3
#
#
#
# Elastic Constant Matrix: (Units=GPa)
#
#
# Indices 1 2 3 4 5 6 
#
# 1 64.8795 17.9654 10.2412 0.0000 8.6748 0.0000
# 2 17.9654 86.7894 11.9215 0.0000 2.3955 0.0000
# 3 10.2412 11.9215 111.2804 0.0000 -15.2807 0.0000
# 4 0.0000 0.0000 0.0000 21.1443 0.0000 1.3969
# 5 8.6748 2.3955 -15.2807 0.0000 47.1430 0.0000
# 6 0.0000 0.0000 0.0000 1.3969 0.0000 35.7442
#
#
#
# Elastic Compliance Matrix: (Units=1/GPa)
#
#
# Indices 1 2 3 4 5 6 
#
# 1 0.017039 -0.003195 -0.001710 0.000000 -0.003527 0.000000
# 2 -0.003195 0.012343 -0.001082 0.000000 -0.000390 0.000000
# 3 -0.001710 -0.001082 0.009744 0.000000 0.003528 0.000000
# 4 0.000000 0.000000 0.000000 0.047416 0.000000 -0.001853
# 5 -0.003527 -0.000390 0.003528 0.000000 0.023025 0.000000
# 6 0.000000 0.000000 0.000000 -0.001853 0.000000 0.028049
#
#
# Mechanical properties :
#
#
# Convention : Reuss Voigt Hill
#
# Bulk Modulus (GPa) = 36.82907 38.13395 37.48151
# Shear Modulus (GPa) = 31.51769 35.66106 33.58937
#
# Velocity S-wave (km/s) = 3.62612 3.85711 3.74340
# Velocity P-wave (km/s) = 5.73553 5.97874 5.85840
#
# Compressibility (1/GPa) = 0.02715247
#
# Stress axis : x y z
#
# Youngs Moduli (GPa) = 58.68728 81.01855 102.62661
#
# Poissons Ratio (x) = 0.25884 0.17552
# Poissons Ratio (y) = 0.18750 0.11102
# Poissons Ratio (z) = 0.10037 0.08765
#
# Static dielectric constant tensor:
#      x y z
#    x 4.336470 0.000000 0.115280 
#    y 0.000000 3.724570 0.000000 
#    z 0.115280 0.000000 4.703220 
# 
# 
# High freq. dielectric constant tensor:
#      x y z
#    x 1.956250 0.000000 0.003850 
#    y 0.000000 1.912270 0.000000 
#    z 0.003850 0.000000 1.982360 
# 
# From -- ./inp_files/12377.got.cif
#   From: 2010.03.12/outbox.cif.g09.slc.cpg/sg14_7_cif.got.tgz:12377.got - 2010.03.31 13:35:05.
