data_PCOD8127997
_publ_section_title
;
Structure prediction by ZEFSAII (Michael W. Deem and Ramdas Pophale) SiO2 
 PCOD8127997
Probable space group: P 21/C
;
_chemical_formula_sum "Si O2"
_cell_formula_units_Z 28
_cell_length_a 19.809153
_cell_length_b 9.564606
_cell_length_c 8.783095
_cell_angle_alpha 90.000000
_cell_angle_beta 48.146031
_cell_angle_gamma 90.000000
_cell_volume 1239.504570
_symmetry_space_group_name_H-M "P 21/C"
_symmetry_group_IT_number 14
_symmetry_cell_setting 'monoclinic'
loop_
_space_group_symop_operation_xyz
x,y,z
-x,1/2+y,1/2-z
-x,-y,-z
x,1/2-y,1/2+z
loop_
_atom_site_type_symbol
_atom_site_label
_atom_site_fract_x
_atom_site_fract_y
_atom_site_fract_z
Si Si1 0.153016 0.161437 0.825908
Si Si2 0.235297 0.458480 0.722414
Si Si3 0.228322 0.909273 0.564174
Si Si4 0.974288 0.743129 0.231554
Si Si5 0.097938 0.849447 0.288933
Si Si6 0.428796 0.828433 0.231231
Si Si7 0.565942 0.056421 0.111136
O O1 0.217606 0.293850 0.760155
O O2 0.216980 0.027005 0.711789
O O3 0.098920 0.166436 0.748634
O O4 0.079035 0.143490 0.070194
O O5 0.165626 0.519292 0.700629
O O6 0.336992 0.483126 0.512179
O O7 0.218698 0.532569 0.908267
O O8 0.153168 0.794238 0.709697
O O9 0.326536 0.844465 0.444007
O O10 0.039697 0.852362 0.221637
O O11 0.029691 0.642955 0.034985
O O12 0.456154 0.667775 0.222724
O O13 0.491226 0.935634 0.231066
O O14 0.438838 0.856942 0.038155
#
# Coordination Sequence:
#
# PCOD8127997 Si02
#       7
#     4   4   4   4   4   4   4
#     4  11  24  42  59  94 132 170 215 272 312 383
#     4  11  23  43  65  96 130 171 215 264 321 381
#     4  11  23  43  65  96 130 171 215 264 321 381
#     4  10  24  40  64  94 122 172 222 264 330 366
#     4  11  22  40  67  90 126 170 215 276 314 387
#     4  10  23  44  70 100 133 166 209 262 320 385
#     4  10  23  44  70 100 133 166 209 262 320 385
#
# _framework density 22.589670999999999
#
# number of rings (size 3 to 8) (size 9 to 14) (size 15 to 20)
#    0.000    1.429    4.286    0.000    2.000    8.571 
#    2.571    0.000    0.000    0.000    0.000    0.000 
#    0.000    0.000    0.000    0.000    0.000    0.000 
#
# Total GULP energy -347301.553819 kJ/mol
# GULP energy per Si atom -12403.626922 kJ/mol
# Density = 2.253826 g / cm^3
# Si number density = 22.589671 Si / 1000 Ang^3
#
#
#
# Elastic Constant Matrix: (Units=GPa)
#
#
# Indices 1 2 3 4 5 6 
#
# 1 87.5788 4.0923 18.3300 0.0000 -10.4622 0.0000
# 2 4.0923 82.8985 7.2492 0.0000 -13.4289 0.0000
# 3 18.3300 7.2492 60.5411 0.0000 -4.3379 0.0000
# 4 0.0000 0.0000 0.0000 31.0215 0.0000 1.5334
# 5 -10.4622 -13.4289 -4.3379 0.0000 21.6078 0.0000
# 6 0.0000 0.0000 0.0000 1.5334 0.0000 26.6353
#
#
#
# Elastic Compliance Matrix: (Units=1/GPa)
#
#
# Indices 1 2 3 4 5 6 
#
# 1 0.012834 0.000631 -0.003539 0.000000 0.005896 0.000000
# 2 0.000631 0.013507 -0.001202 0.000000 0.008459 0.000000
# 3 -0.003539 -0.001202 0.017813 0.000000 0.001115 0.000000
# 4 0.000000 0.000000 0.000000 0.032328 0.000000 -0.001861
# 5 0.005896 0.008459 0.001115 0.000000 0.054615 0.000000
# 6 0.000000 0.000000 0.000000 -0.001861 0.000000 0.037651
#
#
# Mechanical properties :
#
#
# Convention : Reuss Voigt Hill
#
# Bulk Modulus (GPa) = 27.82909 32.26240 30.04574
# Shear Modulus (GPa) = 26.46257 29.27604 27.86930
#
# Velocity S-wave (km/s) = 3.42635 3.60389 3.51624
# Velocity P-wave (km/s) = 5.29144 5.62409 5.46030
#
# Compressibility (1/GPa) = 0.03593362
#
# Stress axis : x y z
#
# Youngs Moduli (GPa) = 77.91952 74.03480 56.13873
#
# Poissons Ratio (x) = -0.04671 0.19866
# Poissons Ratio (y) = -0.04916 0.06750
# Poissons Ratio (z) = 0.27574 0.08901
#
# Static dielectric constant tensor:
#      x y z
#    x 4.223960 0.000000 -0.073090 
#    y 0.000000 3.827020 0.000000 
#    z -0.073090 0.000000 4.021930 
# 
# 
# High freq. dielectric constant tensor:
#      x y z
#    x 1.895520 0.000000 -0.004270 
#    y 0.000000 1.886820 0.000000 
#    z -0.004270 0.000000 1.888760 
# 
# From -- ./inp_files/18707.got.cif
#   From: 2010.03.12/outbox.cif.g09.slc.cpg/sg14_10_cif.got.tgz:18707.got - 2010.03.31 13:35:05.
