data_PCOD8127026
_publ_section_title
;
Structure prediction by ZEFSAII (Michael W. Deem and Ramdas Pophale) SiO2 
 PCOD8127026
Probable space group: P 21/C
;
_chemical_formula_sum "Si O2"
_cell_formula_units_Z 20
_cell_length_a 8.458101
_cell_length_b 13.109457
_cell_length_c 9.388276
_cell_angle_alpha 90.000000
_cell_angle_beta 133.314680
_cell_angle_gamma 90.000000
_cell_volume 757.415745
_symmetry_space_group_name_H-M "P 21/C"
_symmetry_group_IT_number 14
_symmetry_cell_setting 'monoclinic'
loop_
_space_group_symop_operation_xyz
x,y,z
-x,1/2+y,1/2-z
-x,-y,-z
x,1/2-y,1/2+z
loop_
_atom_site_type_symbol
_atom_site_label
_atom_site_fract_x
_atom_site_fract_y
_atom_site_fract_z
Si Si1 0.094683 0.146852 0.541924
Si Si2 0.903663 0.025399 0.664996
Si Si3 0.477084 0.373070 0.920293
Si Si4 0.985992 0.624897 0.482452
Si Si5 0.555615 0.311922 0.280143
O O1 0.353059 0.127106 0.724016
O O2 0.975717 0.122945 0.616374
O O3 0.052014 0.263888 0.471078
O O4 0.009152 0.075566 0.360393
O O5 0.637007 0.027543 0.511266
O O6 0.013690 0.039169 0.890750
O O7 0.545740 0.304398 0.828007
O O8 0.216575 0.401038 0.750956
O O9 0.525252 0.307276 0.090361
O O10 0.217473 0.631255 0.543297
#
# Coordination Sequence:
#
# PCOD8127026 Si02
#       5
#     4   4   4   4   4
#     4  10  22  40  68  93 133 170 205 276 315 375
#     4  10  22  45  63  96 132 167 215 262 326 378
#     4  10  22  38  62  94 124 167 215 260 315 384
#     4  10  22  40  67  91 127 172 214 257 321 385
#     4  10  22  38  63  91 128 164 213 261 322 369
#
# _framework density 26.405576
#
# number of rings (size 3 to 8) (size 9 to 14) (size 15 to 20)
#    0.000    2.000    2.000    0.000   11.200    3.200 
#    0.000   16.000    0.000    0.000    0.000    0.000 
#    0.000    0.000    0.000    0.000    0.000    0.000 
#
# Total GULP energy -248053.095331 kJ/mol
# GULP energy per Si atom -12402.654767 kJ/mol
# Density = 2.634548 g / cm^3
# Si number density = 26.405576 Si / 1000 Ang^3
#
#
#
# Elastic Constant Matrix: (Units=GPa)
#
#
# Indices 1 2 3 4 5 6 
#
# 1 151.6992 20.0215 71.3952 0.0000 23.2735 0.0000
# 2 20.0215 102.9972 51.6957 0.0000 7.9283 0.0000
# 3 71.3952 51.6957 171.3090 0.0000 11.4102 0.0000
# 4 0.0000 0.0000 0.0000 41.4795 0.0000 2.3658
# 5 23.2735 7.9283 11.4102 0.0000 53.4545 0.0000
# 6 0.0000 0.0000 0.0000 2.3658 0.0000 30.4172
#
#
#
# Elastic Compliance Matrix: (Units=1/GPa)
#
#
# Indices 1 2 3 4 5 6 
#
# 1 0.008671 0.000309 -0.003502 0.000000 -0.003074 0.000000
# 2 0.000309 0.011503 -0.003528 0.000000 -0.001088 0.000000
# 3 -0.003502 -0.003528 0.008344 0.000000 0.000267 0.000000
# 4 0.000000 0.000000 0.000000 0.024216 0.000000 -0.001883
# 5 -0.003074 -0.001088 0.000267 0.000000 0.020150 0.000000
# 6 0.000000 0.000000 0.000000 -0.001883 0.000000 0.033023
#
#
# Mechanical properties :
#
#
# Convention : Reuss Voigt Hill
#
# Bulk Modulus (GPa) = 66.33038 79.13668 72.73353
# Shear Modulus (GPa) = 40.20142 43.92977 42.06559
#
# Velocity S-wave (km/s) = 3.90610 4.08322 3.99564
# Velocity P-wave (km/s) = 6.74670 7.22945 6.99224
#
# Compressibility (1/GPa) = 0.01507605
#
# Stress axis : x y z
#
# Youngs Moduli (GPa) = 115.32620 86.93209 119.85017
#
# Poissons Ratio (x) = -0.02685 0.41975
# Poissons Ratio (y) = -0.03562 0.42278
# Poissons Ratio (z) = 0.40390 0.30666
#
# Static dielectric constant tensor:
#      x y z
#    x 5.230050 0.000000 0.285390 
#    y 0.000000 4.938190 0.000000 
#    z 0.285390 0.000000 4.737160 
# 
# 
# High freq. dielectric constant tensor:
#      x y z
#    x 2.082180 0.000000 0.009060 
#    y 0.000000 2.087820 0.000000 
#    z 0.009060 0.000000 2.052890 
# 
# From -- ./inp_files/9559.got.cif
#   From: 2010.03.12/outbox.cif.g09.slc.cpg/sg14_5_cif.got.tgz:9559.got - 2010.03.31 13:35:05.
