data_PCOD8127722
_publ_section_title
;
Structure prediction by ZEFSAII (Michael W. Deem and Ramdas Pophale) SiO2 
 PCOD8127722
Probable space group: P 21/C
;
_chemical_formula_sum "Si O2"
_cell_formula_units_Z 28
_cell_length_a 17.198566
_cell_length_b 10.217512
_cell_length_c 7.659262
_cell_angle_alpha 90.000000
_cell_angle_beta 103.368498
_cell_angle_gamma 90.000000
_cell_volume 1309.465102
_symmetry_space_group_name_H-M "P 21/C"
_symmetry_group_IT_number 14
_symmetry_cell_setting 'monoclinic'
loop_
_space_group_symop_operation_xyz
x,y,z
-x,1/2+y,1/2-z
-x,-y,-z
x,1/2-y,1/2+z
loop_
_atom_site_type_symbol
_atom_site_label
_atom_site_fract_x
_atom_site_fract_y
_atom_site_fract_z
Si Si1 0.101782 0.924980 0.173600
Si Si2 0.133282 0.392189 0.016625
Si Si3 0.716535 0.457294 0.825890
Si Si4 0.262359 0.792677 0.320186
Si Si5 0.434670 0.847556 0.320851
Si Si6 0.070897 0.126178 0.859898
Si Si7 0.541080 0.435280 0.778818
O O1 0.179134 0.835642 0.189499
O O2 0.021917 0.836707 0.152090
O O3 0.104990 0.013350 0.348322
O O4 0.096219 0.005604 0.992586
O O5 0.225611 0.418981 0.118902
O O6 0.079976 0.411578 0.161487
O O7 0.128040 0.246176 0.939781
O O8 0.736948 0.366841 0.667739
O O9 0.625263 0.505197 0.772447
O O10 0.730151 0.350055 0.984485
O O11 0.338942 0.841808 0.244861
O O12 0.458927 0.897663 0.520664
O O13 0.472431 0.701508 0.328639
O O14 0.472705 0.954640 0.204622
#
# Coordination Sequence:
#
# PCOD8127722 Si02
#       7
#     4   4   4   4   4   4   4
#     4  10  23  40  59  84 112 155 198 236 292 343
#     4  11  22  42  59  85 118 153 193 242 288 345
#     4   9  20  36  58  83 113 147 190 235 287 343
#     4   9  19  36  57  81 112 146 190 237 282 346
#     4   9  18  35  58  81 117 148 190 237 288 343
#     4  11  23  39  60  82 118 153 193 245 290 340
#     4   9  18  36  56  85 115 151 188 239 287 346
#
# _framework density 21.382776
#
# number of rings (size 3 to 8) (size 9 to 14) (size 15 to 20)
#    0.000    2.286    1.429    0.429    2.000    4.000 
#    2.571    1.429    0.000    0.000    0.000    0.000 
#    0.000    0.000    0.000    0.000    0.000    0.000 
#
# Total GULP energy -346996.798050 kJ/mol
# GULP energy per Si atom -12392.742787 kJ/mol
# Density = 2.133411 g / cm^3
# Si number density = 21.382776 Si / 1000 Ang^3
#
#
#
# Elastic Constant Matrix: (Units=GPa)
#
#
# Indices 1 2 3 4 5 6 
#
# 1 105.0585 30.6507 8.8136 0.0000 2.8937 0.0000
# 2 30.6507 44.8427 -4.8997 0.0000 -8.2138 0.0000
# 3 8.8136 -4.8997 49.1861 0.0000 -9.8043 0.0000
# 4 0.0000 0.0000 0.0000 19.6025 0.0000 9.8747
# 5 2.8937 -8.2138 -9.8043 0.0000 22.5065 0.0000
# 6 0.0000 0.0000 0.0000 9.8747 0.0000 33.9568
#
#
#
# Elastic Compliance Matrix: (Units=1/GPa)
#
#
# Indices 1 2 3 4 5 6 
#
# 1 0.013448 -0.011230 -0.005136 0.000000 -0.008065 0.000000
# 2 -0.011230 0.034226 0.008979 0.000000 0.017846 0.000000
# 3 -0.005136 0.008979 0.025111 0.000000 0.014876 0.000000
# 4 0.000000 0.000000 0.000000 0.059770 0.000000 -0.017381
# 5 -0.008065 0.017846 0.014876 0.000000 0.058462 0.000000
# 6 0.000000 0.000000 0.000000 -0.017381 0.000000 0.034504
#
#
# Mechanical properties :
#
#
# Convention : Reuss Voigt Hill
#
# Bulk Modulus (GPa) = 17.23814 29.80185 23.51999
# Shear Modulus (GPa) = 19.25801 26.18132 22.71967
#
# Velocity S-wave (km/s) = 3.00431 3.50296 3.26317
# Velocity P-wave (km/s) = 4.48483 5.50713 5.02206
#
# Compressibility (1/GPa) = 0.05801089
#
# Stress axis : x y z
#
# Youngs Moduli (GPa) = 74.36071 29.21729 39.82314
#
# Poissons Ratio (x) = 0.32812 0.20453
# Poissons Ratio (y) = 0.83510 -0.35758
# Poissons Ratio (z) = 0.38192 -0.26235
#
# Static dielectric constant tensor:
#      x y z
#    x 4.205570 0.000000 -0.034070 
#    y 0.000000 4.013930 0.000000 
#    z -0.034070 0.000000 3.852690 
# 
# 
# High freq. dielectric constant tensor:
#      x y z
#    x 1.843480 0.000000 -0.006060 
#    y 0.000000 1.821340 0.000000 
#    z -0.006060 0.000000 1.841670 
# 
# From -- ./inp_files/17600.got.cif
#   From: 2010.03.12/outbox.cif.g09.slc.cpg/sg14_9_cif.got.tgz:17600.got - 2010.03.31 13:35:05.
