data_PCOD8127409
_publ_section_title
;
Structure prediction by ZEFSAII (Michael W. Deem and Ramdas Pophale) SiO2 
 PCOD8127409
Probable space group: P 21/C
;
_chemical_formula_sum "Si O2"
_cell_formula_units_Z 32
_cell_length_a 11.258067
_cell_length_b 5.383041
_cell_length_c 21.106734
_cell_angle_alpha 90.000000
_cell_angle_beta 104.532070
_cell_angle_gamma 90.000000
_cell_volume 1238.201158
_symmetry_space_group_name_H-M "P 21/C"
_symmetry_group_IT_number 14
_symmetry_cell_setting 'monoclinic'
loop_
_space_group_symop_operation_xyz
x,y,z
-x,1/2+y,1/2-z
-x,-y,-z
x,1/2-y,1/2+z
loop_
_atom_site_type_symbol
_atom_site_label
_atom_site_fract_x
_atom_site_fract_y
_atom_site_fract_z
Si Si1 0.606362 0.625884 0.315694
Si Si2 0.872398 0.777499 0.723108
Si Si3 0.001939 0.476740 0.646180
Si Si4 0.772290 0.334414 0.122202
Si Si5 0.737371 0.922226 0.491239
Si Si6 0.198187 0.922625 0.071464
Si Si7 0.375966 0.151350 0.810024
Si Si8 0.493173 0.938300 0.399964
O O1 0.692450 0.427500 0.362462
O O2 0.656107 0.656134 0.251859
O O3 0.464532 0.545757 0.290979
O O4 0.591064 0.871057 0.357041
O O5 0.916176 0.778892 0.802344
O O6 0.764844 0.562961 0.695604
O O7 0.986403 0.706777 0.693191
O O8 0.815747 0.040887 0.693542
O O9 0.068025 0.557052 0.590427
O O10 0.867782 0.371329 0.610115
O O11 0.625833 0.246048 0.109448
O O12 0.773493 0.552870 0.069300
O O13 0.795777 0.158303 0.462139
O O14 0.789397 0.659217 0.473669
O O15 0.586618 0.936720 0.472033
O O16 0.436945 0.290656 0.878160
#
# Coordination Sequence:
#
# PCOD8127409 Si02
#       8
#     4   4   4   4   4   4   4   4
#     4  11  20  37  63 101 136 179 227 295 358 422
#     4  11  25  43  65 102 136 183 235 296 358 423
#     4  12  25  46  70  99 145 188 244 296 359 433
#     4  11  26  46  71 100 139 193 238 296 361 428
#     4  11  26  50  73 106 143 187 247 296 359 428
#     4  11  27  46  75 103 143 193 237 300 356 423
#     4  11  20  36  63  96 138 175 231 288 360 426
#     4  10  22  42  66 101 136 180 237 293 360 424
#
# _framework density 25.843942999999999
#
# number of rings (size 3 to 8) (size 9 to 14) (size 15 to 20)
#    0.000    1.000    5.000    1.125    3.500    1.000 
#    2.250    1.875    0.000    0.000    0.000    0.000 
#    0.000    0.000    0.000    0.000    0.000    0.000 
#
# Total GULP energy -396503.776440 kJ/mol
# GULP energy per Si atom -12390.743014 kJ/mol
# Density = 2.578512 g / cm^3
# Si number density = 25.843943 Si / 1000 Ang^3
#
#
#
# Elastic Constant Matrix: (Units=GPa)
#
#
# Indices 1 2 3 4 5 6 
#
# 1 148.1536 12.3982 7.4053 0.0000 0.2728 0.0000
# 2 12.3982 43.7361 -5.3377 0.0000 11.0302 0.0000
# 3 7.4053 -5.3377 60.3386 0.0000 8.0543 0.0000
# 4 0.0000 0.0000 0.0000 25.6075 0.0000 -2.8019
# 5 0.2728 11.0302 8.0543 0.0000 30.5432 0.0000
# 6 0.0000 0.0000 0.0000 -2.8019 0.0000 43.6894
#
#
#
# Elastic Compliance Matrix: (Units=1/GPa)
#
#
# Indices 1 2 3 4 5 6 
#
# 1 0.007012 -0.002424 -0.001227 0.000000 0.001136 0.000000
# 2 -0.002424 0.026755 0.004095 0.000000 -0.010720 0.000000
# 3 -0.001227 0.004095 0.017912 0.000000 -0.006192 0.000000
# 4 0.000000 0.000000 0.000000 0.039327 0.000000 0.002522
# 5 0.001136 -0.010720 -0.006192 0.000000 0.038235 0.000000
# 6 0.000000 0.000000 0.000000 0.002522 0.000000 0.023051
#
#
# Mechanical properties :
#
#
# Convention : Reuss Voigt Hill
#
# Bulk Modulus (GPa) = 19.02272 31.23999 25.13136
# Shear Modulus (GPa) = 29.59895 35.81886 32.70891
#
# Velocity S-wave (km/s) = 3.38789 3.72690 3.56143
# Velocity P-wave (km/s) = 4.76239 5.53479 5.16305
#
# Compressibility (1/GPa) = 0.05256871
#
# Stress axis : x y z
#
# Youngs Moduli (GPa) = 142.61637 37.37618 55.82715
#
# Poissons Ratio (x) = 0.09060 0.06848
# Poissons Ratio (y) = 0.34569 -0.22863
# Poissons Ratio (z) = 0.17494 -0.15307
#
# Static dielectric constant tensor:
#      x y z
#    x 5.132430 0.000000 0.117920 
#    y 0.000000 4.241660 0.000000 
#    z 0.117920 0.000000 4.812760 
# 
# 
# High freq. dielectric constant tensor:
#      x y z
#    x 2.055220 0.000000 0.003810 
#    y 0.000000 2.005780 0.000000 
#    z 0.003810 0.000000 2.036590 
# 
# From -- ./inp_files/72846.got.cif
#   From: 2010.03.12/outbox.cif.g09.slc.cpg/sg14_37_cif.got.tgz:72846.got - 2010.03.31 13:35:05.
