data_PCOD8127272
_publ_section_title
;
Structure prediction by ZEFSAII (Michael W. Deem and Ramdas Pophale) SiO2 
 PCOD8127272
Probable space group: P 21/C
;
_chemical_formula_sum "Si O2"
_cell_formula_units_Z 28
_cell_length_a 6.405282
_cell_length_b 12.378873
_cell_length_c 20.241445
_cell_angle_alpha 90.000000
_cell_angle_beta 51.310168
_cell_angle_gamma 90.000000
_cell_volume 1252.728022
_symmetry_space_group_name_H-M "P 21/C"
_symmetry_group_IT_number 14
_symmetry_cell_setting 'monoclinic'
loop_
_space_group_symop_operation_xyz
x,y,z
-x,1/2+y,1/2-z
-x,-y,-z
x,1/2-y,1/2+z
loop_
_atom_site_type_symbol
_atom_site_label
_atom_site_fract_x
_atom_site_fract_y
_atom_site_fract_z
Si Si1 0.372362 0.455943 0.332050
Si Si2 0.047650 0.836989 0.864945
Si Si3 0.875125 0.908348 0.757084
Si Si4 0.810179 0.733740 0.542604
Si Si5 0.663715 0.366915 0.036973
Si Si6 0.550216 0.711634 0.789621
Si Si7 0.449074 0.589532 0.088333
O O1 0.193726 0.561439 0.368568
O O2 0.674438 0.489532 0.292717
O O3 0.231372 0.376985 0.411380
O O4 0.361177 0.399847 0.262249
O O5 0.271032 0.744623 0.809711
O O6 0.901023 0.871152 0.827445
O O7 0.834741 0.792962 0.960049
O O8 0.766518 0.806794 0.735846
O O9 0.155165 0.945729 0.670109
O O10 0.548638 0.806470 0.609350
O O11 0.055313 0.805797 0.520575
O O12 0.477155 0.303857 0.126143
O O13 0.664132 0.493402 0.058974
O O14 0.535048 0.370704 0.990326
#
# Coordination Sequence:
#
# PCOD8127272 Si02
#       7
#     4   4   4   4   4   4   4
#     4  11  24  40  63  92 122 159 201 250 301 358
#     4  10  23  41  62  89 122 160 201 248 299 356
#     4  11  24  41  62  92 124 156 202 249 301 363
#     4  11  23  41  63  87 122 163 204 248 301 358
#     4  10  23  40  61  90 123 158 205 252 296 356
#     4  10  22  41  63  88 123 162 198 245 303 358
#     4  11  23  38  62  92 122 161 203 250 302 354
#
# _framework density 22.351220999999999
#
# number of rings (size 3 to 8) (size 9 to 14) (size 15 to 20)
#    0.000    1.429    0.000    4.286    0.000   14.286 
#    0.000    0.000    0.000    0.000    0.000    0.000 
#    0.000    0.000    0.000    0.000    0.000    0.000 
#
# Total GULP energy -347128.328628 kJ/mol
# GULP energy per Si atom -12397.440308 kJ/mol
# Density = 2.230035 g / cm^3
# Si number density = 22.351221 Si / 1000 Ang^3
#
#
#
# Elastic Constant Matrix: (Units=GPa)
#
#
# Indices 1 2 3 4 5 6 
#
# 1 58.0729 34.0129 35.3082 0.0000 -8.7420 0.0000
# 2 34.0129 106.9856 32.3218 0.0000 -12.6229 0.0000
# 3 35.3082 32.3218 92.5489 0.0000 -8.4997 0.0000
# 4 0.0000 0.0000 0.0000 38.4226 0.0000 -1.3880
# 5 -8.7420 -12.6229 -8.4997 0.0000 32.4878 0.0000
# 6 0.0000 0.0000 0.0000 -1.3880 0.0000 40.6357
#
#
#
# Elastic Compliance Matrix: (Units=1/GPa)
#
#
# Indices 1 2 3 4 5 6 
#
# 1 0.025424 -0.005484 -0.007533 0.000000 0.002740 0.000000
# 2 -0.005484 0.011964 -0.001839 0.000000 0.002692 0.000000
# 3 -0.007533 -0.001839 0.014416 0.000000 0.001030 0.000000
# 4 0.000000 0.000000 0.000000 0.026058 0.000000 0.000890
# 5 0.002740 0.002692 0.001030 0.000000 0.032833 0.000000
# 6 0.000000 0.000000 0.000000 0.000890 0.000000 0.024639
#
#
# Mechanical properties :
#
#
# Convention : Reuss Voigt Hill
#
# Bulk Modulus (GPa) = 45.26413 51.21032 48.23722
# Shear Modulus (GPa) = 29.00083 32.70685 30.85384
#
# Velocity S-wave (km/s) = 3.60600 3.82948 3.71942
# Velocity P-wave (km/s) = 6.13457 6.52032 6.33038
#
# Compressibility (1/GPa) = 0.02209255
#
# Stress axis : x y z
#
# Youngs Moduli (GPa) = 39.33324 83.58701 69.36902
#
# Poissons Ratio (x) = 0.45837 0.52253
# Poissons Ratio (y) = 0.21569 0.12756
# Poissons Ratio (z) = 0.29628 0.15370
#
# Static dielectric constant tensor:
#      x y z
#    x 3.852890 0.000000 -0.006890 
#    y 0.000000 4.161500 0.000000 
#    z -0.006890 0.000000 3.923960 
# 
# 
# High freq. dielectric constant tensor:
#      x y z
#    x 1.870880 0.000000 0.003200 
#    y 0.000000 1.895900 0.000000 
#    z 0.003200 0.000000 1.883060 
# 
# From -- ./inp_files/63430.got.cif
#   From: 2010.03.12/outbox.cif.g09.slc.cpg/sg14_32_cif.got.tgz:63430.got - 2010.03.31 13:35:05.
