data_PCOD8127113
_publ_section_title
;
Structure prediction by ZEFSAII (Michael W. Deem and Ramdas Pophale) SiO2 
 PCOD8127113
Probable space group: P 21/C
;
_chemical_formula_sum "Si O2"
_cell_formula_units_Z 20
_cell_length_a 9.596928
_cell_length_b 10.963144
_cell_length_c 16.423679
_cell_angle_alpha 90.000000
_cell_angle_beta 146.869877
_cell_angle_gamma 90.000000
_cell_volume 944.412210
_symmetry_space_group_name_H-M "P 21/C"
_symmetry_group_IT_number 14
_symmetry_cell_setting 'monoclinic'
loop_
_space_group_symop_operation_xyz
x,y,z
-x,1/2+y,1/2-z
-x,-y,-z
x,1/2-y,1/2+z
loop_
_atom_site_type_symbol
_atom_site_label
_atom_site_fract_x
_atom_site_fract_y
_atom_site_fract_z
Si Si1 0.349919 0.515201 0.233289
Si Si2 0.613635 0.335767 0.591999
Si Si3 0.043806 0.175887 0.866563
Si Si4 0.173975 0.921947 0.969464
Si Si5 0.984673 0.198972 0.507893
O O1 0.297843 0.564034 0.298886
O O2 0.646882 0.478290 0.370900
O O3 0.278730 0.622260 0.133914
O O4 0.194441 0.393216 0.142355
O O5 0.316761 0.299346 0.456801
O O6 0.645239 0.389722 0.517903
O O7 0.806444 0.221440 0.696509
O O8 0.070719 0.243879 0.965379
O O9 0.985457 0.031434 0.851160
O O10 0.033708 0.802613 0.932737
#
# Coordination Sequence:
#
# PCOD8127113 Si02
#       5
#     4   4   4   4   4
#     4   9  21  40  60  86 127 163 201 250 324 355
#     4  10  23  41  65  86 131 162 203 256 319 366
#     4  10  22  43  60  92 124 164 207 258 307 369
#     4  11  23  37  68  90 122 164 211 255 307 369
#     4  10  22  39  64  89 121 164 210 257 304 371
#
# _framework density 21.177194
#
# number of rings (size 3 to 8) (size 9 to 14) (size 15 to 20)
#    0.000    2.000    0.000    3.000   14.000    0.000 
#    0.000    1.000    0.000    0.000    0.000    0.000 
#    0.000    0.000    0.000    0.000    0.000    0.000 
#
# Total GULP energy -247886.370615 kJ/mol
# GULP energy per Si atom -12394.318531 kJ/mol
# Density = 2.112899 g / cm^3
# Si number density = 21.177194 Si / 1000 Ang^3
#
#
#
# Elastic Constant Matrix: (Units=GPa)
#
#
# Indices 1 2 3 4 5 6 
#
# 1 43.1724 17.0444 -3.8802 0.0000 4.8632 0.0000
# 2 17.0444 146.7054 45.8340 0.0000 10.0358 0.0000
# 3 -3.8802 45.8340 45.5087 0.0000 -0.1685 0.0000
# 4 0.0000 0.0000 0.0000 27.7130 0.0000 3.0542
# 5 4.8632 10.0358 -0.1685 0.0000 18.6541 0.0000
# 6 0.0000 0.0000 0.0000 3.0542 0.0000 25.2632
#
#
#
# Elastic Compliance Matrix: (Units=1/GPa)
#
#
# Indices 1 2 3 4 5 6 
#
# 1 0.026278 -0.005064 0.007326 0.000000 -0.004060 0.000000
# 2 -0.005064 0.011507 -0.012039 0.000000 -0.004979 0.000000
# 3 0.007326 -0.012039 0.034742 0.000000 0.004881 0.000000
# 4 0.000000 0.000000 0.000000 0.036571 0.000000 -0.004421
# 5 -0.004060 -0.004979 0.004881 0.000000 0.057389 0.000000
# 6 0.000000 0.000000 0.000000 -0.004421 0.000000 0.040118
#
#
# Mechanical properties :
#
#
# Convention : Reuss Voigt Hill
#
# Bulk Modulus (GPa) = 18.87810 39.26477 29.07144
# Shear Modulus (GPa) = 20.50726 26.08527 23.29626
#
# Velocity S-wave (km/s) = 3.11523 3.51345 3.32032
# Velocity P-wave (km/s) = 4.67689 5.91950 5.33450
#
# Compressibility (1/GPa) = 0.05297144
#
# Stress axis : x y z
#
# Youngs Moduli (GPa) = 38.05474 86.90673 28.78392
#
# Poissons Ratio (x) = 0.44009 -0.21086
# Poissons Ratio (y) = 0.19271 0.34653
# Poissons Ratio (z) = -0.27877 1.04627
#
# Static dielectric constant tensor:
#      x y z
#    x 3.617170 0.000000 -0.109410 
#    y 0.000000 4.276610 0.000000 
#    z -0.109410 0.000000 3.906080 
# 
# 
# High freq. dielectric constant tensor:
#      x y z
#    x 1.810830 0.000000 -0.009820 
#    y 0.000000 1.848600 0.000000 
#    z -0.009820 0.000000 1.826340 
# 
# From -- ./inp_files/7662.got.cif
#   From: 2010.03.12/outbox.cif.g09.slc.cpg/sg14_4_cif.got.tgz:7662.got - 2010.03.31 13:35:05.
