data_PCOD8127814
_publ_section_title
;
Structure prediction by ZEFSAII (Michael W. Deem and Ramdas Pophale) SiO2 
 PCOD8127814
Probable space group: P 21/C
;
_chemical_formula_sum "Si O2"
_cell_formula_units_Z 28
_cell_length_a 9.964111
_cell_length_b 13.266282
_cell_length_c 21.706426
_cell_angle_alpha 90.000000
_cell_angle_beta 153.887770
_cell_angle_gamma 90.000000
_cell_volume 1262.867863
_symmetry_space_group_name_H-M "P 21/C"
_symmetry_group_IT_number 14
_symmetry_cell_setting 'monoclinic'
loop_
_space_group_symop_operation_xyz
x,y,z
-x,1/2+y,1/2-z
-x,-y,-z
x,1/2-y,1/2+z
loop_
_atom_site_type_symbol
_atom_site_label
_atom_site_fract_x
_atom_site_fract_y
_atom_site_fract_z
Si Si1 0.606890 0.377845 0.713787
Si Si2 0.914052 0.141496 0.967916
Si Si3 0.832637 0.367353 0.935260
Si Si4 0.470520 0.435772 0.180264
Si Si5 0.344011 0.530249 0.527597
Si Si6 0.273935 0.149864 0.908482
Si Si7 0.369317 0.796867 0.363416
O O1 0.841141 0.382556 0.865386
O O2 0.613466 0.484787 0.681112
O O3 0.738623 0.293712 0.723997
O O4 0.265731 0.346567 0.594972
O O5 0.763327 0.250410 0.921516
O O6 0.747735 0.087049 0.841543
O O7 0.900208 0.076683 0.025284
O O8 0.570464 0.444084 0.852168
O O9 0.172558 0.398597 0.095787
O O10 0.491598 0.383567 0.122365
O O11 0.471408 0.614874 0.534722
O O12 0.204381 0.436215 0.431458
O O13 0.954133 0.166695 0.741024
O O14 0.397040 0.254573 0.989134
#
# Coordination Sequence:
#
# PCOD8127814 Si02
#       7
#     4   4   4   4   4   4   4
#     4  11  21  37  68  93 124 163 208 262 323 380
#     4  12  21  40  63  97 125 169 205 261 333 378
#     4  11  22  36  55 100 130 157 195 257 336 370
#     4  11  22  36  59  95 133 159 198 265 326 373
#     4  10  23  42  63  92 127 168 219 264 295 398
#     4  10  24  44  67  88 122 177 224 251 307 372
#     4  11  20  41  66  91 122 172 213 254 311 395
#
# _framework density 22.171756999999999
#
# number of rings (size 3 to 8) (size 9 to 14) (size 15 to 20)
#    0.000    1.143    4.286    3.000    2.000    0.000 
#    5.143    1.429    0.000    9.429    0.000    0.000 
#    0.000    0.000    0.000    0.000    0.000    0.000 
#
# Total GULP energy -346941.462633 kJ/mol
# GULP energy per Si atom -12390.766523 kJ/mol
# Density = 2.212129 g / cm^3
# Si number density = 22.171757 Si / 1000 Ang^3
#
#
#
# Elastic Constant Matrix: (Units=GPa)
#
#
# Indices 1 2 3 4 5 6 
#
# 1 54.9623 17.9578 7.5188 0.0000 -1.6425 0.0000
# 2 17.9578 117.7055 15.0667 0.0000 2.3400 0.0000
# 3 7.5188 15.0667 67.5253 0.0000 12.7615 0.0000
# 4 0.0000 0.0000 0.0000 8.2111 0.0000 6.8737
# 5 -1.6425 2.3400 12.7615 0.0000 23.0680 0.0000
# 6 0.0000 0.0000 0.0000 6.8737 0.0000 37.3610
#
#
#
# Elastic Compliance Matrix: (Units=1/GPa)
#
#
# Indices 1 2 3 4 5 6 
#
# 1 0.019465 -0.002759 -0.002085 0.000000 0.002819 0.000000
# 2 -0.002759 0.009138 -0.001697 0.000000 -0.000185 0.000000
# 3 -0.002085 -0.001697 0.017215 0.000000 -0.009500 0.000000
# 4 0.000000 0.000000 0.000000 0.143958 0.000000 -0.026486
# 5 0.002819 -0.000185 -0.009500 0.000000 0.048825 0.000000
# 6 0.000000 0.000000 0.000000 -0.026486 0.000000 0.031639
#
#
# Mechanical properties :
#
#
# Convention : Reuss Voigt Hill
#
# Bulk Modulus (GPa) = 30.54592 35.69774 33.12183
# Shear Modulus (GPa) = 16.99336 27.03801 22.01569
#
# Velocity S-wave (km/s) = 2.77147 3.49589 3.15455
# Velocity P-wave (km/s) = 4.90390 5.69478 5.31408
#
# Compressibility (1/GPa) = 0.03273759
#
# Stress axis : x y z
#
# Youngs Moduli (GPa) = 51.37399 109.43847 58.08767
#
# Poissons Ratio (x) = 0.30193 0.12109
# Poissons Ratio (y) = 0.14174 0.09856
# Poissons Ratio (z) = 0.10709 0.18569
#
# Static dielectric constant tensor:
#      x y z
#    x 3.688660 0.000000 -0.091740 
#    y 0.000000 4.385610 0.000000 
#    z -0.091740 0.000000 3.885580 
# 
# 
# High freq. dielectric constant tensor:
#      x y z
#    x 1.835970 0.000000 0.004010 
#    y 0.000000 1.885540 0.000000 
#    z 0.004010 0.000000 1.871240 
# 
# From -- ./inp_files/65884.got.cif
#   From: 2010.03.12/outbox.cif.g09.slc.cpg/sg14_33_cif.got.tgz:65884.got - 2010.03.31 13:35:05.
