data_PCOD8127420
_publ_section_title
;
Structure prediction by ZEFSAII (Michael W. Deem and Ramdas Pophale) SiO2 
 PCOD8127420
Probable space group: P 21/C
;
_chemical_formula_sum "Si O2"
_cell_formula_units_Z 12
_cell_length_a 6.010594
_cell_length_b 4.707202
_cell_length_c 16.546259
_cell_angle_alpha 90.000000
_cell_angle_beta 91.439181
_cell_angle_gamma 90.000000
_cell_volume 467.996954
_symmetry_space_group_name_H-M "P 21/C"
_symmetry_group_IT_number 14
_symmetry_cell_setting 'monoclinic'
loop_
_space_group_symop_operation_xyz
x,y,z
-x,1/2+y,1/2-z
-x,-y,-z
x,1/2-y,1/2+z
loop_
_atom_site_type_symbol
_atom_site_label
_atom_site_fract_x
_atom_site_fract_y
_atom_site_fract_z
Si Si1 0.604710 0.794922 0.095315
Si Si2 0.695711 0.791326 0.423236
Si Si3 0.957212 0.027554 0.698377
O O1 0.388121 0.612280 0.071079
O O2 0.741417 0.647254 0.168044
O O3 0.502450 0.100802 0.119522
O O4 0.752155 0.823133 0.014228
O O5 0.918464 0.801068 0.371883
O O6 0.112320 0.783523 0.741268
#
# Coordination Sequence:
#
# PCOD8127420 Si02
#       3
#     4   4   4
#     4  10  22  42  67  93 126 173 226 275 323 387
#     4  10  22  42  67  93 126 173 226 275 323 387
#     4  12  25  40  63  98 138 176 214 272 343 402
#
# _framework density 25.641190000000002
#
# number of rings (size 3 to 8) (size 9 to 14) (size 15 to 20)
#    0.000    1.333    0.000    5.000    0.000    5.333 
#    0.000   13.333    0.000    0.000    0.000    0.000 
#    0.000    0.000    0.000    0.000    0.000    0.000 
#
# Total GULP energy -148744.476339 kJ/mol
# GULP energy per Si atom -12395.373028 kJ/mol
# Density = 2.558283 g / cm^3
# Si number density = 25.641190 Si / 1000 Ang^3
#
#
#
# Elastic Constant Matrix: (Units=GPa)
#
#
# Indices 1 2 3 4 5 6 
#
# 1 36.9780 4.5761 5.8491 0.0000 -3.2471 0.0000
# 2 4.5761 127.1252 25.2401 0.0000 0.0895 0.0000
# 3 5.8491 25.2401 58.1453 0.0000 3.9600 0.0000
# 4 0.0000 0.0000 0.0000 40.5135 0.0000 3.0914
# 5 -3.2471 0.0895 3.9600 0.0000 23.3071 0.0000
# 6 0.0000 0.0000 0.0000 3.0914 0.0000 40.8543
#
#
#
# Elastic Compliance Matrix: (Units=1/GPa)
#
#
# Indices 1 2 3 4 5 6 
#
# 1 0.027944 -0.000428 -0.002924 0.000000 0.004392 0.000000
# 2 -0.000428 0.008623 -0.003737 0.000000 0.000542 0.000000
# 3 -0.002924 -0.003737 0.019366 0.000000 -0.003683 0.000000
# 4 0.000000 0.000000 0.000000 0.024827 0.000000 -0.001879
# 5 0.004392 0.000542 -0.003683 0.000000 0.044141 0.000000
# 6 0.000000 0.000000 0.000000 -0.001879 0.000000 0.024619
#
#
# Mechanical properties :
#
#
# Convention : Reuss Voigt Hill
#
# Bulk Modulus (GPa) = 23.94990 32.61988 28.28489
# Shear Modulus (GPa) = 28.15043 33.37385 30.76214
#
# Velocity S-wave (km/s) = 3.31699 3.61164 3.46745
# Velocity P-wave (km/s) = 4.90210 5.49011 5.20441
#
# Compressibility (1/GPa) = 0.04175383
#
# Stress axis : x y z
#
# Youngs Moduli (GPa) = 35.78543 115.96517 51.63815
#
# Poissons Ratio (x) = 0.04968 0.15100
# Poissons Ratio (y) = 0.01533 0.19298
# Poissons Ratio (z) = 0.10464 0.43337
#
# Static dielectric constant tensor:
#      x y z
#    x 3.898850 0.000000 -0.155510 
#    y 0.000000 4.893810 0.000000 
#    z -0.155510 0.000000 4.803630 
# 
# 
# High freq. dielectric constant tensor:
#      x y z
#    x 1.979940 0.000000 -0.006270 
#    y 0.000000 2.054080 0.000000 
#    z -0.006270 0.000000 2.020780 
# 
# From -- ./inp_files/36561.got.cif
#   From: 2010.03.12/outbox.cif.g09.slc.cpg/sg14_19_cif.got.tgz:36561.got - 2010.03.31 13:35:05.
