data_PCOD8127595
_publ_section_title
;
Structure prediction by ZEFSAII (Michael W. Deem and Ramdas Pophale) SiO2 
 PCOD8127595
Probable space group: P 21/C
;
_chemical_formula_sum "Si O2"
_cell_formula_units_Z 28
_cell_length_a 22.003347
_cell_length_b 8.329505
_cell_length_c 9.136002
_cell_angle_alpha 90.000000
_cell_angle_beta 130.492914
_cell_angle_gamma 90.000000
_cell_volume 1273.372628
_symmetry_space_group_name_H-M "P 21/C"
_symmetry_group_IT_number 14
_symmetry_cell_setting 'monoclinic'
loop_
_space_group_symop_operation_xyz
x,y,z
-x,1/2+y,1/2-z
-x,-y,-z
x,1/2-y,1/2+z
loop_
_atom_site_type_symbol
_atom_site_label
_atom_site_fract_x
_atom_site_fract_y
_atom_site_fract_z
Si Si1 0.408633 0.454764 0.357663
Si Si2 0.658162 0.719805 0.473260
Si Si3 0.272347 0.706479 0.116306
Si Si4 0.907397 0.576326 0.700310
Si Si5 0.260383 0.441644 0.665542
Si Si6 0.836270 0.161702 0.305521
Si Si7 0.987317 0.125945 0.106601
O O1 0.500000 0.500000 0.500000
O O2 0.387967 0.401085 0.491045
O O3 0.352869 0.603682 0.219998
O O4 0.401893 0.311398 0.229767
O O5 0.704909 0.847406 0.643872
O O6 0.718402 0.623363 0.463530
O O7 0.212464 0.605345 0.127217
O O8 0.292322 0.876104 0.226031
O O9 0.226023 0.742747 0.894427
O O10 0.835350 0.572879 0.470024
O O11 0.875794 0.496659 0.799697
O O12 0.980601 0.469933 0.749838
O O13 0.936819 0.756451 0.773452
O O14 0.905158 0.282107 0.457670
O O15 0.000000 0.000000 0.000000
#
# Coordination Sequence:
#
# PCOD8127595 Si02
#       7
#     4   4   4   4   4   4   4
#     4  11  25  44  70 104 140 180 216 285 344 410
#     4  10  24  43  66 102 138 171 233 269 339 406
#     4  11  23  42  72  96 132 176 232 268 340 415
#     4  11  25  43  64  96 133 175 231 281 344 393
#     4  10  22  44  69  99 131 184 225 281 326 407
#     4  11  22  45  67  95 130 180 232 281 332 412
#     4  12  26  43  64  96 134 179 229 286 353 391
#
# _framework density 21.988848999999998
#
# number of rings (size 3 to 8) (size 9 to 14) (size 15 to 20)
#    0.000    1.143    2.857    3.857    2.000    4.571 
#    2.571    2.857    0.000    0.000    0.000    0.000 
#    0.000    0.000    0.000    0.000    0.000    0.000 
#
# Total GULP energy -347203.207012 kJ/mol
# GULP energy per Si atom -12400.114536 kJ/mol
# Density = 2.193880 g / cm^3
# Si number density = 21.988849 Si / 1000 Ang^3
#
#
#
# Elastic Constant Matrix: (Units=GPa)
#
#
# Indices 1 2 3 4 5 6 
#
# 1 82.7212 35.3101 34.5019 0.0000 6.8337 0.0000
# 2 35.3101 109.9466 24.8980 0.0000 9.8651 0.0000
# 3 34.5019 24.8980 66.9643 0.0000 0.6075 0.0000
# 4 0.0000 0.0000 0.0000 32.5862 0.0000 -1.0929
# 5 6.8337 9.8651 0.6075 0.0000 34.6092 0.0000
# 6 0.0000 0.0000 0.0000 -1.0929 0.0000 39.9477
#
#
#
# Elastic Compliance Matrix: (Units=1/GPa)
#
#
# Indices 1 2 3 4 5 6 
#
# 1 0.016847 -0.003552 -0.007339 0.000000 -0.002185 0.000000
# 2 -0.003552 0.010953 -0.002220 0.000000 -0.002382 0.000000
# 3 -0.007339 -0.002220 0.019525 0.000000 0.001739 0.000000
# 4 0.000000 0.000000 0.000000 0.030716 0.000000 0.000840
# 5 -0.002185 -0.002382 0.001739 0.000000 0.029974 0.000000
# 6 0.000000 0.000000 0.000000 0.000840 0.000000 0.025056
#
#
# Mechanical properties :
#
#
# Convention : Reuss Voigt Hill
#
# Bulk Modulus (GPa) = 47.39382 49.89470 48.64426
# Shear Modulus (GPa) = 30.06124 32.42343 31.24234
#
# Velocity S-wave (km/s) = 3.70146 3.84414 3.77347
# Velocity P-wave (km/s) = 6.31412 6.51486 6.41527
#
# Compressibility (1/GPa) = 0.02109980
#
# Stress axis : x y z
#
# Youngs Moduli (GPa) = 59.35850 91.30151 51.21760
#
# Poissons Ratio (x) = 0.32434 0.37590
# Poissons Ratio (y) = 0.21086 0.11373
# Poissons Ratio (z) = 0.43565 0.20273
#
# Static dielectric constant tensor:
#      x y z
#    x 4.102080 0.000000 -0.132160 
#    y 0.000000 4.150500 0.000000 
#    z -0.132160 0.000000 3.954000 
# 
# 
# High freq. dielectric constant tensor:
#      x y z
#    x 1.868050 0.000000 -0.012840 
#    y 0.000000 1.873890 0.000000 
#    z -0.012840 0.000000 1.863450 
# 
# From -- ./inp_files/18753.got.cif
#   From: 2010.03.12/outbox.cif.g09.slc.cpg/sg14_10_cif.got.tgz:18753.got - 2010.03.31 13:35:05.
