data_PCOD8127368
_publ_section_title
;
Structure prediction by ZEFSAII (Michael W. Deem and Ramdas Pophale) SiO2 
 PCOD8127368
Probable space group: P 21/C
;
_chemical_formula_sum "Si O2"
_cell_formula_units_Z 20
_cell_length_a 5.099204
_cell_length_b 9.799984
_cell_length_c 18.823547
_cell_angle_alpha 90.000000
_cell_angle_beta 104.216800
_cell_angle_gamma 90.000000
_cell_volume 911.843498
_symmetry_space_group_name_H-M "P 21/C"
_symmetry_group_IT_number 14
_symmetry_cell_setting 'monoclinic'
loop_
_space_group_symop_operation_xyz
x,y,z
-x,1/2+y,1/2-z
-x,-y,-z
x,1/2-y,1/2+z
loop_
_atom_site_type_symbol
_atom_site_label
_atom_site_fract_x
_atom_site_fract_y
_atom_site_fract_z
Si Si1 0.327892 0.882956 0.073445
Si Si2 0.043071 0.470724 0.812482
Si Si3 0.790731 0.315411 0.277465
Si Si4 0.427768 0.105028 0.635396
Si Si5 0.747914 0.821962 0.986649
O O1 0.348553 0.846832 0.157120
O O2 0.311043 0.045895 0.064994
O O3 0.596426 0.829637 0.052181
O O4 0.067037 0.809639 0.021765
O O5 0.027114 0.556280 0.737263
O O6 0.343212 0.490132 0.866415
O O7 0.985280 0.314503 0.791651
O O8 0.835326 0.526824 0.856190
O O9 0.546305 0.293286 0.204444
O O10 0.355201 0.189087 0.560811
#
# Coordination Sequence:
#
# PCOD8127368 Si02
#       5
#     4   4   4   4   4
#     4  10  23  38  68  92 130 166 222 257 318 389
#     4  10  25  38  65  95 125 169 215 262 327 370
#     4  10  26  40  68  94 131 165 225 261 323 383
#     4  10  24  40  66  88 132 166 212 264 325 375
#     4  10  22  42  62  97 126 172 208 270 320 373
#
# _framework density 21.933589000000001
#
# number of rings (size 3 to 8) (size 9 to 14) (size 15 to 20)
#    1.200    0.800    0.000    1.200   11.200    1.600 
#    0.000    6.000    0.000    0.000    0.000    0.000 
#    0.000    0.000    0.000    0.000    0.000    0.000 
#
# Total GULP energy -247955.350682 kJ/mol
# GULP energy per Si atom -12397.767534 kJ/mol
# Density = 2.188367 g / cm^3
# Si number density = 21.933589 Si / 1000 Ang^3
#
#
#
# Elastic Constant Matrix: (Units=GPa)
#
#
# Indices 1 2 3 4 5 6 
#
# 1 89.0802 11.1575 21.4801 0.0000 -30.3170 0.0000
# 2 11.1575 68.2914 30.7140 0.0000 -18.9319 0.0000
# 3 21.4801 30.7140 59.4960 0.0000 -20.3141 0.0000
# 4 0.0000 0.0000 0.0000 21.8390 0.0000 -8.4742
# 5 -30.3170 -18.9319 -20.3141 0.0000 28.0095 0.0000
# 6 0.0000 0.0000 0.0000 -8.4742 0.0000 22.9631
#
#
#
# Elastic Compliance Matrix: (Units=1/GPa)
#
#
# Indices 1 2 3 4 5 6 
#
# 1 0.018330 0.003416 -0.001088 0.000000 0.021360 0.000000
# 2 0.003416 0.021023 -0.007938 0.000000 0.012151 0.000000
# 3 -0.001088 -0.007938 0.025339 0.000000 0.011834 0.000000
# 4 0.000000 0.000000 0.000000 0.053442 0.000000 0.019722
# 5 0.021360 0.012151 0.011834 0.000000 0.075617 0.000000
# 6 0.000000 0.000000 0.000000 0.019722 0.000000 0.050826
#
#
# Mechanical properties :
#
#
# Convention : Reuss Voigt Hill
#
# Bulk Modulus (GPa) = 18.70122 38.17455 28.43788
# Shear Modulus (GPa) = 18.27338 24.79671 21.53505
#
# Velocity S-wave (km/s) = 2.88952 3.36599 3.13682
# Velocity P-wave (km/s) = 4.43590 5.70517 5.11010
#
# Compressibility (1/GPa) = 0.05347245
#
# Stress axis : x y z
#
# Youngs Moduli (GPa) = 54.55612 47.56611 39.46461
#
# Poissons Ratio (x) = -0.16249 0.04295
# Poissons Ratio (y) = -0.18637 0.31326
# Poissons Ratio (z) = 0.05937 0.37757
#
# Static dielectric constant tensor:
#      x y z
#    x 3.972450 0.000000 -0.115350 
#    y 0.000000 3.932550 0.000000 
#    z -0.115350 0.000000 3.716910 
# 
# 
# High freq. dielectric constant tensor:
#      x y z
#    x 1.872520 0.000000 -0.011690 
#    y 0.000000 1.851980 0.000000 
#    z -0.011690 0.000000 1.854320 
# 
# From -- ./inp_files/62913.got.cif
#   From: 2010.03.12/outbox.cif.g09.slc.cpg/sg14_32_cif.got.tgz:62913.got - 2010.03.31 13:35:05.
