data_PCOD8127219
_publ_section_title
;
Structure prediction by ZEFSAII (Michael W. Deem and Ramdas Pophale) SiO2 
 PCOD8127219
Probable space group: P 21/C
;
_chemical_formula_sum "Si O2"
_cell_formula_units_Z 32
_cell_length_a 15.084680
_cell_length_b 8.790960
_cell_length_c 12.146581
_cell_angle_alpha 90.000000
_cell_angle_beta 113.848512
_cell_angle_gamma 90.000000
_cell_volume 1473.214685
_symmetry_space_group_name_H-M "P 21/C"
_symmetry_group_IT_number 14
_symmetry_cell_setting 'monoclinic'
loop_
_space_group_symop_operation_xyz
x,y,z
-x,1/2+y,1/2-z
-x,-y,-z
x,1/2-y,1/2+z
loop_
_atom_site_type_symbol
_atom_site_label
_atom_site_fract_x
_atom_site_fract_y
_atom_site_fract_z
Si Si1 0.001842 0.249927 0.000541
Si Si2 0.877059 0.006767 0.820489
Si Si3 0.511720 0.246472 0.009792
Si Si4 0.880716 0.004738 0.561081
Si Si5 0.498855 0.497896 0.177395
Si Si6 0.299027 0.076580 0.131612
Si Si7 0.296178 0.067584 0.665942
Si Si8 0.338594 0.009734 0.919283
O O1 0.069046 0.351777 0.956640
O O2 0.931108 0.159605 0.883675
O O3 0.942159 0.348723 0.057861
O O4 0.068276 0.140081 0.105972
O O5 0.869230 0.998751 0.685792
O O6 0.768873 0.011196 0.816145
O O7 0.507465 0.336055 0.122095
O O8 0.611742 0.154984 0.053861
O O9 0.508786 0.362812 0.908620
O O10 0.417928 0.142383 0.953866
O O11 0.774537 0.018863 0.453510
O O12 0.590789 0.520063 0.301625
O O13 0.404989 0.494685 0.207160
O O14 0.288215 0.254482 0.142676
O O15 0.270243 0.032326 0.991871
O O16 0.268163 0.026938 0.778039
#
# Coordination Sequence:
#
# PCOD8127219 Si02
#       8
#     4   4   4   4   4   4   4   4
#     4  10  24  50  74 110 134 176 226 292 356 416
#     4  11  25  47  77 105 140 177 230 286 352 417
#     4  10  22  40  66  90 130 187 231 287 328 393
#     4  11  25  47  77 105 140 177 230 286 352 417
#     4  11  24  41  66  98 138 183 233 274 344 400
#     4  12  26  43  67 101 138 185 232 277 341 409
#     4  12  26  43  67 101 138 185 232 277 341 409
#     4  11  24  42  62  94 138 179 233 283 332 396
#
# _framework density 21.721205000000001
#
# number of rings (size 3 to 8) (size 9 to 14) (size 15 to 20)
#    0.000    1.000    3.750    2.250    5.250    2.000 
#   11.250    0.000    0.000    0.000    0.000    0.000 
#    0.000    0.000    0.000    0.000    0.000    0.000 
#
# Total GULP energy -396997.249120 kJ/mol
# GULP energy per Si atom -12406.164035 kJ/mol
# Density = 2.167177 g / cm^3
# Si number density = 21.721205 Si / 1000 Ang^3
#
#
#
# Elastic Constant Matrix: (Units=GPa)
#
#
# Indices 1 2 3 4 5 6 
#
# 1 122.6325 30.4147 60.3925 0.0000 -14.2434 0.0000
# 2 30.4147 86.1646 26.3256 0.0000 -4.4491 0.0000
# 3 60.3925 26.3256 159.2437 0.0000 -25.6898 0.0000
# 4 0.0000 0.0000 0.0000 12.4265 0.0000 -6.3124
# 5 -14.2434 -4.4491 -25.6898 0.0000 42.0535 0.0000
# 6 0.0000 0.0000 0.0000 -6.3124 0.0000 -5.7924
#
#
#
# Elastic Compliance Matrix: (Units=1/GPa)
#
#
# Indices 1 2 3 4 5 6 
#
# 1 0.010626 -0.002651 -0.003391 0.000000 0.001247 0.000000
# 2 -0.002651 0.012884 -0.001164 0.000000 -0.000246 0.000000
# 3 -0.003391 -0.001164 0.008379 0.000000 0.003847 0.000000
# 4 0.000000 0.000000 0.000000 0.051799 0.000000 -0.056449
# 5 0.001247 -0.000246 0.003847 0.000000 0.026526 0.000000
# 6 0.000000 0.000000 0.000000 -0.056449 0.000000 -0.111124
#
#
# Mechanical properties :
#
#
# Convention : Reuss Voigt Hill
#
# Bulk Modulus (GPa) = 57.21431 66.92292 62.06862
# Shear Modulus (GPa) = 258.70171 26.46473 142.58322
#
# Velocity S-wave (km/s) = 10.92518 3.49432 8.11079
# Velocity P-wave (km/s) = 13.62144 6.86711 10.78658
#
# Compressibility (1/GPa) = 0.01747814
#
# Stress axis : x y z
#
# Youngs Moduli (GPa) = 94.10441 77.61326 119.35122
#
# Poissons Ratio (x) = 0.20572 0.40467
# Poissons Ratio (y) = 0.24944 0.13898
# Poissons Ratio (z) = 0.31907 0.09038
#
# Static dielectric constant tensor:
#      x y z
#    x 3.941900 0.000000 -0.002870 
#    y 0.000000 4.124500 0.000000 
#    z -0.002870 0.000000 3.997300 
# 
# 
# High freq. dielectric constant tensor:
#      x y z
#    x 1.847160 0.000000 -0.009660 
#    y 0.000000 1.865730 0.000000 
#    z -0.009660 0.000000 1.866150 
# 
# From -- ./inp_files/31858.got.cif
#   From: 2010.03.12/outbox.cif.g09.slc.cpg/sg14_16_cif.got.tgz:31858.got - 2010.03.31 13:35:05.
