data_PCOD8127191
_publ_section_title
;
Structure prediction by ZEFSAII (Michael W. Deem and Ramdas Pophale) SiO2 
 PCOD8127191
Probable space group: P 21/C
;
_chemical_formula_sum "Si O2"
_cell_formula_units_Z 20
_cell_length_a 16.506410
_cell_length_b 7.394735
_cell_length_c 12.568677
_cell_angle_alpha 90.000000
_cell_angle_beta 149.129523
_cell_angle_gamma 90.000000
_cell_volume 787.165435
_symmetry_space_group_name_H-M "P 21/C"
_symmetry_group_IT_number 14
_symmetry_cell_setting 'monoclinic'
loop_
_space_group_symop_operation_xyz
x,y,z
-x,1/2+y,1/2-z
-x,-y,-z
x,1/2-y,1/2+z
loop_
_atom_site_type_symbol
_atom_site_label
_atom_site_fract_x
_atom_site_fract_y
_atom_site_fract_z
Si Si1 0.163526 0.520686 0.117931
Si Si2 0.358970 0.207682 0.418344
Si Si3 0.283171 0.624005 0.697276
Si Si4 0.088062 0.814915 0.784324
Si Si5 0.805780 0.561553 0.077528
O O1 0.272895 0.401911 0.318341
O O2 0.175820 0.737487 0.148422
O O3 0.254211 0.501675 0.105649
O O4 0.976618 0.442497 0.889535
O O5 0.542154 0.209086 0.599113
O O6 0.271467 0.073832 0.236510
O O7 0.335616 0.142331 0.513422
O O8 0.232846 0.601039 0.515878
O O9 0.125964 0.615872 0.784129
O O10 0.948460 0.796666 0.716019
#
# Coordination Sequence:
#
# PCOD8127191 Si02
#       5
#     4   4   4   4   4
#     4   9  21  42  64  90 131 167 215 262 309 397
#     4  11  22  42  66  93 134 167 214 271 327 378
#     4  10  22  40  63  96 125 170 217 269 316 391
#     4   9  19  41  62  88 135 165 217 261 310 392
#     4   9  21  41  62  95 128 174 210 272 320 377
#
# _framework density 25.407620000000001
#
# number of rings (size 3 to 8) (size 9 to 14) (size 15 to 20)
#    1.200    1.200    0.000    1.800    0.000    3.200 
#   18.000    3.000    0.000    0.000    0.000    0.000 
#    0.000    0.000    0.000    0.000    0.000    0.000 
#
# Total GULP energy -247778.712731 kJ/mol
# GULP energy per Si atom -12388.935637 kJ/mol
# Density = 2.534979 g / cm^3
# Si number density = 25.407620 Si / 1000 Ang^3
#
#
#
# Elastic Constant Matrix: (Units=GPa)
#
#
# Indices 1 2 3 4 5 6 
#
# 1 47.3016 14.0092 10.3100 0.0000 6.5002 0.0000
# 2 14.0092 78.6437 25.3710 0.0000 -8.7516 0.0000
# 3 10.3100 25.3710 84.8200 0.0000 -7.3164 0.0000
# 4 0.0000 0.0000 0.0000 38.3816 0.0000 -3.7831
# 5 6.5002 -8.7516 -7.3164 0.0000 26.1404 0.0000
# 6 0.0000 0.0000 0.0000 -3.7831 0.0000 37.3645
#
#
#
# Elastic Compliance Matrix: (Units=1/GPa)
#
#
# Indices 1 2 3 4 5 6 
#
# 1 0.024075 -0.004452 -0.002295 0.000000 -0.008120 0.000000
# 2 -0.004452 0.015239 -0.003568 0.000000 0.005210 0.000000
# 3 -0.002295 -0.003568 0.013406 0.000000 0.003128 0.000000
# 4 0.000000 0.000000 0.000000 0.026317 0.000000 0.002665
# 5 -0.008120 0.005210 0.003128 0.000000 0.042894 0.000000
# 6 0.000000 0.000000 0.000000 0.002665 0.000000 0.027033
#
#
# Mechanical properties :
#
#
# Convention : Reuss Voigt Hill
#
# Bulk Modulus (GPa) = 31.16137 34.46065 32.81101
# Shear Modulus (GPa) = 27.73294 31.11564 29.42429
#
# Velocity S-wave (km/s) = 3.30740 3.50331 3.40676
# Velocity P-wave (km/s) = 5.18425 5.47328 5.33072
#
# Compressibility (1/GPa) = 0.03209102
#
# Stress axis : x y z
#
# Youngs Moduli (GPa) = 41.53608 65.61931 74.59518
#
# Poissons Ratio (x) = 0.29212 0.17121
# Poissons Ratio (y) = 0.18491 0.26614
# Poissons Ratio (z) = 0.09533 0.23412
#
# Static dielectric constant tensor:
#      x y z
#    x 4.777120 0.000000 -0.208220 
#    y 0.000000 4.643030 0.000000 
#    z -0.208220 0.000000 4.357680 
# 
# 
# High freq. dielectric constant tensor:
#      x y z
#    x 2.024620 0.000000 -0.010870 
#    y 0.000000 2.018890 0.000000 
#    z -0.010870 0.000000 1.994100 
# 
# From -- ./inp_files/48323.got.cif
#   From: 2010.03.12/outbox.cif.g09.slc.cpg/sg14_25_cif.got.tgz:48323.got - 2010.03.31 13:35:05.
