data_PCOD8127312
_publ_section_title
;
Structure prediction by ZEFSAII (Michael W. Deem and Ramdas Pophale) SiO2 
 PCOD8127312
Probable space group: P 21/C
;
_chemical_formula_sum "Si O2"
_cell_formula_units_Z 28
_cell_length_a 9.638809
_cell_length_b 12.265251
_cell_length_c 13.148044
_cell_angle_alpha 90.000000
_cell_angle_beta 50.533971
_cell_angle_gamma 90.000000
_cell_volume 1199.994219
_symmetry_space_group_name_H-M "P 21/C"
_symmetry_group_IT_number 14
_symmetry_cell_setting 'monoclinic'
loop_
_space_group_symop_operation_xyz
x,y,z
-x,1/2+y,1/2-z
-x,-y,-z
x,1/2-y,1/2+z
loop_
_atom_site_type_symbol
_atom_site_label
_atom_site_fract_x
_atom_site_fract_y
_atom_site_fract_z
Si Si1 0.021913 0.181911 0.417127
Si Si2 0.146290 0.890485 0.105623
Si Si3 0.976315 0.111375 0.222024
Si Si4 0.394081 0.838847 0.687512
Si Si5 0.561806 0.495396 0.651388
Si Si6 0.225095 0.623640 0.796266
Si Si7 0.737715 0.725382 0.538697
O O1 0.922025 0.294199 0.434427
O O2 0.047437 0.107779 0.305097
O O3 0.918218 0.107018 0.547674
O O4 0.211623 0.212949 0.379887
O O5 0.140280 0.853028 0.225064
O O6 0.018108 0.995702 0.150097
O O7 0.351307 0.919875 0.977190
O O8 0.760674 0.132425 0.323021
O O9 0.082817 0.208362 0.113118
O O10 0.333602 0.732246 0.779032
O O11 0.588864 0.802082 0.549744
O O12 0.413084 0.942422 0.750477
O O13 0.350589 0.516061 0.729882
O O14 0.662042 0.609573 0.605160
#
# Coordination Sequence:
#
# PCOD8127312 Si02
#       7
#     4   4   4   4   4   4   4
#     4  12  22  44  70  96 140 179 224 290 336 397
#     4  11  22  42  74  95 138 181 229 278 342 409
#     4  11  24  44  68 103 132 184 229 278 341 408
#     4  11  21  44  68  95 142 170 227 281 332 408
#     4  10  22  41  67 101 130 181 226 280 336 411
#     4  11  23  41  67 104 132 177 227 279 341 403
#     4  10  23  42  67 100 131 180 232 270 341 412
#
# _framework density 23.333444
#
# number of rings (size 3 to 8) (size 9 to 14) (size 15 to 20)
#    0.000    1.143    4.286    1.286    2.000    2.857 
#    7.714    0.714    0.000    0.000    0.000    0.000 
#    0.000    0.000    0.000    0.000    0.000    0.000 
#
# Total GULP energy -347067.087215 kJ/mol
# GULP energy per Si atom -12395.253115 kJ/mol
# Density = 2.328034 g / cm^3
# Si number density = 23.333444 Si / 1000 Ang^3
#
#
#
# Elastic Constant Matrix: (Units=GPa)
#
#
# Indices 1 2 3 4 5 6 
#
# 1 121.2139 18.0233 40.5197 0.0000 -7.9630 0.0000
# 2 18.0233 54.4637 24.4412 0.0000 -17.8329 0.0000
# 3 40.5197 24.4412 88.5423 0.0000 5.7773 0.0000
# 4 0.0000 0.0000 0.0000 32.2140 0.0000 8.1580
# 5 -7.9630 -17.8329 5.7773 0.0000 28.3967 0.0000
# 6 0.0000 0.0000 0.0000 8.1580 0.0000 25.1832
#
#
#
# Elastic Compliance Matrix: (Units=1/GPa)
#
#
# Indices 1 2 3 4 5 6 
#
# 1 0.010137 0.000153 -0.004938 0.000000 0.003943 0.000000
# 2 0.000153 0.029202 -0.009456 0.000000 0.020305 0.000000
# 3 -0.004938 -0.009456 0.016866 0.000000 -0.010754 0.000000
# 4 0.000000 0.000000 0.000000 0.033817 0.000000 -0.010955
# 5 0.003943 0.020305 -0.010754 0.000000 0.051261 0.000000
# 6 0.000000 0.000000 0.000000 -0.010955 0.000000 0.043258
#
#
# Mechanical properties :
#
#
# Convention : Reuss Voigt Hill
#
# Bulk Modulus (GPa) = 36.07220 47.79869 41.93544
# Shear Modulus (GPa) = 22.49579 29.24118 25.86849
#
# Velocity S-wave (km/s) = 3.10837 3.54388 3.33324
# Velocity P-wave (km/s) = 5.32687 6.10532 5.72933
#
# Compressibility (1/GPa) = 0.02772218
#
# Stress axis : x y z
#
# Youngs Moduli (GPa) = 98.64783 34.24397 59.29120
#
# Poissons Ratio (x) = -0.00523 0.29281
# Poissons Ratio (y) = -0.01507 0.56064
# Poissons Ratio (z) = 0.48717 0.32380
#
# Static dielectric constant tensor:
#      x y z
#    x 4.181180 0.000000 -0.298150 
#    y 0.000000 4.293130 0.000000 
#    z -0.298150 0.000000 4.105170 
# 
# 
# High freq. dielectric constant tensor:
#      x y z
#    x 1.919510 0.000000 -0.012570 
#    y 0.000000 1.937410 0.000000 
#    z -0.012570 0.000000 1.902410 
# 
# From -- ./inp_files/25413.got.cif
#   From: 2010.03.12/outbox.cif.g09.slc.cpg/sg14_13_cif.got.tgz:25413.got - 2010.03.31 13:35:05.
