data_PCOD8127905
_publ_section_title
;
Structure prediction by ZEFSAII (Michael W. Deem and Ramdas Pophale) SiO2 
 PCOD8127905
Probable space group: P 21/C
;
_chemical_formula_sum "Si O2"
_cell_formula_units_Z 24
_cell_length_a 27.819960
_cell_length_b 5.429361
_cell_length_c 13.172995
_cell_angle_alpha 90.000000
_cell_angle_beta 30.497938
_cell_angle_gamma 90.000000
_cell_volume 1009.792374
_symmetry_space_group_name_H-M "P 21/C"
_symmetry_group_IT_number 14
_symmetry_cell_setting 'monoclinic'
loop_
_space_group_symop_operation_xyz
x,y,z
-x,1/2+y,1/2-z
-x,-y,-z
x,1/2-y,1/2+z
loop_
_atom_site_type_symbol
_atom_site_label
_atom_site_fract_x
_atom_site_fract_y
_atom_site_fract_z
Si Si1 0.943865 0.498090 0.829951
Si Si2 0.505825 0.871710 0.803097
Si Si3 0.678317 0.637899 0.582183
Si Si4 0.780390 0.301958 0.252993
Si Si5 0.329566 0.789730 0.732987
Si Si6 0.823967 0.005153 0.359423
O O1 0.998644 0.746755 0.757009
O O2 0.850119 0.494159 0.070073
O O3 0.917598 0.504839 0.757917
O O4 0.492898 0.628547 0.757581
O O5 0.606543 0.850371 0.677191
O O6 0.421315 0.872025 0.038570
O O7 0.691850 0.438284 0.467990
O O8 0.638432 0.527287 0.760518
O O9 0.785781 0.732571 0.404980
O O10 0.729784 0.130142 0.259787
O O11 0.843363 0.142906 0.217240
O O12 0.262494 0.632573 0.926394
#
# Coordination Sequence:
#
# PCOD8127905 Si02
#       6
#     4   4   4   4   4   4
#     4  11  28  47  72 106 138 177 230 292 354 420
#     4  12  26  43  69 104 144 187 237 282 337 403
#     4  11  24  42  72  99 138 192 230 285 344 408
#     4  10  23  46  69 100 141 182 231 286 348 415
#     4  10  23  43  66 102 140 186 234 287 334 408
#     4  10  25  43  74  99 137 184 231 281 357 411
#
# _framework density 23.767261999999999
#
# number of rings (size 3 to 8) (size 9 to 14) (size 15 to 20)
#    0.000    1.333    1.667    1.500   14.000    3.333 
#    0.000    0.000    0.000    0.000    0.000    0.000 
#    0.000    0.000    0.000    0.000    0.000    0.000 
#
# Total GULP energy -297556.920249 kJ/mol
# GULP energy per Si atom -12398.205010 kJ/mol
# Density = 2.371317 g / cm^3
# Si number density = 23.767262 Si / 1000 Ang^3
#
#
#
# Elastic Constant Matrix: (Units=GPa)
#
#
# Indices 1 2 3 4 5 6 
#
# 1 146.9193 23.3514 22.7679 0.0000 -0.8033 0.0000
# 2 23.3514 75.2804 -2.7102 0.0000 0.1486 0.0000
# 3 22.7679 -2.7102 48.3388 0.0000 -0.0240 0.0000
# 4 0.0000 0.0000 0.0000 23.2599 0.0000 -13.2602
# 5 -0.8033 0.1486 -0.0240 0.0000 36.8434 0.0000
# 6 0.0000 0.0000 0.0000 -13.2602 0.0000 37.1327
#
#
#
# Elastic Compliance Matrix: (Units=1/GPa)
#
#
# Indices 1 2 3 4 5 6 
#
# 1 0.007806 -0.002559 -0.003820 0.000000 0.000178 0.000000
# 2 -0.002559 0.014150 0.001999 0.000000 -0.000112 0.000000
# 3 -0.003820 0.001999 0.022599 0.000000 -0.000077 0.000000
# 4 0.000000 0.000000 0.000000 0.053982 0.000000 0.019277
# 5 0.000178 -0.000112 -0.000077 0.000000 0.027146 0.000000
# 6 0.000000 0.000000 0.000000 0.019277 0.000000 0.033814
#
#
# Mechanical properties :
#
#
# Convention : Reuss Voigt Hill
#
# Bulk Modulus (GPa) = 27.93837 39.70631 33.82234
# Shear Modulus (GPa) = 27.74850 34.58915 31.16882
#
# Velocity S-wave (km/s) = 3.42059 3.81901 3.62528
# Velocity P-wave (km/s) = 5.23269 6.01573 5.63783
#
# Compressibility (1/GPa) = 0.03579306
#
# Stress axis : x y z
#
# Youngs Moduli (GPa) = 128.10299 70.67270 44.25042
#
# Poissons Ratio (x) = 0.18087 0.16904
# Poissons Ratio (y) = 0.32786 -0.08844
# Poissons Ratio (z) = 0.48938 -0.14126
#
# Static dielectric constant tensor:
#      x y z
#    x 4.675580 0.000000 0.130770 
#    y 0.000000 4.134380 0.000000 
#    z 0.130770 0.000000 4.249930 
# 
# 
# High freq. dielectric constant tensor:
#      x y z
#    x 1.963780 0.000000 0.006680 
#    y 0.000000 1.926850 0.000000 
#    z 0.006680 0.000000 1.937740 
# 
# From -- ./inp_files/33337.got.cif
#   From: 2010.03.12/outbox.cif.g09.slc.cpg/sg14_17_cif.got.tgz:33337.got - 2010.03.31 13:35:05.
