data_PCOD8127121
_publ_section_title
;
Structure prediction by ZEFSAII (Michael W. Deem and Ramdas Pophale) SiO2 
 PCOD8127121
Probable space group: P 21/C
;
_chemical_formula_sum "Si O2"
_cell_formula_units_Z 28
_cell_length_a 9.043972
_cell_length_b 14.997156
_cell_length_c 20.021646
_cell_angle_alpha 90.000000
_cell_angle_beta 149.350285
_cell_angle_gamma 90.000000
_cell_volume 1384.387198
_symmetry_space_group_name_H-M "P 21/C"
_symmetry_group_IT_number 14
_symmetry_cell_setting 'monoclinic'
loop_
_space_group_symop_operation_xyz
x,y,z
-x,1/2+y,1/2-z
-x,-y,-z
x,1/2-y,1/2+z
loop_
_atom_site_type_symbol
_atom_site_label
_atom_site_fract_x
_atom_site_fract_y
_atom_site_fract_z
Si Si1 0.215121 0.099468 0.773523
Si Si2 0.177438 0.836836 0.954372
Si Si3 0.627137 0.562121 0.189270
Si Si4 0.911015 0.580534 0.164070
Si Si5 0.176633 0.753510 0.316439
Si Si6 0.033983 0.841869 0.462805
Si Si7 0.607881 0.881654 0.415394
O O1 0.071395 0.173623 0.765426
O O2 0.120180 0.113703 0.660510
O O3 0.128189 0.000885 0.764281
O O4 0.561343 0.105059 0.914412
O O5 0.281562 0.790146 0.926429
O O6 0.095081 0.762084 0.975899
O O7 0.900648 0.899744 0.835664
O O8 0.609821 0.456527 0.198819
O O9 0.661239 0.581080 0.123364
O O10 0.332832 0.609648 0.098352
O O11 0.067732 0.676040 0.225100
O O12 0.776258 0.565617 0.039201
O O13 0.445443 0.797631 0.383458
O O14 0.824097 0.847087 0.443937
#
# Coordination Sequence:
#
# PCOD8127121 Si02
#       7
#     4   4   4   4   4   4   4
#     4  11  21  42  65  92 126 166 205 257 315 372
#     4  10  23  42  65  91 126 165 208 253 315 376
#     4  11  22  41  66  94 121 169 207 255 310 375
#     4  11  22  39  69  92 126 160 211 261 314 362
#     4  10  22  39  64  97 124 158 212 263 309 360
#     4  11  23  40  66  89 124 171 212 248 306 375
#     4  12  23  41  64  95 125 164 212 258 304 369
#
# _framework density 20.225556000000001
#
# number of rings (size 3 to 8) (size 9 to 14) (size 15 to 20)
#    0.000    1.143    2.857    6.000    0.000    4.571 
#    2.571    0.714    0.000    0.000    0.000    0.000 
#    0.000    0.000    0.000    0.000    0.000    0.000 
#
# Total GULP energy -347317.517182 kJ/mol
# GULP energy per Si atom -12404.197042 kJ/mol
# Density = 2.017952 g / cm^3
# Si number density = 20.225556 Si / 1000 Ang^3
#
#
#
# Elastic Constant Matrix: (Units=GPa)
#
#
# Indices 1 2 3 4 5 6 
#
# 1 85.2088 22.8754 32.0867 0.0000 30.1202 0.0000
# 2 22.8754 128.0731 45.3231 0.0000 20.1352 0.0000
# 3 32.0867 45.3231 118.7589 0.0000 23.0085 0.0000
# 4 0.0000 0.0000 0.0000 33.3193 0.0000 10.4948
# 5 30.1202 20.1352 23.0085 0.0000 20.8605 0.0000
# 6 0.0000 0.0000 0.0000 10.4948 0.0000 18.7659
#
#
#
# Elastic Compliance Matrix: (Units=1/GPa)
#
#
# Indices 1 2 3 4 5 6 
#
# 1 0.024175 0.001390 -0.000050 0.000000 -0.036193 0.000000
# 2 0.001390 0.009797 -0.002408 0.000000 -0.008807 0.000000
# 3 -0.000050 -0.002408 0.011304 0.000000 -0.010071 0.000000
# 4 0.000000 0.000000 0.000000 0.036430 0.000000 -0.020373
# 5 -0.036193 -0.008807 -0.010071 0.000000 0.119805 0.000000
# 6 0.000000 0.000000 0.000000 -0.020373 0.000000 0.064682
#
#
# Mechanical properties :
#
#
# Convention : Reuss Voigt Hill
#
# Bulk Modulus (GPa) = 23.18069 59.17902 41.17985
# Shear Modulus (GPa) = 17.68604 30.03951 23.86278
#
# Velocity S-wave (km/s) = 2.96030 3.85804 3.43860
# Velocity P-wave (km/s) = 4.81357 7.01206 6.01413
#
# Compressibility (1/GPa) = 0.04313936
#
# Stress axis : x y z
#
# Youngs Moduli (GPa) = 41.36454 102.07691 88.46239
#
# Poissons Ratio (x) = -0.14187 0.00444
# Poissons Ratio (y) = -0.05749 0.21302
# Poissons Ratio (z) = 0.00208 0.24580
#
# Static dielectric constant tensor:
#      x y z
#    x 3.513570 0.000000 0.055080 
#    y 0.000000 3.840630 0.000000 
#    z 0.055080 0.000000 3.567910 
# 
# 
# High freq. dielectric constant tensor:
#      x y z
#    x 1.777170 0.000000 0.009050 
#    y 0.000000 1.804480 0.000000 
#    z 0.009050 0.000000 1.782590 
# 
# From -- ./inp_files/65865.got.cif
#   From: 2010.03.12/outbox.cif.g09.slc.cpg/sg14_33_cif.got.tgz:65865.got - 2010.03.31 13:35:05.
