data_PCOD8127748
_publ_section_title
;
Structure prediction by ZEFSAII (Michael W. Deem and Ramdas Pophale) SiO2 
 PCOD8127748
Probable space group: P 21/C
;
_chemical_formula_sum "Si O2"
_cell_formula_units_Z 20
_cell_length_a 17.596924
_cell_length_b 7.348430
_cell_length_c 10.116844
_cell_angle_alpha 90.000000
_cell_angle_beta 144.174249
_cell_angle_gamma 90.000000
_cell_volume 765.722353
_symmetry_space_group_name_H-M "P 21/C"
_symmetry_group_IT_number 14
_symmetry_cell_setting 'monoclinic'
loop_
_space_group_symop_operation_xyz
x,y,z
-x,1/2+y,1/2-z
-x,-y,-z
x,1/2-y,1/2+z
loop_
_atom_site_type_symbol
_atom_site_label
_atom_site_fract_x
_atom_site_fract_y
_atom_site_fract_z
Si Si1 0.099003 0.194568 0.248635
Si Si2 0.499036 0.297793 0.058950
Si Si3 0.292391 0.498037 0.534520
Si Si4 0.460543 0.433539 0.265528
Si Si5 0.067494 0.785712 0.238879
O O1 0.236603 0.294145 0.464509
O O2 0.990315 0.264251 0.196710
O O3 0.048704 0.232189 0.030272
O O4 0.133752 0.983419 0.319889
O O5 0.612062 0.456679 0.200741
O O6 0.401818 0.367040 0.040791
O O7 0.585348 0.126093 0.239875
O O8 0.435548 0.234575 0.831972
O O9 0.382120 0.536312 0.532554
O O10 0.170071 0.629683 0.356251
#
# Coordination Sequence:
#
# PCOD8127748 Si02
#       5
#     4   4   4   4   4
#     4  11  24  41  64 100 132 175 223 270 332 399
#     4   9  21  40  65  91 130 171 225 275 331 389
#     4  10  23  40  67  89 139 176 215 271 338 383
#     4   9  21  40  65  95 127 173 224 276 324 401
#     4  11  24  39  68  95 136 172 223 274 323 408
#
# _framework density 26.119128
#
# number of rings (size 3 to 8) (size 9 to 14) (size 15 to 20)
#    1.200    0.800    2.000    0.600    2.800    2.400 
#    0.000    2.000    0.000    0.000    0.000    0.000 
#    0.000    0.000    0.000    0.000    0.000    0.000 
#
# Total GULP energy -247827.959747 kJ/mol
# GULP energy per Si atom -12391.397987 kJ/mol
# Density = 2.605968 g / cm^3
# Si number density = 26.119128 Si / 1000 Ang^3
#
#
#
# Elastic Constant Matrix: (Units=GPa)
#
#
# Indices 1 2 3 4 5 6 
#
# 1 102.4024 25.4460 15.4305 0.0000 -22.7688 0.0000
# 2 25.4460 125.0655 30.1327 0.0000 -5.0445 0.0000
# 3 15.4305 30.1327 90.7075 0.0000 -2.0890 0.0000
# 4 0.0000 0.0000 0.0000 41.2489 0.0000 4.1201
# 5 -22.7688 -5.0445 -2.0890 0.0000 47.1882 0.0000
# 6 0.0000 0.0000 0.0000 4.1201 0.0000 29.7229
#
#
#
# Elastic Compliance Matrix: (Units=1/GPa)
#
#
# Indices 1 2 3 4 5 6 
#
# 1 0.011599 -0.001846 -0.001237 0.000000 0.005344 0.000000
# 2 -0.001846 0.009016 -0.002682 0.000000 -0.000046 0.000000
# 3 -0.001237 -0.002682 0.012118 0.000000 -0.000347 0.000000
# 4 0.000000 0.000000 0.000000 0.024583 0.000000 -0.003408
# 5 0.005344 -0.000046 -0.000347 0.000000 0.023750 0.000000
# 6 0.000000 0.000000 0.000000 -0.003408 0.000000 0.034116
#
#
# Mechanical properties :
#
#
# Convention : Reuss Voigt Hill
#
# Bulk Modulus (GPa) = 47.16454 51.13264 49.14859
# Shear Modulus (GPa) = 37.37475 40.10975 38.74225
#
# Velocity S-wave (km/s) = 3.78687 3.92298 3.85553
# Velocity P-wave (km/s) = 6.10059 6.33553 6.21917
#
# Compressibility (1/GPa) = 0.02120237
#
# Stress axis : x y z
#
# Youngs Moduli (GPa) = 86.21525 110.91615 82.52339
#
# Poissons Ratio (x) = 0.20480 0.10205
# Poissons Ratio (y) = 0.15919 0.22133
# Poissons Ratio (z) = 0.10662 0.29748
#
# Static dielectric constant tensor:
#      x y z
#    x 4.690660 0.000000 -0.142810 
#    y 0.000000 5.396460 0.000000 
#    z -0.142810 0.000000 4.363500 
# 
# 
# High freq. dielectric constant tensor:
#      x y z
#    x 2.034490 0.000000 -0.011010 
#    y 0.000000 2.098840 0.000000 
#    z -0.011010 0.000000 2.025230 
# 
# From -- ./inp_files/33611.got.cif
#   From: 2010.03.12/outbox.cif.g09.slc.cpg/sg14_17_cif.got.tgz:33611.got - 2010.03.31 13:35:05.
