data_PCOD8127696
_publ_section_title
;
Structure prediction by ZEFSAII (Michael W. Deem and Ramdas Pophale) SiO2 
 PCOD8127696
Probable space group: P 21/C
;
_chemical_formula_sum "Si O2"
_cell_formula_units_Z 28
_cell_length_a 19.794544
_cell_length_b 8.023787
_cell_length_c 26.400445
_cell_angle_alpha 90.000000
_cell_angle_beta 19.847126
_cell_angle_gamma 90.000000
_cell_volume 1423.609457
_symmetry_space_group_name_H-M "P 21/C"
_symmetry_group_IT_number 14
_symmetry_cell_setting 'monoclinic'
loop_
_space_group_symop_operation_xyz
x,y,z
-x,1/2+y,1/2-z
-x,-y,-z
x,1/2-y,1/2+z
loop_
_atom_site_type_symbol
_atom_site_label
_atom_site_fract_x
_atom_site_fract_y
_atom_site_fract_z
Si Si1 0.321031 0.861208 0.411188
Si Si2 0.946720 0.438638 0.159710
Si Si3 0.763797 0.621326 0.385682
Si Si4 0.327624 0.756231 0.213647
Si Si5 0.332150 0.605972 0.319414
Si Si6 0.017398 0.927804 0.877661
Si Si7 0.087052 0.864096 0.142374
O O1 0.404717 0.726543 0.313100
O O2 0.246766 0.773616 0.514305
O O3 0.487769 0.980743 0.315368
O O4 0.137050 0.950230 0.512383
O O5 0.817472 0.525801 0.295570
O O6 0.807525 0.416811 0.207750
O O7 0.034684 0.253391 0.110495
O O8 0.546779 0.703312 0.538824
O O9 0.911919 0.772022 0.295926
O O10 0.784625 0.491743 0.416169
O O11 0.307694 0.721414 0.287231
O O12 0.235738 0.592053 0.249959
O O13 0.137607 0.496926 0.470781
O O14 0.023160 0.059065 0.828601
#
# Coordination Sequence:
#
# PCOD8127696 Si02
#       7
#     4   4   4   4   4   4   4
#     4  10  23  38  65  89 122 160 207 261 296 368
#     4   9  21  42  59  89 125 158 204 259 304 369
#     4  11  22  40  63  94 120 166 210 250 317 361
#     4  10  24  36  66  86 134 160 200 252 318 376
#     4  11  22  40  63  94 120 166 210 250 317 361
#     4   9  21  42  59  89 125 158 204 259 304 369
#     4  10  23  38  65  89 122 160 207 261 296 368
#
# _framework density 19.668313999999999
#
# number of rings (size 3 to 8) (size 9 to 14) (size 15 to 20)
#    0.857    1.143    0.000    2.571   10.000    1.143 
#    0.000    4.286    0.000    0.000    0.000    0.000 
#    0.000    0.000    0.000    0.000    0.000    0.000 
#
# Total GULP energy -346898.509781 kJ/mol
# GULP energy per Si atom -12389.232492 kJ/mol
# Density = 1.962355 g / cm^3
# Si number density = 19.668314 Si / 1000 Ang^3
#
#
#
# Elastic Constant Matrix: (Units=GPa)
#
#
# Indices 1 2 3 4 5 6 
#
# 1 74.4713 27.7921 55.1416 0.0000 -17.9246 0.0000
# 2 27.7921 81.3034 62.8118 0.0000 -3.3771 0.0000
# 3 55.1416 62.8118 118.2408 0.0000 -8.2297 0.0000
# 4 0.0000 0.0000 0.0000 37.2583 0.0000 -0.1289
# 5 -17.9246 -3.3771 -8.2297 0.0000 18.2957 0.0000
# 6 0.0000 0.0000 0.0000 -0.1289 0.0000 36.1024
#
#
#
# Elastic Compliance Matrix: (Units=1/GPa)
#
#
# Indices 1 2 3 4 5 6 
#
# 1 0.026632 0.000395 -0.011158 0.000000 0.021146 0.000000
# 2 0.000395 0.020891 -0.011342 0.000000 -0.000859 0.000000
# 3 -0.011158 -0.011342 0.019386 0.000000 -0.004305 0.000000
# 4 0.000000 0.000000 0.000000 0.026840 0.000000 0.000096
# 5 0.021146 -0.000859 -0.004305 0.000000 0.073280 0.000000
# 6 0.000000 0.000000 0.000000 0.000096 0.000000 0.027699
#
#
# Mechanical properties :
#
#
# Convention : Reuss Voigt Hill
#
# Bulk Modulus (GPa) = 44.05329 62.83403 53.44366
# Shear Modulus (GPa) = 20.28370 26.88262 23.58316
#
# Velocity S-wave (km/s) = 3.21485 3.70103 3.46648
# Velocity P-wave (km/s) = 6.01889 7.09082 6.57673
#
# Compressibility (1/GPa) = 0.02269978
#
# Stress axis : x y z
#
# Youngs Moduli (GPa) = 37.54905 47.86735 51.58382
#
# Poissons Ratio (x) = -0.01889 0.57555
# Poissons Ratio (y) = -0.01482 0.58504
# Poissons Ratio (z) = 0.41896 0.54289
#
# Static dielectric constant tensor:
#      x y z
#    x 3.367020 0.000000 0.001570 
#    y 0.000000 3.755690 0.000000 
#    z 0.001570 0.000000 3.544800 
# 
# 
# High freq. dielectric constant tensor:
#      x y z
#    x 1.754160 0.000000 -0.000570 
#    y 0.000000 1.775670 0.000000 
#    z -0.000570 0.000000 1.766350 
# 
# From -- ./inp_files/77915.got.cif
#   From: 2010.03.12/outbox.cif.g09.slc.cpg/sg14_39_cif.got.tgz:77915.got - 2010.03.31 13:35:05.
