data_PCOD8127976
_publ_section_title
;
Structure prediction by ZEFSAII (Michael W. Deem and Ramdas Pophale) SiO2 
 PCOD8127976
Probable space group: P 21/C
;
_chemical_formula_sum "Si O2"
_cell_formula_units_Z 24
_cell_length_a 12.544345
_cell_length_b 9.432254
_cell_length_c 8.731456
_cell_angle_alpha 90.000000
_cell_angle_beta 96.540764
_cell_angle_gamma 90.000000
_cell_volume 1026.394017
_symmetry_space_group_name_H-M "P 21/C"
_symmetry_group_IT_number 14
_symmetry_cell_setting 'monoclinic'
loop_
_space_group_symop_operation_xyz
x,y,z
-x,1/2+y,1/2-z
-x,-y,-z
x,1/2-y,1/2+z
loop_
_atom_site_type_symbol
_atom_site_label
_atom_site_fract_x
_atom_site_fract_y
_atom_site_fract_z
Si Si1 0.476142 0.459127 0.668846
Si Si2 0.845233 0.313202 0.617144
Si Si3 0.744878 0.079736 0.814435
Si Si4 0.636572 0.841318 0.333255
Si Si5 0.987730 0.357216 0.909296
Si Si6 0.217440 0.187102 0.357865
O O1 0.500000 0.500000 0.500000
O O2 0.381199 0.555261 0.719462
O O3 0.446389 0.292624 0.681644
O O4 0.578193 0.509275 0.787320
O O5 0.773210 0.213454 0.713269
O O6 0.769364 0.413142 0.501735
O O7 0.931173 0.393566 0.737760
O O8 0.910423 0.237383 0.495174
O O9 0.807029 0.942715 0.760887
O O10 0.731539 0.819223 0.224436
O O11 0.694297 0.861232 0.504190
O O12 0.101318 0.274696 0.908856
O O13 0.000000 0.500000 0.000000
#
# Coordination Sequence:
#
# PCOD8127976 Si02
#       6
#     4   4   4   4   4   4
#     4  11  25  46  70 102 136 184 230 284 353 403
#     4  10  23  44  65  95 132 181 228 280 342 411
#     4  10  24  41  68  96 133 176 232 278 342 409
#     4  11  25  45  72 100 140 179 235 286 347 415
#     4  11  22  43  67  97 136 178 228 281 347 407
#     4  11  23  44  65 103 133 180 225 285 343 413
#
# _framework density 23.382830999999999
#
# number of rings (size 3 to 8) (size 9 to 14) (size 15 to 20)
#    0.000    1.333    3.333    1.000    2.333    6.000 
#    6.000    0.000    0.000    0.000    0.000    0.000 
#    0.000    0.000    0.000    0.000    0.000    0.000 
#
# Total GULP energy -297494.040119 kJ/mol
# GULP energy per Si atom -12395.585005 kJ/mol
# Density = 2.332961 g / cm^3
# Si number density = 23.382831 Si / 1000 Ang^3
#
#
#
# Elastic Constant Matrix: (Units=GPa)
#
#
# Indices 1 2 3 4 5 6 
#
# 1 75.1100 15.3347 10.5898 0.0000 -11.7884 0.0000
# 2 15.3347 46.3199 18.6512 0.0000 8.1440 0.0000
# 3 10.5898 18.6512 145.3253 0.0000 12.0739 0.0000
# 4 0.0000 0.0000 0.0000 36.6921 0.0000 3.4067
# 5 -11.7884 8.1440 12.0739 0.0000 39.3309 0.0000
# 6 0.0000 0.0000 0.0000 3.4067 0.0000 12.8755
#
#
#
# Elastic Compliance Matrix: (Units=1/GPa)
#
#
# Indices 1 2 3 4 5 6 
#
# 1 0.015612 -0.005894 -0.000894 0.000000 0.006174 0.000000
# 2 -0.005894 0.025594 -0.002328 0.000000 -0.006352 0.000000
# 3 -0.000894 -0.002328 0.007416 0.000000 -0.002063 0.000000
# 4 0.000000 0.000000 0.000000 0.027940 0.000000 -0.007393
# 5 0.006174 -0.006352 -0.002063 0.000000 0.029224 0.000000
# 6 0.000000 0.000000 0.000000 -0.007393 0.000000 0.079623
#
#
# Mechanical properties :
#
#
# Convention : Reuss Voigt Hill
#
# Bulk Modulus (GPa) = 32.90430 39.54519 36.22475
# Shear Modulus (GPa) = 23.38935 32.59167 27.99051
#
# Velocity S-wave (km/s) = 3.16615 3.73745 3.46360
# Velocity P-wave (km/s) = 5.24104 5.96435 5.61436
#
# Compressibility (1/GPa) = 0.03039116
#
# Stress axis : x y z
#
# Youngs Moduli (GPa) = 64.05199 39.07112 134.83678
#
# Poissons Ratio (x) = 0.23029 0.12057
# Poissons Ratio (y) = 0.37753 0.31384
# Poissons Ratio (z) = 0.05727 0.09094
#
# Static dielectric constant tensor:
#      x y z
#    x 4.535160 0.000000 -0.082790 
#    y 0.000000 4.143160 0.000000 
#    z -0.082790 0.000000 4.616590 
# 
# 
# High freq. dielectric constant tensor:
#      x y z
#    x 1.940160 0.000000 -0.007580 
#    y 0.000000 1.900030 0.000000 
#    z -0.007580 0.000000 1.944190 
# 
# From -- ./inp_files/12503.got.cif
#   From: 2010.03.12/outbox.cif.g09.slc.cpg/sg14_7_cif.got.tgz:12503.got - 2010.03.31 13:35:05.
