data_PCOD8127467
_publ_section_title
;
Structure prediction by ZEFSAII (Michael W. Deem and Ramdas Pophale) SiO2 
 PCOD8127467
Probable space group: P 21/C
;
_chemical_formula_sum "Si O2"
_cell_formula_units_Z 24
_cell_length_a 15.710198
_cell_length_b 11.573977
_cell_length_c 10.596189
_cell_angle_alpha 90.000000
_cell_angle_beta 147.656905
_cell_angle_gamma 90.000000
_cell_volume 1030.761002
_symmetry_space_group_name_H-M "P 21/C"
_symmetry_group_IT_number 14
_symmetry_cell_setting 'monoclinic'
loop_
_space_group_symop_operation_xyz
x,y,z
-x,1/2+y,1/2-z
-x,-y,-z
x,1/2-y,1/2+z
loop_
_atom_site_type_symbol
_atom_site_label
_atom_site_fract_x
_atom_site_fract_y
_atom_site_fract_z
Si Si1 0.611808 0.664102 0.096631
Si Si2 0.326336 0.918915 0.376446
Si Si3 0.740863 0.037963 0.288774
Si Si4 0.847921 0.805426 0.527586
Si Si5 0.471463 0.117252 0.127489
Si Si6 0.957204 0.243629 0.480783
O O1 0.721594 0.553694 0.198276
O O2 0.687248 0.728224 0.314178
O O3 0.428997 0.623500 0.885550
O O4 0.607679 0.755122 0.975674
O O5 0.451847 0.909183 0.645115
O O6 0.171611 0.843341 0.202734
O O7 0.604325 0.113304 0.183772
O O8 0.881005 0.120664 0.418675
O O9 0.807954 0.941894 0.470532
O O10 0.667532 0.975777 0.073480
O O11 0.953364 0.768495 0.539068
O O12 0.930223 0.780699 0.763296
#
# Coordination Sequence:
#
# PCOD8127467 Si02
#       6
#     4   4   4   4   4   4
#     4  10  25  44  64 103 130 180 227 285 337 400
#     4  11  25  41  73  96 138 173 232 286 332 403
#     4  10  23  44  68  99 133 181 226 282 339 408
#     4  11  28  44  70  98 142 181 227 277 345 406
#     4  10  22  42  73  98 129 176 232 286 333 402
#     4  12  26  45  68 102 140 183 225 279 343 409
#
# _framework density 23.283767999999998
#
# number of rings (size 3 to 8) (size 9 to 14) (size 15 to 20)
#    0.000    1.333    1.667    1.500   11.667    2.000 
#    0.000    0.000    0.000    0.000    0.000    0.000 
#    0.000    0.000    0.000    0.000    0.000    0.000 
#
# Total GULP energy -297616.531200 kJ/mol
# GULP energy per Si atom -12400.688800 kJ/mol
# Density = 2.323077 g / cm^3
# Si number density = 23.283768 Si / 1000 Ang^3
#
#
#
# Elastic Constant Matrix: (Units=GPa)
#
#
# Indices 1 2 3 4 5 6 
#
# 1 34.7379 3.9930 2.2575 0.0000 4.5224 0.0000
# 2 3.9930 158.3693 33.8358 0.0000 3.6956 0.0000
# 3 2.2575 33.8358 96.4219 0.0000 -9.1194 0.0000
# 4 0.0000 0.0000 0.0000 34.3203 0.0000 5.6445
# 5 4.5224 3.6956 -9.1194 0.0000 36.1352 0.0000
# 6 0.0000 0.0000 0.0000 5.6445 0.0000 14.3578
#
#
#
# Elastic Compliance Matrix: (Units=1/GPa)
#
#
# Indices 1 2 3 4 5 6 
#
# 1 0.029400 -0.000461 -0.000891 0.000000 -0.003857 0.000000
# 2 -0.000461 0.006897 -0.002531 0.000000 -0.001286 0.000000
# 3 -0.000891 -0.002531 0.011592 0.000000 0.003296 0.000000
# 4 0.000000 0.000000 0.000000 0.031151 0.000000 -0.012247
# 5 -0.003857 -0.001286 0.003296 0.000000 0.029120 0.000000
# 6 0.000000 0.000000 0.000000 -0.012247 0.000000 0.074463
#
#
# Mechanical properties :
#
#
# Convention : Reuss Voigt Hill
#
# Bulk Modulus (GPa) = 24.92394 41.07798 33.00096
# Shear Modulus (GPa) = 24.53825 33.59219 29.06522
#
# Velocity S-wave (km/s) = 3.24987 3.80245 3.53697
# Velocity P-wave (km/s) = 4.98095 6.07937 5.55737
#
# Compressibility (1/GPa) = 0.04012206
#
# Stress axis : x y z
#
# Youngs Moduli (GPa) = 34.01355 144.99568 86.26743
#
# Poissons Ratio (x) = 0.06681 0.07690
# Poissons Ratio (y) = 0.01567 0.21835
# Poissons Ratio (z) = 0.03032 0.36699
#
# Static dielectric constant tensor:
#      x y z
#    x 4.082900 0.000000 0.210470 
#    y 0.000000 4.478990 0.000000 
#    z 0.210470 0.000000 4.233810 
# 
# 
# High freq. dielectric constant tensor:
#      x y z
#    x 1.912090 0.000000 0.007270 
#    y 0.000000 1.941950 0.000000 
#    z 0.007270 0.000000 1.922160 
# 
# From -- ./inp_files/33969.got.cif
#   From: 2010.03.12/outbox.cif.g09.slc.cpg/sg14_17_cif.got.tgz:33969.got - 2010.03.31 13:35:05.
