data_PCOD8127333
_publ_section_title
;
Structure prediction by ZEFSAII (Michael W. Deem and Ramdas Pophale) SiO2 
 PCOD8127333
Probable space group: P 21/C
;
_chemical_formula_sum "Si O2"
_cell_formula_units_Z 28
_cell_length_a 8.710770
_cell_length_b 33.849405
_cell_length_c 5.168715
_cell_angle_alpha 90.000000
_cell_angle_beta 120.190224
_cell_angle_gamma 90.000000
_cell_volume 1317.301367
_symmetry_space_group_name_H-M "P 21/C"
_symmetry_group_IT_number 14
_symmetry_cell_setting 'monoclinic'
loop_
_space_group_symop_operation_xyz
x,y,z
-x,1/2+y,1/2-z
-x,-y,-z
x,1/2-y,1/2+z
loop_
_atom_site_type_symbol
_atom_site_label
_atom_site_fract_x
_atom_site_fract_y
_atom_site_fract_z
Si Si1 0.659389 0.275631 0.939952
Si Si2 0.238471 0.907923 0.443526
Si Si3 0.583051 0.157601 0.702259
Si Si4 0.476668 0.026330 0.229968
Si Si5 0.845350 0.918162 0.047558
Si Si6 0.867489 0.331716 0.842043
Si Si7 0.213949 0.132008 0.504292
O O1 0.621325 0.254550 0.637890
O O2 0.852735 0.297542 0.053359
O O3 0.542796 0.314887 0.913936
O O4 0.338867 0.885639 0.296375
O O5 0.373371 0.940114 0.668561
O O6 0.187112 0.875599 0.614143
O O7 0.054917 0.928633 0.190692
O O8 0.403252 0.152368 0.710043
O O9 0.729913 0.180750 0.998708
O O10 0.500000 0.000000 0.500000
O O11 0.277089 0.043370 0.080533
O O12 0.500000 0.000000 0.000000
O O13 0.811534 0.901427 0.303989
O O14 0.791530 0.886146 0.787097
O O15 0.067276 0.333409 0.905517
#
# Coordination Sequence:
#
# PCOD8127333 Si02
#       7
#     4   4   4   4   4   4   4
#     4  11  23  41  64  94 135 173 205 251 322 386
#     4  10  23  40  67  93 125 167 220 266 320 373
#     4  11  21  40  71  93 125 168 212 269 312 371
#     4  12  27  42  63  93 133 172 211 263 335 388
#     4  11  23  42  64  93 128 163 213 272 311 380
#     4  10  22  41  69  96 123 169 216 264 316 373
#     4  11  23  38  68 101 121 156 226 267 309 365
#
# _framework density 21.255576999999999
#
# number of rings (size 3 to 8) (size 9 to 14) (size 15 to 20)
#    0.000    1.143    4.286    1.714    4.000    1.143 
#    0.000    1.429    0.000    0.000    0.000    0.000 
#    0.000    0.000    0.000    0.000    0.000    0.000 
#
# Total GULP energy -346898.422149 kJ/mol
# GULP energy per Si atom -12389.229362 kJ/mol
# Density = 2.120720 g / cm^3
# Si number density = 21.255577 Si / 1000 Ang^3
#
#
#
# Elastic Constant Matrix: (Units=GPa)
#
#
# Indices 1 2 3 4 5 6 
#
# 1 135.4264 31.1562 38.2271 0.0000 15.6236 0.0000
# 2 31.1562 63.9540 20.2637 0.0000 3.3661 0.0000
# 3 38.2271 20.2637 84.9836 0.0000 -0.0645 0.0000
# 4 0.0000 0.0000 0.0000 33.3443 0.0000 -13.1574
# 5 15.6236 3.3661 -0.0645 0.0000 39.1766 0.0000
# 6 0.0000 0.0000 0.0000 -13.1574 0.0000 28.2998
#
#
#
# Elastic Compliance Matrix: (Units=1/GPa)
#
#
# Indices 1 2 3 4 5 6 
#
# 1 0.009551 -0.003359 -0.003498 0.000000 -0.003526 0.000000
# 2 -0.003359 0.018179 -0.002824 0.000000 -0.000227 0.000000
# 3 -0.003498 -0.002824 0.014015 0.000000 0.001661 0.000000
# 4 0.000000 0.000000 0.000000 0.036728 0.000000 0.017076
# 5 -0.003526 -0.000227 0.001661 0.000000 0.026954 0.000000
# 6 0.000000 0.000000 0.000000 0.017076 0.000000 0.043275
#
#
# Mechanical properties :
#
#
# Convention : Reuss Voigt Hill
#
# Bulk Modulus (GPa) = 44.67569 51.51754 48.09662
# Shear Modulus (GPa) = 28.48591 33.14528 30.81560
#
# Velocity S-wave (km/s) = 3.66479 3.95317 3.81171
# Velocity P-wave (km/s) = 6.24272 6.71763 6.48452
#
# Compressibility (1/GPa) = 0.02238354
#
# Stress axis : x y z
#
# Youngs Moduli (GPa) = 104.70086 55.00748 71.35194
#
# Poissons Ratio (x) = 0.18477 0.24959
# Poissons Ratio (y) = 0.35169 0.20150
# Poissons Ratio (z) = 0.36624 0.15534
#
# Static dielectric constant tensor:
#      x y z
#    x 4.143250 0.000000 0.006240 
#    y 0.000000 3.998210 0.000000 
#    z 0.006240 0.000000 3.875060 
# 
# 
# High freq. dielectric constant tensor:
#      x y z
#    x 1.847130 0.000000 -0.018260 
#    y 0.000000 1.825590 0.000000 
#    z -0.018260 0.000000 1.824110 
# 
# From -- ./inp_files/2277.got.cif
#   From: 2010.03.12/outbox.cif.g09.slc.cpg/sg14_2_cif.got.tgz:2277.got - 2010.03.31 13:35:05.
