data_PCOD8127024
_publ_section_title
;
Structure prediction by ZEFSAII (Michael W. Deem and Ramdas Pophale) SiO2 
 PCOD8127024
Probable space group: P 21/C
;
_chemical_formula_sum "Si O2"
_cell_formula_units_Z 28
_cell_length_a 14.798279
_cell_length_b 14.063246
_cell_length_c 8.623182
_cell_angle_alpha 90.000000
_cell_angle_beta 137.604438
_cell_angle_gamma 90.000000
_cell_volume 1209.991144
_symmetry_space_group_name_H-M "P 21/C"
_symmetry_group_IT_number 14
_symmetry_cell_setting 'monoclinic'
loop_
_space_group_symop_operation_xyz
x,y,z
-x,1/2+y,1/2-z
-x,-y,-z
x,1/2-y,1/2+z
loop_
_atom_site_type_symbol
_atom_site_label
_atom_site_fract_x
_atom_site_fract_y
_atom_site_fract_z
Si Si1 0.027292 0.793988 0.593193
Si Si2 0.622408 0.667897 0.371608
Si Si3 0.629315 0.469998 0.257661
Si Si4 0.550717 0.270420 0.121954
Si Si5 0.187296 0.838462 0.518056
Si Si6 0.841094 0.496101 0.266709
Si Si7 0.149317 0.313511 0.859724
O O1 0.912421 0.845403 0.550895
O O2 0.966854 0.711985 0.408747
O O3 0.104507 0.863805 0.571236
O O4 0.126016 0.746969 0.841263
O O5 0.652016 0.553717 0.415463
O O6 0.578094 0.713014 0.478091
O O7 0.756066 0.722956 0.487958
O O8 0.494626 0.688347 0.100551
O O9 0.600973 0.363091 0.287291
O O10 0.763143 0.464384 0.321784
O O11 0.500000 0.500000 0.000000
O O12 0.666772 0.194371 0.242903
O O13 0.195265 0.929892 0.422422
O O14 0.779362 0.596832 0.130618
O O15 0.000000 0.500000 0.500000
#
# Coordination Sequence:
#
# PCOD8127024 Si02
#       7
#     4   4   4   4   4   4   4
#     4  10  22  38  62  88 132 176 214 270 328 384
#     4  11  23  42  68  97 129 174 220 274 329 396
#     4  10  22  42  67  95 129 177 223 264 329 412
#     4  11  23  42  68  97 129 174 220 274 329 396
#     4  11  22  41  63  95 133 174 222 270 331 395
#     4  12  24  41  67 102 130 181 229 272 338 414
#     4  11  22  41  63  95 133 174 222 270 331 395
#
# _framework density 23.140664999999998
#
# number of rings (size 3 to 8) (size 9 to 14) (size 15 to 20)
#    0.000    1.143    1.429    6.857    4.000    0.571 
#    0.000    7.143    0.000    0.000    0.000    0.000 
#    0.000    0.000    0.000    0.000    0.000    0.000 
#
# Total GULP energy -346989.704247 kJ/mol
# GULP energy per Si atom -12392.489437 kJ/mol
# Density = 2.308800 g / cm^3
# Si number density = 23.140665 Si / 1000 Ang^3
#
#
#
# Elastic Constant Matrix: (Units=GPa)
#
#
# Indices 1 2 3 4 5 6 
#
# 1 114.4191 3.0872 1.1835 0.0000 8.3381 0.0000
# 2 3.0872 54.1626 -16.5504 0.0000 4.4514 0.0000
# 3 1.1835 -16.5504 54.8034 0.0000 11.2179 0.0000
# 4 0.0000 0.0000 0.0000 28.7806 0.0000 -3.7150
# 5 8.3381 4.4514 11.2179 0.0000 35.7782 0.0000
# 6 0.0000 0.0000 0.0000 -3.7150 0.0000 37.8954
#
#
#
# Elastic Compliance Matrix: (Units=1/GPa)
#
#
# Indices 1 2 3 4 5 6 
#
# 1 0.008898 -0.000291 0.000146 0.000000 -0.002083 0.000000
# 2 -0.000291 0.021138 0.007389 0.000000 -0.004879 0.000000
# 3 0.000146 0.007389 0.022088 0.000000 -0.007879 0.000000
# 4 0.000000 0.000000 0.000000 0.035191 0.000000 0.003450
# 5 -0.002083 -0.004879 -0.007879 0.000000 0.031513 0.000000
# 6 0.000000 0.000000 0.000000 0.003450 0.000000 0.026727
#
#
# Mechanical properties :
#
#
# Convention : Reuss Voigt Hill
#
# Bulk Modulus (GPa) = 15.01245 22.09175 18.55210
# Shear Modulus (GPa) = 32.62198 36.20183 34.41191
#
# Velocity S-wave (km/s) = 3.75870 3.95957 3.86044
# Velocity P-wave (km/s) = 5.03376 5.52012 5.28254
#
# Compressibility (1/GPa) = 0.06661140
#
# Stress axis : x y z
#
# Youngs Moduli (GPa) = 112.38526 47.30769 45.27362
#
# Poissons Ratio (x) = 0.01378 -0.00662
# Poissons Ratio (y) = 0.03273 -0.33451
# Poissons Ratio (z) = -0.01644 -0.34954
#
# Static dielectric constant tensor:
#      x y z
#    x 4.292190 0.000000 0.010130 
#    y 0.000000 4.815490 0.000000 
#    z 0.010130 0.000000 3.994770 
# 
# 
# High freq. dielectric constant tensor:
#      x y z
#    x 1.917300 0.000000 0.012980 
#    y 0.000000 1.906330 0.000000 
#    z 0.012980 0.000000 1.905170 
# 
# From -- ./inp_files/16439.got.cif
#   From: 2010.03.12/outbox.cif.g09.slc.cpg/sg14_9_cif.got.tgz:16439.got - 2010.03.31 13:35:05.
