data_PCOD8127527
_publ_section_title
;
Structure prediction by ZEFSAII (Michael W. Deem and Ramdas Pophale) SiO2 
 PCOD8127527
Probable space group: P 21/C
;
_chemical_formula_sum "Si O2"
_cell_formula_units_Z 24
_cell_length_a 11.401813
_cell_length_b 12.005581
_cell_length_c 14.568158
_cell_angle_alpha 90.000000
_cell_angle_beta 149.877673
_cell_angle_gamma 90.000000
_cell_volume 1000.768877
_symmetry_space_group_name_H-M "P 21/C"
_symmetry_group_IT_number 14
_symmetry_cell_setting 'monoclinic'
loop_
_space_group_symop_operation_xyz
x,y,z
-x,1/2+y,1/2-z
-x,-y,-z
x,1/2-y,1/2+z
loop_
_atom_site_type_symbol
_atom_site_label
_atom_site_fract_x
_atom_site_fract_y
_atom_site_fract_z
Si Si1 0.337864 0.371854 0.102058
Si Si2 0.730250 0.770259 0.254172
Si Si3 0.413296 0.928127 0.529528
Si Si4 0.042035 0.173209 0.855115
Si Si5 0.535255 0.604198 0.458847
Si Si6 0.195824 0.742897 0.632862
O O1 0.301614 0.364123 0.187462
O O2 0.328703 0.496312 0.057435
O O3 0.598132 0.329557 0.264840
O O4 0.150724 0.298225 0.917768
O O5 0.620264 0.650657 0.207751
O O6 0.612788 0.796419 0.078203
O O7 0.011164 0.768699 0.426597
O O8 0.191113 0.849290 0.360055
O O9 0.500000 0.000000 0.500000
O O10 0.252324 0.086775 0.970803
O O11 0.964666 0.166329 0.908667
O O12 0.500000 0.500000 0.500000
O O13 0.294702 0.643535 0.247627
#
# Coordination Sequence:
#
# PCOD8127527 Si02
#       6
#     4   4   4   4   4   4
#     4  10  24  44  66 103 144 175 233 303 352 418
#     4  11  26  42  70 104 142 181 235 303 344 436
#     4  12  23  46  76 106 138 196 247 290 366 427
#     4  10  22  43  69  97 140 179 235 295 342 436
#     4  11  25  44  68  99 143 193 228 290 371 422
#     4  10  22  46  64  98 140 172 242 289 347 426
#
# _framework density 23.981560999999999
#
# number of rings (size 3 to 8) (size 9 to 14) (size 15 to 20)
#    0.000    1.333    3.333    1.000    7.000    5.333 
#    3.000    0.000    0.000    0.000    0.000    0.000 
#    0.000    0.000    0.000    0.000    0.000    0.000 
#
# Total GULP energy -297354.028944 kJ/mol
# GULP energy per Si atom -12389.751206 kJ/mol
# Density = 2.392698 g / cm^3
# Si number density = 23.981561 Si / 1000 Ang^3
#
#
#
# Elastic Constant Matrix: (Units=GPa)
#
#
# Indices 1 2 3 4 5 6 
#
# 1 86.9684 0.4427 13.0444 0.0000 19.0969 0.0000
# 2 0.4427 45.1140 38.0723 0.0000 3.0119 0.0000
# 3 13.0444 38.0723 150.6442 0.0000 30.2840 0.0000
# 4 0.0000 0.0000 0.0000 28.1521 0.0000 -0.9091
# 5 19.0969 3.0119 30.2840 0.0000 40.4370 0.0000
# 6 0.0000 0.0000 0.0000 -0.9091 0.0000 34.6655
#
#
#
# Elastic Compliance Matrix: (Units=1/GPa)
#
#
# Indices 1 2 3 4 5 6 
#
# 1 0.012833 0.000231 0.000061 0.000000 -0.006124 0.000000
# 2 0.000231 0.028686 -0.008027 0.000000 0.003766 0.000000
# 3 0.000061 -0.008027 0.010062 0.000000 -0.006967 0.000000
# 4 0.000000 0.000000 0.000000 0.035551 0.000000 0.000932
# 5 -0.006124 0.003766 -0.006967 0.000000 0.032559 0.000000
# 6 0.000000 0.000000 0.000000 0.000932 0.000000 0.028872
#
#
# Mechanical properties :
#
#
# Convention : Reuss Voigt Hill
#
# Bulk Modulus (GPa) = 27.69145 42.87172 35.28158
# Shear Modulus (GPa) = 28.39788 36.06206 32.22997
#
# Velocity S-wave (km/s) = 3.44489 3.88202 3.66997
# Velocity P-wave (km/s) = 5.23403 6.16516 5.71858
#
# Compressibility (1/GPa) = 0.03611223
#
# Stress axis : x y z
#
# Youngs Moduli (GPa) = 77.92600 34.85964 99.38359
#
# Poissons Ratio (x) = -0.00805 -0.00611
# Poissons Ratio (y) = -0.01800 0.79775
# Poissons Ratio (z) = -0.00479 0.27982
#
# Static dielectric constant tensor:
#      x y z
#    x 4.686700 0.000000 0.279720 
#    y 0.000000 4.154010 0.000000 
#    z 0.279720 0.000000 4.846220 
# 
# 
# High freq. dielectric constant tensor:
#      x y z
#    x 1.961280 0.000000 0.013680 
#    y 0.000000 1.921470 0.000000 
#    z 0.013680 0.000000 1.965050 
# 
# From -- ./inp_files/29882.got.cif
#   From: 2010.03.12/outbox.cif.g09.slc.cpg/sg14_15_cif.got.tgz:29882.got - 2010.03.31 13:35:05.
