data_PCOD8127926
_publ_section_title
;
Structure prediction by ZEFSAII (Michael W. Deem and Ramdas Pophale) SiO2 
 PCOD8127926
Probable space group: P 21/C
;
_chemical_formula_sum "Si O2"
_cell_formula_units_Z 32
_cell_length_a 9.175964
_cell_length_b 15.115144
_cell_length_c 23.348639
_cell_angle_alpha 90.000000
_cell_angle_beta 150.377395
_cell_angle_gamma 90.000000
_cell_volume 1600.673956
_symmetry_space_group_name_H-M "P 21/C"
_symmetry_group_IT_number 14
_symmetry_cell_setting 'monoclinic'
loop_
_space_group_symop_operation_xyz
x,y,z
-x,1/2+y,1/2-z
-x,-y,-z
x,1/2-y,1/2+z
loop_
_atom_site_type_symbol
_atom_site_label
_atom_site_fract_x
_atom_site_fract_y
_atom_site_fract_z
Si Si1 0.074914 0.665003 0.770563
Si Si2 0.655016 0.149700 0.256636
Si Si3 0.333668 0.490865 0.384628
Si Si4 0.664277 0.081927 0.530086
Si Si5 0.304790 0.848765 0.223160
Si Si6 0.164257 0.017969 0.615242
Si Si7 0.177419 0.432102 0.522870
Si Si8 0.931955 0.640351 0.207873
O O1 0.247988 0.639259 0.885871
O O2 0.266778 0.651553 0.778736
O O3 0.777684 0.608676 0.661975
O O4 0.007803 0.766301 0.761212
O O5 0.656946 0.247537 0.285413
O O6 0.338760 0.142690 0.116175
O O7 0.936185 0.136866 0.311162
O O8 0.681548 0.074079 0.313940
O O9 0.500000 0.500000 0.500000
O O10 0.558599 0.509172 0.411030
O O11 0.062329 0.560169 0.290300
O O12 0.422322 0.135160 0.410978
O O13 0.939943 0.053745 0.586151
O O14 0.500000 0.000000 0.500000
O O15 0.588711 0.906900 0.306076
O O16 0.017138 0.887816 0.093249
O O17 0.000000 0.000000 0.500000
O O18 0.000000 0.500000 0.500000
#
# Coordination Sequence:
#
# PCOD8127926 Si02
#       8
#     4   4   4   4   4   4   4   4
#     4  11  24  42  69  96 130 170 222 272 324 390
#     4  10  23  43  68  94 128 174 220 265 325 400
#     4  11  22  40  65  96 124 163 216 263 312 387
#     4  12  22  45  69  91 134 174 216 275 325 383
#     4  11  25  42  67  99 128 175 220 266 330 394
#     4  12  26  44  66 100 134 174 221 269 329 398
#     4  11  22  43  66  87 132 170 207 263 328 383
#     4  10  24  41  68  98 125 173 220 264 328 381
#
# _framework density 19.991579999999999
#
# number of rings (size 3 to 8) (size 9 to 14) (size 15 to 20)
#    0.000    1.000    5.000    1.500    3.500    2.000 
#    4.500    0.000    0.000    0.000    0.000    0.000 
#    0.000    0.000    0.000    0.000    0.000    0.000 
#
# Total GULP energy -396795.565072 kJ/mol
# GULP energy per Si atom -12399.861409 kJ/mol
# Density = 1.994608 g / cm^3
# Si number density = 19.991580 Si / 1000 Ang^3
#
#
#
# Elastic Constant Matrix: (Units=GPa)
#
#
# Indices 1 2 3 4 5 6 
#
# 1 73.9717 50.7474 47.5330 0.0000 3.0313 0.0000
# 2 50.7474 112.7927 33.2457 0.0000 4.2210 0.0000
# 3 47.5330 33.2457 125.9836 0.0000 -1.5118 0.0000
# 4 0.0000 0.0000 0.0000 37.2981 0.0000 -2.0731
# 5 3.0313 4.2210 -1.5118 0.0000 38.0021 0.0000
# 6 0.0000 0.0000 0.0000 -2.0731 0.0000 31.1829
#
#
#
# Elastic Compliance Matrix: (Units=1/GPa)
#
#
# Indices 1 2 3 4 5 6 
#
# 1 0.023860 -0.008710 -0.006718 0.000000 -0.001203 0.000000
# 2 -0.008710 0.012845 -0.000112 0.000000 -0.000736 0.000000
# 3 -0.006718 -0.000112 0.010514 0.000000 0.000967 0.000000
# 4 0.000000 0.000000 0.000000 0.026910 0.000000 0.001789
# 5 -0.001203 -0.000736 0.000967 0.000000 0.026531 0.000000
# 6 0.000000 0.000000 0.000000 0.001789 0.000000 0.032188
#
#
# Mechanical properties :
#
#
# Convention : Reuss Voigt Hill
#
# Bulk Modulus (GPa) = 61.96585 63.97781 62.97183
# Shear Modulus (GPa) = 29.53182 33.37808 31.45495
#
# Velocity S-wave (km/s) = 3.84762 4.09052 3.97093
# Velocity P-wave (km/s) = 7.12757 7.37439 7.25203
#
# Compressibility (1/GPa) = 0.01613792
#
# Stress axis : x y z
#
# Youngs Moduli (GPa) = 41.91030 77.84978 95.11483
#
# Poissons Ratio (x) = 0.67807 0.63902
# Poissons Ratio (y) = 0.36504 0.01068
# Poissons Ratio (z) = 0.28157 0.00875
#
# Static dielectric constant tensor:
#      x y z
#    x 3.650340 0.000000 -0.081570 
#    y 0.000000 4.079900 0.000000 
#    z -0.081570 0.000000 3.980580 
# 
# 
# High freq. dielectric constant tensor:
#      x y z
#    x 1.767460 0.000000 -0.001650 
#    y 0.000000 1.791800 0.000000 
#    z -0.001650 0.000000 1.797990 
# 
# From -- ./inp_files/72482.got.cif
#   From: 2010.03.12/outbox.cif.g09.slc.cpg/sg14_37_cif.got.tgz:72482.got - 2010.03.31 13:35:05.
