data_PCOD8127570
_publ_section_title
;
Structure prediction by ZEFSAII (Michael W. Deem and Ramdas Pophale) SiO2 
 PCOD8127570
Probable space group: P 21/C
;
_chemical_formula_sum "Si O2"
_cell_formula_units_Z 28
_cell_length_a 18.674743
_cell_length_b 12.168020
_cell_length_c 11.069164
_cell_angle_alpha 90.000000
_cell_angle_beta 149.051492
_cell_angle_gamma 90.000000
_cell_volume 1293.535858
_symmetry_space_group_name_H-M "P 21/C"
_symmetry_group_IT_number 14
_symmetry_cell_setting 'monoclinic'
loop_
_space_group_symop_operation_xyz
x,y,z
-x,1/2+y,1/2-z
-x,-y,-z
x,1/2-y,1/2+z
loop_
_atom_site_type_symbol
_atom_site_label
_atom_site_fract_x
_atom_site_fract_y
_atom_site_fract_z
Si Si1 0.697873 0.361496 0.974343
Si Si2 0.204131 0.059046 0.988224
Si Si3 0.949423 0.995922 0.788426
Si Si4 0.239811 0.303392 0.974693
Si Si5 0.327764 0.875831 0.016826
Si Si6 0.377006 0.436243 0.969735
Si Si7 0.482693 0.875356 0.000686
O O1 0.748691 0.242406 0.090138
O O2 0.574423 0.324050 0.705146
O O3 0.823788 0.419233 0.087255
O O4 0.638578 0.441759 0.993313
O O5 0.193049 0.176841 0.906260
O O6 0.068647 0.029590 0.868938
O O7 0.335079 0.057974 0.269046
O O8 0.220507 0.969596 0.905247
O O9 0.892307 0.874745 0.670994
O O10 0.000000 0.000000 0.000000
O O11 0.278398 0.348671 0.897161
O O12 0.374314 0.316255 0.255590
O O13 0.466033 0.893659 0.297336
O O14 0.365124 0.878168 0.931612
O O15 0.500000 0.000000 0.000000
#
# Coordination Sequence:
#
# PCOD8127570 Si02
#       7
#     4   4   4   4   4   4   4
#     4  11  23  43  68  94 136 176 221 266 342 391
#     4  12  25  42  68 100 135 170 235 268 317 416
#     4  11  23  47  66  91 133 185 218 263 340 394
#     4  10  23  42  69  95 129 180 217 267 342 387
#     4  11  26  37  71 106 124 171 227 279 328 392
#     4  10  22  44  66  97 133 177 207 280 343 388
#     4  11  21  44  68  96 136 169 214 284 337 384
#
# _framework density 21.646094000000002
#
# number of rings (size 3 to 8) (size 9 to 14) (size 15 to 20)
#    0.000    1.143    7.143    1.286    8.000    1.143 
#    0.000    0.714    0.000    0.000    0.000    0.000 
#    0.000    0.000    0.000    0.000    0.000    0.000 
#
# Total GULP energy -347012.412729 kJ/mol
# GULP energy per Si atom -12393.300455 kJ/mol
# Density = 2.159683 g / cm^3
# Si number density = 21.646094 Si / 1000 Ang^3
#
#
#
# Elastic Constant Matrix: (Units=GPa)
#
#
# Indices 1 2 3 4 5 6 
#
# 1 51.2862 59.3537 0.3075 0.0000 8.9399 0.0000
# 2 59.3537 196.6272 17.3496 0.0000 6.2331 0.0000
# 3 0.3075 17.3496 48.0237 0.0000 -2.3687 0.0000
# 4 0.0000 0.0000 0.0000 18.6221 0.0000 2.0023
# 5 8.9399 6.2331 -2.3687 0.0000 34.5964 0.0000
# 6 0.0000 0.0000 0.0000 2.0023 0.0000 22.0896
#
#
#
# Elastic Compliance Matrix: (Units=1/GPa)
#
#
# Indices 1 2 3 4 5 6 
#
# 1 0.031730 -0.009642 0.002971 0.000000 -0.006259 0.000000
# 2 -0.009642 0.008224 -0.002869 0.000000 0.000813 0.000000
# 3 0.002971 -0.002869 0.021902 0.000000 0.001249 0.000000
# 4 0.000000 0.000000 0.000000 0.054228 0.000000 -0.004916
# 5 -0.006259 0.000813 0.001249 0.000000 0.030461 0.000000
# 6 0.000000 0.000000 0.000000 -0.004916 0.000000 0.045716
#
#
# Mechanical properties :
#
#
# Convention : Reuss Voigt Hill
#
# Bulk Modulus (GPa) = 23.37710 49.99541 36.68625
# Shear Modulus (GPa) = 22.16325 29.65670 25.90997
#
# Velocity S-wave (km/s) = 3.20330 3.70546 3.46350
# Velocity P-wave (km/s) = 4.95022 6.43849 5.74277
#
# Compressibility (1/GPa) = 0.04277691
#
# Stress axis : x y z
#
# Youngs Moduli (GPa) = 31.51583 121.60119 45.65768
#
# Poissons Ratio (x) = 1.17245 -0.13567
# Poissons Ratio (y) = 0.30387 0.13100
# Poissons Ratio (z) = -0.09365 0.34889
#
# Static dielectric constant tensor:
#      x y z
#    x 3.872970 0.000000 0.059250 
#    y 0.000000 4.041790 0.000000 
#    z 0.059250 0.000000 3.699870 
# 
# 
# High freq. dielectric constant tensor:
#      x y z
#    x 1.845540 0.000000 0.002310 
#    y 0.000000 1.862300 0.000000 
#    z 0.002310 0.000000 1.834420 
# 
# From -- ./inp_files/35205.got.cif
#   From: 2010.03.12/outbox.cif.g09.slc.cpg/sg14_18_cif.got.tgz:35205.got - 2010.03.31 13:35:05.
