data_PCOD8127662
_publ_section_title
;
Structure prediction by ZEFSAII (Michael W. Deem and Ramdas Pophale) SiO2 
 PCOD8127662
Probable space group: P 21/C
;
_chemical_formula_sum "Si O2"
_cell_formula_units_Z 24
_cell_length_a 11.303066
_cell_length_b 8.334823
_cell_length_c 23.090151
_cell_angle_alpha 90.000000
_cell_angle_beta 151.453308
_cell_angle_gamma 90.000000
_cell_volume 1039.521617
_symmetry_space_group_name_H-M "P 21/C"
_symmetry_group_IT_number 14
_symmetry_cell_setting 'monoclinic'
loop_
_space_group_symop_operation_xyz
x,y,z
-x,1/2+y,1/2-z
-x,-y,-z
x,1/2-y,1/2+z
loop_
_atom_site_type_symbol
_atom_site_label
_atom_site_fract_x
_atom_site_fract_y
_atom_site_fract_z
Si Si1 0.961900 0.936129 0.258316
Si Si2 0.449708 0.042333 0.079820
Si Si3 0.192268 0.137116 0.454024
Si Si4 0.673941 0.313251 0.784442
Si Si5 0.508622 0.030027 0.326564
Si Si6 0.011419 0.393723 0.667867
O O1 0.038670 0.763161 0.315175
O O2 0.668838 0.966756 0.136223
O O3 0.111261 0.072906 0.356965
O O4 0.035107 0.953540 0.222014
O O5 0.534568 0.057579 0.183253
O O6 0.386056 0.219009 0.027638
O O7 0.215135 0.923321 0.973830
O O8 0.960602 0.203501 0.391031
O O9 0.316719 0.990182 0.542448
O O10 0.654794 0.366316 0.842482
O O11 0.547657 0.142020 0.724621
O O12 0.260175 0.124711 0.237717
#
# Coordination Sequence:
#
# PCOD8127662 Si02
#       6
#     4   4   4   4   4   4
#     4  11  27  43  71  98 137 176 231 274 337 402
#     4  10  23  47  68  97 136 179 224 282 327 399
#     4  10  22  46  71  94 138 180 226 275 339 392
#     4  10  23  43  68 100 134 181 221 280 333 399
#     4  11  25  42  69  98 139 176 226 277 338 397
#     4  12  26  45  68 101 135 180 225 280 338 397
#
# _framework density 23.087544999999999
#
# number of rings (size 3 to 8) (size 9 to 14) (size 15 to 20)
#    0.000    1.333    1.667    2.000   11.667    1.333 
#    0.000    0.000    0.000    0.000    0.000    0.000 
#    0.000    0.000    0.000    0.000    0.000    0.000 
#
# Total GULP energy -297769.761068 kJ/mol
# GULP energy per Si atom -12407.073378 kJ/mol
# Density = 2.303500 g / cm^3
# Si number density = 23.087545 Si / 1000 Ang^3
#
#
#
# Elastic Constant Matrix: (Units=GPa)
#
#
# Indices 1 2 3 4 5 6 
#
# 1 67.5517 -0.7247 4.7354 0.0000 -2.4852 0.0000
# 2 -0.7247 59.5040 -2.1261 0.0000 0.1309 0.0000
# 3 4.7354 -2.1261 99.0899 0.0000 6.7246 0.0000
# 4 0.0000 0.0000 0.0000 25.1985 0.0000 -3.7655
# 5 -2.4852 0.1309 6.7246 0.0000 17.4401 0.0000
# 6 0.0000 0.0000 0.0000 -3.7655 0.0000 35.3621
#
#
#
# Elastic Compliance Matrix: (Units=1/GPa)
#
#
# Indices 1 2 3 4 5 6 
#
# 1 0.014958 0.000145 -0.000879 0.000000 0.002469 0.000000
# 2 0.000145 0.016821 0.000371 0.000000 -0.000249 0.000000
# 3 -0.000879 0.000371 0.010423 0.000000 -0.004147 0.000000
# 4 0.000000 0.000000 0.000000 0.040327 0.000000 0.004294
# 5 0.002469 -0.000249 -0.004147 0.000000 0.059292 0.000000
# 6 0.000000 0.000000 0.000000 0.004294 0.000000 0.028736
#
#
# Mechanical properties :
#
#
# Convention : Reuss Voigt Hill
#
# Bulk Modulus (GPa) = 24.11047 25.54607 24.82827
# Shear Modulus (GPa) = 27.01125 30.55089 28.78107
#
# Velocity S-wave (km/s) = 3.42416 3.64161 3.53456
# Velocity P-wave (km/s) = 5.10871 5.36383 5.23782
#
# Compressibility (1/GPa) = 0.04147576
#
# Stress axis : x y z
#
# Youngs Moduli (GPa) = 66.85597 59.44890 95.93929
#
# Poissons Ratio (x) = -0.00864 0.08436
# Poissons Ratio (y) = -0.00972 -0.03558
# Poissons Ratio (z) = 0.05878 -0.02205
#
# Static dielectric constant tensor:
#      x y z
#    x 3.907540 0.000000 -0.055410 
#    y 0.000000 3.998130 0.000000 
#    z -0.055410 0.000000 4.350960 
# 
# 
# High freq. dielectric constant tensor:
#      x y z
#    x 1.899640 0.000000 -0.001920 
#    y 0.000000 1.911350 0.000000 
#    z -0.001920 0.000000 1.925820 
# 
# From -- ./inp_files/28015.got.cif
#   From: 2010.03.12/outbox.cif.g09.slc.cpg/sg14_15_cif.got.tgz:28015.got - 2010.03.31 13:35:05.
