data_PCOD8127080
_publ_section_title
;
Structure prediction by ZEFSAII (Michael W. Deem and Ramdas Pophale) SiO2 
 PCOD8127080
Probable space group: P 21/C
;
_chemical_formula_sum "Si O2"
_cell_formula_units_Z 24
_cell_length_a 8.574698
_cell_length_b 15.415296
_cell_length_c 9.883204
_cell_angle_alpha 90.000000
_cell_angle_beta 87.692356
_cell_angle_gamma 90.000000
_cell_volume 1305.317377
_symmetry_space_group_name_H-M "P 21/C"
_symmetry_group_IT_number 14
_symmetry_cell_setting 'monoclinic'
loop_
_space_group_symop_operation_xyz
x,y,z
-x,1/2+y,1/2-z
-x,-y,-z
x,1/2-y,1/2+z
loop_
_atom_site_type_symbol
_atom_site_label
_atom_site_fract_x
_atom_site_fract_y
_atom_site_fract_z
Si Si1 0.970539 0.446370 0.634730
Si Si2 0.167752 0.202783 0.211446
Si Si3 0.322459 0.667194 0.049396
Si Si4 0.313512 0.182233 0.494555
Si Si5 0.171608 0.773951 0.820018
Si Si6 0.853049 0.509727 0.909298
O O1 0.838843 0.371428 0.615510
O O2 0.912447 0.511703 0.752658
O O3 0.000000 0.500000 0.500000
O O4 0.130896 0.398356 0.677430
O O5 0.227794 0.210728 0.361206
O O6 0.295214 0.239828 0.102784
O O7 0.006032 0.258032 0.204632
O O8 0.266448 0.724982 0.176967
O O9 0.263161 0.569701 0.062536
O O10 0.507415 0.665626 0.041403
O O11 0.256201 0.707719 0.914773
O O12 0.239102 0.096926 0.560165
O O13 0.000000 0.500000 0.000000
#
# Coordination Sequence:
#
# PCOD8127080 Si02
#       6
#     4   4   4   4   4   4
#     4   9  21  37  61  89 112 151 207 252 290 351
#     4  10  22  39  61  88 116 160 204 250 288 377
#     4  11  22  39  58  91 122 160 195 260 306 352
#     4  12  23  38  61  90 124 154 203 254 312 354
#     4   9  20  38  60  82 119 155 205 237 300 360
#     4  11  21  40  61  86 119 163 204 246 296 370
#
# _framework density 18.386333
#
# number of rings (size 3 to 8) (size 9 to 14) (size 15 to 20)
#    1.000    0.667    1.667    3.500    2.333    1.333 
#    0.000    0.000    0.000    3.000    0.000    0.000 
#    0.000    0.000    0.000    0.000    0.000    0.000 
#
# Total GULP energy -297537.407435 kJ/mol
# GULP energy per Si atom -12397.391976 kJ/mol
# Density = 1.834448 g / cm^3
# Si number density = 18.386333 Si / 1000 Ang^3
#
#
#
# Elastic Constant Matrix: (Units=GPa)
#
#
# Indices 1 2 3 4 5 6 
#
# 1 100.7375 18.9205 33.8394 0.0000 -8.4887 0.0000
# 2 18.9205 45.4066 43.1320 0.0000 -0.6885 0.0000
# 3 33.8394 43.1320 127.3776 0.0000 -6.8838 0.0000
# 4 0.0000 0.0000 0.0000 35.1633 0.0000 -5.0895
# 5 -8.4887 -0.6885 -6.8838 0.0000 28.7784 0.0000
# 6 0.0000 0.0000 0.0000 -5.0895 0.0000 31.2225
#
#
#
# Elastic Compliance Matrix: (Units=1/GPa)
#
#
# Indices 1 2 3 4 5 6 
#
# 1 0.011340 -0.002898 -0.001879 0.000000 0.002826 0.000000
# 2 -0.002898 0.033307 -0.010649 0.000000 -0.002605 0.000000
# 3 -0.001879 -0.010649 0.012068 0.000000 0.002078 0.000000
# 4 0.000000 0.000000 0.000000 0.029126 0.000000 0.004748
# 5 0.002826 -0.002605 0.002078 0.000000 0.036017 0.000000
# 6 0.000000 0.000000 0.000000 0.004748 0.000000 0.032802
#
#
# Mechanical properties :
#
#
# Convention : Reuss Voigt Hill
#
# Bulk Modulus (GPa) = 38.66426 51.70061 45.18243
# Shear Modulus (GPa) = 25.75557 30.87483 28.31520
#
# Velocity S-wave (km/s) = 3.74679 4.10228 3.92856
# Velocity P-wave (km/s) = 6.30812 7.11466 6.72349
#
# Compressibility (1/GPa) = 0.02586368
#
# Stress axis : x y z
#
# Youngs Moduli (GPa) = 88.18094 30.02375 82.86371
#
# Poissons Ratio (x) = 0.08701 0.15567
# Poissons Ratio (y) = 0.25555 0.88243
# Poissons Ratio (z) = 0.16566 0.31973
#
# Static dielectric constant tensor:
#      x y z
#    x 3.823870 0.000000 0.114410 
#    y 0.000000 3.376830 0.000000 
#    z 0.114410 0.000000 3.496090 
# 
# 
# High freq. dielectric constant tensor:
#      x y z
#    x 1.707750 0.000000 -0.010360 
#    y 0.000000 1.706760 0.000000 
#    z -0.010360 0.000000 1.723390 
# 
# From -- ./inp_files/8599.got.cif
#   From: 2010.03.12/outbox.cif.g09.slc.cpg/sg14_5_cif.got.tgz:8599.got - 2010.03.31 13:35:05.
