data_PCOD8127143
_publ_section_title
;
Structure prediction by ZEFSAII (Michael W. Deem and Ramdas Pophale) SiO2 
 PCOD8127143
Probable space group: P 21/C
;
_chemical_formula_sum "Si O2"
_cell_formula_units_Z 24
_cell_length_a 12.193878
_cell_length_b 10.813427
_cell_length_c 26.307859
_cell_angle_alpha 90.000000
_cell_angle_beta 161.934695
_cell_angle_gamma 90.000000
_cell_volume 1075.705983
_symmetry_space_group_name_H-M "P 21/C"
_symmetry_group_IT_number 14
_symmetry_cell_setting 'monoclinic'
loop_
_space_group_symop_operation_xyz
x,y,z
-x,1/2+y,1/2-z
-x,-y,-z
x,1/2-y,1/2+z
loop_
_atom_site_type_symbol
_atom_site_label
_atom_site_fract_x
_atom_site_fract_y
_atom_site_fract_z
Si Si1 0.438166 0.329791 0.372373
Si Si2 0.224315 0.804693 0.880534
Si Si3 0.823306 0.027402 0.316817
Si Si4 0.245755 0.396291 0.908763
Si Si5 0.222859 0.122026 0.112134
Si Si6 0.749514 0.154142 0.431606
O O1 0.674449 0.379697 0.523619
O O2 0.420152 0.429671 0.320227
O O3 0.622040 0.208256 0.429663
O O4 0.056787 0.299419 0.227105
O O5 0.086117 0.896829 0.776284
O O6 0.566651 0.735964 0.009111
O O7 0.007823 0.963957 0.447277
O O8 0.552941 0.131826 0.218122
O O9 0.118988 0.083594 0.410320
O O10 0.500000 0.500000 0.000000
O O11 0.401448 0.113453 0.246873
O O12 0.979571 0.244139 0.001645
O O13 0.000000 0.000000 0.000000
#
# Coordination Sequence:
#
# PCOD8127143 Si02
#       6
#     4   4   4   4   4   4
#     4  11  18  39  67  97 126 173 218 264 326 399
#     4  10  22  39  68  98 136 172 219 279 320 397
#     4  12  24  41  68  99 131 183 226 267 345 398
#     4  11  23  44  65 101 138 178 225 274 336 397
#     4  12  25  43  68 100 130 174 228 283 339 398
#     4  12  23  44  69  98 137 174 231 284 327 416
#
# _framework density 22.310929000000002
#
# number of rings (size 3 to 8) (size 9 to 14) (size 15 to 20)
#    0.000    0.667    6.667    1.500    0.000    2.000 
#    0.000    0.000    0.000    0.000    0.000    0.000 
#    0.000    0.000    0.000    0.000    0.000    0.000 
#
# Total GULP energy -297583.839107 kJ/mol
# GULP energy per Si atom -12399.326629 kJ/mol
# Density = 2.226015 g / cm^3
# Si number density = 22.310929 Si / 1000 Ang^3
#
#
#
# Elastic Constant Matrix: (Units=GPa)
#
#
# Indices 1 2 3 4 5 6 
#
# 1 114.4387 33.7108 45.6420 0.0000 5.8665 0.0000
# 2 33.7108 54.6248 41.8057 0.0000 -8.6582 0.0000
# 3 45.6420 41.8057 124.0962 0.0001 -24.1715 0.0000
# 4 0.0000 0.0000 0.0001 38.4878 0.0000 2.1949
# 5 5.8665 -8.6582 -24.1715 0.0000 55.9188 0.0000
# 6 0.0000 0.0000 0.0000 2.1949 0.0000 33.1496
#
#
#
# Elastic Compliance Matrix: (Units=1/GPa)
#
#
# Indices 1 2 3 4 5 6 
#
# 1 0.011769 -0.005366 -0.003192 0.000000 -0.003445 0.000000
# 2 -0.005366 0.027116 -0.006807 0.000000 0.001819 0.000000
# 3 -0.003192 -0.006807 0.012432 0.000000 0.004655 0.000000
# 4 0.000000 0.000000 0.000000 0.026081 0.000000 -0.001727
# 5 -0.003445 0.001819 0.004655 0.000000 0.020538 0.000000
# 6 0.000000 0.000000 0.000000 -0.001727 0.000000 0.030281
#
#
# Mechanical properties :
#
#
# Convention : Reuss Voigt Hill
#
# Bulk Modulus (GPa) = 48.57420 59.49742 54.03581
# Shear Modulus (GPa) = 30.15525 36.97799 33.56662
#
# Velocity S-wave (km/s) = 3.68039 4.07553 3.88299
# Velocity P-wave (km/s) = 6.31499 6.99084 6.66149
#
# Compressibility (1/GPa) = 0.02058706
#
# Stress axis : x y z
#
# Youngs Moduli (GPa) = 84.97161 36.87824 80.43775
#
# Poissons Ratio (x) = 0.19790 0.25674
# Poissons Ratio (y) = 0.45597 0.54754
# Poissons Ratio (z) = 0.27121 0.25103
#
# Static dielectric constant tensor:
#      x y z
#    x 4.092050 0.000000 -0.013990 
#    y 0.000000 3.711550 0.000000 
#    z -0.013990 0.000000 4.406580 
# 
# 
# High freq. dielectric constant tensor:
#      x y z
#    x 1.884750 0.000000 -0.000170 
#    y 0.000000 1.845710 0.000000 
#    z -0.000170 0.000000 1.899870 
# 
# From -- ./inp_files/77248.got.cif
#   From: 2010.03.12/outbox.cif.g09.slc.cpg/sg14_39_cif.got.tgz:77248.got - 2010.03.31 13:35:05.
