data_PCOD8127032
_publ_section_title
;
Structure prediction by ZEFSAII (Michael W. Deem and Ramdas Pophale) SiO2 
 PCOD8127032
Probable space group: P 21/C
;
_chemical_formula_sum "Si O2"
_cell_formula_units_Z 20
_cell_length_a 12.664110
_cell_length_b 11.969129
_cell_length_c 14.273674
_cell_angle_alpha 90.000000
_cell_angle_beta 26.056812
_cell_angle_gamma 90.000000
_cell_volume 950.378854
_symmetry_space_group_name_H-M "P 21/C"
_symmetry_group_IT_number 14
_symmetry_cell_setting 'monoclinic'
loop_
_space_group_symop_operation_xyz
x,y,z
-x,1/2+y,1/2-z
-x,-y,-z
x,1/2-y,1/2+z
loop_
_atom_site_type_symbol
_atom_site_label
_atom_site_fract_x
_atom_site_fract_y
_atom_site_fract_z
Si Si1 0.048027 0.113331 0.516015
Si Si2 0.004686 0.258546 0.875546
Si Si3 0.565024 0.380914 0.681586
Si Si4 0.657676 0.937402 0.449057
Si Si5 0.096147 0.483530 0.700210
O O1 0.948036 0.213457 0.530480
O O2 0.326991 0.143740 0.311961
O O3 0.000000 0.000000 0.500000
O O4 0.917312 0.093327 0.719983
O O5 0.206571 0.164238 0.709508
O O6 0.122355 0.366943 0.732761
O O7 0.759496 0.219687 0.019851
O O8 0.678296 0.495015 0.547824
O O9 0.515006 0.396492 0.830686
O O10 0.500000 0.000000 0.500000
O O11 0.851432 0.023922 0.336070
#
# Coordination Sequence:
#
# PCOD8127032 Si02
#       5
#     4   4   4   4   4
#     4   9  20  39  63  91 118 158 214 246 306 374
#     4  10  22  38  63  94 119 168 203 252 322 362
#     4  10  22  41  60  89 131 157 204 267 298 365
#     4  10  23  41  58  92 125 163 207 247 314 375
#     4   9  21  41  61  92 124 160 213 254 304 376
#
# _framework density 21.044239999999999
#
# number of rings (size 3 to 8) (size 9 to 14) (size 15 to 20)
#    0.000    2.400    0.000    0.000    2.800   12.800 
#   14.400    0.000    0.000    0.000    0.000    0.000 
#    0.000    0.000    0.000    0.000    0.000    0.000 
#
# Total GULP energy -247863.066454 kJ/mol
# GULP energy per Si atom -12393.153323 kJ/mol
# Density = 2.099634 g / cm^3
# Si number density = 21.044240 Si / 1000 Ang^3
#
#
#
# Elastic Constant Matrix: (Units=GPa)
#
#
# Indices 1 2 3 4 5 6 
#
# 1 122.8333 44.1079 23.4265 0.0000 -9.1327 0.0000
# 2 44.1079 94.0936 29.8874 0.0000 -7.7323 0.0000
# 3 23.4265 29.8874 69.6117 0.0000 0.2889 0.0000
# 4 0.0000 0.0000 0.0000 20.7855 0.0000 4.8269
# 5 -9.1327 -7.7323 0.2889 0.0000 24.3725 0.0000
# 6 0.0000 0.0000 0.0000 4.8269 0.0000 36.5400
#
#
#
# Elastic Compliance Matrix: (Units=1/GPa)
#
#
# Indices 1 2 3 4 5 6 
#
# 1 0.010082 -0.003979 -0.001695 0.000000 0.002535 0.000000
# 2 -0.003979 0.014272 -0.004801 0.000000 0.003094 0.000000
# 3 -0.001695 -0.004801 0.017007 0.000000 -0.002360 0.000000
# 4 0.000000 0.000000 0.000000 0.049633 0.000000 -0.006556
# 5 0.002535 0.003094 -0.002360 0.000000 0.042989 0.000000
# 6 0.000000 0.000000 0.000000 -0.006556 0.000000 0.028233
#
#
# Mechanical properties :
#
#
# Convention : Reuss Voigt Hill
#
# Bulk Modulus (GPa) = 48.99561 53.48692 51.24126
# Shear Modulus (GPa) = 26.31968 28.94736 27.63352
#
# Velocity S-wave (km/s) = 3.54034 3.71286 3.62763
# Velocity P-wave (km/s) = 6.32809 6.62209 6.47676
#
# Compressibility (1/GPa) = 0.02040999
#
# Stress axis : x y z
#
# Youngs Moduli (GPa) = 99.18877 70.06510 58.79908
#
# Poissons Ratio (x) = 0.27881 0.09966
# Poissons Ratio (y) = 0.39470 0.28232
# Poissons Ratio (z) = 0.16811 0.33642
#
# Static dielectric constant tensor:
#      x y z
#    x 4.205570 0.000000 0.229180 
#    y 0.000000 3.880440 0.000000 
#    z 0.229180 0.000000 3.869640 
# 
# 
# High freq. dielectric constant tensor:
#      x y z
#    x 1.839960 0.000000 0.003500 
#    y 0.000000 1.805070 0.000000 
#    z 0.003500 0.000000 1.822750 
# 
# From -- ./inp_files/44570.got.cif
#   From: 2010.03.12/outbox.cif.g09.slc.cpg/sg14_23_cif.got.tgz:44570.got - 2010.03.31 13:35:05.
