data_PCOD8127542
_publ_section_title
;
Structure prediction by ZEFSAII (Michael W. Deem and Ramdas Pophale) SiO2 
 PCOD8127542
Probable space group: P 21/C
;
_chemical_formula_sum "Si O2"
_cell_formula_units_Z 20
_cell_length_a 5.174127
_cell_length_b 18.610234
_cell_length_c 9.253448
_cell_angle_alpha 90.000000
_cell_angle_beta 74.751499
_cell_angle_gamma 90.000000
_cell_volume 859.660938
_symmetry_space_group_name_H-M "P 21/C"
_symmetry_group_IT_number 14
_symmetry_cell_setting 'monoclinic'
loop_
_space_group_symop_operation_xyz
x,y,z
-x,1/2+y,1/2-z
-x,-y,-z
x,1/2-y,1/2+z
loop_
_atom_site_type_symbol
_atom_site_label
_atom_site_fract_x
_atom_site_fract_y
_atom_site_fract_z
Si Si1 0.453666 0.305514 0.781940
Si Si2 0.744553 0.942086 0.812603
Si Si3 0.089777 0.905640 0.290509
Si Si4 0.810410 0.103748 0.049524
Si Si5 0.450339 0.330904 0.107594
O O1 0.236648 0.369591 0.787696
O O2 0.730054 0.325964 0.655952
O O3 0.347973 0.230734 0.732344
O O4 0.508053 0.295920 0.943232
O O5 0.434032 0.954140 0.904351
O O6 0.920930 0.932769 0.930884
O O7 0.856852 0.009091 0.705593
O O8 0.275377 0.865894 0.378668
O O9 0.779795 0.891018 0.371516
O O10 0.153024 0.874962 0.122030
#
# Coordination Sequence:
#
# PCOD8127542 Si02
#       5
#     4   4   4   4   4
#     4  10  28  45  69  95 140 176 230 270 347 391
#     4  10  23  43  73 100 136 176 225 275 331 404
#     4  12  25  43  72 103 135 175 229 273 340 393
#     4  10  22  43  72  96 138 171 225 266 333 399
#     4  12  28  43  69  98 136 179 223 283 334 404
#
# _framework density 23.264986
#
# number of rings (size 3 to 8) (size 9 to 14) (size 15 to 20)
#    1.200    0.000    0.000    4.800    8.400    1.600 
#    0.000    0.000    0.000    0.000    0.000    0.000 
#    0.000    0.000    0.000    0.000    0.000    0.000 
#
# Total GULP energy -247967.505337 kJ/mol
# GULP energy per Si atom -12398.375267 kJ/mol
# Density = 2.321203 g / cm^3
# Si number density = 23.264986 Si / 1000 Ang^3
#
#
#
# Elastic Constant Matrix: (Units=GPa)
#
#
# Indices 1 2 3 4 5 6 
#
# 1 138.9761 30.4490 24.7405 0.0000 23.4743 0.0000
# 2 30.4490 74.5529 -6.0256 0.0000 12.7687 0.0000
# 3 24.7405 -6.0256 54.2722 0.0000 27.6713 0.0000
# 4 0.0000 0.0000 0.0000 27.7031 0.0000 3.4205
# 5 23.4743 12.7687 27.6713 0.0000 37.5327 0.0000
# 6 0.0000 0.0000 0.0000 3.4205 0.0000 25.7363
#
#
#
# Elastic Compliance Matrix: (Units=1/GPa)
#
#
# Indices 1 2 3 4 5 6 
#
# 1 0.008922 -0.003651 -0.003622 0.000000 -0.001667 0.000000
# 2 -0.003651 0.017324 0.008698 0.000000 -0.010023 0.000000
# 3 -0.003622 0.008698 0.034283 0.000000 -0.025969 0.000000
# 4 0.000000 0.000000 0.000000 0.036699 0.000000 -0.004878
# 5 -0.001667 -0.010023 -0.025969 0.000000 0.050242 0.000000
# 6 0.000000 0.000000 0.000000 -0.004878 0.000000 0.039504
#
#
# Mechanical properties :
#
#
# Convention : Reuss Voigt Hill
#
# Bulk Modulus (GPa) = 15.77821 40.68101 28.22961
# Shear Modulus (GPa) = 24.36035 32.77025 28.56530
#
# Velocity S-wave (km/s) = 3.23938 3.75716 3.50783
# Velocity P-wave (km/s) = 4.55940 6.02873 5.34479
#
# Compressibility (1/GPa) = 0.06337854
#
# Stress axis : x y z
#
# Youngs Moduli (GPa) = 112.08370 57.72302 29.16867
#
# Poissons Ratio (x) = 0.21075 0.10566
# Poissons Ratio (y) = 0.40923 -0.25371
# Poissons Ratio (z) = 0.40601 -0.50208
#
# Static dielectric constant tensor:
#      x y z
#    x 4.053120 0.000000 0.117230 
#    y 0.000000 4.070750 0.000000 
#    z 0.117230 0.000000 3.933710 
# 
# 
# High freq. dielectric constant tensor:
#      x y z
#    x 1.922660 0.000000 0.013680 
#    y 0.000000 1.915360 0.000000 
#    z 0.013680 0.000000 1.912920 
# 
# From -- ./inp_files/20943.got.cif
#   From: 2010.03.12/outbox.cif.g09.slc.cpg/sg14_11_cif.got.tgz:20943.got - 2010.03.31 13:35:05.
