data_PCOD8127110
_publ_section_title
;
Structure prediction by ZEFSAII (Michael W. Deem and Ramdas Pophale) SiO2 
 PCOD8127110
Probable space group: P 21/C
;
_chemical_formula_sum "Si O2"
_cell_formula_units_Z 16
_cell_length_a 10.327602
_cell_length_b 4.982563
_cell_length_c 11.995866
_cell_angle_alpha 90.000000
_cell_angle_beta 91.445923
_cell_angle_gamma 90.000000
_cell_volume 617.085853
_symmetry_space_group_name_H-M "P 21/C"
_symmetry_group_IT_number 14
_symmetry_cell_setting 'monoclinic'
loop_
_space_group_symop_operation_xyz
x,y,z
-x,1/2+y,1/2-z
-x,-y,-z
x,1/2-y,1/2+z
loop_
_atom_site_type_symbol
_atom_site_label
_atom_site_fract_x
_atom_site_fract_y
_atom_site_fract_z
Si Si1 0.516210 0.871044 0.175034
Si Si2 0.904352 0.442723 0.121290
Si Si3 0.693129 0.153747 0.012973
Si Si4 0.924227 0.446083 0.377848
O O1 0.545514 0.612811 0.252625
O O2 0.647182 0.982642 0.119841
O O3 0.422886 0.771474 0.073102
O O4 0.763485 0.431856 0.056562
O O5 0.877024 0.468472 0.250891
O O6 0.012176 0.658622 0.087305
O O7 0.961643 0.150681 0.093818
O O8 0.797438 0.981932 0.946030
#
# Coordination Sequence:
#
# PCOD8127110 Si02
#       4
#     4   4   4   4
#     4  11  28  47  66  98 134 177 232 283 330 388
#     4  10  22  39  64 100 136 171 216 272 333 399
#     4  11  24  44  72  94 132 181 223 272 336 401
#     4  10  22  39  64 100 136 171 216 272 333 399
#
# _framework density 25.928322999999999
#
# number of rings (size 3 to 8) (size 9 to 14) (size 15 to 20)
#    0.000    1.500    0.000    3.000    0.000   18.000 
#    0.000    0.000    0.000    0.000    0.000    0.000 
#    0.000    0.000    0.000    0.000    0.000    0.000 
#
# Total GULP energy -198344.242613 kJ/mol
# GULP energy per Si atom -12396.515163 kJ/mol
# Density = 2.586931 g / cm^3
# Si number density = 25.928323 Si / 1000 Ang^3
#
#
#
# Elastic Constant Matrix: (Units=GPa)
#
#
# Indices 1 2 3 4 5 6 
#
# 1 126.1499 22.2345 68.1177 0.0000 -7.4850 0.0000
# 2 22.2345 107.9202 37.9374 0.0000 2.5300 0.0000
# 3 68.1177 37.9374 127.8828 0.0000 -0.6896 0.0000
# 4 0.0000 0.0000 0.0000 44.3566 0.0000 1.1772
# 5 -7.4850 2.5300 -0.6896 0.0000 55.5940 0.0000
# 6 0.0000 0.0000 0.0000 1.1772 0.0000 25.2719
#
#
#
# Elastic Compliance Matrix: (Units=1/GPa)
#
#
# Indices 1 2 3 4 5 6 
#
# 1 0.011249 -0.000277 -0.005902 0.000000 0.001454 0.000000
# 2 -0.000277 0.010366 -0.002931 0.000000 -0.000545 0.000000
# 3 -0.005902 -0.002931 0.011830 0.000000 -0.000514 0.000000
# 4 0.000000 0.000000 0.000000 0.022572 0.000000 -0.001051
# 5 0.001454 -0.000545 -0.000514 0.000000 0.018202 0.000000
# 6 0.000000 0.000000 0.000000 -0.001051 0.000000 0.039619
#
#
# Mechanical properties :
#
#
# Convention : Reuss Voigt Hill
#
# Bulk Modulus (GPa) = 65.67621 68.72579 67.20100
# Shear Modulus (GPa) = 36.46116 40.62206 38.54161
#
# Velocity S-wave (km/s) = 3.75404 3.96246 3.85966
# Velocity P-wave (km/s) = 6.64645 6.89191 6.77029
#
# Compressibility (1/GPa) = 0.01522621
#
# Stress axis : x y z
#
# Youngs Moduli (GPa) = 88.89661 96.46776 84.53130
#
# Poissons Ratio (x) = 0.02672 0.49889
# Poissons Ratio (y) = 0.02462 0.24773
# Poissons Ratio (z) = 0.52466 0.28271
#
# Static dielectric constant tensor:
#      x y z
#    x 4.580420 0.000000 -0.105120 
#    y 0.000000 4.435880 0.000000 
#    z -0.105120 0.000000 5.417910 
# 
# 
# High freq. dielectric constant tensor:
#      x y z
#    x 2.034940 0.000000 -0.005670 
#    y 0.000000 2.016160 0.000000 
#    z -0.005670 0.000000 2.089520 
# 
# From -- ./inp_files/27314.got.cif
#   From: 2010.03.12/outbox.cif.g09.slc.cpg/sg14_14_cif.got.tgz:27314.got - 2010.03.31 13:35:05.
