data_PCOD8127382
_publ_section_title
;
Structure prediction by ZEFSAII (Michael W. Deem and Ramdas Pophale) SiO2 
 PCOD8127382
Probable space group: P 21/C
;
_chemical_formula_sum "Si O2"
_cell_formula_units_Z 32
_cell_length_a 11.551225
_cell_length_b 12.027917
_cell_length_c 19.502298
_cell_angle_alpha 90.000000
_cell_angle_beta 31.136823
_cell_angle_gamma 90.000000
_cell_volume 1401.086535
_symmetry_space_group_name_H-M "P 21/C"
_symmetry_group_IT_number 14
_symmetry_cell_setting 'monoclinic'
loop_
_space_group_symop_operation_xyz
x,y,z
-x,1/2+y,1/2-z
-x,-y,-z
x,1/2-y,1/2+z
loop_
_atom_site_type_symbol
_atom_site_label
_atom_site_fract_x
_atom_site_fract_y
_atom_site_fract_z
Si Si1 0.212206 0.316694 0.764353
Si Si2 0.833807 0.592136 0.505371
Si Si3 0.153412 0.962235 0.483484
Si Si4 0.278807 0.315656 0.991208
Si Si5 0.048016 0.747740 0.728141
Si Si6 0.637195 0.899377 0.244729
Si Si7 0.262638 0.904210 0.715808
Si Si8 0.379252 0.934904 0.999404
O O1 0.259310 0.222410 0.796748
O O2 0.431533 0.391455 0.647944
O O3 0.994693 0.389455 0.890901
O O4 0.156061 0.262811 0.720151
O O5 0.698084 0.706540 0.567147
O O6 0.775246 0.545207 0.610914
O O7 0.777356 0.510265 0.469904
O O8 0.096303 0.623103 0.363898
O O9 0.376792 0.890652 0.353752
O O10 0.249049 0.075948 0.462322
O O11 0.000000 0.000000 0.500000
O O12 0.069242 0.312561 0.148640
O O13 0.523811 0.324574 0.900075
O O14 0.138558 0.870826 0.706810
O O15 0.239270 0.668324 0.600461
O O16 0.666384 0.968012 0.302351
O O17 0.500000 0.000000 0.000000
#
# Coordination Sequence:
#
# PCOD8127382 Si02
#       8
#     4   4   4   4   4   4   4   4
#     4  12  25  42  65  96 129 170 219 274 332 399
#     4  11  23  41  66  95 128 170 215 272 333 396
#     4  11  24  44  66  94 131 174 218 269 331 398
#     4  10  23  41  65  94 128 170 216 267 331 397
#     4  11  23  42  65  94 129 172 217 271 333 397
#     4  11  25  42  65  96 132 172 222 277 333 398
#     4  10  22  42  64  92 128 171 216 267 330 397
#     4  12  24  42  65  95 129 169 220 275 330 394
#
# _framework density 22.839417000000001
#
# number of rings (size 3 to 8) (size 9 to 14) (size 15 to 20)
#    0.000    1.000    0.000    7.125    0.000    6.000 
#    0.000    5.000    0.000    0.000    0.000    0.000 
#    0.000    0.000    0.000    0.000    0.000    0.000 
#
# Total GULP energy -396486.310057 kJ/mol
# GULP energy per Si atom -12390.197189 kJ/mol
# Density = 2.278743 g / cm^3
# Si number density = 22.839417 Si / 1000 Ang^3
#
#
#
# Elastic Constant Matrix: (Units=GPa)
#
#
# Indices 1 2 3 4 5 6 
#
# 1 92.6600 29.9542 19.5806 0.0000 -2.3097 0.0000
# 2 29.9542 95.9374 28.5595 0.0000 0.8384 0.0000
# 3 19.5806 28.5595 133.4150 0.0000 -11.9764 0.0000
# 4 0.0000 0.0000 0.0000 35.8634 0.0000 0.9525
# 5 -2.3097 0.8384 -11.9764 0.0000 34.4886 0.0000
# 6 0.0000 0.0000 0.0000 0.9525 0.0000 28.4230
#
#
#
# Elastic Compliance Matrix: (Units=1/GPa)
#
#
# Indices 1 2 3 4 5 6 
#
# 1 0.012147 -0.003505 -0.000982 0.000000 0.000558 0.000000
# 2 -0.003505 0.012187 -0.002211 0.000000 -0.001299 0.000000
# 3 -0.000982 -0.002211 0.008373 0.000000 0.002895 0.000000
# 4 0.000000 0.000000 0.000000 0.027908 0.000000 -0.000935
# 5 0.000558 -0.001299 0.002895 0.000000 0.030069 0.000000
# 6 0.000000 0.000000 0.000000 -0.000935 0.000000 0.035214
#
#
# Mechanical properties :
#
#
# Convention : Reuss Voigt Hill
#
# Bulk Modulus (GPa) = 51.78643 53.13345 52.45994
# Shear Modulus (GPa) = 34.30949 36.01622 35.16286
#
# Velocity S-wave (km/s) = 3.88003 3.97537 3.92799
# Velocity P-wave (km/s) = 6.54188 6.66227 6.60235
#
# Compressibility (1/GPa) = 0.01931008
#
# Stress axis : x y z
#
# Youngs Moduli (GPa) = 82.32705 82.05223 119.43412
#
# Poissons Ratio (x) = 0.28759 0.11733
# Poissons Ratio (y) = 0.28855 0.26408
# Poissons Ratio (z) = 0.08087 0.18142
#
# Static dielectric constant tensor:
#      x y z
#    x 4.165660 0.000000 0.199500 
#    y 0.000000 4.255040 0.000000 
#    z 0.199500 0.000000 4.065940 
# 
# 
# High freq. dielectric constant tensor:
#      x y z
#    x 1.901750 0.000000 -0.015570 
#    y 0.000000 1.900790 0.000000 
#    z -0.015570 0.000000 1.917980 
# 
# From -- ./inp_files/67417.got.cif
#   From: 2010.03.12/outbox.cif.g09.slc.cpg/sg14_34_cif.got.tgz:67417.got - 2010.03.31 13:35:05.
