data_PCOD8127350
_publ_section_title
;
Structure prediction by ZEFSAII (Michael W. Deem and Ramdas Pophale) SiO2 
 PCOD8127350
Probable space group: P 21/C
;
_chemical_formula_sum "Si O2"
_cell_formula_units_Z 32
_cell_length_a 11.209430
_cell_length_b 15.607673
_cell_length_c 9.156397
_cell_angle_alpha 90.000000
_cell_angle_beta 107.391423
_cell_angle_gamma 90.000000
_cell_volume 1528.707641
_symmetry_space_group_name_H-M "P 21/C"
_symmetry_group_IT_number 14
_symmetry_cell_setting 'monoclinic'
loop_
_space_group_symop_operation_xyz
x,y,z
-x,1/2+y,1/2-z
-x,-y,-z
x,1/2-y,1/2+z
loop_
_atom_site_type_symbol
_atom_site_label
_atom_site_fract_x
_atom_site_fract_y
_atom_site_fract_z
Si Si1 0.177958 0.824822 0.326788
Si Si2 0.934546 0.406807 0.955301
Si Si3 0.301933 0.336737 0.593549
Si Si4 0.445864 0.263268 0.902824
Si Si5 0.606302 0.481972 0.422943
Si Si6 0.824378 0.359765 0.610276
Si Si7 0.426829 0.652797 0.789639
Si Si8 0.979599 0.716690 0.530970
O O1 0.166265 0.895361 0.450975
O O2 0.237237 0.734300 0.399516
O O3 0.275900 0.856829 0.242484
O O4 0.042538 0.802027 0.210263
O O5 0.867265 0.405243 0.775623
O O6 0.018840 0.319484 0.002335
O O7 0.000000 0.500000 0.000000
O O8 0.333847 0.303109 0.767048
O O9 0.390776 0.305441 0.495061
O O10 0.317256 0.437514 0.604846
O O11 0.161677 0.311773 0.507205
O O12 0.540371 0.225188 0.817648
O O13 0.514607 0.334311 0.028220
O O14 0.500000 0.500000 0.500000
O O15 0.710870 0.416686 0.515466
O O16 0.530802 0.438888 0.259599
O O17 0.947767 0.345743 0.555503
#
# Coordination Sequence:
#
# PCOD8127350 Si02
#       8
#     4   4   4   4   4   4   4   4
#     4  10  22  41  72  99 129 178 221 279 338 409
#     4  10  24  41  66 104 135 169 221 281 339 405
#     4  11  26  43  67  99 136 182 222 280 352 411
#     4  10  25  44  69  96 135 182 228 285 344 415
#     4  12  25  43  66 100 136 180 231 284 344 391
#     4  10  23  42  65  97 132 178 221 277 336 412
#     4  11  22  45  70  99 133 175 239 281 339 406
#     4  10  23  44  69  94 137 180 220 268 350 418
#
# _framework density 20.932714000000001
#
# number of rings (size 3 to 8) (size 9 to 14) (size 15 to 20)
#    0.000    1.500    2.500    0.750   12.250    2.000 
#    0.000    0.000    0.000    0.000    0.000    0.000 
#    0.000    0.000    0.000    0.000    0.000    0.000 
#
# Total GULP energy -396464.222825 kJ/mol
# GULP energy per Si atom -12389.506963 kJ/mol
# Density = 2.088507 g / cm^3
# Si number density = 20.932714 Si / 1000 Ang^3
#
#
#
# Elastic Constant Matrix: (Units=GPa)
#
#
# Indices 1 2 3 4 5 6 
#
# 1 98.9380 40.5356 38.7914 0.0000 -4.6954 0.0000
# 2 40.5356 120.1300 50.9135 0.0000 -0.5314 0.0000
# 3 38.7914 50.9135 121.8153 0.0000 -5.1453 0.0000
# 4 0.0000 0.0000 0.0000 13.4762 0.0000 -2.4303
# 5 -4.6954 -0.5314 -5.1453 0.0000 33.8566 0.0000
# 6 0.0000 0.0000 0.0000 -2.4303 0.0000 29.2050
#
#
#
# Elastic Compliance Matrix: (Units=1/GPa)
#
#
# Indices 1 2 3 4 5 6 
#
# 1 0.012462 -0.003087 -0.002624 0.000000 0.001281 0.000000
# 2 -0.003087 0.010889 -0.003602 0.000000 -0.000805 0.000000
# 3 -0.002624 -0.003602 0.010601 0.000000 0.001191 0.000000
# 4 0.000000 0.000000 0.000000 0.075335 0.000000 0.006269
# 5 0.001281 -0.000805 0.001191 0.000000 0.029882 0.000000
# 6 0.000000 0.000000 0.000000 0.006269 0.000000 0.034762
#
#
# Mechanical properties :
#
#
# Convention : Reuss Voigt Hill
#
# Bulk Modulus (GPa) = 65.25310 66.81825 66.03568
# Shear Modulus (GPa) = 25.29516 29.35042 27.32279
#
# Velocity S-wave (km/s) = 3.47998 3.74857 3.61677
# Velocity P-wave (km/s) = 6.88386 7.12218 7.00403
#
# Compressibility (1/GPa) = 0.01532494
#
# Stress axis : x y z
#
# Youngs Moduli (GPa) = 80.24527 91.83482 94.33504
#
# Poissons Ratio (x) = 0.28352 0.24753
# Poissons Ratio (y) = 0.24774 0.33980
# Poissons Ratio (z) = 0.21056 0.33079
#
# Static dielectric constant tensor:
#      x y z
#    x 3.733850 0.000000 -0.136180 
#    y 0.000000 3.807720 0.000000 
#    z -0.136180 0.000000 4.033640 
# 
# 
# High freq. dielectric constant tensor:
#      x y z
#    x 1.816510 0.000000 -0.011830 
#    y 0.000000 1.811330 0.000000 
#    z -0.011830 0.000000 1.838600 
# 
# From -- ./inp_files/13371.got.cif
#   From: 2010.03.12/outbox.cif.g09.slc.cpg/sg14_7_cif.got.tgz:13371.got - 2010.03.31 13:35:05.
