data_PCOD8127856
_publ_section_title
;
Structure prediction by ZEFSAII (Michael W. Deem and Ramdas Pophale) SiO2 
 PCOD8127856
Probable space group: P 21/C
;
_chemical_formula_sum "Si O2"
_cell_formula_units_Z 32
_cell_length_a 8.713040
_cell_length_b 14.754068
_cell_length_c 12.654768
_cell_angle_alpha 90.000000
_cell_angle_beta 117.548062
_cell_angle_gamma 90.000000
_cell_volume 1442.363625
_symmetry_space_group_name_H-M "P 21/C"
_symmetry_group_IT_number 14
_symmetry_cell_setting 'monoclinic'
loop_
_space_group_symop_operation_xyz
x,y,z
-x,1/2+y,1/2-z
-x,-y,-z
x,1/2-y,1/2+z
loop_
_atom_site_type_symbol
_atom_site_label
_atom_site_fract_x
_atom_site_fract_y
_atom_site_fract_z
Si Si1 0.469169 0.262459 0.505916
Si Si2 0.821246 0.334307 0.667691
Si Si3 0.971096 0.104205 0.005640
Si Si4 0.322013 0.195288 0.161875
Si Si5 0.934280 0.350606 0.254193
Si Si6 0.376812 0.916888 0.489316
Si Si7 0.695566 0.626254 0.708056
Si Si8 0.649615 0.437990 0.786022
O O1 0.648286 0.276212 0.622704
O O2 0.324391 0.253017 0.550010
O O3 0.491153 0.167829 0.450673
O O4 0.426753 0.355746 0.431113
O O5 0.831112 0.378290 0.553946
O O6 0.962812 0.255956 0.734590
O O7 0.806285 0.407516 0.757559
O O8 0.142674 0.143730 0.112168
O O9 0.911584 0.145036 0.874288
O O10 0.000000 0.000000 0.000000
O O11 0.324419 0.275468 0.245947
O O12 0.474885 0.120610 0.219622
O O13 0.109530 0.397848 0.267901
O O14 0.771425 0.400530 0.146009
O O15 0.282735 0.932888 0.571898
O O16 0.500000 0.000000 0.500000
O O17 0.614416 0.544128 0.749231
#
# Coordination Sequence:
#
# PCOD8127856 Si02
#       8
#     4   4   4   4   4   4   4   4
#     4  10  23  42  68  97 139 185 229 286 357 425
#     4  10  25  43  69 103 140 181 238 300 356 427
#     4  12  26  43  71 106 139 183 242 297 359 428
#     4  11  24  44  70 105 137 187 236 302 357 425
#     4  11  26  45  72 101 145 190 232 299 365 420
#     4  11  25  47  72 107 141 188 238 294 357 438
#     4  12  23  45  70 103 143 188 237 294 367 425
#     4  11  26  44  72 106 141 187 243 293 362 433
#
# _framework density 22.185808000000002
#
# number of rings (size 3 to 8) (size 9 to 14) (size 15 to 20)
#    0.000    1.000    3.750    1.500    7.000    2.500 
#    2.250    0.000    0.000    0.000    0.000    0.000 
#    0.000    0.000    0.000    0.000    0.000    0.000 
#
# Total GULP energy -396482.904422 kJ/mol
# GULP energy per Si atom -12390.090763 kJ/mol
# Density = 2.213531 g / cm^3
# Si number density = 22.185808 Si / 1000 Ang^3
#
#
#
# Elastic Constant Matrix: (Units=GPa)
#
#
# Indices 1 2 3 4 5 6 
#
# 1 80.7385 35.3556 37.1441 0.0000 -15.1936 0.0000
# 2 35.3556 124.9216 34.1487 0.0000 -2.8899 0.0000
# 3 37.1441 34.1487 115.7413 0.0000 -22.6719 0.0000
# 4 0.0000 0.0000 0.0000 33.9287 0.0000 -6.0037
# 5 -15.1936 -2.8899 -22.6719 0.0000 38.3542 0.0000
# 6 0.0000 0.0000 0.0000 -6.0037 0.0000 34.6075
#
#
#
# Elastic Compliance Matrix: (Units=1/GPa)
#
#
# Indices 1 2 3 4 5 6 
#
# 1 0.016291 -0.003600 -0.003342 0.000000 0.004207 0.000000
# 2 -0.003600 0.009535 -0.002032 0.000000 -0.001909 0.000000
# 3 -0.003342 -0.002032 0.011335 0.000000 0.005223 0.000000
# 4 0.000000 0.000000 0.000000 0.030407 0.000000 0.005275
# 5 0.004207 -0.001909 0.005223 0.000000 0.030683 0.000000
# 6 0.000000 0.000000 0.000000 0.005275 0.000000 0.029811
#
#
# Mechanical properties :
#
#
# Convention : Reuss Voigt Hill
#
# Bulk Modulus (GPa) = 52.04560 59.41090 55.72825
# Shear Modulus (GPa) = 32.80527 35.69494 34.25011
#
# Velocity S-wave (km/s) = 3.84951 4.01547 3.93336
# Velocity P-wave (km/s) = 6.57785 6.95238 6.76771
#
# Compressibility (1/GPa) = 0.01921392
#
# Stress axis : x y z
#
# Youngs Moduli (GPa) = 61.38270 104.87516 88.22080
#
# Poissons Ratio (x) = 0.37754 0.29484
# Poissons Ratio (y) = 0.22097 0.17925
# Poissons Ratio (z) = 0.20515 0.21309
#
# Static dielectric constant tensor:
#      x y z
#    x 4.180620 0.000000 -0.454760 
#    y 0.000000 4.139880 0.000000 
#    z -0.454760 0.000000 4.242000 
# 
# 
# High freq. dielectric constant tensor:
#      x y z
#    x 1.871070 0.000000 -0.016540 
#    y 0.000000 1.880820 0.000000 
#    z -0.016540 0.000000 1.877230 
# 
# From -- ./inp_files/25556.got.cif
#   From: 2010.03.12/outbox.cif.g09.slc.cpg/sg14_13_cif.got.tgz:25556.got - 2010.03.31 13:35:05.
