data_PCOD8127834
_publ_section_title
;
Structure prediction by ZEFSAII (Michael W. Deem and Ramdas Pophale) SiO2 
 PCOD8127834
Probable space group: P 21/C
;
_chemical_formula_sum "Si O2"
_cell_formula_units_Z 28
_cell_length_a 9.467394
_cell_length_b 10.920463
_cell_length_c 15.505427
_cell_angle_alpha 90.000000
_cell_angle_beta 57.525256
_cell_angle_gamma 90.000000
_cell_volume 1352.403622
_symmetry_space_group_name_H-M "P 21/C"
_symmetry_group_IT_number 14
_symmetry_cell_setting 'monoclinic'
loop_
_space_group_symop_operation_xyz
x,y,z
-x,1/2+y,1/2-z
-x,-y,-z
x,1/2-y,1/2+z
loop_
_atom_site_type_symbol
_atom_site_label
_atom_site_fract_x
_atom_site_fract_y
_atom_site_fract_z
Si Si1 0.989212 0.286106 0.573755
Si Si2 0.917481 0.875511 0.299093
Si Si3 0.328334 0.703587 0.435590
Si Si4 0.673927 0.034800 0.485033
Si Si5 0.843207 0.914493 0.576546
Si Si6 0.703502 0.833767 0.797345
Si Si7 0.176867 0.496757 0.594250
O O1 0.799715 0.289208 0.601889
O O2 0.990963 0.207152 0.659981
O O3 0.110738 0.224634 0.462921
O O4 0.059093 0.421303 0.567457
O O5 0.790081 0.796854 0.283267
O O6 0.823651 0.991047 0.373227
O O7 0.060370 0.920373 0.190273
O O8 0.310057 0.820350 0.504806
O O9 0.512663 0.694522 0.334109
O O10 0.299620 0.581942 0.500086
O O11 0.500000 0.000000 0.500000
O O12 0.686142 0.962934 0.572273
O O13 0.794483 0.914277 0.693167
O O14 0.000000 0.000000 0.500000
O O15 0.709752 0.907947 0.884701
#
# Coordination Sequence:
#
# PCOD8127834 Si02
#       7
#     4   4   4   4   4   4   4
#     4  10  23  42  66  95 127 175 219 267 322 391
#     4  10  23  42  69  94 128 172 222 261 323 400
#     4  12  24  43  65  98 135 166 216 277 333 385
#     4  11  23  42  65  97 131 169 216 273 328 391
#     4  11  22  44  70  91 129 176 223 267 318 401
#     4  11  24  44  64  97 130 168 215 275 330 379
#     4  11  25  42  67  94 133 174 217 268 329 395
#
# _framework density 20.703880000000002
#
# number of rings (size 3 to 8) (size 9 to 14) (size 15 to 20)
#    0.000    1.143    2.857    3.429    4.000    1.143 
#    2.571    0.000    0.000    0.000    0.000    0.000 
#    0.000    0.000    0.000    0.000    0.000    0.000 
#
# Total GULP energy -347298.024831 kJ/mol
# GULP energy per Si atom -12403.500887 kJ/mol
# Density = 2.065676 g / cm^3
# Si number density = 20.703880 Si / 1000 Ang^3
#
#
#
# Elastic Constant Matrix: (Units=GPa)
#
#
# Indices 1 2 3 4 5 6 
#
# 1 147.3129 33.2510 24.4494 0.0000 4.7081 0.0000
# 2 33.2510 89.7412 24.7841 0.0000 -0.2227 0.0000
# 3 24.4494 24.7841 75.8113 0.0000 0.9527 0.0000
# 4 0.0000 0.0000 0.0000 29.9066 0.0000 -1.5326
# 5 4.7081 -0.2227 0.9527 0.0000 27.0953 0.0000
# 6 0.0000 0.0000 0.0000 -1.5326 0.0000 29.3144
#
#
#
# Elastic Compliance Matrix: (Units=1/GPa)
#
#
# Indices 1 2 3 4 5 6 
#
# 1 0.007643 -0.002373 -0.001673 0.000000 -0.001289 0.000000
# 2 -0.002373 0.012987 -0.003489 0.000000 0.000642 0.000000
# 3 -0.001673 -0.003489 0.014874 0.000000 -0.000261 0.000000
# 4 0.000000 0.000000 0.000000 0.033527 0.000000 0.001753
# 5 -0.001289 0.000642 -0.000261 0.000000 0.037145 0.000000
# 6 0.000000 0.000000 0.000000 0.001753 0.000000 0.034205
#
#
# Mechanical properties :
#
#
# Convention : Reuss Voigt Hill
#
# Bulk Modulus (GPa) = 48.93515 53.09273 51.01394
# Shear Modulus (GPa) = 30.81442 32.62197 31.71820
#
# Velocity S-wave (km/s) = 3.86209 3.97375 3.91831
# Velocity P-wave (km/s) = 6.60111 6.83767 6.72043
#
# Compressibility (1/GPa) = 0.02043521
#
# Stress axis : x y z
#
# Youngs Moduli (GPa) = 130.84339 76.99745 67.23181
#
# Poissons Ratio (x) = 0.18271 0.11247
# Poissons Ratio (y) = 0.31049 0.23455
# Poissons Ratio (z) = 0.21888 0.26861
#
# Static dielectric constant tensor:
#      x y z
#    x 3.928630 0.000000 0.187060 
#    y 0.000000 4.047340 0.000000 
#    z 0.187060 0.000000 3.629450 
# 
# 
# High freq. dielectric constant tensor:
#      x y z
#    x 1.823240 0.000000 0.009270 
#    y 0.000000 1.822230 0.000000 
#    z 0.009270 0.000000 1.794130 
# 
# From -- ./inp_files/39955.got.cif
#   From: 2010.03.12/outbox.cif.g09.slc.cpg/sg14_20_cif.got.tgz:39955.got - 2010.03.31 13:35:05.
