data_PCOD8127047
_publ_section_title
;
Structure prediction by ZEFSAII (Michael W. Deem and Ramdas Pophale) SiO2 
 PCOD8127047
Probable space group: P 21/C
;
_chemical_formula_sum "Si O2"
_cell_formula_units_Z 20
_cell_length_a 9.569954
_cell_length_b 9.589598
_cell_length_c 9.906067
_cell_angle_alpha 90.000000
_cell_angle_beta 83.430081
_cell_angle_gamma 90.000000
_cell_volume 903.129614
_symmetry_space_group_name_H-M "P 21/C"
_symmetry_group_IT_number 14
_symmetry_cell_setting 'monoclinic'
loop_
_space_group_symop_operation_xyz
x,y,z
-x,1/2+y,1/2-z
-x,-y,-z
x,1/2-y,1/2+z
loop_
_atom_site_type_symbol
_atom_site_label
_atom_site_fract_x
_atom_site_fract_y
_atom_site_fract_z
Si Si1 0.804643 0.611930 0.096658
Si Si2 0.143299 0.176514 0.703206
Si Si3 0.075989 0.880932 0.712455
Si Si4 0.608746 0.169368 0.367442
Si Si5 0.561429 0.094885 0.664710
O O1 0.758567 0.740200 0.200858
O O2 0.714540 0.478173 0.148585
O O3 0.972671 0.587636 0.095848
O O4 0.771832 0.647002 0.944019
O O5 0.003861 0.269916 0.682698
O O6 0.099680 0.031113 0.780550
O O7 0.222901 0.818913 0.645768
O O8 0.545597 0.179009 0.525270
O O9 0.547602 0.298200 0.289390
O O10 0.560785 0.021614 0.307118
#
# Coordination Sequence:
#
# PCOD8127047 Si02
#       5
#     4   4   4   4   4
#     4  10  23  41  67  94 137 165 220 265 334 375
#     4  10  22  38  67  93 136 171 213 270 324 383
#     4  10  22  39  67  96 129 175 212 272 318 395
#     4  11  26  43  72  93 135 172 222 264 332 380
#     4  11  26  48  67  97 131 178 214 276 320 396
#
# _framework density 22.145215
#
# number of rings (size 3 to 8) (size 9 to 14) (size 15 to 20)
#    1.200    0.400    2.000    1.800    5.600    1.600 
#    3.600    0.000    0.000    0.000    0.000    0.000 
#    0.000    0.000    0.000    0.000    0.000    0.000 
#
# Total GULP energy -247789.556368 kJ/mol
# GULP energy per Si atom -12389.477818 kJ/mol
# Density = 2.209481 g / cm^3
# Si number density = 22.145215 Si / 1000 Ang^3
#
#
#
# Elastic Constant Matrix: (Units=GPa)
#
#
# Indices 1 2 3 4 5 6 
#
# 1 95.5741 1.9027 9.9416 0.0000 -9.9140 0.0000
# 2 1.9027 95.7236 34.7441 0.0000 -3.4832 0.0000
# 3 9.9416 34.7441 52.5915 0.0000 -5.6338 0.0000
# 4 0.0000 0.0000 0.0000 37.5935 0.0000 5.9994
# 5 -9.9140 -3.4832 -5.6338 0.0000 12.2458 0.0000
# 6 0.0000 0.0000 0.0000 5.9994 0.0000 35.2966
#
#
#
# Elastic Compliance Matrix: (Units=1/GPa)
#
#
# Indices 1 2 3 4 5 6 
#
# 1 0.011535 0.000711 -0.001712 0.000000 0.008753 0.000000
# 2 0.000711 0.013787 -0.009215 0.000000 0.000258 0.000000
# 3 -0.001712 -0.009215 0.026292 0.000000 0.008089 0.000000
# 4 0.000000 0.000000 0.000000 0.027342 0.000000 -0.004647
# 5 0.008753 0.000258 0.008089 0.000000 0.092542 0.000000
# 6 0.000000 0.000000 0.000000 -0.004647 0.000000 0.029121
#
#
# Mechanical properties :
#
#
# Convention : Reuss Voigt Hill
#
# Bulk Modulus (GPa) = 32.07072 37.45178 34.76125
# Shear Modulus (GPa) = 21.60337 30.18055 25.89196
#
# Velocity S-wave (km/s) = 3.12674 3.69568 3.42305
# Velocity P-wave (km/s) = 5.24869 5.92953 5.59947
#
# Compressibility (1/GPa) = 0.03118109
#
# Stress axis : x y z
#
# Youngs Moduli (GPa) = 86.69254 72.53420 38.03395
#
# Poissons Ratio (x) = -0.05155 0.06513
# Poissons Ratio (y) = -0.06162 0.35047
# Poissons Ratio (z) = 0.14845 0.66838
#
# Static dielectric constant tensor:
#      x y z
#    x 3.956310 0.000000 0.090300 
#    y 0.000000 4.155940 0.000000 
#    z 0.090300 0.000000 3.587450 
# 
# 
# High freq. dielectric constant tensor:
#      x y z
#    x 1.884440 0.000000 0.000600 
#    y 0.000000 1.877170 0.000000 
#    z 0.000600 0.000000 1.837200 
# 
# From -- ./inp_files/11803.got.cif
#   From: 2010.03.12/outbox.cif.g09.slc.cpg/sg14_6_cif.got.tgz:11803.got - 2010.03.31 13:35:05.
