data_PCOD8127059
_publ_section_title
;
Structure prediction by ZEFSAII (Michael W. Deem and Ramdas Pophale) SiO2 
 PCOD8127059
Probable space group: P 21/C
;
_chemical_formula_sum "Si O2"
_cell_formula_units_Z 28
_cell_length_a 21.514769
_cell_length_b 4.982513
_cell_length_c 12.553304
_cell_angle_alpha 90.000000
_cell_angle_beta 105.695875
_cell_angle_gamma 90.000000
_cell_volume 1295.505348
_symmetry_space_group_name_H-M "P 21/C"
_symmetry_group_IT_number 14
_symmetry_cell_setting 'monoclinic'
loop_
_space_group_symop_operation_xyz
x,y,z
-x,1/2+y,1/2-z
-x,-y,-z
x,1/2-y,1/2+z
loop_
_atom_site_type_symbol
_atom_site_label
_atom_site_fract_x
_atom_site_fract_y
_atom_site_fract_z
Si Si1 0.249919 0.955273 0.128034
Si Si2 0.351288 0.037699 0.352417
Si Si3 0.356035 0.537973 0.500154
Si Si4 0.063403 0.446416 0.190077
Si Si5 0.079046 0.945890 0.333020
Si Si6 0.165649 0.045942 0.562260
Si Si7 0.457328 0.455531 0.724652
O O1 0.285408 0.000240 0.256547
O O2 0.189049 0.152094 0.092034
O O3 0.225064 0.650827 0.114551
O O4 0.296090 0.014107 0.049935
O O5 0.353449 0.337159 0.399433
O O6 0.411341 0.984239 0.302915
O O7 0.353867 0.837538 0.453307
O O8 0.421907 0.501438 0.596114
O O9 0.078404 0.142572 0.231354
O O10 0.103902 0.520579 0.105398
O O11 0.987267 0.486722 0.130699
O O12 0.084766 0.641401 0.295972
O O13 0.142288 0.009434 0.430802
O O14 0.518938 0.649593 0.760104
#
# Coordination Sequence:
#
# PCOD8127059 Si02
#       7
#     4   4   4   4   4   4   4
#     4  11  26  40  59  91 119 154 207 248 283 352
#     4  11  24  43  64  87 124 165 195 240 299 344
#     4  11  24  43  64  87 124 165 195 240 299 344
#     4  10  22  39  59  86 118 152 194 245 302 362
#     4  10  22  39  59  86 118 152 194 245 302 362
#     4  12  23  39  62  87 117 156 199 248 301 346
#     4  11  24  41  64  98 126 150 201 248 283 352
#
# _framework density 21.613188000000001
#
# number of rings (size 3 to 8) (size 9 to 14) (size 15 to 20)
#    0.000    1.143    0.000    5.571    0.000   14.857 
#    0.000    5.714    0.000    0.000    0.000    0.000 
#    0.000    0.000    0.000    0.000    0.000    0.000 
#
# Total GULP energy -347438.945720 kJ/mol
# GULP energy per Si atom -12408.533776 kJ/mol
# Density = 2.156400 g / cm^3
# Si number density = 21.613188 Si / 1000 Ang^3
#
#
#
# Elastic Constant Matrix: (Units=GPa)
#
#
# Indices 1 2 3 4 5 6 
#
# 1 65.4134 9.4529 30.4320 0.0000 7.5346 0.0000
# 2 9.4529 75.1010 1.8382 0.0000 -0.8219 0.0000
# 3 30.4320 1.8382 81.4007 0.0000 1.2296 0.0000
# 4 0.0000 0.0000 0.0000 34.7355 0.0000 5.3342
# 5 7.5346 -0.8219 1.2296 0.0000 20.2704 0.0000
# 6 0.0000 0.0000 0.0000 5.3342 0.0000 38.3716
#
#
#
# Elastic Compliance Matrix: (Units=1/GPa)
#
#
# Indices 1 2 3 4 5 6 
#
# 1 0.019814 -0.002393 -0.007247 0.000000 -0.007022 0.000000
# 2 -0.002393 0.013618 0.000566 0.000000 0.001408 0.000000
# 3 -0.007247 0.000566 0.014954 0.000000 0.001810 0.000000
# 4 0.000000 0.000000 0.000000 0.029417 0.000000 -0.004089
# 5 -0.007022 0.001408 0.001810 0.000000 0.051891 0.000000
# 6 0.000000 0.000000 0.000000 -0.004089 0.000000 0.026629
#
#
# Mechanical properties :
#
#
# Convention : Reuss Voigt Hill
#
# Bulk Modulus (GPa) = 33.07238 33.92903 33.50071
# Shear Modulus (GPa) = 27.09269 30.68830 28.89050
#
# Velocity S-wave (km/s) = 3.54436 3.77223 3.66007
# Velocity P-wave (km/s) = 5.66437 5.89112 5.77886
#
# Compressibility (1/GPa) = 0.03023671
#
# Stress axis : x y z
#
# Youngs Moduli (GPa) = 50.46992 73.43105 66.87067
#
# Poissons Ratio (x) = 0.17575 0.48463
# Poissons Ratio (y) = 0.12080 -0.03785
# Poissons Ratio (z) = 0.36577 -0.04156
#
# Static dielectric constant tensor:
#      x y z
#    x 3.839470 0.000000 0.058730 
#    y 0.000000 3.832310 0.000000 
#    z 0.058730 0.000000 3.759780 
# 
# 
# High freq. dielectric constant tensor:
#      x y z
#    x 1.853690 0.000000 0.002840 
#    y 0.000000 1.859990 0.000000 
#    z 0.002840 0.000000 1.850050 
# 
# From -- ./inp_files/34746.got.cif
#   From: 2010.03.12/outbox.cif.g09.slc.cpg/sg14_18_cif.got.tgz:34746.got - 2010.03.31 13:35:05.
