data_PCOD8127668
_publ_section_title
;
Structure prediction by ZEFSAII (Michael W. Deem and Ramdas Pophale) SiO2 
 PCOD8127668
Probable space group: P 21/C
;
_chemical_formula_sum "Si O2"
_cell_formula_units_Z 28
_cell_length_a 20.674538
_cell_length_b 10.881217
_cell_length_c 11.916731
_cell_angle_alpha 90.000000
_cell_angle_beta 26.325549
_cell_angle_gamma 90.000000
_cell_volume 1188.873237
_symmetry_space_group_name_H-M "P 21/C"
_symmetry_group_IT_number 14
_symmetry_cell_setting 'monoclinic'
loop_
_space_group_symop_operation_xyz
x,y,z
-x,1/2+y,1/2-z
-x,-y,-z
x,1/2-y,1/2+z
loop_
_atom_site_type_symbol
_atom_site_label
_atom_site_fract_x
_atom_site_fract_y
_atom_site_fract_z
Si Si1 0.717613 0.649072 0.295263
Si Si2 0.593780 0.269174 0.957404
Si Si3 0.766528 0.082295 0.566371
Si Si4 0.237247 0.966803 0.688340
Si Si5 0.502409 0.850083 0.674062
Si Si6 0.911447 0.868207 0.926956
Si Si7 0.677747 0.937078 0.109037
O O1 0.566175 0.726057 0.517342
O O2 0.725720 0.599547 0.409296
O O3 0.713998 0.538808 0.213051
O O4 0.858657 0.733611 0.049326
O O5 0.649715 0.191644 0.763599
O O6 0.731263 0.340125 0.797310
O O7 0.547292 0.171312 0.122566
O O8 0.455407 0.353043 0.137656
O O9 0.778063 0.052764 0.418630
O O10 0.921226 0.132580 0.372272
O O11 0.370178 0.052709 0.514772
O O12 0.095167 0.034641 0.959183
O O13 0.371600 0.918506 0.808586
O O14 0.815552 0.918688 0.973395
#
# Coordination Sequence:
#
# PCOD8127668 Si02
#       7
#     4   4   4   4   4   4   4
#     4  10  24  42  69 104 132 187 232 284 355 408
#     4  10  23  42  70 104 130 179 233 286 349 405
#     4  12  26  45  71 102 142 185 235 285 352 428
#     4  10  25  44  67 100 137 180 231 290 343 411
#     4   9  20  45  67 102 135 175 231 297 340 401
#     4  11  27  44  69  99 144 189 226 291 352 415
#     4  10  22  46  73  99 140 178 236 292 349 417
#
# _framework density 23.551712999999999
#
# number of rings (size 3 to 8) (size 9 to 14) (size 15 to 20)
#    0.000    1.714    1.429    0.429    8.000   13.143 
#    0.000    0.000    0.000    0.000    0.000    0.000 
#    0.000    0.000    0.000    0.000    0.000    0.000 
#
# Total GULP energy -347172.425969 kJ/mol
# GULP energy per Si atom -12399.015213 kJ/mol
# Density = 2.349811 g / cm^3
# Si number density = 23.551713 Si / 1000 Ang^3
#
#
#
# Elastic Constant Matrix: (Units=GPa)
#
#
# Indices 1 2 3 4 5 6 
#
# 1 128.6583 30.0501 40.6626 0.0000 14.2355 0.0000
# 2 30.0501 136.1540 35.1898 0.0000 -2.3414 0.0000
# 3 40.6626 35.1898 81.3281 0.0000 -1.6248 0.0000
# 4 0.0000 0.0000 0.0000 33.3515 0.0000 10.7564
# 5 14.2355 -2.3414 -1.6248 0.0000 37.7054 0.0000
# 6 0.0000 0.0000 0.0000 10.7564 0.0000 16.0046
#
#
#
# Elastic Compliance Matrix: (Units=1/GPa)
#
#
# Indices 1 2 3 4 5 6 
#
# 1 0.009911 -0.001075 -0.004570 0.000000 -0.004006 0.000000
# 2 -0.001075 0.008391 -0.003077 0.000000 0.000794 0.000000
# 3 -0.004570 -0.003077 0.015957 0.000000 0.002222 0.000000
# 4 0.000000 0.000000 0.000000 0.038281 0.000000 -0.025728
# 5 -0.004006 0.000794 0.002222 0.000000 0.028179 0.000000
# 6 0.000000 0.000000 0.000000 -0.025728 0.000000 0.079774
#
#
# Mechanical properties :
#
#
# Convention : Reuss Voigt Hill
#
# Bulk Modulus (GPa) = 59.47540 61.99393 60.73467
# Shear Modulus (GPa) = 24.56485 33.42816 28.99650
#
# Velocity S-wave (km/s) = 3.23308 3.77152 3.51263
# Velocity P-wave (km/s) = 6.26459 6.73390 6.50348
#
# Compressibility (1/GPa) = 0.01681367
#
# Stress axis : x y z
#
# Youngs Moduli (GPa) = 100.89490 119.17661 62.66912
#
# Poissons Ratio (x) = 0.12813 0.28642
# Poissons Ratio (y) = 0.10848 0.19285
# Poissons Ratio (z) = 0.46112 0.36673
#
# Static dielectric constant tensor:
#      x y z
#    x 4.045550 0.000000 0.195560 
#    y 0.000000 4.456440 0.000000 
#    z 0.195560 0.000000 4.470120 
# 
# 
# High freq. dielectric constant tensor:
#      x y z
#    x 1.936130 0.000000 0.018450 
#    y 0.000000 1.945690 0.000000 
#    z 0.018450 0.000000 1.931170 
# 
# From -- ./inp_files/35135.got.cif
#   From: 2010.03.12/outbox.cif.g09.slc.cpg/sg14_18_cif.got.tgz:35135.got - 2010.03.31 13:35:05.
