data_PCOD8127581
_publ_section_title
;
Structure prediction by ZEFSAII (Michael W. Deem and Ramdas Pophale) SiO2 
 PCOD8127581
Probable space group: P 21/C
;
_chemical_formula_sum "Si O2"
_cell_formula_units_Z 28
_cell_length_a 9.322936
_cell_length_b 20.870628
_cell_length_c 9.059809
_cell_angle_alpha 90.000000
_cell_angle_beta 47.059812
_cell_angle_gamma 90.000000
_cell_volume 1290.497167
_symmetry_space_group_name_H-M "P 21/C"
_symmetry_group_IT_number 14
_symmetry_cell_setting 'monoclinic'
loop_
_space_group_symop_operation_xyz
x,y,z
-x,1/2+y,1/2-z
-x,-y,-z
x,1/2-y,1/2+z
loop_
_atom_site_type_symbol
_atom_site_label
_atom_site_fract_x
_atom_site_fract_y
_atom_site_fract_z
Si Si1 0.925503 0.666922 0.628206
Si Si2 0.571796 0.018858 0.105888
Si Si3 0.533494 0.322054 0.079621
Si Si4 0.750050 0.444939 0.049088
Si Si5 0.729434 0.251112 0.198669
Si Si6 0.945300 0.550541 0.416850
Si Si7 0.181751 0.622069 0.697567
O O1 0.055536 0.731164 0.513571
O O2 0.974408 0.622015 0.454508
O O3 0.981349 0.632986 0.745550
O O4 0.697603 0.682821 0.786664
O O5 0.383346 0.009860 0.345840
O O6 0.667394 0.089854 0.028715
O O7 0.500000 0.000000 0.000000
O O8 0.720679 0.962044 0.040145
O O9 0.608140 0.390674 0.082301
O O10 0.590879 0.268464 0.159030
O O11 0.634587 0.308155 0.851807
O O12 0.843988 0.423824 0.141564
O O13 0.928331 0.461037 0.818030
O O14 0.738930 0.310034 0.305209
O O15 0.000000 0.500000 0.500000
#
# Coordination Sequence:
#
# PCOD8127581 Si02
#       7
#     4   4   4   4   4   4   4
#     4  12  24  44  66  99 138 174 231 286 339 410
#     4  10  22  44  67  99 136 176 232 276 340 417
#     4  11  24  42  69  97 133 181 229 274 355 398
#     4  10  23  45  69  96 137 184 219 283 348 403
#     4  11  24  45  64  97 137 178 227 286 334 414
#     4  12  24  43  68 103 138 177 225 293 336 402
#     4  10  23  45  67  95 139 180 222 284 336 405
#
# _framework density 21.697064000000001
#
# number of rings (size 3 to 8) (size 9 to 14) (size 15 to 20)
#    0.000    1.143    5.714    0.000    2.000    2.857 
#    2.571    2.857    0.000    0.000    0.000    0.000 
#    0.000    0.000    0.000    0.000    0.000    0.000 
#
# Total GULP energy -347023.486516 kJ/mol
# GULP energy per Si atom -12393.695947 kJ/mol
# Density = 2.164768 g / cm^3
# Si number density = 21.697064 Si / 1000 Ang^3
#
#
#
# Elastic Constant Matrix: (Units=GPa)
#
#
# Indices 1 2 3 4 5 6 
#
# 1 136.7715 16.5016 18.1764 0.0000 -3.1002 0.0000
# 2 16.5016 60.1648 6.5724 0.0000 5.1281 0.0000
# 3 18.1764 6.5724 85.0301 0.0000 5.4131 0.0000
# 4 0.0000 0.0000 0.0000 25.2269 0.0000 5.0996
# 5 -3.1002 5.1281 5.4131 0.0000 30.2523 0.0000
# 6 0.0000 0.0000 0.0000 5.0996 0.0000 32.4401
#
#
#
# Elastic Compliance Matrix: (Units=1/GPa)
#
#
# Indices 1 2 3 4 5 6 
#
# 1 0.007809 -0.002090 -0.001599 0.000000 0.001441 0.000000
# 2 -0.002090 0.017533 -0.000714 0.000000 -0.003058 0.000000
# 3 -0.001599 -0.000714 0.012300 0.000000 -0.002244 0.000000
# 4 0.000000 0.000000 0.000000 0.040941 0.000000 -0.006436
# 5 0.001441 -0.003058 -0.002244 0.000000 0.034123 0.000000
# 6 0.000000 0.000000 0.000000 -0.006436 0.000000 0.031838
#
#
# Mechanical properties :
#
#
# Convention : Reuss Voigt Hill
#
# Bulk Modulus (GPa) = 34.67876 40.49635 37.58756
# Shear Modulus (GPa) = 30.68197 33.63159 32.15678
#
# Velocity S-wave (km/s) = 3.76454 3.94134 3.85396
# Velocity P-wave (km/s) = 5.90877 6.27831 6.09634
#
# Compressibility (1/GPa) = 0.02883609
#
# Stress axis : x y z
#
# Youngs Moduli (GPa) = 128.06035 57.03581 81.29779
#
# Poissons Ratio (x) = 0.11919 0.13003
# Poissons Ratio (y) = 0.26762 0.05803
# Poissons Ratio (z) = 0.20482 0.04071
#
# Static dielectric constant tensor:
#      x y z
#    x 4.437290 0.000000 -0.110140 
#    y 0.000000 5.522630 0.000000 
#    z -0.110140 0.000000 4.401850 
# 
# 
# High freq. dielectric constant tensor:
#      x y z
#    x 1.871040 0.000000 0.009520 
#    y 0.000000 1.847190 0.000000 
#    z 0.009520 0.000000 1.845330 
# 
# From -- ./inp_files/10388.got.cif
#   From: 2010.03.12/outbox.cif.g09.slc.cpg/sg14_6_cif.got.tgz:10388.got - 2010.03.31 13:35:05.
