data_PCOD8127545
_publ_section_title
;
Structure prediction by ZEFSAII (Michael W. Deem and Ramdas Pophale) SiO2 
 PCOD8127545
Probable space group: P 21/C
;
_chemical_formula_sum "Si O2"
_cell_formula_units_Z 32
_cell_length_a 17.176175
_cell_length_b 5.300412
_cell_length_c 15.834221
_cell_angle_alpha 90.000000
_cell_angle_beta 71.286952
_cell_angle_gamma 90.000000
_cell_volume 1365.355360
_symmetry_space_group_name_H-M "P 21/C"
_symmetry_group_IT_number 14
_symmetry_cell_setting 'monoclinic'
loop_
_space_group_symop_operation_xyz
x,y,z
-x,1/2+y,1/2-z
-x,-y,-z
x,1/2-y,1/2+z
loop_
_atom_site_type_symbol
_atom_site_label
_atom_site_fract_x
_atom_site_fract_y
_atom_site_fract_z
Si Si1 0.742119 0.981815 0.095333
Si Si2 0.304173 0.819799 0.249354
Si Si3 0.605815 0.896151 0.029023
Si Si4 0.330321 0.578920 0.069311
Si Si5 0.831477 0.140544 0.467350
Si Si6 0.844007 0.898871 0.645148
Si Si7 0.005209 0.615341 0.194861
Si Si8 0.523817 0.001319 0.792067
O O1 0.670748 0.810651 0.079603
O O2 0.796009 0.862629 0.151087
O O3 0.692919 0.209252 0.156929
O O4 0.802896 0.075978 0.999841
O O5 0.315965 0.607462 0.174118
O O6 0.379007 0.020261 0.221844
O O7 0.213319 0.942096 0.270538
O O8 0.517292 0.939430 0.102332
O O9 0.606138 0.655464 0.965653
O O10 0.634112 0.157106 0.977098
O O11 0.243409 0.505429 0.055866
O O12 0.909764 0.157678 0.381312
O O13 0.853297 0.003957 0.547233
O O14 0.932835 0.856513 0.652588
O O15 0.004214 0.334242 0.232782
O O16 0.506664 0.237104 0.735402
#
# Coordination Sequence:
#
# PCOD8127545 Si02
#       8
#     4   4   4   4   4   4   4   4
#     4  10  22  43  72  99 133 184 242 275 336 415
#     4  11  26  42  70 107 134 190 229 296 343 411
#     4  11  23  44  65 102 137 187 223 288 342 414
#     4  11  25  42  69  99 147 176 230 283 358 406
#     4  10  24  44  69 103 135 187 228 286 339 417
#     4  11  24  46  76  97 140 185 242 276 344 419
#     4  12  30  47  71 108 147 178 226 292 352 409
#     4  12  25  42  72 100 140 181 243 290 340 406
#
# _framework density 23.437121999999999
#
# number of rings (size 3 to 8) (size 9 to 14) (size 15 to 20)
#    0.000    1.000    2.500    2.625   10.500    1.500 
#    0.000    0.000    0.000    0.000    0.000    0.000 
#    0.000    0.000    0.000    0.000    0.000    0.000 
#
# Total GULP energy -396681.265481 kJ/mol
# GULP energy per Si atom -12396.289546 kJ/mol
# Density = 2.338378 g / cm^3
# Si number density = 23.437122 Si / 1000 Ang^3
#
#
#
# Elastic Constant Matrix: (Units=GPa)
#
#
# Indices 1 2 3 4 5 6 
#
# 1 58.2806 2.4360 22.4227 0.0000 -10.6957 0.0000
# 2 2.4360 87.9783 17.4952 0.0000 -11.9207 0.0000
# 3 22.4227 17.4952 113.4793 0.0000 -35.1182 0.0000
# 4 0.0000 0.0000 0.0000 18.7261 0.0000 1.3372
# 5 -10.6957 -11.9207 -35.1182 0.0000 38.5971 0.0000
# 6 0.0000 0.0000 0.0000 1.3372 0.0000 27.0376
#
#
#
# Elastic Compliance Matrix: (Units=1/GPa)
#
#
# Indices 1 2 3 4 5 6 
#
# 1 0.018762 0.000426 -0.002955 0.000000 0.002642 0.000000
# 2 0.000426 0.011949 -0.001041 0.000000 0.002862 0.000000
# 3 -0.002955 -0.001041 0.012811 0.000000 0.010516 0.000000
# 4 0.000000 0.000000 0.000000 0.053591 0.000000 -0.002650
# 5 0.002642 0.002862 0.010516 0.000000 0.037093 0.000000
# 6 0.000000 0.000000 0.000000 -0.002650 0.000000 0.037117
#
#
# Mechanical properties :
#
#
# Convention : Reuss Voigt Hill
#
# Bulk Modulus (GPa) = 27.48581 38.27177 32.87879
# Shear Modulus (GPa) = 26.23428 31.36446 28.79937
#
# Velocity S-wave (km/s) = 3.34929 3.66216 3.50922
# Velocity P-wave (km/s) = 5.16817 5.85209 5.52073
#
# Compressibility (1/GPa) = 0.03638241
#
# Stress axis : x y z
#
# Youngs Moduli (GPa) = 53.29795 83.68654 78.05834
#
# Poissons Ratio (x) = -0.03566 0.23070
# Poissons Ratio (y) = -0.02271 0.08125
# Poissons Ratio (z) = 0.15752 0.08711
#
# Static dielectric constant tensor:
#      x y z
#    x 4.267100 0.000000 -0.053350 
#    y 0.000000 4.213640 0.000000 
#    z -0.053350 0.000000 4.296130 
# 
# 
# High freq. dielectric constant tensor:
#      x y z
#    x 1.928590 0.000000 -0.007080 
#    y 0.000000 1.924000 0.000000 
#    z -0.007080 0.000000 1.938930 
# 
# From -- ./inp_files/48132.got.cif
#   From: 2010.03.12/outbox.cif.g09.slc.cpg/sg14_25_cif.got.tgz:48132.got - 2010.03.31 13:35:05.
