data_PCOD8127983
_publ_section_title
;
Structure prediction by ZEFSAII (Michael W. Deem and Ramdas Pophale) SiO2 
 PCOD8127983
Probable space group: P 21/C
;
_chemical_formula_sum "Si O2"
_cell_formula_units_Z 32
_cell_length_a 10.135396
_cell_length_b 10.875341
_cell_length_c 33.549075
_cell_angle_alpha 90.000000
_cell_angle_beta 24.599081
_cell_angle_gamma 90.000000
_cell_volume 1539.342687
_symmetry_space_group_name_H-M "P 21/C"
_symmetry_group_IT_number 14
_symmetry_cell_setting 'monoclinic'
loop_
_space_group_symop_operation_xyz
x,y,z
-x,1/2+y,1/2-z
-x,-y,-z
x,1/2-y,1/2+z
loop_
_atom_site_type_symbol
_atom_site_label
_atom_site_fract_x
_atom_site_fract_y
_atom_site_fract_z
Si Si1 0.822432 0.475918 0.434709
Si Si2 0.866055 0.223593 0.154575
Si Si3 0.592258 0.872210 0.272873
Si Si4 0.238673 0.759165 0.511518
Si Si5 0.399593 0.370112 0.844279
Si Si6 0.208276 0.345193 0.194824
Si Si7 0.739458 0.376457 0.829272
Si Si8 0.498093 0.135291 0.484817
O O1 0.500000 0.500000 0.500000
O O2 0.747208 0.390037 0.493895
O O3 0.970663 0.603098 0.409558
O O4 0.070806 0.404854 0.338572
O O5 0.587779 0.267319 0.201995
O O6 0.710791 0.193947 0.239977
O O7 0.134324 0.323794 0.088020
O O8 0.648525 0.819738 0.301252
O O9 0.368286 0.992268 0.335622
O O10 0.520385 0.827504 0.412225
O O11 0.267044 0.787912 0.551122
O O12 0.913006 0.798227 0.581140
O O13 0.442001 0.375235 0.880482
O O14 0.088613 0.488352 0.222814
O O15 0.949448 0.240030 0.258349
O O16 0.619429 0.353838 0.906590
O O17 0.500000 0.000000 0.500000
#
# Coordination Sequence:
#
# PCOD8127983 Si02
#       8
#     4   4   4   4   4   4   4   4
#     4  11  23  42  71  97 137 184 229 280 349 413
#     4  11  23  42  68 100 137 178 230 278 352 406
#     4  10  23  44  66  99 135 185 221 288 340 418
#     4  12  23  44  68 103 132 179 230 285 336 420
#     4  10  24  43  68  96 140 178 227 279 351 403
#     4  11  26  44  69  95 141 177 230 276 359 405
#     4  11  26  45  68 101 137 185 224 293 343 420
#     4  12  24  41  71 103 130 175 235 283 334 413
#
# _framework density 20.788093
#
# number of rings (size 3 to 8) (size 9 to 14) (size 15 to 20)
#    0.000    1.000    3.750    2.250    5.250    1.000 
#    2.250    0.625    0.000    0.000    0.000    0.000 
#    0.000    0.000    0.000    0.000    0.000    0.000 
#
# Total GULP energy -396741.451724 kJ/mol
# GULP energy per Si atom -12398.170366 kJ/mol
# Density = 2.074078 g / cm^3
# Si number density = 20.788093 Si / 1000 Ang^3
#
#
#
# Elastic Constant Matrix: (Units=GPa)
#
#
# Indices 1 2 3 4 5 6 
#
# 1 112.6930 55.0372 33.2145 0.0000 -5.3445 0.0000
# 2 55.0372 127.6120 49.4276 -0.0001 -15.6863 0.0000
# 3 33.2145 49.4276 64.3959 -0.0001 -17.0217 0.0000
# 4 0.0000 -0.0001 -0.0001 38.5711 0.0000 -7.4766
# 5 -5.3445 -15.6863 -17.0217 0.0000 33.6996 0.0000
# 6 0.0000 0.0000 0.0000 -7.4766 0.0000 39.0861
#
#
#
# Elastic Compliance Matrix: (Units=1/GPa)
#
#
# Indices 1 2 3 4 5 6 
#
# 1 0.011738 -0.003918 -0.003505 0.000000 -0.001732 0.000000
# 2 -0.003918 0.012489 -0.007147 0.000000 0.001582 0.000000
# 3 -0.003505 -0.007147 0.025155 0.000000 0.008823 0.000000
# 4 0.000000 0.000000 0.000000 0.026924 0.000000 0.005150
# 5 -0.001732 0.001582 0.008823 0.000000 0.034592 0.000000
# 6 0.000000 0.000000 0.000000 0.005150 0.000000 0.026570
#
#
# Mechanical properties :
#
#
# Convention : Reuss Voigt Hill
#
# Bulk Modulus (GPa) = 49.40283 64.45104 56.92693
# Shear Modulus (GPa) = 28.84273 33.40613 31.12443
#
# Velocity S-wave (km/s) = 3.72891 4.01307 3.87360
# Velocity P-wave (km/s) = 6.50817 7.24873 6.88841
#
# Compressibility (1/GPa) = 0.02024176
#
# Stress axis : x y z
#
# Youngs Moduli (GPa) = 85.19392 80.07356 39.75413
#
# Poissons Ratio (x) = 0.31371 0.13934
# Poissons Ratio (y) = 0.33377 0.28412
# Poissons Ratio (z) = 0.29861 0.57227
#
# Static dielectric constant tensor:
#      x y z
#    x 3.667880 0.000000 -0.239310 
#    y 0.000000 4.365870 0.000000 
#    z -0.239310 0.000000 3.211290 
# 
# 
# High freq. dielectric constant tensor:
#      x y z
#    x 1.811240 0.000000 -0.000110 
#    y 0.000000 1.833730 0.000000 
#    z -0.000110 0.000000 1.809650 
# 
# From -- ./inp_files/79642.got.cif
#   From: 2010.03.12/outbox.cif.g09.slc.cpg/sg14_40_cif.got.tgz:79642.got - 2010.03.31 13:35:05.
