data_PCOD8127825
_publ_section_title
;
Structure prediction by ZEFSAII (Michael W. Deem and Ramdas Pophale) SiO2 
 PCOD8127825
Probable space group: P 21/C
;
_chemical_formula_sum "Si O2"
_cell_formula_units_Z 32
_cell_length_a 11.750504
_cell_length_b 8.747001
_cell_length_c 28.018453
_cell_angle_alpha 90.000000
_cell_angle_beta 147.194775
_cell_angle_gamma 90.000000
_cell_volume 1560.223051
_symmetry_space_group_name_H-M "P 21/C"
_symmetry_group_IT_number 14
_symmetry_cell_setting 'monoclinic'
loop_
_space_group_symop_operation_xyz
x,y,z
-x,1/2+y,1/2-z
-x,-y,-z
x,1/2-y,1/2+z
loop_
_atom_site_type_symbol
_atom_site_label
_atom_site_fract_x
_atom_site_fract_y
_atom_site_fract_z
Si Si1 0.679340 0.588715 0.844265
Si Si2 0.045452 0.921102 0.896779
Si Si3 0.684028 0.554672 0.343123
Si Si4 0.411836 0.923844 0.095370
Si Si5 0.552951 0.429548 0.896400
Si Si6 0.955448 0.426945 0.094948
Si Si7 0.102742 0.927903 0.249643
Si Si8 0.140907 0.928124 0.750582
O O1 0.524877 0.522681 0.750281
O O2 0.639759 0.767874 0.836270
O O3 0.645517 0.508895 0.882515
O O4 0.914256 0.555932 0.908307
O O5 0.009749 0.743221 0.871977
O O6 0.873379 0.978440 0.873917
O O7 0.276935 0.947358 0.999838
O O8 0.025147 0.018369 0.841788
O O9 0.732662 0.474233 0.410842
O O10 0.478248 0.748619 0.125589
O O11 0.615503 0.029124 0.165057
O O12 0.330640 0.496970 0.832738
O O13 0.712445 0.456839 0.996489
O O14 0.030415 0.547208 0.160633
O O15 0.124229 0.747516 0.257694
O O16 0.973648 0.969942 0.250748
#
# Coordination Sequence:
#
# PCOD8127825 Si02
#       8
#     4   4   4   4   4   4   4   4
#     4  11  21  36  62  95 130 169 207 252 309 369
#     4  10  23  42  65  93 128 167 208 256 309 369
#     4  11  21  36  62  95 130 169 207 252 309 369
#     4  11  23  41  65  94 129 166 207 257 310 371
#     4  11  23  41  65  94 129 166 207 257 310 371
#     4  10  23  42  65  93 128 167 208 256 309 369
#     4  12  26  44  67  91 122 164 210 262 313 370
#     4  12  26  44  67  91 122 164 210 262 313 370
#
# _framework density 20.509886999999999
#
# number of rings (size 3 to 8) (size 9 to 14) (size 15 to 20)
#    0.000    1.000    2.500    4.500    0.000    4.000 
#    0.000    0.000    0.000    0.000    0.000    0.000 
#    0.000    0.000    0.000    0.000    0.000    0.000 
#
# Total GULP energy -396993.840350 kJ/mol
# GULP energy per Si atom -12406.057511 kJ/mol
# Density = 2.046321 g / cm^3
# Si number density = 20.509887 Si / 1000 Ang^3
#
#
#
# Elastic Constant Matrix: (Units=GPa)
#
#
# Indices 1 2 3 4 5 6 
#
# 1 77.2226 13.1558 16.7997 0.0000 1.9405 0.0000
# 2 13.1558 81.9779 17.0286 0.0000 1.2389 0.0000
# 3 16.7997 17.0286 92.1132 0.0000 -4.5888 0.0000
# 4 0.0000 0.0000 0.0000 21.1653 0.0000 -3.6321
# 5 1.9405 1.2389 -4.5888 0.0000 10.3663 0.0000
# 6 0.0000 0.0000 0.0000 -3.6321 0.0000 38.8847
#
#
#
# Elastic Compliance Matrix: (Units=1/GPa)
#
#
# Indices 1 2 3 4 5 6 
#
# 1 0.013840 -0.001673 -0.002387 0.000000 -0.003447 0.000000
# 2 -0.001673 0.012957 -0.002200 0.000000 -0.002209 0.000000
# 3 -0.002387 -0.002200 0.011998 0.000000 0.006021 0.000000
# 4 0.000000 0.000000 0.000000 0.048017 0.000000 0.004485
# 5 -0.003447 -0.002209 0.006021 0.000000 0.100041 0.000000
# 6 0.000000 0.000000 0.000000 0.004485 0.000000 0.026136
#
#
# Mechanical properties :
#
#
# Convention : Reuss Voigt Hill
#
# Bulk Modulus (GPa) = 38.05802 38.36467 38.21134
# Shear Modulus (GPa) = 21.34301 27.70523 24.52412
#
# Velocity S-wave (km/s) = 3.22936 3.67934 3.46167
# Velocity P-wave (km/s) = 5.70099 6.06598 5.88632
#
# Compressibility (1/GPa) = 0.02627567
#
# Stress axis : x y z
#
# Youngs Moduli (GPa) = 72.25186 77.17621 83.34586
#
# Poissons Ratio (x) = 0.12914 0.19892
# Poissons Ratio (y) = 0.12090 0.18338
# Poissons Ratio (z) = 0.17244 0.16981
#
# Static dielectric constant tensor:
#      x y z
#    x 3.677860 0.000000 0.027860 
#    y 0.000000 3.795060 0.000000 
#    z 0.027860 0.000000 3.811310 
# 
# 
# High freq. dielectric constant tensor:
#      x y z
#    x 1.801580 0.000000 0.000070 
#    y 0.000000 1.811580 0.000000 
#    z 0.000070 0.000000 1.812440 
# 
# From -- ./inp_files/80042.got.cif
#   From: 2010.03.12/outbox.cif.g09.slc.cpg/sg14_41_cif.got.tgz:80042.got - 2010.03.31 13:35:05.
