data_PCOD8127423
_publ_section_title
;
Structure prediction by ZEFSAII (Michael W. Deem and Ramdas Pophale) SiO2 
 PCOD8127423
Probable space group: P 21/C
;
_chemical_formula_sum "Si O2"
_cell_formula_units_Z 28
_cell_length_a 11.413393
_cell_length_b 9.227918
_cell_length_c 25.754284
_cell_angle_alpha 90.000000
_cell_angle_beta 28.900586
_cell_angle_gamma 90.000000
_cell_volume 1310.922415
_symmetry_space_group_name_H-M "P 21/C"
_symmetry_group_IT_number 14
_symmetry_cell_setting 'monoclinic'
loop_
_space_group_symop_operation_xyz
x,y,z
-x,1/2+y,1/2-z
-x,-y,-z
x,1/2-y,1/2+z
loop_
_atom_site_type_symbol
_atom_site_label
_atom_site_fract_x
_atom_site_fract_y
_atom_site_fract_z
Si Si1 0.040938 0.397499 0.697788
Si Si2 0.633628 0.764004 0.744359
Si Si3 0.889796 0.132911 0.906695
Si Si4 0.217358 0.960280 0.375790
Si Si5 0.734175 0.097439 0.411155
Si Si6 0.915957 0.133630 0.681367
Si Si7 0.570669 0.547317 0.367833
O O1 0.994615 0.549142 0.686936
O O2 0.286358 0.406449 0.635475
O O3 0.808420 0.363443 0.823556
O O4 0.057033 0.273238 0.647570
O O5 0.644214 0.893668 0.697508
O O6 0.419595 0.647397 0.820271
O O7 0.599194 0.824864 0.815166
O O8 0.894548 0.685507 0.639869
O O9 0.710932 0.259232 0.954752
O O10 0.712384 0.028282 0.008224
O O11 0.098868 0.867605 0.374911
O O12 0.000000 0.000000 0.500000
O O13 0.500000 0.000000 0.500000
O O14 0.952106 0.012206 0.352758
O O15 0.653360 0.107653 0.810930
#
# Coordination Sequence:
#
# PCOD8127423 Si02
#       7
#     4   4   4   4   4   4   4
#     4  11  23  40  65 100 140 172 223 275 344 422
#     4  11  25  46  71  99 135 178 241 291 341 415
#     4  12  23  40  67  99 133 185 219 277 348 408
#     4  11  25  50  73  96 139 185 238 295 352 406
#     4  11  22  38  67  96 138 180 221 274 353 417
#     4  10  23  44  60 100 136 170 230 289 326 424
#     4  10  22  42  67  94 140 171 220 280 344 411
#
# _framework density 21.359005
#
# number of rings (size 3 to 8) (size 9 to 14) (size 15 to 20)
#    0.000    1.143    4.286    3.857    4.000    1.143 
#    5.143    3.571    0.000    0.000    0.000    0.000 
#    0.000    0.000    0.000    0.000    0.000    0.000 
#
# Total GULP energy -347078.380552 kJ/mol
# GULP energy per Si atom -12395.656448 kJ/mol
# Density = 2.131039 g / cm^3
# Si number density = 21.359005 Si / 1000 Ang^3
#
#
#
# Elastic Constant Matrix: (Units=GPa)
#
#
# Indices 1 2 3 4 5 6 
#
# 1 108.7571 45.9199 25.7902 0.0000 2.3294 0.0000
# 2 45.9199 95.2989 15.0595 0.0000 -3.2954 0.0000
# 3 25.7902 15.0595 87.9735 0.0000 -1.6663 0.0000
# 4 0.0000 0.0000 0.0000 32.2758 0.0000 -5.3287
# 5 2.3294 -3.2954 -1.6663 0.0000 19.5518 0.0000
# 6 0.0000 0.0000 0.0000 -5.3287 0.0000 40.2857
#
#
#
# Elastic Compliance Matrix: (Units=1/GPa)
#
#
# Indices 1 2 3 4 5 6 
#
# 1 0.012236 -0.005563 -0.002685 0.000000 -0.002624 0.000000
# 2 -0.005563 0.013368 -0.000603 0.000000 0.002864 0.000000
# 3 -0.002685 -0.000603 0.012281 0.000000 0.001265 0.000000
# 4 0.000000 0.000000 0.000000 0.031675 0.000000 0.004190
# 5 -0.002624 0.002864 0.001265 0.000000 0.052049 0.000000
# 6 0.000000 0.000000 0.000000 0.004190 0.000000 0.025377
#
#
# Mechanical properties :
#
#
# Convention : Reuss Voigt Hill
#
# Bulk Modulus (GPa) = 49.54321 51.72984 50.63652
# Shear Modulus (GPa) = 29.16879 32.10666 30.63773
#
# Velocity S-wave (km/s) = 3.69947 3.88131 3.79148
# Velocity P-wave (km/s) = 6.44158 6.66017 6.55179
#
# Compressibility (1/GPa) = 0.02018440
#
# Stress axis : x y z
#
# Youngs Moduli (GPa) = 81.72410 74.80530 81.42433
#
# Poissons Ratio (x) = 0.41611 0.21860
# Poissons Ratio (y) = 0.45460 0.04913
# Poissons Ratio (z) = 0.21940 0.04514
#
# Static dielectric constant tensor:
#      x y z
#    x 3.944730 0.000000 0.028600 
#    y 0.000000 3.859000 0.000000 
#    z 0.028600 0.000000 4.442490 
# 
# 
# High freq. dielectric constant tensor:
#      x y z
#    x 1.832230 0.000000 0.004170 
#    y 0.000000 1.838270 0.000000 
#    z 0.004170 0.000000 1.840260 
# 
# From -- ./inp_files/77112.got.cif
#   From: 2010.03.12/outbox.cif.g09.slc.cpg/sg14_39_cif.got.tgz:77112.got - 2010.03.31 13:35:05.
