data_PCOD8127196
_publ_section_title
;
Structure prediction by ZEFSAII (Michael W. Deem and Ramdas Pophale) SiO2 
 PCOD8127196
Probable space group: P 21/C
;
_chemical_formula_sum "Si O2"
_cell_formula_units_Z 28
_cell_length_a 20.520893
_cell_length_b 8.485460
_cell_length_c 9.118162
_cell_angle_alpha 90.000000
_cell_angle_beta 47.847840
_cell_angle_gamma 90.000000
_cell_volume 1177.094004
_symmetry_space_group_name_H-M "P 21/C"
_symmetry_group_IT_number 14
_symmetry_cell_setting 'monoclinic'
loop_
_space_group_symop_operation_xyz
x,y,z
-x,1/2+y,1/2-z
-x,-y,-z
x,1/2-y,1/2+z
loop_
_atom_site_type_symbol
_atom_site_label
_atom_site_fract_x
_atom_site_fract_y
_atom_site_fract_z
Si Si1 0.625366 0.768658 0.337009
Si Si2 0.508301 0.729314 0.766075
Si Si3 0.816943 0.893008 0.088402
Si Si4 0.079137 0.204146 0.349691
Si Si5 0.214208 0.777532 0.982577
Si Si6 0.603983 0.398866 0.317266
Si Si7 0.890957 0.371532 0.084680
O O1 0.569939 0.829260 0.560963
O O2 0.580237 0.856700 0.264848
O O3 0.726757 0.801723 0.203841
O O4 0.622069 0.580317 0.318934
O O5 0.452527 0.611498 0.747789
O O6 0.447295 0.835970 0.962219
O O7 0.864842 0.849503 0.169254
O O8 0.793312 0.076925 0.120658
O O9 0.884704 0.844243 0.861698
O O10 0.975374 0.240811 0.488281
O O11 0.085019 0.055185 0.449842
O O12 0.310896 0.706995 0.837567
O O13 0.144482 0.651862 0.026320
O O14 0.188235 0.832472 0.183861
#
# Coordination Sequence:
#
# PCOD8127196 Si02
#       7
#     4   4   4   4   4   4   4
#     4  11  24  42  63  90 124 160 200 250 306 360
#     4  10  22  40  64  88 114 154 202 246 294 354
#     4  11  24  39  61  92 122 159 205 249 299 361
#     4  10  22  41  63  89 123 161 202 250 303 358
#     4  11  24  39  61  92 122 159 205 249 299 361
#     4  11  24  42  63  90 124 160 200 250 306 360
#     4  10  22  41  63  89 123 161 202 250 303 358
#
# _framework density 23.787395
#
# number of rings (size 3 to 8) (size 9 to 14) (size 15 to 20)
#    0.000    1.429    0.000    5.143    0.000   12.000 
#    0.000    7.143    0.000    0.000    0.000    0.000 
#    0.000    0.000    0.000    0.000    0.000    0.000 
#
# Total GULP energy -347065.390613 kJ/mol
# GULP energy per Si atom -12395.192522 kJ/mol
# Density = 2.373325 g / cm^3
# Si number density = 23.787395 Si / 1000 Ang^3
#
#
#
# Elastic Constant Matrix: (Units=GPa)
#
#
# Indices 1 2 3 4 5 6 
#
# 1 108.3405 3.8176 36.2100 0.0000 -19.2121 0.0000
# 2 3.8176 44.4479 19.8896 0.0000 -11.7659 0.0000
# 3 36.2100 19.8896 96.5230 0.0000 -17.4401 0.0000
# 4 0.0000 0.0000 0.0000 24.7325 0.0000 -1.9268
# 5 -19.2121 -11.7659 -17.4401 0.0000 49.4002 0.0000
# 6 0.0000 0.0000 0.0000 -1.9268 0.0000 34.6023
#
#
#
# Elastic Compliance Matrix: (Units=1/GPa)
#
#
# Indices 1 2 3 4 5 6 
#
# 1 0.011062 0.001673 -0.003894 0.000000 0.003326 0.000000
# 2 0.001673 0.025956 -0.005065 0.000000 0.005045 0.000000
# 3 -0.003894 -0.005065 0.013216 0.000000 0.001945 0.000000
# 4 0.000000 0.000000 0.000000 0.040609 0.000000 0.002261
# 5 0.003326 0.005045 0.001945 0.000000 0.023425 0.000000
# 6 0.000000 0.000000 0.000000 0.002261 0.000000 0.029026
#
#
# Mechanical properties :
#
#
# Convention : Reuss Voigt Hill
#
# Bulk Modulus (GPa) = 28.03991 41.01619 34.52805
# Shear Modulus (GPa) = 29.45459 34.37328 31.91394
#
# Velocity S-wave (km/s) = 3.52269 3.80547 3.66680
# Velocity P-wave (km/s) = 5.32532 6.04889 5.69860
#
# Compressibility (1/GPa) = 0.03566346
#
# Stress axis : x y z
#
# Youngs Moduli (GPa) = 90.39642 38.52631 75.66590
#
# Poissons Ratio (x) = -0.06444 0.29462
# Poissons Ratio (y) = -0.15120 0.38321
# Poissons Ratio (z) = 0.35198 0.19512
#
# Static dielectric constant tensor:
#      x y z
#    x 4.611200 0.000000 -0.018890 
#    y 0.000000 4.125430 0.000000 
#    z -0.018890 0.000000 4.423970 
# 
# 
# High freq. dielectric constant tensor:
#      x y z
#    x 1.960390 0.000000 -0.005080 
#    y 0.000000 1.923730 0.000000 
#    z -0.005080 0.000000 1.954900 
# 
# From -- ./inp_files/18712.got.cif
#   From: 2010.03.12/outbox.cif.g09.slc.cpg/sg14_10_cif.got.tgz:18712.got - 2010.03.31 13:35:05.
