data_PCOD8127282
_publ_section_title
;
Structure prediction by ZEFSAII (Michael W. Deem and Ramdas Pophale) SiO2 
 PCOD8127282
Probable space group: P 21/C
;
_chemical_formula_sum "Si O2"
_cell_formula_units_Z 28
_cell_length_a 27.687154
_cell_length_b 8.936363
_cell_length_c 27.396199
_cell_angle_alpha 90.000000
_cell_angle_beta 10.619385
_cell_angle_gamma 90.000000
_cell_volume 1249.156412
_symmetry_space_group_name_H-M "P 21/C"
_symmetry_group_IT_number 14
_symmetry_cell_setting 'monoclinic'
loop_
_space_group_symop_operation_xyz
x,y,z
-x,1/2+y,1/2-z
-x,-y,-z
x,1/2-y,1/2+z
loop_
_atom_site_type_symbol
_atom_site_label
_atom_site_fract_x
_atom_site_fract_y
_atom_site_fract_z
Si Si1 0.741517 0.710690 0.766071
Si Si2 0.758055 0.297736 0.795812
Si Si3 0.861099 0.927730 0.248464
Si Si4 0.240593 0.777879 0.493702
Si Si5 0.218955 0.675607 0.905950
Si Si6 0.267577 0.408509 0.014920
Si Si7 0.712862 0.543014 0.360780
O O1 0.715900 0.634325 0.844527
O O2 0.714058 0.889411 0.804208
O O3 0.025015 0.684222 0.461392
O O4 0.515821 0.646095 0.955254
O O5 0.858026 0.393160 0.743263
O O6 0.699890 0.133813 0.872845
O O7 0.707283 0.887008 0.451221
O O8 0.152726 0.853526 0.962532
O O9 0.251358 0.857485 0.430684
O O10 0.983869 0.677224 0.756740
O O11 0.250225 0.913425 0.522790
O O12 0.483913 0.664752 0.258584
O O13 0.471084 0.616925 0.628378
O O14 0.972868 0.582394 0.131599
#
# Coordination Sequence:
#
# PCOD8127282 Si02
#       7
#     4   4   4   4   4   4   4
#     4  11  22  39  59  85 124 166 204 254 314 370
#     4  12  24  37  61  91 121 160 216 264 301 356
#     4  10  24  42  62  90 123 163 207 255 313 373
#     4  11  23  44  68  98 127 167 208 258 323 385
#     4  10  22  41  64  86 125 166 199 246 320 384
#     4  11  25  43  69  96 129 165 210 262 318 386
#     4  11  22  40  62  90 123 165 210 257 306 368
#
# _framework density 22.415127999999999
#
# number of rings (size 3 to 8) (size 9 to 14) (size 15 to 20)
#    0.000    1.143    0.000    7.714    0.000    8.000 
#    0.000    0.000    0.000    0.000    0.000    0.000 
#    0.000    0.000    0.000    0.000    0.000    0.000 
#
# Total GULP energy -347115.210512 kJ/mol
# GULP energy per Si atom -12396.971804 kJ/mol
# Density = 2.236411 g / cm^3
# Si number density = 22.415128 Si / 1000 Ang^3
#
#
#
# Elastic Constant Matrix: (Units=GPa)
#
#
# Indices 1 2 3 4 5 6 
#
# 1 63.5562 28.6181 21.0585 0.0000 -4.6390 0.0000
# 2 28.6181 135.8923 38.0037 0.0000 -5.1038 0.0000
# 3 21.0585 38.0037 144.0886 0.0000 -15.2062 0.0000
# 4 0.0000 0.0000 0.0000 31.2723 0.0000 1.1222
# 5 -4.6390 -5.1038 -15.2062 0.0000 24.5777 0.0000
# 6 0.0000 0.0000 0.0000 1.1222 0.0000 31.6375
#
#
#
# Elastic Compliance Matrix: (Units=1/GPa)
#
#
# Indices 1 2 3 4 5 6 
#
# 1 0.017845 -0.003255 -0.001568 0.000000 0.001722 0.000000
# 2 -0.003255 0.008542 -0.001770 0.000000 0.000064 0.000000
# 3 -0.001568 -0.001770 0.008095 0.000000 0.004345 0.000000
# 4 0.000000 0.000000 0.000000 0.032018 0.000000 -0.001136
# 5 0.001722 0.000064 0.004345 0.000000 0.043714 0.000000
# 6 0.000000 0.000000 0.000000 -0.001136 0.000000 0.031648
#
#
# Mechanical properties :
#
#
# Convention : Reuss Voigt Hill
#
# Bulk Modulus (GPa) = 46.95896 57.65529 52.30712
# Shear Modulus (GPa) = 30.83636 34.55460 32.69548
#
# Velocity S-wave (km/s) = 3.71306 3.93055 3.82335
# Velocity P-wave (km/s) = 6.27515 6.81002 6.54805
#
# Compressibility (1/GPa) = 0.02129519
#
# Stress axis : x y z
#
# Youngs Moduli (GPa) = 56.03842 117.07194 123.53650
#
# Poissons Ratio (x) = 0.38106 0.19368
# Poissons Ratio (y) = 0.18240 0.21871
# Poissons Ratio (z) = 0.08786 0.20727
#
# Static dielectric constant tensor:
#      x y z
#    x 4.056280 0.000000 -0.051670 
#    y 0.000000 4.501380 0.000000 
#    z -0.051670 0.000000 4.006290 
# 
# 
# High freq. dielectric constant tensor:
#      x y z
#    x 1.873510 0.000000 -0.005340 
#    y 0.000000 1.892480 0.000000 
#    z -0.005340 0.000000 1.893600 
# 
# From -- ./inp_files/80954.got.cif
#   From: 2010.03.12/outbox.cif.g09.slc.cpg/sg14_41_cif.got.tgz:80954.got - 2010.03.31 13:35:05.
