data_PCOD8127401
_publ_section_title
;
Structure prediction by ZEFSAII (Michael W. Deem and Ramdas Pophale) SiO2 
 PCOD8127401
Probable space group: P 21/C
;
_chemical_formula_sum "Si O2"
_cell_formula_units_Z 20
_cell_length_a 11.216217
_cell_length_b 8.771568
_cell_length_c 10.227650
_cell_angle_alpha 90.000000
_cell_angle_beta 68.252697
_cell_angle_gamma 90.000000
_cell_volume 934.618394
_symmetry_space_group_name_H-M "P 21/C"
_symmetry_group_IT_number 14
_symmetry_cell_setting 'monoclinic'
loop_
_space_group_symop_operation_xyz
x,y,z
-x,1/2+y,1/2-z
-x,-y,-z
x,1/2-y,1/2+z
loop_
_atom_site_type_symbol
_atom_site_label
_atom_site_fract_x
_atom_site_fract_y
_atom_site_fract_z
Si Si1 0.926585 0.920590 0.148475
Si Si2 0.953718 0.098630 0.398019
Si Si3 0.678959 0.242074 0.544023
Si Si4 0.348678 0.049941 0.843756
Si Si5 0.532567 0.202889 0.345631
O O1 0.957180 0.744279 0.146218
O O2 0.773109 0.925610 0.199479
O O3 0.972852 0.002260 0.260233
O O4 0.000000 0.000000 0.000000
O O5 0.806952 0.148971 0.469293
O O6 0.000000 0.000000 0.500000
O O7 0.695587 0.427572 0.526514
O O8 0.573214 0.198546 0.479414
O O9 0.631942 0.204270 0.711134
O O10 0.395490 0.209873 0.888082
O O11 0.465112 0.971716 0.710270
#
# Coordination Sequence:
#
# PCOD8127401 Si02
#       5
#     4   4   4   4   4
#     4  12  24  47  69 101 139 184 233 283 346 413
#     4  12  26  45  72 104 136 186 227 289 349 413
#     4  10  22  44  68  92 142 168 227 285 335 401
#     4  10  23  42  68  95 138 179 224 282 333 415
#     4  10  22  42  65  96 130 182 224 277 350 390
#
# _framework density 21.39911
#
# number of rings (size 3 to 8) (size 9 to 14) (size 15 to 20)
#    1.200    0.000    4.000    1.800    2.800    2.400 
#    7.200    0.000    0.000    0.000    0.000    0.000 
#    0.000    0.000    0.000    0.000    0.000    0.000 
#
# Total GULP energy -247804.446594 kJ/mol
# GULP energy per Si atom -12390.222330 kJ/mol
# Density = 2.135041 g / cm^3
# Si number density = 21.399110 Si / 1000 Ang^3
#
#
#
# Elastic Constant Matrix: (Units=GPa)
#
#
# Indices 1 2 3 4 5 6 
#
# 1 108.9568 56.6494 21.6739 0.0000 20.6178 0.0000
# 2 56.6494 117.9400 22.7027 0.0000 3.5431 0.0000
# 3 21.6739 22.7027 93.9330 0.0000 17.3374 0.0000
# 4 0.0000 0.0000 0.0000 33.9872 0.0000 -2.0411
# 5 20.6178 3.5431 17.3374 0.0000 28.6445 0.0000
# 6 0.0000 0.0000 0.0000 -2.0411 0.0000 48.4282
#
#
#
# Elastic Compliance Matrix: (Units=1/GPa)
#
#
# Indices 1 2 3 4 5 6 
#
# 1 0.014449 -0.006661 0.000049 0.000000 -0.009606 0.000000
# 2 -0.006661 0.011965 -0.002214 0.000000 0.004655 0.000000
# 3 0.000049 -0.002214 0.012525 0.000000 -0.007342 0.000000
# 4 0.000000 0.000000 0.000000 0.029497 0.000000 0.001243
# 5 -0.009606 0.004655 -0.007342 0.000000 0.045693 0.000000
# 6 0.000000 0.000000 0.000000 0.001243 0.000000 0.020702
#
#
# Mechanical properties :
#
#
# Convention : Reuss Voigt Hill
#
# Bulk Modulus (GPa) = 46.97794 58.09799 52.53796
# Shear Modulus (GPa) = 31.33250 36.86557 34.09904
#
# Velocity S-wave (km/s) = 3.83063 4.15512 3.99617
# Velocity P-wave (km/s) = 6.44716 7.08722 6.77475
#
# Compressibility (1/GPa) = 0.02128659
#
# Stress axis : x y z
#
# Youngs Moduli (GPa) = 69.20774 83.57898 79.84139
#
# Poissons Ratio (x) = 0.55673 -0.00391
# Poissons Ratio (y) = 0.46100 0.17676
# Poissons Ratio (z) = -0.00339 0.18504
#
# Static dielectric constant tensor:
#      x y z
#    x 3.765070 0.000000 0.102540 
#    y 0.000000 4.006050 0.000000 
#    z 0.102540 0.000000 3.695930 
# 
# 
# High freq. dielectric constant tensor:
#      x y z
#    x 1.838360 0.000000 0.010540 
#    y 0.000000 1.845770 0.000000 
#    z 0.010540 0.000000 1.832280 
# 
# From -- ./inp_files/27774.got.cif
#   From: 2010.03.12/outbox.cif.g09.slc.cpg/sg14_14_cif.got.tgz:27774.got - 2010.03.31 13:35:05.
