data_PCOD8127179
_publ_section_title
;
Structure prediction by ZEFSAII (Michael W. Deem and Ramdas Pophale) SiO2 
 PCOD8127179
Probable space group: P 21/C
;
_chemical_formula_sum "Si O2"
_cell_formula_units_Z 24
_cell_length_a 22.328959
_cell_length_b 8.835642
_cell_length_c 10.714629
_cell_angle_alpha 90.000000
_cell_angle_beta 147.868354
_cell_angle_gamma 90.000000
_cell_volume 1124.310507
_symmetry_space_group_name_H-M "P 21/C"
_symmetry_group_IT_number 14
_symmetry_cell_setting 'monoclinic'
loop_
_space_group_symop_operation_xyz
x,y,z
-x,1/2+y,1/2-z
-x,-y,-z
x,1/2-y,1/2+z
loop_
_atom_site_type_symbol
_atom_site_label
_atom_site_fract_x
_atom_site_fract_y
_atom_site_fract_z
Si Si1 0.072013 0.331745 0.250252
Si Si2 0.382392 0.551591 0.064477
Si Si3 0.717512 0.245416 0.920769
Si Si4 0.964612 0.184676 0.301009
Si Si5 0.500353 0.771838 0.112890
Si Si6 0.316125 0.418967 0.689575
O O1 0.036732 0.504323 0.207717
O O2 0.206894 0.315187 0.476463
O O3 0.033673 0.238704 0.303250
O O4 0.020229 0.264405 0.030837
O O5 0.286028 0.648316 0.964072
O O6 0.483060 0.666624 0.204070
O O7 0.436769 0.426601 0.248744
O O8 0.320132 0.475284 0.838830
O O9 0.622381 0.308121 0.659068
O O10 0.691484 0.069637 0.910728
O O11 0.839984 0.256700 0.073907
O O12 0.572741 0.676160 0.141883
#
# Coordination Sequence:
#
# PCOD8127179 Si02
#       6
#     4   4   4   4   4   4
#     4  10  24  44  65  96 127 172 214 271 317 385
#     4  11  22  38  64  92 127 165 206 260 327 381
#     4  10  22  40  63  90 122 166 211 262 314 381
#     4  10  24  44  67  94 129 167 220 265 325 377
#     4  11  22  39  61  96 125 163 206 260 319 384
#     4  10  23  41  60  91 129 161 213 264 318 378
#
# _framework density 21.346416000000001
#
# number of rings (size 3 to 8) (size 9 to 14) (size 15 to 20)
#    0.000    1.667    0.000    4.500    9.333    2.000 
#    3.000    0.000    0.000    0.000    0.000    0.000 
#    0.000    0.000    0.000    0.000    0.000    0.000 
#
# Total GULP energy -297613.908835 kJ/mol
# GULP energy per Si atom -12400.579535 kJ/mol
# Density = 2.129783 g / cm^3
# Si number density = 21.346416 Si / 1000 Ang^3
#
#
#
# Elastic Constant Matrix: (Units=GPa)
#
#
# Indices 1 2 3 4 5 6 
#
# 1 62.9269 32.7482 17.9865 0.0000 -11.5472 0.0000
# 2 32.7482 52.6230 28.0185 0.0000 -4.6472 0.0000
# 3 17.9865 28.0185 104.1244 0.0000 3.1328 0.0000
# 4 0.0000 0.0000 0.0000 26.8248 0.0000 -3.9990
# 5 -11.5472 -4.6472 3.1328 0.0000 31.2602 0.0000
# 6 0.0000 0.0000 0.0000 -3.9990 0.0000 47.0359
#
#
#
# Elastic Compliance Matrix: (Units=1/GPa)
#
#
# Indices 1 2 3 4 5 6 
#
# 1 0.024958 -0.014584 -0.000601 0.000000 0.007111 0.000000
# 2 -0.014584 0.031189 -0.005869 0.000000 -0.000162 0.000000
# 3 -0.000601 -0.005869 0.011354 0.000000 -0.002232 0.000000
# 4 0.000000 0.000000 0.000000 0.037757 0.000000 0.003210
# 5 0.007111 -0.000162 -0.002232 0.000000 0.034816 0.000000
# 6 0.000000 0.000000 0.000000 0.003210 0.000000 0.021533
#
#
# Mechanical properties :
#
#
# Convention : Reuss Voigt Hill
#
# Bulk Modulus (GPa) = 39.37837 41.90896 40.64366
# Shear Modulus (GPa) = 23.56508 30.41893 26.99200
#
# Velocity S-wave (km/s) = 3.32616 3.77903 3.55980
# Velocity P-wave (km/s) = 5.76528 6.22229 5.99814
#
# Compressibility (1/GPa) = 0.02539465
#
# Stress axis : x y z
#
# Youngs Moduli (GPa) = 40.06780 32.06258 88.07476
#
# Poissons Ratio (x) = 0.46759 0.05292
# Poissons Ratio (y) = 0.58433 0.51687
# Poissons Ratio (z) = 0.02408 0.18816
#
# Static dielectric constant tensor:
#      x y z
#    x 3.822140 0.000000 0.024350 
#    y 0.000000 3.870690 0.000000 
#    z 0.024350 0.000000 3.940550 
# 
# 
# High freq. dielectric constant tensor:
#      x y z
#    x 1.835380 0.000000 0.001980 
#    y 0.000000 1.833170 0.000000 
#    z 0.001980 0.000000 1.841240 
# 
# From -- ./inp_files/28188.got.cif
#   From: 2010.03.12/outbox.cif.g09.slc.cpg/sg14_15_cif.got.tgz:28188.got - 2010.03.31 13:35:05.
