data_PCOD8127010
_publ_section_title
;
Structure prediction by ZEFSAII (Michael W. Deem and Ramdas Pophale) SiO2 
 PCOD8127010
Probable space group: P 21/C
;
_chemical_formula_sum "Si O2"
_cell_formula_units_Z 20
_cell_length_a 16.005919
_cell_length_b 11.324452
_cell_length_c 12.409624
_cell_angle_alpha 90.000000
_cell_angle_beta 153.047327
_cell_angle_gamma 90.000000
_cell_volume 1019.526283
_symmetry_space_group_name_H-M "P 21/C"
_symmetry_group_IT_number 14
_symmetry_cell_setting 'monoclinic'
loop_
_space_group_symop_operation_xyz
x,y,z
-x,1/2+y,1/2-z
-x,-y,-z
x,1/2-y,1/2+z
loop_
_atom_site_type_symbol
_atom_site_label
_atom_site_fract_x
_atom_site_fract_y
_atom_site_fract_z
Si Si1 0.759026 0.385318 0.551039
Si Si2 0.646800 0.945262 0.750283
Si Si3 0.332885 0.059200 0.870141
Si Si4 0.134299 0.273956 0.990642
Si Si5 0.416420 0.275524 0.650106
O O1 0.775221 0.457672 0.457547
O O2 0.773136 0.469607 0.672068
O O3 0.558800 0.329375 0.320830
O O4 0.912859 0.282110 0.729659
O O5 0.788701 0.846815 0.862352
O O6 0.522035 0.881552 0.698629
O O7 0.500000 0.000000 0.500000
O O8 0.191543 0.107326 0.619094
O O9 0.406102 0.174174 0.018070
O O10 0.500000 0.000000 0.000000
O O11 0.219107 0.274807 0.966660
#
# Coordination Sequence:
#
# PCOD8127010 Si02
#       5
#     4   4   4   4   4
#     4  11  21  39  63  90 121 162 206 256 310 370
#     4   9  20  41  60  85 126 160 197 260 317 365
#     4  11  20  40  65  86 125 167 200 257 318 372
#     4  10  22  38  59  92 119 153 214 254 302 375
#     4   9  22  39  58  89 121 158 204 253 311 373
#
# _framework density 19.616952999999999
#
# number of rings (size 3 to 8) (size 9 to 14) (size 15 to 20)
#    1.200    0.800    2.000    1.800    0.000    1.600 
#    7.200    1.000    0.000    0.000    0.000    0.000 
#    0.000    0.000    0.000    0.000    0.000    0.000 
#
# Total GULP energy -247764.153020 kJ/mol
# GULP energy per Si atom -12388.207651 kJ/mol
# Density = 1.957230 g / cm^3
# Si number density = 19.616953 Si / 1000 Ang^3
#
#
#
# Elastic Constant Matrix: (Units=GPa)
#
#
# Indices 1 2 3 4 5 6 
#
# 1 82.4712 27.8250 37.6626 0.0000 -2.8114 0.0000
# 2 27.8250 84.6134 34.1433 0.0000 5.0325 0.0000
# 3 37.6626 34.1433 57.5178 0.0000 7.7952 0.0000
# 4 0.0000 0.0000 0.0000 44.7574 0.0000 -2.6485
# 5 -2.8114 5.0325 7.7952 0.0000 28.8152 0.0000
# 6 0.0000 0.0000 0.0000 -2.6485 0.0000 43.0606
#
#
#
# Elastic Compliance Matrix: (Units=1/GPa)
#
#
# Indices 1 2 3 4 5 6 
#
# 1 0.018159 -0.001576 -0.011660 0.000000 0.005201 0.000000
# 2 -0.001576 0.015679 -0.008184 0.000000 -0.000678 0.000000
# 3 -0.011660 -0.008184 0.030975 0.000000 -0.008088 0.000000
# 4 0.000000 0.000000 0.000000 0.022424 0.000000 0.001379
# 5 0.005201 -0.000678 -0.008088 0.000000 0.037518 0.000000
# 6 0.000000 0.000000 0.000000 0.001379 0.000000 0.023308
#
#
# Mechanical properties :
#
#
# Convention : Reuss Voigt Hill
#
# Bulk Modulus (GPa) = 45.50770 47.09601 46.30186
# Shear Modulus (GPa) = 25.22348 31.65806 28.44077
#
# Velocity S-wave (km/s) = 3.58970 4.02159 3.81176
# Velocity P-wave (km/s) = 6.35844 6.75456 6.55949
#
# Compressibility (1/GPa) = 0.02197430
#
# Stress axis : x y z
#
# Youngs Moduli (GPa) = 55.06795 63.77842 32.28405
#
# Poissons Ratio (x) = 0.10051 0.37644
# Poissons Ratio (y) = 0.08678 0.26420
# Poissons Ratio (z) = 0.64210 0.52194
#
# Static dielectric constant tensor:
#      x y z
#    x 3.453470 0.000000 -0.155230 
#    y 0.000000 4.082830 0.000000 
#    z -0.155230 0.000000 3.278950 
# 
# 
# High freq. dielectric constant tensor:
#      x y z
#    x 1.750220 0.000000 -0.010140 
#    y 0.000000 1.771490 0.000000 
#    z -0.010140 0.000000 1.744880 
# 
# From -- ./inp_files/50355.got.cif
#   From: 2010.03.12/outbox.cif.g09.slc.cpg/sg14_26_cif.got.tgz:50355.got - 2010.03.31 13:35:05.
