data_PCOD8127633
_publ_section_title
;
Structure prediction by ZEFSAII (Michael W. Deem and Ramdas Pophale) SiO2 
 PCOD8127633
Probable space group: P 21/C
;
_chemical_formula_sum "Si O2"
_cell_formula_units_Z 28
_cell_length_a 11.689119
_cell_length_b 11.475671
_cell_length_c 18.269266
_cell_angle_alpha 90.000000
_cell_angle_beta 148.357738
_cell_angle_gamma 90.000000
_cell_volume 1285.644362
_symmetry_space_group_name_H-M "P 21/C"
_symmetry_group_IT_number 14
_symmetry_cell_setting 'monoclinic'
loop_
_space_group_symop_operation_xyz
x,y,z
-x,1/2+y,1/2-z
-x,-y,-z
x,1/2-y,1/2+z
loop_
_atom_site_type_symbol
_atom_site_label
_atom_site_fract_x
_atom_site_fract_y
_atom_site_fract_z
Si Si1 0.579388 0.909874 0.864679
Si Si2 0.840942 0.038932 0.186236
Si Si3 0.268168 0.740526 0.281794
Si Si4 0.701649 0.070358 0.582196
Si Si5 0.450581 0.114280 0.879882
Si Si6 0.420330 0.369236 0.807475
Si Si7 0.946350 0.454628 0.391711
O O1 0.493224 0.802752 0.867002
O O2 0.565040 0.878026 0.771691
O O3 0.436875 0.025093 0.803542
O O4 0.824935 0.940576 0.026589
O O5 0.877609 0.128558 0.274408
O O6 0.715075 0.923780 0.146057
O O7 0.695676 0.107288 0.046684
O O8 0.072664 0.997283 0.280735
O O9 0.308843 0.810046 0.378707
O O10 0.153059 0.824240 0.159660
O O11 0.654417 0.095030 0.470225
O O12 0.500000 0.000000 0.500000
O O13 0.372019 0.238086 0.806649
O O14 0.229311 0.453668 0.736876
O O15 0.000000 0.500000 0.500000
#
# Coordination Sequence:
#
# PCOD8127633 Si02
#       7
#     4   4   4   4   4   4   4
#     4  10  25  44  68  95 142 186 228 281 345 415
#     4  10  24  44  68 101 134 178 229 289 344 410
#     4  11  23  45  69  98 131 186 230 286 344 408
#     4  12  25  41  67 104 137 173 235 283 345 409
#     4  10  22  45  69  96 135 181 230 281 349 406
#     4  11  24  42  68 103 136 180 229 286 340 417
#     4  10  23  42  66 100 137 181 228 277 349 405
#
# _framework density 21.778963000000001
#
# number of rings (size 3 to 8) (size 9 to 14) (size 15 to 20)
#    0.000    1.429    2.857    0.857    6.000    2.286 
#    5.143    1.429    0.000    0.000    0.000    0.000 
#    0.000    0.000    0.000    0.000    0.000    0.000 
#
# Total GULP energy -346922.861550 kJ/mol
# GULP energy per Si atom -12390.102198 kJ/mol
# Density = 2.172939 g / cm^3
# Si number density = 21.778963 Si / 1000 Ang^3
#
#
#
# Elastic Constant Matrix: (Units=GPa)
#
#
# Indices 1 2 3 4 5 6 
#
# 1 109.8883 50.9154 57.7571 0.0000 14.9866 0.0000
# 2 50.9154 133.8173 47.3101 0.0000 11.9416 0.0000
# 3 57.7571 47.3101 121.0925 0.0000 4.2937 0.0000
# 4 0.0000 0.0000 0.0000 31.3938 0.0000 -5.7819
# 5 14.9866 11.9416 4.2937 0.0000 43.1056 0.0000
# 6 0.0000 0.0000 0.0000 -5.7819 0.0000 38.8458
#
#
#
# Elastic Compliance Matrix: (Units=1/GPa)
#
#
# Indices 1 2 3 4 5 6 
#
# 1 0.013738 -0.003074 -0.005231 0.000000 -0.003404 0.000000
# 2 -0.003074 0.009547 -0.002216 0.000000 -0.001355 0.000000
# 3 -0.005231 -0.002216 0.011573 0.000000 0.001280 0.000000
# 4 0.000000 0.000000 0.000000 0.032751 0.000000 0.004875
# 5 -0.003404 -0.001355 0.001280 0.000000 0.024630 0.000000
# 6 0.000000 0.000000 0.000000 0.004875 0.000000 0.026468
#
#
# Mechanical properties :
#
#
# Convention : Reuss Voigt Hill
#
# Bulk Modulus (GPa) = 72.37404 75.19590 73.78497
# Shear Modulus (GPa) = 34.63695 36.59009 35.61352
#
# Velocity S-wave (km/s) = 3.99229 4.10331 4.04818
# Velocity P-wave (km/s) = 7.38610 7.55323 7.47013
#
# Compressibility (1/GPa) = 0.01381711
#
# Stress axis : x y z
#
# Youngs Moduli (GPa) = 72.79089 104.74781 86.40543
#
# Poissons Ratio (x) = 0.32200 0.45198
# Poissons Ratio (y) = 0.22376 0.19144
# Poissons Ratio (z) = 0.38076 0.23208
#
# Static dielectric constant tensor:
#      x y z
#    x 4.046220 0.000000 -0.108330 
#    y 0.000000 3.856450 0.000000 
#    z -0.108330 0.000000 4.557040 
# 
# 
# High freq. dielectric constant tensor:
#      x y z
#    x 1.861090 0.000000 -0.008160 
#    y 0.000000 1.866260 0.000000 
#    z -0.008160 0.000000 1.846290 
# 
# From -- ./inp_files/67357.got.cif
#   From: 2010.03.12/outbox.cif.g09.slc.cpg/sg14_34_cif.got.tgz:67357.got - 2010.03.31 13:35:05.
