data_PCOD8127692
_publ_section_title
;
Structure prediction by ZEFSAII (Michael W. Deem and Ramdas Pophale) SiO2 
 PCOD8127692
Probable space group: P 21/C
;
_chemical_formula_sum "Si O2"
_cell_formula_units_Z 28
_cell_length_a 22.279874
_cell_length_b 14.630196
_cell_length_c 9.046501
_cell_angle_alpha 90.000000
_cell_angle_beta 153.259643
_cell_angle_gamma 90.000000
_cell_volume 1326.801566
_symmetry_space_group_name_H-M "P 21/C"
_symmetry_group_IT_number 14
_symmetry_cell_setting 'monoclinic'
loop_
_space_group_symop_operation_xyz
x,y,z
-x,1/2+y,1/2-z
-x,-y,-z
x,1/2-y,1/2+z
loop_
_atom_site_type_symbol
_atom_site_label
_atom_site_fract_x
_atom_site_fract_y
_atom_site_fract_z
Si Si1 0.381784 0.254710 0.867794
Si Si2 0.950990 0.355899 0.616512
Si Si3 0.748767 0.637170 0.677402
Si Si4 0.710124 0.470778 0.755243
Si Si5 0.072082 0.668594 0.779554
Si Si6 0.454914 0.374293 0.276888
Si Si7 0.826962 0.543539 0.297916
O O1 0.275934 0.206092 0.741448
O O2 0.301729 0.323216 0.587212
O O3 0.462775 0.181531 0.947711
O O4 0.483713 0.309869 0.197526
O O5 0.902395 0.270159 0.605326
O O6 0.947016 0.327442 0.437365
O O7 0.861851 0.446396 0.450983
O O8 0.095965 0.382481 0.993063
O O9 0.675590 0.539829 0.545412
O O10 0.573811 0.447456 0.542334
O O11 0.791573 0.383642 0.877102
O O12 0.806998 0.526714 0.079250
O O13 0.943980 0.619013 0.573415
O O14 0.309404 0.418546 0.931357
#
# Coordination Sequence:
#
# PCOD8127692 Si02
#       7
#     4   4   4   4   4   4   4
#     4  10  23  38  63  91 120 160 208 247 299 363
#     4  11  21  38  64  89 123 158 204 254 302 358
#     4  11  19  40  63  90 119 163 200 251 300 362
#     4  11  22  39  65  87 123 163 199 249 308 362
#     4  11  22  41  61  91 121 160 205 252 303 362
#     4  11  23  41  63  91 122 159 206 248 301 364
#     4  11  21  40  64  91 119 164 206 243 306 372
#
# _framework density 21.103383000000001
#
# number of rings (size 3 to 8) (size 9 to 14) (size 15 to 20)
#    0.000    1.143    4.286    3.857    0.000    2.857 
#    5.143    1.429    0.000    0.000    0.000    0.000 
#    0.000    0.000    0.000    0.000    0.000    0.000 
#
# Total GULP energy -347197.021138 kJ/mol
# GULP energy per Si atom -12399.893612 kJ/mol
# Density = 2.105535 g / cm^3
# Si number density = 21.103383 Si / 1000 Ang^3
#
#
#
# Elastic Constant Matrix: (Units=GPa)
#
#
# Indices 1 2 3 4 5 6 
#
# 1 68.2968 22.4297 20.8190 0.0000 1.6022 0.0000
# 2 22.4297 87.4517 6.7761 0.0000 2.8675 0.0000
# 3 20.8190 6.7761 40.4334 0.0000 12.9603 0.0000
# 4 0.0000 0.0000 0.0000 27.2241 0.0000 7.3530
# 5 1.6022 2.8675 12.9603 0.0000 34.7861 0.0000
# 6 0.0000 0.0000 0.0000 7.3530 0.0000 28.4532
#
#
#
# Elastic Compliance Matrix: (Units=1/GPa)
#
#
# Indices 1 2 3 4 5 6 
#
# 1 0.019037 -0.004203 -0.010138 0.000000 0.003247 0.000000
# 2 -0.004203 0.012516 0.000381 0.000000 -0.000980 0.000000
# 3 -0.010138 0.000381 0.033783 0.000000 -0.012151 0.000000
# 4 0.000000 0.000000 0.000000 0.039488 0.000000 -0.010205
# 5 0.003247 -0.000980 -0.012151 0.000000 0.033206 0.000000
# 6 0.000000 0.000000 0.000000 -0.010205 0.000000 0.037783
#
#
# Mechanical properties :
#
#
# Convention : Reuss Voigt Hill
#
# Bulk Modulus (GPa) = 26.72781 32.91460 29.82121
# Shear Modulus (GPa) = 23.12621 27.83648 25.48134
#
# Velocity S-wave (km/s) = 3.31396 3.63582 3.47861
# Velocity P-wave (km/s) = 5.22836 5.76682 5.50418
#
# Compressibility (1/GPa) = 0.03741421
#
# Stress axis : x y z
#
# Youngs Moduli (GPa) = 52.52988 79.90019 29.60044
#
# Poissons Ratio (x) = 0.33586 0.30010
# Poissons Ratio (y) = 0.22081 -0.01128
# Poissons Ratio (z) = 0.53256 -0.03045
#
# Static dielectric constant tensor:
#      x y z
#    x 3.636190 0.000000 -0.034060 
#    y 0.000000 4.176400 0.000000 
#    z -0.034060 0.000000 3.652370 
# 
# 
# High freq. dielectric constant tensor:
#      x y z
#    x 1.810870 0.000000 0.003430 
#    y 0.000000 1.845360 0.000000 
#    z 0.003430 0.000000 1.811100 
# 
# From -- ./inp_files/13250.got.cif
#   From: 2010.03.12/outbox.cif.g09.slc.cpg/sg14_7_cif.got.tgz:13250.got - 2010.03.31 13:35:05.
