data_PCOD8127484
_publ_section_title
;
Structure prediction by ZEFSAII (Michael W. Deem and Ramdas Pophale) SiO2 
 PCOD8127484
Probable space group: P 21/C
;
_chemical_formula_sum "Si O2"
_cell_formula_units_Z 20
_cell_length_a 6.541353
_cell_length_b 18.320924
_cell_length_c 8.531459
_cell_angle_alpha 90.000000
_cell_angle_beta 127.506632
_cell_angle_gamma 90.000000
_cell_volume 811.084952
_symmetry_space_group_name_H-M "P 21/C"
_symmetry_group_IT_number 14
_symmetry_cell_setting 'monoclinic'
loop_
_space_group_symop_operation_xyz
x,y,z
-x,1/2+y,1/2-z
-x,-y,-z
x,1/2-y,1/2+z
loop_
_atom_site_type_symbol
_atom_site_label
_atom_site_fract_x
_atom_site_fract_y
_atom_site_fract_z
Si Si1 0.274535 0.671176 0.955684
Si Si2 0.266566 0.083856 0.484033
Si Si3 0.234838 0.674903 0.283023
Si Si4 0.377993 0.556912 0.583669
Si Si5 0.988648 0.048096 0.805956
O O1 0.194203 0.747188 0.842204
O O2 0.026286 0.617165 0.819030
O O3 0.499552 0.631321 0.968951
O O4 0.372924 0.683388 0.179052
O O5 0.356983 0.049937 0.694391
O O6 0.035806 0.140017 0.390599
O O7 0.197684 0.016493 0.341522
O O8 0.400337 0.624541 0.475377
O O9 0.123203 0.570515 0.575221
O O10 0.291068 0.480443 0.453662
#
# Coordination Sequence:
#
# PCOD8127484 Si02
#       5
#     4   4   4   4   4
#     4  11  22  41  63  89 125 161 205 256 303 362
#     4  10  22  43  65  90 124 163 202 249 311 365
#     4  11  25  40  61  91 124 162 206 253 303 365
#     4   9  18  38  61  88 122 156 198 246 297 359
#     4   9  19  39  66  91 124 163 199 252 308 360
#
# _framework density 24.658332000000001
#
# number of rings (size 3 to 8) (size 9 to 14) (size 15 to 20)
#    0.000    2.000    0.000    4.800    0.000    6.400 
#    0.000   21.000    0.000    0.000    0.000    0.000 
#    0.000    0.000    0.000    0.000    0.000    0.000 
#
# Total GULP energy -248004.311543 kJ/mol
# GULP energy per Si atom -12400.215577 kJ/mol
# Density = 2.460221 g / cm^3
# Si number density = 24.658332 Si / 1000 Ang^3
#
#
#
# Elastic Constant Matrix: (Units=GPa)
#
#
# Indices 1 2 3 4 5 6 
#
# 1 17.1712 17.8934 27.0456 0.0000 4.5578 0.0000
# 2 17.8934 145.1160 59.3607 0.0000 -12.5485 0.0000
# 3 27.0456 59.3607 174.1235 0.0000 -12.2061 0.0000
# 4 0.0000 0.0000 0.0000 47.2253 0.0000 -7.3135
# 5 4.5578 -12.5485 -12.2061 0.0000 43.1805 0.0000
# 6 0.0000 0.0000 0.0000 -7.3135 0.0000 25.6040
#
#
#
# Elastic Compliance Matrix: (Units=1/GPa)
#
#
# Indices 1 2 3 4 5 6 
#
# 1 0.089425 -0.007223 -0.012484 0.000000 -0.015067 0.000000
# 2 -0.007223 0.008699 -0.001646 0.000000 0.002825 0.000000
# 3 -0.012484 -0.001646 0.008470 0.000000 0.003234 0.000000
# 4 0.000000 0.000000 0.000000 0.022155 0.000000 0.006328
# 5 -0.015067 0.002825 0.003234 0.000000 0.026484 0.000000
# 6 0.000000 0.000000 0.000000 0.006328 0.000000 0.040864
#
#
# Mechanical properties :
#
#
# Convention : Reuss Voigt Hill
#
# Bulk Modulus (GPa) = 15.65196 60.55667 38.10431
# Shear Modulus (GPa) = 19.22347 38.67603 28.94975
#
# Velocity S-wave (km/s) = 2.79515 3.96470 3.43014
# Velocity P-wave (km/s) = 4.09615 6.75056 5.58339
#
# Compressibility (1/GPa) = 0.06388974
#
# Stress axis : x y z
#
# Youngs Moduli (GPa) = 11.18251 114.95406 118.06644
#
# Poissons Ratio (x) = 0.83029 1.47392
# Poissons Ratio (y) = 0.08077 0.19430
# Poissons Ratio (z) = 0.13960 0.18918
#
# Static dielectric constant tensor:
#      x y z
#    x 4.345870 0.000000 -0.149750 
#    y 0.000000 4.569980 0.000000 
#    z -0.149750 0.000000 4.861740 
# 
# 
# High freq. dielectric constant tensor:
#      x y z
#    x 1.985580 0.000000 -0.014360 
#    y 0.000000 1.978080 0.000000 
#    z -0.014360 0.000000 2.005660 
# 
# From -- ./inp_files/8965.got.cif
#   From: 2010.03.12/outbox.cif.g09.slc.cpg/sg14_5_cif.got.tgz:8965.got - 2010.03.31 13:35:05.
