data_PCOD8127961
_publ_section_title
;
Structure prediction by ZEFSAII (Michael W. Deem and Ramdas Pophale) SiO2 
 PCOD8127961
Probable space group: P 21/C
;
_chemical_formula_sum "Si O2"
_cell_formula_units_Z 32
_cell_length_a 22.410329
_cell_length_b 11.303566
_cell_length_c 10.619148
_cell_angle_alpha 90.000000
_cell_angle_beta 145.255210
_cell_angle_gamma 90.000000
_cell_volume 1533.094190
_symmetry_space_group_name_H-M "P 21/C"
_symmetry_group_IT_number 14
_symmetry_cell_setting 'monoclinic'
loop_
_space_group_symop_operation_xyz
x,y,z
-x,1/2+y,1/2-z
-x,-y,-z
x,1/2-y,1/2+z
loop_
_atom_site_type_symbol
_atom_site_label
_atom_site_fract_x
_atom_site_fract_y
_atom_site_fract_z
Si Si1 0.297211 0.881630 0.989686
Si Si2 0.608037 0.362679 0.875335
Si Si3 0.857562 0.340058 0.992593
Si Si4 0.803860 0.756409 0.674717
Si Si5 0.100960 0.348614 0.415798
Si Si6 0.371809 0.392570 0.507623
Si Si7 0.222318 0.915810 0.121727
Si Si8 0.719456 0.526904 0.896709
O O1 0.190078 0.858169 0.728456
O O2 0.372227 0.968600 0.041782
O O3 0.359277 0.762395 0.126420
O O4 0.270509 0.948478 0.071148
O O5 0.489998 0.347792 0.717852
O O6 0.620127 0.461271 0.787995
O O7 0.682116 0.396961 0.118628
O O8 0.978305 0.372291 0.197946
O O9 0.845325 0.203536 0.011255
O O10 0.800845 0.426885 0.992691
O O11 0.864562 0.699652 0.661480
O O12 0.697318 0.683986 0.515890
O O13 0.777506 0.892236 0.599215
O O14 0.871926 0.757447 0.922686
O O15 0.151374 0.474453 0.538985
O O16 0.323111 0.383824 0.283542
#
# Coordination Sequence:
#
# PCOD8127961 Si02
#       8
#     4   4   4   4   4   4   4   4
#     4  10  23  44  62  97 133 163 228 271 321 400
#     4  11  24  41  69  96 131 177 218 277 336 388
#     4  10  26  43  68  98 130 177 216 279 331 390
#     4  12  26  45  65 104 137 172 225 278 325 406
#     4  12  27  44  71  96 138 179 221 274 338 388
#     4  11  25  43  67  95 135 180 215 276 336 391
#     4  11  23  44  65  97 130 168 225 272 318 403
#     4  11  23  46  66  96 138 170 229 272 328 404
#
# _framework density 20.872820999999998
#
# number of rings (size 3 to 8) (size 9 to 14) (size 15 to 20)
#    0.000    1.000    5.000    0.375    5.250    2.500 
#    0.000    0.000    0.000    0.000    0.000    0.000 
#    0.000    0.000    0.000    0.000    0.000    0.000 
#
# Total GULP energy -396863.130337 kJ/mol
# GULP energy per Si atom -12401.972823 kJ/mol
# Density = 2.082531 g / cm^3
# Si number density = 20.872821 Si / 1000 Ang^3
#
#
#
# Elastic Constant Matrix: (Units=GPa)
#
#
# Indices 1 2 3 4 5 6 
#
# 1 112.5380 28.1387 49.5850 0.0000 -0.3376 0.0000
# 2 28.1387 91.3729 39.0559 0.0000 -0.4671 0.0000
# 3 49.5850 39.0559 111.9552 0.0000 21.8354 0.0000
# 4 0.0000 0.0000 0.0000 24.5493 0.0000 -3.6473
# 5 -0.3376 -0.4671 21.8354 0.0000 31.1553 0.0000
# 6 0.0000 0.0000 0.0000 -3.6473 0.0000 33.0472
#
#
#
# Elastic Compliance Matrix: (Units=1/GPa)
#
#
# Indices 1 2 3 4 5 6 
#
# 1 0.011623 -0.001209 -0.005499 0.000000 0.003962 0.000000
# 2 -0.001209 0.013403 -0.004838 0.000000 0.003579 0.000000
# 3 -0.005499 -0.004838 0.015152 0.000000 -0.010752 0.000000
# 4 0.000000 0.000000 0.000000 0.041414 0.000000 0.004571
# 5 0.003962 0.003579 -0.010752 0.000000 0.039729 0.000000
# 6 0.000000 0.000000 0.000000 0.004571 0.000000 0.030764
#
#
# Mechanical properties :
#
#
# Convention : Reuss Voigt Hill
#
# Bulk Modulus (GPa) = 58.52570 61.04726 59.78648
# Shear Modulus (GPa) = 27.64390 31.02280 29.33335
#
# Velocity S-wave (km/s) = 3.64317 3.85941 3.75285
# Velocity P-wave (km/s) = 6.76735 7.01219 6.89086
#
# Compressibility (1/GPa) = 0.01708651
#
# Stress axis : x y z
#
# Youngs Moduli (GPa) = 86.03804 74.61179 65.99624
#
# Poissons Ratio (x) = 0.09018 0.36290
# Poissons Ratio (y) = 0.10399 0.31931
# Poissons Ratio (z) = 0.47310 0.36099
#
# Static dielectric constant tensor:
#      x y z
#    x 3.854690 0.000000 -0.115720 
#    y 0.000000 3.850770 0.000000 
#    z -0.115720 0.000000 3.557920 
# 
# 
# High freq. dielectric constant tensor:
#      x y z
#    x 1.829040 0.000000 -0.008500 
#    y 0.000000 1.828550 0.000000 
#    z -0.008500 0.000000 1.806120 
# 
# From -- ./inp_files/35269.got.cif
#   From: 2010.03.12/outbox.cif.g09.slc.cpg/sg14_18_cif.got.tgz:35269.got - 2010.03.31 13:35:05.
