data_PCOD8127743
_publ_section_title
;
Structure prediction by ZEFSAII (Michael W. Deem and Ramdas Pophale) SiO2 
 PCOD8127743
Probable space group: P 21/C
;
_chemical_formula_sum "Si O2"
_cell_formula_units_Z 32
_cell_length_a 29.998423
_cell_length_b 10.910320
_cell_length_c 8.962330
_cell_angle_alpha 90.000000
_cell_angle_beta 29.731707
_cell_angle_gamma 90.000000
_cell_volume 1454.739920
_symmetry_space_group_name_H-M "P 21/C"
_symmetry_group_IT_number 14
_symmetry_cell_setting 'monoclinic'
loop_
_space_group_symop_operation_xyz
x,y,z
-x,1/2+y,1/2-z
-x,-y,-z
x,1/2-y,1/2+z
loop_
_atom_site_type_symbol
_atom_site_label
_atom_site_fract_x
_atom_site_fract_y
_atom_site_fract_z
Si Si1 0.702399 0.190457 0.621392
Si Si2 0.546576 0.603682 0.464152
Si Si3 0.843135 0.726136 0.680887
Si Si4 0.501105 0.734114 0.330685
Si Si5 0.743590 0.413139 0.317181
Si Si6 0.324605 0.392801 0.286196
Si Si7 0.264582 0.467493 0.151948
Si Si8 0.909707 0.922652 0.271646
O O1 0.743948 0.322413 0.459093
O O2 0.708157 0.163715 0.780065
O O3 0.759740 0.097108 0.352057
O O4 0.597262 0.174981 0.888508
O O5 0.500000 0.500000 0.500000
O O6 0.533682 0.731422 0.407480
O O7 0.499269 0.629117 0.762432
O O8 0.650893 0.582341 0.190626
O O9 0.820092 0.623217 0.622737
O O10 0.907568 0.829693 0.419831
O O11 0.892647 0.658982 0.673940
O O12 0.747855 0.783000 0.006764
O O13 0.574417 0.654752 0.024986
O O14 0.680314 0.528125 0.547054
O O15 0.839256 0.468458 0.998771
O O16 0.295415 0.480553 0.232948
O O17 0.000000 0.000000 0.000000
#
# Coordination Sequence:
#
# PCOD8127743 Si02
#       8
#     4   4   4   4   4   4   4   4
#     4  12  24  39  61  94 140 183 221 276 336 391
#     4  11  23  39  55  87 126 175 227 283 317 376
#     4  11  21  46  73 100 134 173 218 275 336 408
#     4  11  24  37  58  89 133 175 234 275 321 384
#     4  11  26  42  66  94 135 179 224 276 348 402
#     4  10  23  40  66  94 129 181 231 276 323 396
#     4  11  21  39  64  90 130 179 221 268 330 392
#     4  11  26  48  75 106 131 168 225 282 345 418
#
# _framework density 21.997060000000001
#
# number of rings (size 3 to 8) (size 9 to 14) (size 15 to 20)
#    0.000    1.000    5.000    1.500    3.500    2.500 
#    0.000    0.625    0.000    0.000    0.000    0.000 
#    0.000    0.000    0.000    0.000    0.000    0.000 
#
# Total GULP energy -396504.633569 kJ/mol
# GULP energy per Si atom -12390.769799 kJ/mol
# Density = 2.194699 g / cm^3
# Si number density = 21.997060 Si / 1000 Ang^3
#
#
#
# Elastic Constant Matrix: (Units=GPa)
#
#
# Indices 1 2 3 4 5 6 
#
# 1 72.0372 42.1133 18.8080 0.0000 10.3558 0.0000
# 2 42.1133 98.4661 42.7325 0.0000 -4.7119 0.0000
# 3 18.8080 42.7325 98.9679 0.0000 -8.6729 0.0000
# 4 0.0000 0.0000 0.0000 46.5053 0.0000 14.6443
# 5 10.3558 -4.7119 -8.6729 0.0000 22.4145 0.0000
# 6 0.0000 0.0000 0.0000 14.6443 0.0000 45.8252
#
#
#
# Elastic Compliance Matrix: (Units=1/GPa)
#
#
# Indices 1 2 3 4 5 6 
#
# 1 0.021322 -0.009206 -0.001149 0.000000 -0.012231 0.000000
# 2 -0.009206 0.016479 -0.004854 0.000000 0.005839 0.000000
# 3 -0.001149 -0.004854 0.012810 0.000000 0.004467 0.000000
# 4 0.000000 0.000000 0.000000 0.023909 0.000000 -0.007641
# 5 -0.012231 0.005839 0.004467 0.000000 0.053221 0.000000
# 6 0.000000 0.000000 0.000000 -0.007641 0.000000 0.024264
#
#
# Mechanical properties :
#
#
# Convention : Reuss Voigt Hill
#
# Bulk Modulus (GPa) = 49.52210 52.97540 51.24875
# Shear Modulus (GPa) = 26.43365 34.00349 30.21857
#
# Velocity S-wave (km/s) = 3.47030 3.93596 3.71044
# Velocity P-wave (km/s) = 6.21444 6.69260 6.45795
#
# Compressibility (1/GPa) = 0.02019300
#
# Stress axis : x y z
#
# Youngs Moduli (GPa) = 46.90063 60.68295 78.06379
#
# Poissons Ratio (x) = 0.55864 0.08969
# Poissons Ratio (y) = 0.43176 0.37894
# Poissons Ratio (z) = 0.05388 0.29457
#
# Static dielectric constant tensor:
#      x y z
#    x 4.019310 0.000000 0.363420 
#    y 0.000000 4.196390 0.000000 
#    z 0.363420 0.000000 3.854160 
# 
# 
# High freq. dielectric constant tensor:
#      x y z
#    x 1.856840 0.000000 0.024760 
#    y 0.000000 1.878120 0.000000 
#    z 0.024760 0.000000 1.841680 
# 
# From -- ./inp_files/19994.got.cif
#   From: 2010.03.12/outbox.cif.g09.slc.cpg/sg14_10_cif.got.tgz:19994.got - 2010.03.31 13:35:05.
