data_PCOD8127487
_publ_section_title
;
Structure prediction by ZEFSAII (Michael W. Deem and Ramdas Pophale) SiO2 
 PCOD8127487
Probable space group: P 21/C
;
_chemical_formula_sum "Si O2"
_cell_formula_units_Z 20
_cell_length_a 11.020717
_cell_length_b 11.757790
_cell_length_c 14.604180
_cell_angle_alpha 90.000000
_cell_angle_beta 30.821845
_cell_angle_gamma 90.000000
_cell_volume 969.609120
_symmetry_space_group_name_H-M "P 21/C"
_symmetry_group_IT_number 14
_symmetry_cell_setting 'monoclinic'
loop_
_space_group_symop_operation_xyz
x,y,z
-x,1/2+y,1/2-z
-x,-y,-z
x,1/2-y,1/2+z
loop_
_atom_site_type_symbol
_atom_site_label
_atom_site_fract_x
_atom_site_fract_y
_atom_site_fract_z
Si Si1 0.911136 0.067270 0.469365
Si Si2 0.663889 0.633425 0.029615
Si Si3 0.413207 0.160399 0.802821
Si Si4 0.173636 0.284515 0.268167
Si Si5 0.203389 0.939050 0.921102
O O1 0.696858 0.155042 0.630820
O O2 0.126784 0.147992 0.294340
O O3 0.830822 0.974454 0.445453
O O4 0.000000 0.000000 0.500000
O O5 0.724914 0.741633 0.053168
O O6 0.388619 0.609132 0.227076
O O7 0.689843 0.669705 0.908425
O O8 0.341697 0.179858 0.743287
O O9 0.330608 0.038094 0.897151
O O10 0.912386 0.342784 0.440464
O O11 0.000000 0.000000 0.000000
#
# Coordination Sequence:
#
# PCOD8127487 Si02
#       5
#     4   4   4   4   4
#     4  11  23  44  69  97 139 172 221 280 333 393
#     4  11  23  41  68 101 130 175 223 271 331 402
#     4  10  22  43  65  93 136 168 225 275 325 397
#     4  11  23  43  68  96 133 178 219 274 338 396
#     4   9  21  40  63  90 127 171 216 268 323 387
#
# _framework density 20.626868999999999
#
# number of rings (size 3 to 8) (size 9 to 14) (size 15 to 20)
#    0.000    1.600    4.000    0.000    2.800    7.200 
#    7.200    1.000    0.000    0.000    0.000    0.000 
#    0.000    0.000    0.000    0.000    0.000    0.000 
#
# Total GULP energy -247792.073384 kJ/mol
# GULP energy per Si atom -12389.603669 kJ/mol
# Density = 2.057992 g / cm^3
# Si number density = 20.626869 Si / 1000 Ang^3
#
#
#
# Elastic Constant Matrix: (Units=GPa)
#
#
# Indices 1 2 3 4 5 6 
#
# 1 88.0233 31.7917 39.4462 0.0000 8.3614 0.0000
# 2 31.7917 127.0707 55.4505 0.0000 10.0899 0.0000
# 3 39.4462 55.4505 110.7522 0.0000 7.7551 0.0000
# 4 0.0000 0.0000 0.0000 27.5299 0.0000 -3.6426
# 5 8.3614 10.0899 7.7551 0.0000 32.6985 0.0000
# 6 0.0000 0.0000 0.0000 -3.6426 0.0000 27.2225
#
#
#
# Elastic Compliance Matrix: (Units=1/GPa)
#
#
# Indices 1 2 3 4 5 6 
#
# 1 0.013933 -0.001557 -0.004034 0.000000 -0.002126 0.000000
# 2 -0.001557 0.010367 -0.004515 0.000000 -0.001730 0.000000
# 3 -0.004034 -0.004515 0.012769 0.000000 -0.000604 0.000000
# 4 0.000000 0.000000 0.000000 0.036979 0.000000 0.004948
# 5 -0.002126 -0.001730 -0.000604 0.000000 0.031803 0.000000
# 6 0.000000 0.000000 0.000000 0.004948 0.000000 0.037396
#
#
# Mechanical properties :
#
#
# Convention : Reuss Voigt Hill
#
# Bulk Modulus (GPa) = 59.32281 64.35811 61.84046
# Shear Modulus (GPa) = 29.57252 30.76736 30.16994
#
# Velocity S-wave (km/s) = 3.79052 3.86633 3.82861
# Velocity P-wave (km/s) = 6.92674 7.15543 7.04202
#
# Compressibility (1/GPa) = 0.01685692
#
# Stress axis : x y z
#
# Youngs Moduli (GPa) = 71.77419 96.46419 78.31696
#
# Poissons Ratio (x) = 0.15016 0.31594
# Poissons Ratio (y) = 0.11172 0.35358
# Poissons Ratio (z) = 0.28955 0.43550
#
# Static dielectric constant tensor:
#      x y z
#    x 3.401690 0.000000 -0.193200 
#    y 0.000000 4.040010 0.000000 
#    z -0.193200 0.000000 3.633450 
# 
# 
# High freq. dielectric constant tensor:
#      x y z
#    x 1.784190 0.000000 -0.021390 
#    y 0.000000 1.841830 0.000000 
#    z -0.021390 0.000000 1.789740 
# 
# From -- ./inp_files/24019.got.cif
#   From: 2010.03.12/outbox.cif.g09.slc.cpg/sg14_13_cif.got.tgz:24019.got - 2010.03.31 13:35:05.
