data_PCOD8127634
_publ_section_title
;
Structure prediction by ZEFSAII (Michael W. Deem and Ramdas Pophale) SiO2 
 PCOD8127634
Probable space group: P 21/C
;
_chemical_formula_sum "Si O2"
_cell_formula_units_Z 16
_cell_length_a 11.620308
_cell_length_b 8.699392
_cell_length_c 11.281875
_cell_angle_alpha 90.000000
_cell_angle_beta 38.611466
_cell_angle_gamma 90.000000
_cell_volume 711.700802
_symmetry_space_group_name_H-M "P 21/C"
_symmetry_group_IT_number 14
_symmetry_cell_setting 'monoclinic'
loop_
_space_group_symop_operation_xyz
x,y,z
-x,1/2+y,1/2-z
-x,-y,-z
x,1/2-y,1/2+z
loop_
_atom_site_type_symbol
_atom_site_label
_atom_site_fract_x
_atom_site_fract_y
_atom_site_fract_z
Si Si1 0.456145 0.244659 0.234797
Si Si2 0.895558 0.943183 0.469256
Si Si3 0.826971 0.307795 0.823958
Si Si4 0.624324 0.058184 0.294012
O O1 0.299356 0.121644 0.328605
O O2 0.533939 0.206164 0.303263
O O3 0.360987 0.415104 0.309948
O O4 0.626744 0.228450 0.005944
O O5 0.011006 0.815146 0.306201
O O6 0.861895 0.078777 0.404330
O O7 0.000000 0.000000 0.500000
O O8 0.817071 0.391635 0.702079
O O9 0.500000 0.000000 0.500000
#
# Coordination Sequence:
#
# PCOD8127634 Si02
#       4
#     4   4   4   4
#     4  11  23  46  71  96 141 182 232 282 353 405
#     4  12  28  45  71 108 139 184 235 286 350 410
#     4  11  27  45  71 105 141 183 237 283 347 415
#     4  10  22  45  69  99 135 184 231 279 346 414
#
# _framework density 22.481356000000002
#
# number of rings (size 3 to 8) (size 9 to 14) (size 15 to 20)
#    0.000    1.000    5.000    1.500    7.000    2.000 
#    0.000    0.000    0.000    0.000    0.000    0.000 
#    0.000    0.000    0.000    0.000    0.000    0.000 
#
# Total GULP energy -198321.212926 kJ/mol
# GULP energy per Si atom -12395.075808 kJ/mol
# Density = 2.243019 g / cm^3
# Si number density = 22.481356 Si / 1000 Ang^3
#
#
#
# Elastic Constant Matrix: (Units=GPa)
#
#
# Indices 1 2 3 4 5 6 
#
# 1 184.8985 75.0441 32.5515 0.0000 11.5764 0.0000
# 2 75.0441 127.2371 52.7149 0.0000 10.1850 0.0000
# 3 32.5515 52.7149 78.3064 0.0000 -11.3332 0.0000
# 4 0.0000 0.0000 0.0000 41.0432 0.0000 3.0585
# 5 11.5764 10.1850 -11.3332 0.0000 32.8901 0.0000
# 6 0.0000 0.0000 0.0000 3.0585 0.0000 52.8623
#
#
#
# Elastic Compliance Matrix: (Units=1/GPa)
#
#
# Indices 1 2 3 4 5 6 
#
# 1 0.007178 -0.003857 -0.000610 0.000000 -0.001542 0.000000
# 2 -0.003857 0.014328 -0.008933 0.000000 -0.006158 0.000000
# 3 -0.000610 -0.008933 0.020491 0.000000 0.010042 0.000000
# 4 0.000000 0.000000 0.000000 0.024470 0.000000 -0.001416
# 5 -0.001542 -0.006158 0.010042 0.000000 0.036314 0.000000
# 6 0.000000 0.000000 0.000000 -0.001416 0.000000 0.018999
#
#
# Mechanical properties :
#
#
# Convention : Reuss Voigt Hill
#
# Bulk Modulus (GPa) = 65.80887 79.00700 72.40793
# Shear Modulus (GPa) = 32.54187 40.70123 36.62155
#
# Velocity S-wave (km/s) = 3.80874 4.25955 4.04043
# Velocity P-wave (km/s) = 6.97697 7.70787 7.35151
#
# Compressibility (1/GPa) = 0.01519552
#
# Stress axis : x y z
#
# Youngs Moduli (GPa) = 139.31679 69.79180 48.80100
#
# Poissons Ratio (x) = 0.26920 0.02979
# Poissons Ratio (y) = 0.53736 0.43596
# Poissons Ratio (z) = 0.08505 0.62348
#
# Static dielectric constant tensor:
#      x y z
#    x 5.176440 0.000000 -0.093900 
#    y 0.000000 4.616010 0.000000 
#    z -0.093900 0.000000 4.054100 
# 
# 
# High freq. dielectric constant tensor:
#      x y z
#    x 1.908320 0.000000 -0.005480 
#    y 0.000000 1.893300 0.000000 
#    z -0.005480 0.000000 1.862810 
# 
# From -- ./inp_files/23160.got.cif
#   From: 2010.03.12/outbox.cif.g09.slc.cpg/sg14_12_cif.got.tgz:23160.got - 2010.03.31 13:35:05.
