data_PCOD8127089
_publ_section_title
;
Structure prediction by ZEFSAII (Michael W. Deem and Ramdas Pophale) SiO2 
 PCOD8127089
Probable space group: P 21/C
;
_chemical_formula_sum "Si O2"
_cell_formula_units_Z 32
_cell_length_a 14.167331
_cell_length_b 8.807316
_cell_length_c 13.857265
_cell_angle_alpha 90.000000
_cell_angle_beta 59.038227
_cell_angle_gamma 90.000000
_cell_volume 1482.684366
_symmetry_space_group_name_H-M "P 21/C"
_symmetry_group_IT_number 14
_symmetry_cell_setting 'monoclinic'
loop_
_space_group_symop_operation_xyz
x,y,z
-x,1/2+y,1/2-z
-x,-y,-z
x,1/2-y,1/2+z
loop_
_atom_site_type_symbol
_atom_site_label
_atom_site_fract_x
_atom_site_fract_y
_atom_site_fract_z
Si Si1 0.741782 0.000205 0.520002
Si Si2 0.048328 0.617666 0.402051
Si Si3 0.020926 0.069104 0.590088
Si Si4 0.573338 0.934286 0.138437
Si Si5 0.898465 0.518876 0.333498
Si Si6 0.379865 0.336115 0.753485
Si Si7 0.301810 0.265088 0.585756
Si Si8 0.237413 0.836612 0.941930
O O1 0.869575 0.005314 0.426364
O O2 0.717879 0.902116 0.628796
O O3 0.685708 0.909415 0.459735
O O4 0.707420 0.175618 0.555561
O O5 0.169487 0.670116 0.374963
O O6 0.000000 0.500000 0.500000
O O7 0.963203 0.755702 0.442923
O O8 0.024240 0.548495 0.307787
O O9 0.000000 0.000000 0.500000
O O10 0.917282 0.045511 0.716432
O O11 0.556639 0.798530 0.223966
O O12 0.460509 0.025312 0.185636
O O13 0.665983 0.046547 0.130737
O O14 0.608427 0.869359 0.015917
O O15 0.821196 0.669091 0.368529
O O16 0.839803 0.391231 0.429749
O O17 0.327359 0.265739 0.685211
#
# Coordination Sequence:
#
# PCOD8127089 Si02
#       8
#     4   4   4   4   4   4   4   4
#     4  11  23  39  64  95 129 161 215 259 308 385
#     4  10  22  39  62  87 128 170 214 254 313 366
#     4  12  23  38  58  91 129 175 213 256 308 373
#     4  10  23  44  68  92 127 160 214 261 319 378
#     4  10  23  40  59  92 132 169 215 259 313 375
#     4  11  23  44  68  94 123 166 203 267 326 373
#     4  10  22  42  65  95 127 164 206 264 315 379
#     4  10  22  43  62  93 127 167 214 263 311 376
#
# _framework density 21.582476
#
# number of rings (size 3 to 8) (size 9 to 14) (size 15 to 20)
#    0.000    1.500    2.500    1.875    3.500    1.000 
#    2.250    6.875    0.000    0.000    0.000    0.000 
#    0.000    0.000    0.000    0.000    0.000    0.000 
#
# Total GULP energy -396443.415049 kJ/mol
# GULP energy per Si atom -12388.856720 kJ/mol
# Density = 2.153335 g / cm^3
# Si number density = 21.582476 Si / 1000 Ang^3
#
#
#
# Elastic Constant Matrix: (Units=GPa)
#
#
# Indices 1 2 3 4 5 6 
#
# 1 68.6278 12.7819 33.1192 0.0000 13.8821 0.0000
# 2 12.7819 112.2849 24.8695 0.0000 8.6010 0.0000
# 3 33.1192 24.8695 104.4421 0.0000 16.0984 0.0000
# 4 0.0000 0.0000 0.0000 20.7809 0.0000 -0.2266
# 5 13.8821 8.6010 16.0984 0.0000 36.3332 0.0000
# 6 0.0000 0.0000 0.0000 -0.2266 0.0000 33.2197
#
#
#
# Elastic Compliance Matrix: (Units=1/GPa)
#
#
# Indices 1 2 3 4 5 6 
#
# 1 0.017946 -0.000621 -0.004839 0.000000 -0.004566 0.000000
# 2 -0.000621 0.009483 -0.001880 0.000000 -0.001174 0.000000
# 3 -0.004839 -0.001880 0.012024 0.000000 -0.003034 0.000000
# 4 0.000000 0.000000 0.000000 0.048125 0.000000 0.000328
# 5 -0.004566 -0.001174 -0.003034 0.000000 0.030890 0.000000
# 6 0.000000 0.000000 0.000000 0.000328 0.000000 0.030105
#
#
# Mechanical properties :
#
#
# Convention : Reuss Voigt Hill
#
# Bulk Modulus (GPa) = 40.36736 47.43292 43.90014
# Shear Modulus (GPa) = 29.15266 32.37237 30.76252
#
# Velocity S-wave (km/s) = 3.67925 3.87710 3.77947
# Velocity P-wave (km/s) = 6.06577 6.48597 6.27939
#
# Compressibility (1/GPa) = 0.02477249
#
# Stress axis : x y z
#
# Youngs Moduli (GPa) = 55.72307 105.45178 83.16379
#
# Poissons Ratio (x) = 0.06552 0.40243
# Poissons Ratio (y) = 0.03462 0.15635
# Poissons Ratio (z) = 0.26965 0.19825
#
# Static dielectric constant tensor:
#      x y z
#    x 3.722380 0.000000 0.294580 
#    y 0.000000 3.961470 0.000000 
#    z 0.294580 0.000000 3.677610 
# 
# 
# High freq. dielectric constant tensor:
#      x y z
#    x 1.832860 0.000000 0.009430 
#    y 0.000000 1.860790 0.000000 
#    z 0.009430 0.000000 1.841320 
# 
# From -- ./inp_files/46493.got.cif
#   From: 2010.03.12/outbox.cif.g09.slc.cpg/sg14_24_cif.got.tgz:46493.got - 2010.03.31 13:35:05.
