data_PCOD8127161
_publ_section_title
;
Structure prediction by ZEFSAII (Michael W. Deem and Ramdas Pophale) SiO2 
 PCOD8127161
Probable space group: P 21/C
;
_chemical_formula_sum "Si O2"
_cell_formula_units_Z 24
_cell_length_a 11.010202
_cell_length_b 17.386163
_cell_length_c 9.650923
_cell_angle_alpha 90.000000
_cell_angle_beta 147.150931
_cell_angle_gamma 90.000000
_cell_volume 1002.097302
_symmetry_space_group_name_H-M "P 21/C"
_symmetry_group_IT_number 14
_symmetry_cell_setting 'monoclinic'
loop_
_space_group_symop_operation_xyz
x,y,z
-x,1/2+y,1/2-z
-x,-y,-z
x,1/2-y,1/2+z
loop_
_atom_site_type_symbol
_atom_site_label
_atom_site_fract_x
_atom_site_fract_y
_atom_site_fract_z
Si Si1 0.683552 0.056407 0.485936
Si Si2 0.697420 0.840260 0.347149
Si Si3 0.086679 0.084983 0.191695
Si Si4 0.913323 0.915019 0.308310
Si Si5 0.316445 0.556410 0.514056
Si Si6 0.302580 0.159738 0.152850
O O1 0.548368 0.125905 0.430606
O O2 0.834054 0.090377 0.505687
O O3 0.835631 0.005507 0.737974
O O4 0.500000 0.999999 0.249994
O O5 0.751344 0.863330 0.556216
O O6 0.893744 0.878331 0.441838
O O7 0.451631 0.874092 0.069390
O O8 0.693537 0.749999 0.322433
O O9 0.106259 0.121669 0.058166
O O10 0.834054 0.090378 0.005688
O O11 0.751344 0.863334 0.056217
O O12 0.835637 0.005510 0.237985
#
# Coordination Sequence:
#
# PCOD8127161 Si02
#       6
#     4   4   4   4   4   4
#     4   9  21  40  64  87 114 154 200 242 286 343
#     4  11  23  38  58  88 122 155 192 238 295 349
#     4  10  22  40  61  86 117 154 198 243 287 341
#     4  10  22  40  61  86 117 154 198 243 287 341
#     4   9  21  40  64  87 114 154 200 242 286 343
#     4  11  23  38  58  88 122 155 192 238 295 349
#
# _framework density 23.949767999999999
#
# number of rings (size 3 to 8) (size 9 to 14) (size 15 to 20)
#    0.000    2.000    0.000    2.000    0.000   20.000 
#    0.000    0.000    0.000    0.000    0.000    0.000 
#    0.000    0.000    0.000    0.000    0.000    0.000 
#
# Total GULP energy -297628.285959 kJ/mol
# GULP energy per Si atom -12401.178582 kJ/mol
# Density = 2.389526 g / cm^3
# Si number density = 23.949768 Si / 1000 Ang^3
#
#
#
# Elastic Constant Matrix: (Units=GPa)
#
#
# Indices 1 2 3 4 5 6 
#
# 1 95.2798 44.1186 3.4728 0.0000 29.9097 0.0000
# 2 44.1186 168.5904 19.5605 0.0000 31.1918 0.0000
# 3 3.4728 19.5605 44.5999 0.0000 33.2314 0.0000
# 4 0.0000 0.0000 0.0000 22.7952 0.0000 3.0540
# 5 29.9097 31.1918 33.2314 0.0000 47.6649 0.0000
# 6 0.0000 0.0000 0.0000 3.0540 0.0000 37.0859
#
#
#
# Elastic Compliance Matrix: (Units=1/GPa)
#
#
# Indices 1 2 3 4 5 6 
#
# 1 0.016974 -0.002613 0.013499 0.000000 -0.018353 0.000000
# 2 -0.002613 0.007161 -0.001388 0.000000 -0.002079 0.000000
# 3 0.013499 -0.001388 0.057466 0.000000 -0.047627 0.000000
# 4 0.000000 0.000000 0.000000 0.044358 0.000000 -0.003653
# 5 -0.018353 -0.002079 -0.047627 0.000000 0.067062 0.000000
# 6 0.000000 0.000000 0.000000 -0.003653 0.000000 0.027265
#
#
# Mechanical properties :
#
#
# Convention : Reuss Voigt Hill
#
# Bulk Modulus (GPa) = 9.94056 49.19710 29.56883
# Shear Modulus (GPa) = 21.29259 37.59706 29.44482
#
# Velocity S-wave (km/s) = 2.98493 3.96641 3.51014
# Velocity P-wave (km/s) = 4.00492 6.44693 5.36667
#
# Compressibility (1/GPa) = 0.10059792
#
# Stress axis : x y z
#
# Youngs Moduli (GPa) = 58.91197 139.64684 17.40150
#
# Poissons Ratio (x) = 0.36485 -0.23490
# Poissons Ratio (y) = 0.15392 0.02416
# Poissons Ratio (z) = -0.79526 0.19387
#
# Static dielectric constant tensor:
#      x y z
#    x 4.252940 0.000000 0.417170 
#    y 0.000000 4.478300 0.000000 
#    z 0.417170 0.000000 4.816010 
# 
# 
# High freq. dielectric constant tensor:
#      x y z
#    x 1.951900 0.000000 0.016030 
#    y 0.000000 1.935500 0.000000 
#    z 0.016030 0.000000 1.951200 
# 
# From -- ./inp_files/30488.got.cif
#   From: 2010.03.12/outbox.cif.g09.slc.cpg/sg14_16_cif.got.tgz:30488.got - 2010.03.31 13:35:05.
