data_PCOD8127998
_publ_section_title
;
Structure prediction by ZEFSAII (Michael W. Deem and Ramdas Pophale) SiO2 
 PCOD8127998
Probable space group: P 21/C
;
_chemical_formula_sum "Si O2"
_cell_formula_units_Z 16
_cell_length_a 8.628245
_cell_length_b 9.571321
_cell_length_c 9.035967
_cell_angle_alpha 90.000000
_cell_angle_beta 132.029859
_cell_angle_gamma 90.000000
_cell_volume 554.291925
_symmetry_space_group_name_H-M "P 21/C"
_symmetry_group_IT_number 14
_symmetry_cell_setting 'monoclinic'
loop_
_space_group_symop_operation_xyz
x,y,z
-x,1/2+y,1/2-z
-x,-y,-z
x,1/2-y,1/2+z
loop_
_atom_site_type_symbol
_atom_site_label
_atom_site_fract_x
_atom_site_fract_y
_atom_site_fract_z
Si Si1 0.191973 0.397686 0.121392
Si Si2 0.889519 0.903702 0.808345
Si Si3 0.442832 0.613974 0.837831
Si Si4 0.293061 0.890099 0.907384
O O1 0.130368 0.247871 0.137401
O O2 0.303725 0.386428 0.030408
O O3 0.351995 0.470430 0.346617
O O4 0.000000 0.500000 0.000000
O O5 0.035395 0.894761 0.754216
O O6 0.652503 0.973155 0.643298
O O7 0.000000 0.000000 0.000000
O O8 0.365195 0.751255 0.870068
O O9 0.363735 0.618695 0.620082
#
# Coordination Sequence:
#
# PCOD8127998 Si02
#       4
#     4   4   4   4
#     4  12  25  43  72 109 148 195 246 300 365 438
#     4  10  23  44  70 104 144 187 239 301 362 432
#     4  11  25  48  76 108 148 194 245 307 371 439
#     4  11  24  47  75 109 144 192 247 306 371 439
#
# _framework density 28.865656999999999
#
# number of rings (size 3 to 8) (size 9 to 14) (size 15 to 20)
#    0.000    1.000    0.000    6.750    0.000    6.000 
#    0.000    7.500    0.000    0.000    0.000    0.000 
#    0.000    0.000    0.000    0.000    0.000    0.000 
#
# Total GULP energy -198459.481568 kJ/mol
# GULP energy per Si atom -12403.717598 kJ/mol
# Density = 2.879996 g / cm^3
# Si number density = 28.865657 Si / 1000 Ang^3
#
#
#
# Elastic Constant Matrix: (Units=GPa)
#
#
# Indices 1 2 3 4 5 6 
#
# 1 286.3527 129.1405 68.8324 0.0000 -28.6047 0.0000
# 2 129.1405 297.0433 49.6601 0.0000 -32.0187 0.0000
# 3 68.8324 49.6601 93.6302 0.0000 -5.9788 0.0000
# 4 0.0000 0.0000 0.0000 44.6221 0.0000 -13.2208
# 5 -28.6047 -32.0187 -5.9788 0.0000 67.4723 0.0000
# 6 0.0000 0.0000 0.0000 -13.2208 0.0000 84.9735
#
#
#
# Elastic Compliance Matrix: (Units=1/GPa)
#
#
# Indices 1 2 3 4 5 6 
#
# 1 0.004979 -0.001585 -0.002749 0.000000 0.001115 0.000000
# 2 -0.001585 0.004376 -0.001072 0.000000 0.001310 0.000000
# 3 -0.002749 -0.001072 0.013238 0.000000 -0.000501 0.000000
# 4 0.000000 0.000000 0.000000 0.023493 0.000000 0.003655
# 5 0.001115 0.001310 -0.000501 0.000000 0.015871 0.000000
# 6 0.000000 0.000000 0.000000 0.003655 0.000000 0.012337
#
#
# Mechanical properties :
#
#
# Convention : Reuss Voigt Hill
#
# Bulk Modulus (GPa) = 84.87988 130.25471 107.56730
# Shear Modulus (GPa) = 56.15941 68.03978 62.09960
#
# Velocity S-wave (km/s) = 4.41562 4.86028 4.64328
# Velocity P-wave (km/s) = 7.44754 8.75893 8.12972
#
# Compressibility (1/GPa) = 0.01178135
#
# Stress axis : x y z
#
# Youngs Moduli (GPa) = 200.84088 228.51960 75.54267
#
# Poissons Ratio (x) = 0.36219 0.20763
# Poissons Ratio (y) = 0.31832 0.08099
# Poissons Ratio (z) = 0.55202 0.24501
#
# Static dielectric constant tensor:
#      x y z
#    x 8.186320 0.000000 1.790570 
#    y 0.000000 4.553930 0.000000 
#    z 1.790570 0.000000 7.934280 
# 
# 
# High freq. dielectric constant tensor:
#      x y z
#    x 2.241280 0.000000 0.007510 
#    y 0.000000 2.163740 0.000000 
#    z 0.007510 0.000000 2.278680 
# 
# From -- ./inp_files/22660.got.cif
#   From: 2010.03.12/outbox.cif.g09.slc.cpg/sg14_12_cif.got.tgz:22660.got - 2010.03.31 13:35:05.
