data_PCOD8127960
_publ_section_title
;
Structure prediction by ZEFSAII (Michael W. Deem and Ramdas Pophale) SiO2 
 PCOD8127960
Probable space group: P 21/C
;
_chemical_formula_sum "Si O2"
_cell_formula_units_Z 20
_cell_length_a 25.434705
_cell_length_b 7.663029
_cell_length_c 18.021595
_cell_angle_alpha 90.000000
_cell_angle_beta 164.475197
_cell_angle_gamma 90.000000
_cell_volume 940.148750
_symmetry_space_group_name_H-M "P 21/C"
_symmetry_group_IT_number 14
_symmetry_cell_setting 'monoclinic'
loop_
_space_group_symop_operation_xyz
x,y,z
-x,1/2+y,1/2-z
-x,-y,-z
x,1/2-y,1/2+z
loop_
_atom_site_type_symbol
_atom_site_label
_atom_site_fract_x
_atom_site_fract_y
_atom_site_fract_z
Si Si1 0.793920 0.457023 0.181787
Si Si2 0.616537 0.768602 0.015965
Si Si3 0.207744 0.588479 0.986167
Si Si4 0.910978 0.854322 0.547756
Si Si5 0.182592 0.946208 0.796718
O O1 0.628766 0.575756 0.996700
O O2 0.743674 0.251086 0.121369
O O3 0.000000 0.500000 0.500000
O O4 0.802300 0.510888 0.106483
O O5 0.773316 0.785560 0.294779
O O6 0.646670 0.915689 0.991876
O O7 0.398535 0.788343 0.751021
O O8 0.220074 0.461178 0.073080
O O9 0.005448 0.694454 0.721286
O O10 0.100162 0.955656 0.769048
O O11 0.000000 0.000000 0.500000
#
# Coordination Sequence:
#
# PCOD8127960 Si02
#       5
#     4   4   4   4   4
#     4  11  21  41  66  97 127 168 223 271 319 386
#     4  11  23  44  67  94 133 170 225 268 323 396
#     4  11  25  40  68  97 131 173 219 268 331 397
#     4  10  23  44  61  96 133 171 210 272 336 381
#     4   9  19  38  67  92 124 174 211 262 330 376
#
# _framework density 21.273230000000002
#
# number of rings (size 3 to 8) (size 9 to 14) (size 15 to 20)
#    0.000    1.600    6.000    0.600    8.400    0.000 
#    3.600    1.000    0.000    0.000    0.000    0.000 
#    0.000    0.000    0.000    0.000    0.000    0.000 
#
# Total GULP energy -247869.881103 kJ/mol
# GULP energy per Si atom -12393.494055 kJ/mol
# Density = 2.122481 g / cm^3
# Si number density = 21.273230 Si / 1000 Ang^3
#
#
#
# Elastic Constant Matrix: (Units=GPa)
#
#
# Indices 1 2 3 4 5 6 
#
# 1 105.1279 70.7921 29.5739 0.0000 5.7586 0.0000
# 2 70.7921 128.8440 34.8809 0.0000 8.1047 0.0000
# 3 29.5739 34.8809 65.7458 0.0000 16.0926 0.0000
# 4 0.0000 0.0000 0.0000 36.4055 0.0000 12.4535
# 5 5.7586 8.1047 16.0926 0.0000 24.1138 0.0000
# 6 0.0000 0.0000 0.0000 12.4535 0.0000 46.4065
#
#
#
# Elastic Compliance Matrix: (Units=1/GPa)
#
#
# Indices 1 2 3 4 5 6 
#
# 1 0.015569 -0.007771 -0.003119 0.000000 0.000975 0.000000
# 2 -0.007771 0.012943 -0.003299 0.000000 -0.000292 0.000000
# 3 -0.003119 -0.003299 0.021407 0.000000 -0.012432 0.000000
# 4 0.000000 0.000000 0.000000 0.030245 0.000000 -0.008116
# 5 0.000975 -0.000292 -0.012432 0.000000 0.049632 0.000000
# 6 0.000000 0.000000 0.000000 -0.008116 0.000000 0.023727
#
#
# Mechanical properties :
#
#
# Convention : Reuss Voigt Hill
#
# Bulk Modulus (GPa) = 46.42751 63.35683 54.89217
# Shear Modulus (GPa) = 26.44349 32.34989 29.39669
#
# Velocity S-wave (km/s) = 3.52950 3.90383 3.72137
# Velocity P-wave (km/s) = 6.20336 7.08286 6.65765
#
# Compressibility (1/GPa) = 0.02153896
#
# Stress axis : x y z
#
# Youngs Moduli (GPa) = 64.22841 77.26265 46.71434
#
# Poissons Ratio (x) = 0.60044 0.14571
# Poissons Ratio (y) = 0.49914 0.15413
# Poissons Ratio (z) = 0.20034 0.25492
#
# Static dielectric constant tensor:
#      x y z
#    x 3.981670 0.000000 -0.023040 
#    y 0.000000 4.053410 0.000000 
#    z -0.023040 0.000000 3.884530 
# 
# 
# High freq. dielectric constant tensor:
#      x y z
#    x 1.826210 0.000000 -0.007180 
#    y 0.000000 1.822710 0.000000 
#    z -0.007180 0.000000 1.846240 
# 
# From -- ./inp_files/50168.got.cif
#   From: 2010.03.12/outbox.cif.g09.slc.cpg/sg14_26_cif.got.tgz:50168.got - 2010.03.31 13:35:05.
