data_PCOD8127199
_publ_section_title
;
Structure prediction by ZEFSAII (Michael W. Deem and Ramdas Pophale) SiO2 
 PCOD8127199
Probable space group: P 21/C
;
_chemical_formula_sum "Si O2"
_cell_formula_units_Z 28
_cell_length_a 14.231364
_cell_length_b 9.246348
_cell_length_c 9.869757
_cell_angle_alpha 90.000000
_cell_angle_beta 94.114385
_cell_angle_gamma 90.000000
_cell_volume 1295.395887
_symmetry_space_group_name_H-M "P 21/C"
_symmetry_group_IT_number 14
_symmetry_cell_setting 'monoclinic'
loop_
_space_group_symop_operation_xyz
x,y,z
-x,1/2+y,1/2-z
-x,-y,-z
x,1/2-y,1/2+z
loop_
_atom_site_type_symbol
_atom_site_label
_atom_site_fract_x
_atom_site_fract_y
_atom_site_fract_z
Si Si1 0.990971 0.323512 0.398254
Si Si2 0.076257 0.129567 0.178497
Si Si3 0.204688 0.659208 0.487259
Si Si4 0.278970 0.389626 0.632766
Si Si5 0.409710 0.925565 0.330822
Si Si6 0.625027 0.586133 0.893865
Si Si7 0.707937 0.326205 0.771489
O O1 0.978059 0.477284 0.324867
O O2 0.895016 0.289090 0.467274
O O3 0.018340 0.215678 0.283394
O O4 0.070347 0.312092 0.523114
O O5 0.188605 0.130530 0.225188
O O6 0.234407 0.491153 0.510181
O O7 0.276429 0.757368 0.580046
O O8 0.204793 0.687349 0.325363
O O9 0.365354 0.472264 0.711505
O O10 0.321629 0.239254 0.580868
O O11 0.520558 0.902931 0.323211
O O12 0.373828 0.761560 0.314273
O O13 0.379835 0.000052 0.467016
O O14 0.682055 0.493551 0.788703
#
# Coordination Sequence:
#
# PCOD8127199 Si02
#       7
#     4   4   4   4   4   4   4
#     4  10  22  42  61  96 127 170 206 264 305 380
#     4  10  23  40  65  91 132 162 214 256 318 369
#     4  10  22  40  64  89 132 163 216 255 314 373
#     4  10  24  40  63  94 127 165 210 267 312 379
#     4  10  23  43  59  93 129 159 216 262 311 385
#     4  11  23  39  66  90 124 168 208 263 319 379
#     4  11  21  42  63  92 121 174 206 260 316 380
#
# _framework density 21.615013000000001
#
# number of rings (size 3 to 8) (size 9 to 14) (size 15 to 20)
#    0.000    1.714    1.429    1.714    4.000    4.000 
#    0.000    2.143    0.000    0.000    0.000    0.000 
#    0.000    0.000    0.000    0.000    0.000    0.000 
#
# Total GULP energy -346917.137994 kJ/mol
# GULP energy per Si atom -12389.897785 kJ/mol
# Density = 2.156582 g / cm^3
# Si number density = 21.615013 Si / 1000 Ang^3
#
#
#
# Elastic Constant Matrix: (Units=GPa)
#
#
# Indices 1 2 3 4 5 6 
#
# 1 80.4546 23.6432 14.7222 0.0000 -7.5869 0.0000
# 2 23.6432 80.8479 11.2641 0.0000 -15.8239 0.0000
# 3 14.7222 11.2641 51.4304 0.0000 -21.9438 0.0000
# 4 0.0000 0.0000 0.0000 42.6301 0.0000 -14.8073
# 5 -7.5869 -15.8239 -21.9438 0.0000 33.2113 0.0000
# 6 0.0000 0.0000 0.0000 -14.8073 0.0000 35.3838
#
#
#
# Elastic Compliance Matrix: (Units=1/GPa)
#
#
# Indices 1 2 3 4 5 6 
#
# 1 0.014122 -0.003818 -0.003629 0.000000 -0.000991 0.000000
# 2 -0.003818 0.014677 0.000682 0.000000 0.006572 0.000000
# 3 -0.003629 0.000682 0.028016 0.000000 0.018007 0.000000
# 4 0.000000 0.000000 0.000000 0.027447 0.000000 0.011486
# 5 -0.000991 0.006572 0.018007 0.000000 0.044913 0.000000
# 6 0.000000 0.000000 0.000000 0.011486 0.000000 0.033068
#
#
# Mechanical properties :
#
#
# Convention : Reuss Voigt Hill
#
# Bulk Modulus (GPa) = 23.10251 34.66575 28.88413
# Shear Modulus (GPa) = 26.28788 33.11860 29.70324
#
# Velocity S-wave (km/s) = 3.49117 3.91858 3.71104
# Velocity P-wave (km/s) = 5.19253 6.04536 5.63510
#
# Compressibility (1/GPa) = 0.04328535
#
# Stress axis : x y z
#
# Youngs Moduli (GPa) = 70.81120 68.13554 35.69339
#
# Poissons Ratio (x) = 0.26016 0.12954
# Poissons Ratio (y) = 0.27037 -0.02436
# Poissons Ratio (z) = 0.25698 -0.04650
#
# Static dielectric constant tensor:
#      x y z
#    x 4.026240 0.000000 0.126490 
#    y 0.000000 3.917650 0.000000 
#    z 0.126490 0.000000 3.792830 
# 
# 
# High freq. dielectric constant tensor:
#      x y z
#    x 1.857020 0.000000 0.002590 
#    y 0.000000 1.848810 0.000000 
#    z 0.002590 0.000000 1.841750 
# 
# From -- ./inp_files/31367.got.cif
#   From: 2010.03.12/outbox.cif.g09.slc.cpg/sg14_16_cif.got.tgz:31367.got - 2010.03.31 13:35:05.
