data_PCOD8127548
_publ_section_title
;
Structure prediction by ZEFSAII (Michael W. Deem and Ramdas Pophale) SiO2 
 PCOD8127548
Probable space group: P 21/C
;
_chemical_formula_sum "Si O2"
_cell_formula_units_Z 24
_cell_length_a 10.794380
_cell_length_b 10.487214
_cell_length_c 13.276157
_cell_angle_alpha 90.000000
_cell_angle_beta 43.167000
_cell_angle_gamma 90.000000
_cell_volume 1028.174977
_symmetry_space_group_name_H-M "P 21/C"
_symmetry_group_IT_number 14
_symmetry_cell_setting 'monoclinic'
loop_
_space_group_symop_operation_xyz
x,y,z
-x,1/2+y,1/2-z
-x,-y,-z
x,1/2-y,1/2+z
loop_
_atom_site_type_symbol
_atom_site_label
_atom_site_fract_x
_atom_site_fract_y
_atom_site_fract_z
Si Si1 0.239234 0.492365 0.395614
Si Si2 0.202260 0.132672 0.522901
Si Si3 0.511037 0.667205 0.306276
Si Si4 0.795225 0.717678 0.754112
Si Si5 0.928834 0.156607 0.159797
Si Si6 0.177568 0.657211 0.053431
O O1 0.420440 0.525964 0.350765
O O2 0.257609 0.383197 0.301340
O O3 0.194850 0.626110 0.363705
O O4 0.084369 0.455044 0.568393
O O5 0.373208 0.193436 0.363801
O O6 0.238520 0.153652 0.619050
O O7 0.020775 0.205062 0.593998
O O8 0.176507 0.985320 0.510067
O O9 0.649435 0.668881 0.319902
O O10 0.357608 0.774085 0.409645
O O11 0.998624 0.768650 0.622456
O O12 0.816977 0.148581 0.328615
#
# Coordination Sequence:
#
# PCOD8127548 Si02
#       6
#     4   4   4   4   4   4
#     4  11  22  46  73 100 142 196 238 305 350 439
#     4  11  25  45  72 108 146 184 248 300 360 432
#     4  12  27  42  73 109 143 190 247 293 366 425
#     4  11  25  51  72 109 145 192 245 297 368 436
#     4  10  22  43  75 101 137 195 242 291 365 426
#     4  11  25  46  74 104 145 193 241 300 363 432
#
# _framework density 23.342331000000001
#
# number of rings (size 3 to 8) (size 9 to 14) (size 15 to 20)
#    0.000    1.000    3.333    3.000    4.667    2.000 
#    3.000    3.333    0.000    0.000    0.000    0.000 
#    0.000    0.000    0.000    0.000    0.000    0.000 
#
# Total GULP energy -297491.046191 kJ/mol
# GULP energy per Si atom -12395.460258 kJ/mol
# Density = 2.328920 g / cm^3
# Si number density = 23.342331 Si / 1000 Ang^3
#
#
#
# Elastic Constant Matrix: (Units=GPa)
#
#
# Indices 1 2 3 4 5 6 
#
# 1 69.4458 30.3577 22.6899 0.0000 -9.4833 0.0000
# 2 30.3577 98.9181 49.6200 0.0000 8.9529 0.0000
# 3 22.6899 49.6200 129.9036 0.0000 -0.8657 0.0000
# 4 0.0000 0.0000 0.0000 35.1404 0.0000 -1.3971
# 5 -9.4833 8.9529 -0.8657 0.0000 31.6798 0.0000
# 6 0.0000 0.0000 0.0000 -1.3971 0.0000 41.5972
#
#
#
# Elastic Compliance Matrix: (Units=1/GPa)
#
#
# Indices 1 2 3 4 5 6 
#
# 1 0.018179 -0.005748 -0.000933 0.000000 0.007041 0.000000
# 2 -0.005748 0.014764 -0.004675 0.000000 -0.006021 0.000000
# 3 -0.000933 -0.004675 0.009656 0.000000 0.001306 0.000000
# 4 0.000000 0.000000 0.000000 0.028495 0.000000 0.000957
# 5 0.007041 -0.006021 0.001306 0.000000 0.035411 0.000000
# 6 0.000000 0.000000 0.000000 0.000957 0.000000 0.024072
#
#
# Mechanical properties :
#
#
# Convention : Reuss Voigt Hill
#
# Bulk Modulus (GPa) = 50.28875 55.95583 53.12229
# Shear Modulus (GPa) = 31.26603 34.72346 32.99475
#
# Velocity S-wave (km/s) = 3.66383 3.86109 3.76375
# Velocity P-wave (km/s) = 6.28403 6.62580 6.45718
#
# Compressibility (1/GPa) = 0.01988516
#
# Stress axis : x y z
#
# Youngs Moduli (GPa) = 55.00918 67.73296 103.56771
#
# Poissons Ratio (x) = 0.38936 0.09658
# Poissons Ratio (y) = 0.31622 0.48423
# Poissons Ratio (z) = 0.05130 0.31668
#
# Static dielectric constant tensor:
#      x y z
#    x 4.399140 0.000000 -0.064890 
#    y 0.000000 4.365830 0.000000 
#    z -0.064890 0.000000 4.332960 
# 
# 
# High freq. dielectric constant tensor:
#      x y z
#    x 1.912520 0.000000 -0.001320 
#    y 0.000000 1.923860 0.000000 
#    z -0.001320 0.000000 1.933520 
# 
# From -- ./inp_files/44278.got.cif
#   From: 2010.03.12/outbox.cif.g09.slc.cpg/sg14_23_cif.got.tgz:44278.got - 2010.03.31 13:35:05.
