data_PCOD8127518
_publ_section_title
;
Structure prediction by ZEFSAII (Michael W. Deem and Ramdas Pophale) SiO2 
 PCOD8127518
Probable space group: P 21/C
;
_chemical_formula_sum "Si O2"
_cell_formula_units_Z 28
_cell_length_a 18.328009
_cell_length_b 8.863815
_cell_length_c 9.353540
_cell_angle_alpha 90.000000
_cell_angle_beta 134.876611
_cell_angle_gamma 90.000000
_cell_volume 1076.788091
_symmetry_space_group_name_H-M "P 21/C"
_symmetry_group_IT_number 14
_symmetry_cell_setting 'monoclinic'
loop_
_space_group_symop_operation_xyz
x,y,z
-x,1/2+y,1/2-z
-x,-y,-z
x,1/2-y,1/2+z
loop_
_atom_site_type_symbol
_atom_site_label
_atom_site_fract_x
_atom_site_fract_y
_atom_site_fract_z
Si Si1 0.623543 0.495128 0.051255
Si Si2 0.542101 0.556112 0.401794
Si Si3 0.301998 0.679519 0.302456
Si Si4 0.076670 0.718856 0.526823
Si Si5 0.594150 0.752137 0.223452
Si Si6 0.985203 0.057263 0.785156
Si Si7 0.764555 0.540610 0.016646
O O1 0.556821 0.521695 0.811206
O O2 0.737349 0.536440 0.149283
O O3 0.619229 0.321609 0.097763
O O4 0.584574 0.592719 0.129450
O O5 0.643760 0.451329 0.528830
O O6 0.565435 0.712120 0.347401
O O7 0.520289 0.621107 0.537655
O O8 0.277737 0.616566 0.110821
O O9 0.193495 0.730903 0.222677
O O10 0.018480 0.683192 0.594637
O O11 0.014095 0.855715 0.364516
O O12 0.077431 0.564172 0.430698
O O13 0.711074 0.812967 0.370347
O O14 0.885508 0.947870 0.662320
#
# Coordination Sequence:
#
# PCOD8127518 Si02
#       7
#     4   4   4   4   4   4   4
#     4  12  23  39  66  93 131 177 217 274 317 379
#     4  11  25  41  64  96 130 172 228 263 324 386
#     4  10  24  40  66  95 132 170 217 267 326 387
#     4  10  22  43  68  95 134 164 214 267 325 388
#     4  11  24  43  61  91 128 174 223 269 318 377
#     4  10  22  44  68 100 129 168 214 265 330 391
#     4  10  23  43  62  95 132 172 216 269 322 392
#
# _framework density 26.003261999999999
#
# number of rings (size 3 to 8) (size 9 to 14) (size 15 to 20)
#    0.000    1.429    2.857    1.286    4.000    2.857 
#    0.000    0.000    0.000    0.000    0.000    0.000 
#    0.000    0.000    0.000    0.000    0.000    0.000 
#
# Total GULP energy -347176.967255 kJ/mol
# GULP energy per Si atom -12399.177402 kJ/mol
# Density = 2.594408 g / cm^3
# Si number density = 26.003262 Si / 1000 Ang^3
#
#
#
# Elastic Constant Matrix: (Units=GPa)
#
#
# Indices 1 2 3 4 5 6 
#
# 1 51.6636 23.8020 22.6316 0.0000 -1.4032 0.0000
# 2 23.8020 132.9836 48.1649 0.0000 6.3516 0.0000
# 3 22.6316 48.1649 103.6123 0.0000 -6.8026 0.0000
# 4 0.0000 0.0000 0.0000 57.0546 0.0000 8.3145
# 5 -1.4032 6.3516 -6.8026 0.0000 28.8369 0.0000
# 6 0.0000 0.0000 0.0000 8.3145 0.0000 38.2851
#
#
#
# Elastic Compliance Matrix: (Units=1/GPa)
#
#
# Indices 1 2 3 4 5 6 
#
# 1 0.022181 -0.002737 -0.003516 0.000000 0.000853 0.000000
# 2 -0.002737 0.009648 -0.004099 0.000000 -0.003225 0.000000
# 3 -0.003516 -0.004099 0.012568 0.000000 0.003696 0.000000
# 4 0.000000 0.000000 0.000000 0.018100 0.000000 -0.003931
# 5 0.000853 -0.003225 0.003696 0.000000 0.036302 0.000000
# 6 0.000000 0.000000 0.000000 -0.003931 0.000000 0.026973
#
#
# Mechanical properties :
#
#
# Convention : Reuss Voigt Hill
#
# Bulk Modulus (GPa) = 42.20951 53.05073 47.63012
# Shear Modulus (GPa) = 32.38896 37.74605 35.06750
#
# Velocity S-wave (km/s) = 3.53310 3.81411 3.67629
# Velocity P-wave (km/s) = 5.73684 6.31208 6.03132
#
# Compressibility (1/GPa) = 0.02369134
#
# Stress axis : x y z
#
# Youngs Moduli (GPa) = 45.08452 103.64569 79.56988
#
# Poissons Ratio (x) = 0.28369 0.27981
# Poissons Ratio (y) = 0.12340 0.32615
# Poissons Ratio (z) = 0.15854 0.42484
#
# Static dielectric constant tensor:
#      x y z
#    x 4.197950 0.000000 -0.106620 
#    y 0.000000 4.923460 0.000000 
#    z -0.106620 0.000000 4.955870 
# 
# 
# High freq. dielectric constant tensor:
#      x y z
#    x 2.014870 0.000000 -0.012460 
#    y 0.000000 2.069730 0.000000 
#    z -0.012460 0.000000 2.050190 
# 
# From -- ./inp_files/34997.got.cif
#   From: 2010.03.12/outbox.cif.g09.slc.cpg/sg14_18_cif.got.tgz:34997.got - 2010.03.31 13:35:05.
