data_PCOD8127708
_publ_section_title
;
Structure prediction by ZEFSAII (Michael W. Deem and Ramdas Pophale) SiO2 
 PCOD8127708
Probable space group: P 21/C
;
_chemical_formula_sum "Si O2"
_cell_formula_units_Z 24
_cell_length_a 14.090390
_cell_length_b 5.224286
_cell_length_c 27.468821
_cell_angle_alpha 90.000000
_cell_angle_beta 149.587572
_cell_angle_gamma 90.000000
_cell_volume 1023.599340
_symmetry_space_group_name_H-M "P 21/C"
_symmetry_group_IT_number 14
_symmetry_cell_setting 'monoclinic'
loop_
_space_group_symop_operation_xyz
x,y,z
-x,1/2+y,1/2-z
-x,-y,-z
x,1/2-y,1/2+z
loop_
_atom_site_type_symbol
_atom_site_label
_atom_site_fract_x
_atom_site_fract_y
_atom_site_fract_z
Si Si1 0.547235 0.222313 0.069843
Si Si2 0.547756 0.669573 0.866945
Si Si3 0.862219 0.609507 0.753355
Si Si4 0.124219 0.247602 0.552230
Si Si5 0.795747 0.868374 0.632104
Si Si6 0.345202 0.182286 0.746941
O O1 0.475569 0.378076 0.085696
O O2 0.673345 0.380470 0.088003
O O3 0.663336 0.990643 0.144070
O O4 0.352413 0.151111 0.954165
O O5 0.760462 0.746593 0.947412
O O6 0.505941 0.393568 0.824735
O O7 0.412735 0.891336 0.785402
O O8 0.910927 0.815233 0.733034
O O9 0.824734 0.732291 0.789505
O O10 0.039230 0.416327 0.834765
O O11 0.273059 0.231051 0.661281
O O12 0.000000 0.500000 0.500000
O O13 0.000000 0.000000 0.500000
#
# Coordination Sequence:
#
# PCOD8127708 Si02
#       6
#     4   4   4   4   4   4
#     4  10  23  39  63  92 132 174 228 273 335 403
#     4  11  23  46  69  97 132 182 223 273 341 413
#     4  11  22  40  64  95 133 179 226 277 340 407
#     4  12  26  45  69 104 135 168 225 285 344 404
#     4  11  21  40  61  95 132 174 225 281 330 396
#     4  11  24  44  72  96 135 180 225 273 343 410
#
# _framework density 23.446676
#
# number of rings (size 3 to 8) (size 9 to 14) (size 15 to 20)
#    0.000    1.000    3.333    3.500    2.333    0.000 
#    3.000    0.000    0.000    0.000    0.000    0.000 
#    0.000    0.000    0.000    0.000    0.000    0.000 
#
# Total GULP energy -297424.563329 kJ/mol
# GULP energy per Si atom -12392.690139 kJ/mol
# Density = 2.339331 g / cm^3
# Si number density = 23.446676 Si / 1000 Ang^3
#
#
#
# Elastic Constant Matrix: (Units=GPa)
#
#
# Indices 1 2 3 4 5 6 
#
# 1 122.3935 10.3812 22.8320 0.0000 20.6351 0.0000
# 2 10.3812 76.2044 1.1431 0.0000 12.7124 0.0000
# 3 22.8320 1.1431 73.6210 0.0000 11.2708 0.0000
# 4 0.0000 0.0000 0.0000 41.8473 0.0000 2.6749
# 5 20.6351 12.7124 11.2708 0.0000 36.3740 0.0000
# 6 0.0000 0.0000 0.0000 2.6749 0.0000 29.1389
#
#
#
# Elastic Compliance Matrix: (Units=1/GPa)
#
#
# Indices 1 2 3 4 5 6 
#
# 1 0.009378 -0.000501 -0.002218 0.000000 -0.004458 0.000000
# 2 -0.000501 0.013983 0.000675 0.000000 -0.004812 0.000000
# 3 -0.002218 0.000675 0.014806 0.000000 -0.003565 0.000000
# 4 0.000000 0.000000 0.000000 0.024037 0.000000 -0.002207
# 5 -0.004458 -0.004812 -0.003565 0.000000 0.032808 0.000000
# 6 0.000000 0.000000 0.000000 -0.002207 0.000000 0.034521
#
#
# Mechanical properties :
#
#
# Convention : Reuss Voigt Hill
#
# Bulk Modulus (GPa) = 29.34267 37.88131 33.61199
# Shear Modulus (GPa) = 34.48700 37.32955 35.90828
#
# Velocity S-wave (km/s) = 3.83935 3.99445 3.91767
# Velocity P-wave (km/s) = 5.67415 6.12091 5.90176
#
# Compressibility (1/GPa) = 0.03408006
#
# Stress axis : x y z
#
# Youngs Moduli (GPa) = 106.62992 71.51312 67.53857
#
# Poissons Ratio (x) = 0.03580 0.14981
# Poissons Ratio (y) = 0.05338 -0.04558
# Poissons Ratio (z) = 0.23653 -0.04826
#
# Static dielectric constant tensor:
#      x y z
#    x 7.440420 0.000000 -1.398460 
#    y 0.000000 3.991550 0.000000 
#    z -1.398460 0.000000 5.056220 
# 
# 
# High freq. dielectric constant tensor:
#      x y z
#    x 1.946520 0.000000 0.003590 
#    y 0.000000 1.916060 0.000000 
#    z 0.003590 0.000000 1.920830 
# 
# From -- ./inp_files/77441.got.cif
#   From: 2010.03.12/outbox.cif.g09.slc.cpg/sg14_39_cif.got.tgz:77441.got - 2010.03.31 13:35:05.
