data_PCOD8127975
_publ_section_title
;
Structure prediction by ZEFSAII (Michael W. Deem and Ramdas Pophale) SiO2 
 PCOD8127975
Probable space group: P 21/C
;
_chemical_formula_sum "Si O2"
_cell_formula_units_Z 20
_cell_length_a 13.189642
_cell_length_b 9.619214
_cell_length_c 16.833562
_cell_angle_alpha 90.000000
_cell_angle_beta 154.809536
_cell_angle_gamma 90.000000
_cell_volume 909.032714
_symmetry_space_group_name_H-M "P 21/C"
_symmetry_group_IT_number 14
_symmetry_cell_setting 'monoclinic'
loop_
_space_group_symop_operation_xyz
x,y,z
-x,1/2+y,1/2-z
-x,-y,-z
x,1/2-y,1/2+z
loop_
_atom_site_type_symbol
_atom_site_label
_atom_site_fract_x
_atom_site_fract_y
_atom_site_fract_z
Si Si1 0.665462 0.482958 0.192175
Si Si2 0.553156 0.763781 0.349906
Si Si3 0.467580 0.237658 0.851110
Si Si4 0.759094 0.458799 0.786735
Si Si5 0.095084 0.735041 0.732174
O O1 0.536194 0.402242 0.171218
O O2 0.722657 0.637757 0.265271
O O3 0.891711 0.394918 0.320851
O O4 0.500000 0.500000 0.000000
O O5 0.527746 0.790937 0.238752
O O6 0.403195 0.630158 0.268764
O O7 0.825742 0.742333 0.570709
O O8 0.379906 0.100034 0.834790
O O9 0.729820 0.282969 0.067980
O O10 0.821383 0.376140 0.751365
O O11 0.000000 0.500000 0.000000
#
# Coordination Sequence:
#
# PCOD8127975 Si02
#       5
#     4   4   4   4   4
#     4   9  22  44  63  95 134 166 219 275 328 392
#     4  11  23  43  66  94 133 171 223 272 327 393
#     4  11  22  41  67  96 128 176 217 275 331 387
#     4  11  23  45  64  96 138 173 217 273 330 394
#     4  10  23  44  65  95 130 173 220 273 329 395
#
# _framework density 22.001405999999999
#
# number of rings (size 3 to 8) (size 9 to 14) (size 15 to 20)
#    0.000    1.600    2.000    1.800    0.000    4.000 
#   14.400    0.000    0.000    0.000    0.000    0.000 
#    0.000    0.000    0.000    0.000    0.000    0.000 
#
# Total GULP energy -247978.865828 kJ/mol
# GULP energy per Si atom -12398.943291 kJ/mol
# Density = 2.195133 g / cm^3
# Si number density = 22.001406 Si / 1000 Ang^3
#
#
#
# Elastic Constant Matrix: (Units=GPa)
#
#
# Indices 1 2 3 4 5 6 
#
# 1 60.4374 33.2946 9.0961 0.0000 -8.9337 0.0000
# 2 33.2946 161.3315 13.4595 0.0000 10.0412 0.0000
# 3 9.0961 13.4595 98.8565 0.0000 1.1462 0.0000
# 4 0.0000 0.0000 0.0000 25.2780 0.0000 -6.0839
# 5 -8.9337 10.0412 1.1462 0.0000 36.7587 0.0000
# 6 0.0000 0.0000 0.0000 -6.0839 0.0000 24.6561
#
#
#
# Elastic Compliance Matrix: (Units=1/GPa)
#
#
# Indices 1 2 3 4 5 6 
#
# 1 0.020083 -0.004416 -0.001318 0.000000 0.006128 0.000000
# 2 -0.004416 0.007347 -0.000558 0.000000 -0.003063 0.000000
# 3 -0.001318 -0.000558 0.010319 0.000000 -0.000489 0.000000
# 4 0.000000 0.000000 0.000000 0.042058 0.000000 0.010378
# 5 0.006128 -0.003063 -0.000489 0.000000 0.029546 0.000000
# 6 0.000000 0.000000 0.000000 0.010378 0.000000 0.043119
#
#
# Mechanical properties :
#
#
# Convention : Reuss Voigt Hill
#
# Bulk Modulus (GPa) = 39.73905 48.03620 43.88762
# Shear Modulus (GPa) = 28.82781 34.99022 31.90902
#
# Velocity S-wave (km/s) = 3.62369 3.99226 3.81243
# Velocity P-wave (km/s) = 5.96737 6.56746 6.27459
#
# Compressibility (1/GPa) = 0.02516416
#
# Stress axis : x y z
#
# Youngs Moduli (GPa) = 49.79321 136.10988 96.91215
#
# Poissons Ratio (x) = 0.60108 0.12770
# Poissons Ratio (y) = 0.21989 0.05412
# Poissons Ratio (z) = 0.06561 0.07601
#
# Static dielectric constant tensor:
#      x y z
#    x 3.954830 0.000000 0.009060 
#    y 0.000000 4.885510 0.000000 
#    z 0.009060 0.000000 4.037840 
# 
# 
# High freq. dielectric constant tensor:
#      x y z
#    x 1.862790 0.000000 -0.007520 
#    y 0.000000 1.886570 0.000000 
#    z -0.007520 0.000000 1.859000 
# 
# From -- ./inp_files/68281.got.cif
#   From: 2010.03.12/outbox.cif.g09.slc.cpg/sg14_35_cif.got.tgz:68281.got - 2010.03.31 13:35:05.
