data_PCOD8127700
_publ_section_title
;
Structure prediction by ZEFSAII (Michael W. Deem and Ramdas Pophale) SiO2 
 PCOD8127700
Probable space group: P 21/C
;
_chemical_formula_sum "Si O2"
_cell_formula_units_Z 16
_cell_length_a 6.913817
_cell_length_b 13.187602
_cell_length_c 8.807482
_cell_angle_alpha 90.000000
_cell_angle_beta 74.127821
_cell_angle_gamma 90.000000
_cell_volume 772.420448
_symmetry_space_group_name_H-M "P 21/C"
_symmetry_group_IT_number 14
_symmetry_cell_setting 'monoclinic'
loop_
_space_group_symop_operation_xyz
x,y,z
-x,1/2+y,1/2-z
-x,-y,-z
x,1/2-y,1/2+z
loop_
_atom_site_type_symbol
_atom_site_label
_atom_site_fract_x
_atom_site_fract_y
_atom_site_fract_z
Si Si1 0.255062 0.146829 0.807739
Si Si2 0.598075 0.494755 0.203058
Si Si3 0.836008 0.648313 0.332186
Si Si4 0.791333 0.042025 0.361674
O O1 0.485897 0.108044 0.782757
O O2 0.260937 0.252118 0.718597
O O3 0.134295 0.063752 0.732389
O O4 0.144720 0.159515 0.991824
O O5 0.692927 0.552881 0.325038
O O6 0.434174 0.567273 0.152283
O O7 0.778972 0.469125 0.046907
O O8 0.057952 0.631996 0.215146
#
# Coordination Sequence:
#
# PCOD8127700 Si02
#       4
#     4   4   4   4
#     4  10  23  39  59  92 117 154 206 232 295 361
#     4   9  21  42  61  87 120 152 199 243 291 351
#     4  12  21  41  61  86 123 156 193 249 290 345
#     4   9  21  42  61  88 119 152 200 242 294 350
#
# _framework density 20.714108
#
# number of rings (size 3 to 8) (size 9 to 14) (size 15 to 20)
#    1.500    0.500    0.000    3.750    0.000    0.000 
#    9.000    0.000    0.000    0.000    0.000    0.000 
#    0.000    0.000    0.000    0.000    0.000    0.000 
#
# Total GULP energy -198336.963491 kJ/mol
# GULP energy per Si atom -12396.060218 kJ/mol
# Density = 2.066696 g / cm^3
# Si number density = 20.714108 Si / 1000 Ang^3
#
#
#
# Elastic Constant Matrix: (Units=GPa)
#
#
# Indices 1 2 3 4 5 6 
#
# 1 42.6129 25.0268 7.1135 0.0000 -12.5737 0.0000
# 2 25.0268 72.7273 44.7065 0.0000 -10.2626 0.0000
# 3 7.1135 44.7065 115.2433 0.0000 -2.6856 0.0000
# 4 0.0000 0.0000 0.0000 29.2016 0.0000 -1.6148
# 5 -12.5737 -10.2626 -2.6856 0.0000 23.2989 0.0000
# 6 0.0000 0.0000 0.0000 -1.6148 0.0000 30.4039
#
#
#
# Elastic Compliance Matrix: (Units=1/GPa)
#
#
# Indices 1 2 3 4 5 6 
#
# 1 0.033633 -0.011277 0.002613 0.000000 0.013484 0.000000
# 2 -0.011277 0.023114 -0.008197 0.000000 0.003151 0.000000
# 3 0.002613 -0.008197 0.011676 0.000000 -0.000855 0.000000
# 4 0.000000 0.000000 0.000000 0.034346 0.000000 0.001824
# 5 0.013484 0.003151 -0.000855 0.000000 0.051487 0.000000
# 6 0.000000 0.000000 0.000000 0.001824 0.000000 0.032987
#
#
# Mechanical properties :
#
#
# Convention : Reuss Voigt Hill
#
# Bulk Modulus (GPa) = 28.81819 42.69745 35.75782
# Shear Modulus (GPa) = 21.50241 26.82998 24.16619
#
# Velocity S-wave (km/s) = 3.22538 3.60286 3.41934
# Velocity P-wave (km/s) = 5.27384 6.16157 5.73491
#
# Compressibility (1/GPa) = 0.03470031
#
# Stress axis : x y z
#
# Youngs Moduli (GPa) = 29.73294 43.26357 85.64552
#
# Poissons Ratio (x) = 0.48788 -0.22378
# Poissons Ratio (y) = 0.33530 0.70205
# Poissons Ratio (z) = -0.07769 0.35464
#
# Static dielectric constant tensor:
#      x y z
#    x 3.458760 0.000000 -0.016880 
#    y 0.000000 3.413450 0.000000 
#    z -0.016880 0.000000 3.638070 
# 
# 
# High freq. dielectric constant tensor:
#      x y z
#    x 1.794390 0.000000 -0.001560 
#    y 0.000000 1.784070 0.000000 
#    z -0.001560 0.000000 1.820870 
# 
# From -- ./inp_files/7580.got.cif
#   From: 2010.03.12/outbox.cif.g09.slc.cpg/sg14_4_cif.got.tgz:7580.got - 2010.03.31 13:35:05.
