data_PCOD8127195
_publ_section_title
;
Structure prediction by ZEFSAII (Michael W. Deem and Ramdas Pophale) SiO2 
 PCOD8127195
Probable space group: P 21/C
;
_chemical_formula_sum "Si O2"
_cell_formula_units_Z 28
_cell_length_a 19.549923
_cell_length_b 5.217781
_cell_length_c 15.135422
_cell_angle_alpha 90.000000
_cell_angle_beta 129.270545
_cell_angle_gamma 90.000000
_cell_volume 1195.251698
_symmetry_space_group_name_H-M "P 21/C"
_symmetry_group_IT_number 14
_symmetry_cell_setting 'monoclinic'
loop_
_space_group_symop_operation_xyz
x,y,z
-x,1/2+y,1/2-z
-x,-y,-z
x,1/2-y,1/2+z
loop_
_atom_site_type_symbol
_atom_site_label
_atom_site_fract_x
_atom_site_fract_y
_atom_site_fract_z
Si Si1 0.304330 0.919904 0.876715
Si Si2 0.926497 0.746204 0.402670
Si Si3 0.260692 0.422047 0.738865
Si Si4 0.481475 0.949663 0.119512
Si Si5 0.870232 0.030612 0.185755
Si Si6 0.019290 0.332636 0.374022
Si Si7 0.580870 0.452338 0.233810
O O1 0.293736 0.627376 0.837750
O O2 0.404146 0.979112 0.985665
O O3 0.235184 0.933256 0.903813
O O4 0.282771 0.131622 0.785613
O O5 0.844424 0.555920 0.362399
O O6 0.959165 0.867043 0.525746
O O7 0.004694 0.591686 0.417598
O O8 0.889207 0.941969 0.301474
O O9 0.314688 0.496206 0.694417
O O10 0.551242 0.182133 0.166257
O O11 0.435925 0.958924 0.177001
O O12 0.528376 0.679233 0.141648
O O13 0.934757 0.279842 0.240560
O O14 0.898069 0.852619 0.126035
#
# Coordination Sequence:
#
# PCOD8127195 Si02
#       7
#     4   4   4   4   4   4   4
#     4  11  24  39  64  91 129 156 212 260 313 370
#     4  10  23  39  61  90 126 163 216 257 315 382
#     4  11  23  41  61  95 125 162 204 267 305 377
#     4  10  22  41  62  92 121 168 202 258 307 386
#     4  11  22  40  62  93 125 166 213 269 311 391
#     4  11  21  40  64  86 124 171 208 260 325 370
#     4  10  22  40  64  87 129 159 211 249 315 381
#
# _framework density 23.426027000000001
#
# number of rings (size 3 to 8) (size 9 to 14) (size 15 to 20)
#    0.000    1.429    2.857    2.143    2.000    3.429 
#    0.000    0.000    6.286    0.000    0.000    0.000 
#    0.000    0.000    0.000    0.000    0.000    0.000 
#
# Total GULP energy -346906.047590 kJ/mol
# GULP energy per Si atom -12389.501700 kJ/mol
# Density = 2.337271 g / cm^3
# Si number density = 23.426027 Si / 1000 Ang^3
#
#
#
# Elastic Constant Matrix: (Units=GPa)
#
#
# Indices 1 2 3 4 5 6 
#
# 1 92.9485 -4.0018 -8.9438 0.0000 -5.4392 0.0000
# 2 -4.0018 78.6348 -2.2730 0.0000 -8.3791 0.0000
# 3 -8.9438 -2.2730 61.1326 0.0000 -7.1388 0.0000
# 4 0.0000 0.0000 0.0000 31.6706 0.0000 1.5843
# 5 -5.4392 -8.3791 -7.1388 0.0000 31.7745 0.0000
# 6 0.0000 0.0000 0.0000 1.5843 0.0000 22.6009
#
#
#
# Elastic Compliance Matrix: (Units=1/GPa)
#
#
# Indices 1 2 3 4 5 6 
#
# 1 0.011138 0.000899 0.001965 0.000000 0.002585 0.000000
# 2 0.000899 0.013207 0.001075 0.000000 0.003878 0.000000
# 3 0.001965 0.001075 0.017209 0.000000 0.004486 0.000000
# 4 0.000000 0.000000 0.000000 0.031686 0.000000 -0.002221
# 5 0.002585 0.003878 0.004486 0.000000 0.033945 0.000000
# 6 0.000000 0.000000 0.000000 -0.002221 0.000000 0.044402
#
#
# Mechanical properties :
#
#
# Convention : Reuss Voigt Hill
#
# Bulk Modulus (GPa) = 20.22954 22.47541 21.35248
# Shear Modulus (GPa) = 31.21374 33.73816 32.47595
#
# Velocity S-wave (km/s) = 3.65422 3.79911 3.72737
# Velocity P-wave (km/s) = 5.14380 5.37209 5.25918
#
# Compressibility (1/GPa) = 0.04943266
#
# Stress axis : x y z
#
# Youngs Moduli (GPa) = 89.78528 75.71670 58.10836
#
# Poissons Ratio (x) = -0.06807 -0.11417
# Poissons Ratio (y) = -0.08072 -0.06249
# Poissons Ratio (z) = -0.17641 -0.08143
#
# Static dielectric constant tensor:
#      x y z
#    x 4.803220 0.000000 0.222950 
#    y 0.000000 4.126360 0.000000 
#    z 0.222950 0.000000 4.271810 
# 
# 
# High freq. dielectric constant tensor:
#      x y z
#    x 1.954030 0.000000 0.001060 
#    y 0.000000 1.917830 0.000000 
#    z 0.001060 0.000000 1.904960 
# 
# From -- ./inp_files/34768.got.cif
#   From: 2010.03.12/outbox.cif.g09.slc.cpg/sg14_18_cif.got.tgz:34768.got - 2010.03.31 13:35:05.
