data_PCOD8127648
_publ_section_title
;
Structure prediction by ZEFSAII (Michael W. Deem and Ramdas Pophale) SiO2 
 PCOD8127648
Probable space group: P 21/C
;
_chemical_formula_sum "Si O2"
_cell_formula_units_Z 24
_cell_length_a 12.955940
_cell_length_b 11.109509
_cell_length_c 14.516169
_cell_angle_alpha 90.000000
_cell_angle_beta 150.477347
_cell_angle_gamma 90.000000
_cell_volume 1029.574988
_symmetry_space_group_name_H-M "P 21/C"
_symmetry_group_IT_number 14
_symmetry_cell_setting 'monoclinic'
loop_
_space_group_symop_operation_xyz
x,y,z
-x,1/2+y,1/2-z
-x,-y,-z
x,1/2-y,1/2+z
loop_
_atom_site_type_symbol
_atom_site_label
_atom_site_fract_x
_atom_site_fract_y
_atom_site_fract_z
Si Si1 0.803300 0.630256 0.864816
Si Si2 0.486743 0.824181 0.675027
Si Si3 0.159734 0.958660 0.759455
Si Si4 0.149881 0.038457 0.953933
Si Si5 0.163235 0.790267 0.055436
Si Si6 0.749369 0.310510 0.180701
O O1 0.611216 0.699516 0.760987
O O2 0.714742 0.534298 0.721325
O O3 0.921514 0.558614 0.037982
O O4 0.960240 0.721382 0.934905
O O5 0.285916 0.797098 0.581886
O O6 0.410352 0.873843 0.515026
O O7 0.624509 0.927156 0.829290
O O8 0.263218 0.829648 0.857272
O O9 0.160597 0.035870 0.852594
O O10 0.984446 0.139492 0.853947
O O11 0.081948 0.909510 0.941250
O O12 0.311464 0.824853 0.258732
#
# Coordination Sequence:
#
# PCOD8127648 Si02
#       6
#     4   4   4   4   4   4
#     4  10  24  46  73 104 144 189 238 294 353 421
#     4  12  26  45  71 111 137 191 246 279 361 427
#     4  10  22  45  74  99 144 186 230 298 349 415
#     4  12  25  47  74 104 148 187 235 302 355 424
#     4  11  25  47  71 106 147 181 239 299 351 429
#     4  11  25  48  68 107 143 184 237 292 365 418
#
# _framework density 23.310587999999999
#
# number of rings (size 3 to 8) (size 9 to 14) (size 15 to 20)
#    0.000    1.000    5.000    1.500    2.333    6.667 
#    0.000    0.000    0.000    0.000    0.000    0.000 
#    0.000    0.000    0.000    0.000    0.000    0.000 
#
# Total GULP energy -297658.516550 kJ/mol
# GULP energy per Si atom -12402.438190 kJ/mol
# Density = 2.325753 g / cm^3
# Si number density = 23.310588 Si / 1000 Ang^3
#
#
#
# Elastic Constant Matrix: (Units=GPa)
#
#
# Indices 1 2 3 4 5 6 
#
# 1 62.6241 11.8148 20.8548 0.0000 -18.2994 0.0000
# 2 11.8148 81.5270 14.0642 0.0000 -1.2449 0.0000
# 3 20.8548 14.0642 106.1610 0.0000 -34.2315 0.0000
# 4 0.0000 0.0000 0.0000 32.3749 0.0000 -12.0288
# 5 -18.2994 -1.2449 -34.2315 0.0000 42.8778 0.0000
# 6 0.0000 0.0000 0.0000 -12.0288 0.0000 28.0471
#
#
#
# Elastic Compliance Matrix: (Units=1/GPa)
#
#
# Indices 1 2 3 4 5 6 
#
# 1 0.018870 -0.002438 -0.001091 0.000000 0.007112 0.000000
# 2 -0.002438 0.012921 -0.001949 0.000000 -0.002221 0.000000
# 3 -0.001091 -0.001949 0.013095 0.000000 0.009932 0.000000
# 4 0.000000 0.000000 0.000000 0.036743 0.000000 0.015758
# 5 0.007112 -0.002221 0.009932 0.000000 0.034222 0.000000
# 6 0.000000 0.000000 0.000000 0.015758 0.000000 0.042413
#
#
# Mechanical properties :
#
#
# Convention : Reuss Voigt Hill
#
# Bulk Modulus (GPa) = 29.47231 38.19778 33.83504
# Shear Modulus (GPa) = 27.69636 34.23185 30.96410
#
# Velocity S-wave (km/s) = 3.45069 3.83627 3.64858
# Velocity P-wave (km/s) = 5.34295 6.00372 5.68295
#
# Compressibility (1/GPa) = 0.03393015
#
# Stress axis : x y z
#
# Youngs Moduli (GPa) = 52.99556 77.39041 76.36643
#
# Poissons Ratio (x) = 0.18866 0.08330
# Poissons Ratio (y) = 0.12919 0.14886
# Poissons Ratio (z) = 0.05781 0.15085
#
# Static dielectric constant tensor:
#      x y z
#    x 4.103670 0.000000 -0.379480 
#    y 0.000000 4.164030 0.000000 
#    z -0.379480 0.000000 4.248210 
# 
# 
# High freq. dielectric constant tensor:
#      x y z
#    x 1.914330 0.000000 -0.026380 
#    y 0.000000 1.924940 0.000000 
#    z -0.026380 0.000000 1.926970 
# 
# From -- ./inp_files/47184.got.cif
#   From: 2010.03.12/outbox.cif.g09.slc.cpg/sg14_24_cif.got.tgz:47184.got - 2010.03.31 13:35:05.
