data_PCOD8127465
_publ_section_title
;
Structure prediction by ZEFSAII (Michael W. Deem and Ramdas Pophale) SiO2 
 PCOD8127465
Probable space group: P 21/C
;
_chemical_formula_sum "Si O2"
_cell_formula_units_Z 24
_cell_length_a 5.572250
_cell_length_b 21.487635
_cell_length_c 9.194964
_cell_angle_alpha 90.000000
_cell_angle_beta 75.157611
_cell_angle_gamma 90.000000
_cell_volume 1064.219894
_symmetry_space_group_name_H-M "P 21/C"
_symmetry_group_IT_number 14
_symmetry_cell_setting 'monoclinic'
loop_
_space_group_symop_operation_xyz
x,y,z
-x,1/2+y,1/2-z
-x,-y,-z
x,1/2-y,1/2+z
loop_
_atom_site_type_symbol
_atom_site_label
_atom_site_fract_x
_atom_site_fract_y
_atom_site_fract_z
Si Si1 0.689565 0.126235 0.377585
Si Si2 0.325715 0.510505 0.305271
Si Si3 0.400212 0.612438 0.775872
Si Si4 0.895467 0.082520 0.926232
Si Si5 0.779128 0.689999 0.210296
Si Si6 0.789318 0.688990 0.535254
O O1 0.676618 0.054011 0.336083
O O2 0.629548 0.132929 0.556111
O O3 0.468906 0.162105 0.326344
O O4 0.974413 0.147726 0.313950
O O5 0.543676 0.461114 0.253905
O O6 0.343807 0.554309 0.448467
O O7 0.069227 0.474294 0.357040
O O8 0.153120 0.618334 0.718093
O O9 0.589306 0.658558 0.671424
O O10 0.999138 0.136289 0.016399
O O11 0.694261 0.706425 0.388406
O O12 0.875947 0.748881 0.103559
#
# Coordination Sequence:
#
# PCOD8127465 Si02
#       6
#     4   4   4   4   4   4
#     4  12  28  46  73 110 146 188 238 301 358 427
#     4  10  22  43  68 109 139 195 234 297 356 426
#     4  11  25  42  74 103 149 184 244 293 365 424
#     4  10  22  42  73 102 143 191 240 295 357 427
#     4  12  29  48  75 102 145 190 243 294 359 426
#     4  11  26  47  71 103 139 191 242 297 356 428
#
# _framework density 22.551731
#
# number of rings (size 3 to 8) (size 9 to 14) (size 15 to 20)
#    0.000    1.000    1.667    3.000   11.667    0.667 
#    0.000    0.000    0.000    0.000    0.000    0.000 
#    0.000    0.000    0.000    0.000    0.000    0.000 
#
# Total GULP energy -297323.272701 kJ/mol
# GULP energy per Si atom -12388.469696 kJ/mol
# Density = 2.250040 g / cm^3
# Si number density = 22.551731 Si / 1000 Ang^3
#
#
#
# Elastic Constant Matrix: (Units=GPa)
#
#
# Indices 1 2 3 4 5 6 
#
# 1 89.1522 15.4206 31.4887 0.0000 13.0476 0.0000
# 2 15.4206 82.8135 17.9372 0.0000 14.4125 0.0000
# 3 31.4887 17.9372 189.2466 0.0000 11.7416 0.0000
# 4 0.0000 0.0000 0.0000 32.8786 0.0000 26.8546
# 5 13.0476 14.4125 11.7416 0.0000 50.1244 0.0000
# 6 0.0000 0.0000 0.0000 26.8546 0.0000 -18.8591
#
#
#
# Elastic Compliance Matrix: (Units=1/GPa)
#
#
# Indices 1 2 3 4 5 6 
#
# 1 0.012458 -0.001518 -0.001781 0.000000 -0.002389 0.000000
# 2 -0.001518 0.013083 -0.000790 0.000000 -0.003182 0.000000
# 3 -0.001781 -0.000790 0.005695 0.000000 -0.000643 0.000000
# 4 0.000000 0.000000 0.000000 0.014061 0.000000 0.020022
# 5 -0.002389 -0.003182 -0.000643 0.000000 0.021638 0.000000
# 6 0.000000 0.000000 0.000000 0.020022 0.000000 -0.024514
#
#
# Mechanical properties :
#
#
# Convention : Reuss Voigt Hill
#
# Bulk Modulus (GPa) = 43.36890 54.54504 48.95697
# Shear Modulus (GPa) = 85.78509 32.58651 59.18580
#
# Velocity S-wave (km/s) = 6.17429 3.80540 5.12849
# Velocity P-wave (km/s) = 8.37268 6.59903 7.53820
#
# Compressibility (1/GPa) = 0.02305800
#
# Stress axis : x y z
#
# Youngs Moduli (GPa) = 80.26964 76.43594 175.58620
#
# Poissons Ratio (x) = 0.11605 0.31267
# Poissons Ratio (y) = 0.12187 0.13871
# Poissons Ratio (z) = 0.14294 0.06038
#
# Static dielectric constant tensor:
#      x y z
#    x 4.085950 0.000000 0.202270 
#    y 0.000000 4.570210 0.000000 
#    z 0.202270 0.000000 4.279050 
# 
# 
# High freq. dielectric constant tensor:
#      x y z
#    x 1.878170 0.000000 0.010900 
#    y 0.000000 1.898140 0.000000 
#    z 0.010900 0.000000 1.906480 
# 
# From -- ./inp_files/6243.got.cif
#   From: 2010.03.12/outbox.cif.g09.slc.cpg/sg14_4_cif.got.tgz:6243.got - 2010.03.31 13:35:05.
