data_PCOD8127324
_publ_section_title
;
Structure prediction by ZEFSAII (Michael W. Deem and Ramdas Pophale) SiO2 
 PCOD8127324
Probable space group: P 21/C
;
_chemical_formula_sum "Si O2"
_cell_formula_units_Z 24
_cell_length_a 8.264485
_cell_length_b 13.651185
_cell_length_c 9.327554
_cell_angle_alpha 90.000000
_cell_angle_beta 87.059883
_cell_angle_gamma 90.000000
_cell_volume 1050.949569
_symmetry_space_group_name_H-M "P 21/C"
_symmetry_group_IT_number 14
_symmetry_cell_setting 'monoclinic'
loop_
_space_group_symop_operation_xyz
x,y,z
-x,1/2+y,1/2-z
-x,-y,-z
x,1/2-y,1/2+z
loop_
_atom_site_type_symbol
_atom_site_label
_atom_site_fract_x
_atom_site_fract_y
_atom_site_fract_z
Si Si1 0.141804 0.217526 0.771017
Si Si2 0.816846 0.479279 0.159308
Si Si3 0.917072 0.101699 0.243621
Si Si4 0.701227 0.184905 0.474370
Si Si5 0.858972 0.390411 0.437316
Si Si6 0.327577 0.158890 0.484078
O O1 0.227277 0.162599 0.635603
O O2 0.275611 0.255974 0.877232
O O3 0.039589 0.308193 0.715235
O O4 0.026912 0.140766 0.855651
O O5 0.810495 0.372187 0.087255
O O6 0.769057 0.463907 0.330411
O O7 0.692390 0.552377 0.087879
O O8 0.999903 0.524030 0.150447
O O9 0.747907 0.138941 0.317789
O O10 0.889125 0.054350 0.087701
O O11 0.746459 0.298079 0.480338
O O12 0.513998 0.172003 0.515758
#
# Coordination Sequence:
#
# PCOD8127324 Si02
#       6
#     4   4   4   4   4   4
#     4  10  22  41  68  95 132 174 215 267 328 390
#     4  11  25  43  67  96 133 175 224 270 321 394
#     4  10  22  42  65  99 126 172 223 268 320 388
#     4  11  24  42  68  97 134 173 219 270 334 388
#     4  11  23  42  68  98 130 174 224 271 320 392
#     4  11  25  43  67  99 134 174 217 270 335 388
#
# _framework density 22.836489
#
# number of rings (size 3 to 8) (size 9 to 14) (size 15 to 20)
#    0.000    1.333    1.667    3.500   11.667    0.000 
#    0.000    0.833    0.000    0.000    0.000    0.000 
#    0.000    0.000    0.000    0.000    0.000    0.000 
#
# Total GULP energy -297636.799873 kJ/mol
# GULP energy per Si atom -12401.533328 kJ/mol
# Density = 2.278451 g / cm^3
# Si number density = 22.836489 Si / 1000 Ang^3
#
#
#
# Elastic Constant Matrix: (Units=GPa)
#
#
# Indices 1 2 3 4 5 6 
#
# 1 84.2190 24.7567 27.6639 0.0000 -15.5100 0.0000
# 2 24.7567 67.4775 11.5497 0.0000 2.6572 0.0000
# 3 27.6639 11.5497 126.3946 0.0000 3.6446 0.0000
# 4 0.0000 0.0000 0.0000 49.3113 0.0000 6.1255
# 5 -15.5100 2.6572 3.6446 0.0000 27.5241 0.0000
# 6 0.0000 0.0000 0.0000 6.1255 0.0000 18.1836
#
#
#
# Elastic Compliance Matrix: (Units=1/GPa)
#
#
# Indices 1 2 3 4 5 6 
#
# 1 0.016654 -0.005937 -0.003403 0.000000 0.010408 0.000000
# 2 -0.005937 0.017217 -0.000130 0.000000 -0.004991 0.000000
# 3 -0.003403 -0.000130 0.008757 0.000000 -0.003064 0.000000
# 4 0.000000 0.000000 0.000000 0.021165 0.000000 -0.007130
# 5 0.010408 -0.004991 -0.003064 0.000000 0.043084 0.000000
# 6 0.000000 0.000000 0.000000 -0.007130 0.000000 0.057397
#
#
# Mechanical properties :
#
#
# Convention : Reuss Voigt Hill
#
# Bulk Modulus (GPa) = 42.21632 45.11465 43.66548
# Shear Modulus (GPa) = 26.16313 33.27850 29.72082
#
# Velocity S-wave (km/s) = 3.38845 3.82154 3.61149
# Velocity P-wave (km/s) = 5.81681 6.26663 6.04590
#
# Compressibility (1/GPa) = 0.02368752
#
# Stress axis : x y z
#
# Youngs Moduli (GPa) = 60.04706 58.08245 114.19883
#
# Poissons Ratio (x) = 0.34486 0.38856
# Poissons Ratio (y) = 0.35653 0.01482
# Poissons Ratio (z) = 0.20431 0.00754
#
# Static dielectric constant tensor:
#      x y z
#    x 3.756500 0.000000 0.175680 
#    y 0.000000 4.260340 0.000000 
#    z 0.175680 0.000000 4.282520 
# 
# 
# High freq. dielectric constant tensor:
#      x y z
#    x 1.871220 0.000000 0.011730 
#    y 0.000000 1.907740 0.000000 
#    z 0.011730 0.000000 1.918890 
# 
# From -- ./inp_files/8454.got.cif
#   From: 2010.03.12/outbox.cif.g09.slc.cpg/sg14_5_cif.got.tgz:8454.got - 2010.03.31 13:35:05.
