data_PCOD8127620
_publ_section_title
;
Structure prediction by ZEFSAII (Michael W. Deem and Ramdas Pophale) SiO2 
 PCOD8127620
Probable space group: P 21/C
;
_chemical_formula_sum "Si O2"
_cell_formula_units_Z 28
_cell_length_a 14.368506
_cell_length_b 18.300093
_cell_length_c 4.986473
_cell_angle_alpha 90.000000
_cell_angle_beta 101.141812
_cell_angle_gamma 90.000000
_cell_volume 1286.455107
_symmetry_space_group_name_H-M "P 21/C"
_symmetry_group_IT_number 14
_symmetry_cell_setting 'monoclinic'
loop_
_space_group_symop_operation_xyz
x,y,z
-x,1/2+y,1/2-z
-x,-y,-z
x,1/2-y,1/2+z
loop_
_atom_site_type_symbol
_atom_site_label
_atom_site_fract_x
_atom_site_fract_y
_atom_site_fract_z
Si Si1 0.205391 0.298792 0.348052
Si Si2 0.624332 0.202739 0.489238
Si Si3 0.079126 0.400339 0.515560
Si Si4 0.264927 0.408258 0.979058
Si Si5 0.594997 0.701158 0.175209
Si Si6 0.112188 0.560233 0.374128
Si Si7 0.236756 0.570666 0.950334
O O1 0.225243 0.229716 0.164916
O O2 0.098270 0.331885 0.321780
O O3 0.264648 0.368597 0.270966
O O4 0.648476 0.267436 0.296308
O O5 0.514611 0.180066 0.406492
O O6 0.685121 0.131923 0.458723
O O7 0.079739 0.475703 0.348407
O O8 0.978118 0.389436 0.603174
O O9 0.162308 0.400734 0.783126
O O10 0.346631 0.372941 0.839239
O O11 0.288000 0.493331 0.038255
O O12 0.621462 0.767309 0.984530
O O13 0.197561 0.573965 0.627979
O O14 0.148231 0.582808 0.100913
#
# Coordination Sequence:
#
# PCOD8127620 Si02
#       7
#     4   4   4   4   4   4   4
#     4  12  23  36  56  85 127 168 198 246 305 361
#     4  10  22  45  67  88 121 161 207 261 322 372
#     4  10  23  40  61  88 127 169 206 251 301 373
#     4  11  23  38  63  95 129 162 210 249 314 368
#     4  10  23  39  63  92 124 168 203 242 316 390
#     4  10  23  40  65  89 120 163 218 248 305 366
#     4  11  23  40  67  94 119 164 213 266 302 359
#
# _framework density 21.765238
#
# number of rings (size 3 to 8) (size 9 to 14) (size 15 to 20)
#    0.000    1.429    2.857    1.714    4.000    2.286 
#    0.000    4.286    0.000    7.714    0.000    0.000 
#    0.000    0.000    0.000    0.000    0.000    0.000 
#
# Total GULP energy -347117.918848 kJ/mol
# GULP energy per Si atom -12397.068530 kJ/mol
# Density = 2.171570 g / cm^3
# Si number density = 21.765238 Si / 1000 Ang^3
#
#
#
# Elastic Constant Matrix: (Units=GPa)
#
#
# Indices 1 2 3 4 5 6 
#
# 1 117.0618 67.4518 19.2409 0.0000 -16.6467 0.0000
# 2 67.4518 108.3325 16.1989 0.0000 -4.3003 0.0000
# 3 19.2409 16.1989 69.6969 0.0000 -12.1669 0.0000
# 4 0.0000 0.0000 0.0000 25.6576 0.0000 -7.2693
# 5 -16.6467 -4.3003 -12.1669 0.0000 31.4800 0.0000
# 6 0.0000 0.0000 0.0000 -7.2693 0.0000 33.2425
#
#
#
# Elastic Compliance Matrix: (Units=1/GPa)
#
#
# Indices 1 2 3 4 5 6 
#
# 1 0.014582 -0.008696 -0.000928 0.000000 0.006164 0.000000
# 2 -0.008696 0.014756 -0.001587 0.000000 -0.003196 0.000000
# 3 -0.000928 -0.001587 0.015924 0.000000 0.005447 0.000000
# 4 0.000000 0.000000 0.000000 0.041549 0.000000 0.009086
# 5 0.006164 -0.003196 0.005447 0.000000 0.036694 0.000000
# 6 0.000000 0.000000 0.000000 0.009086 0.000000 0.032069
#
#
# Mechanical properties :
#
#
# Convention : Reuss Voigt Hill
#
# Bulk Modulus (GPa) = 43.78400 55.65272 49.71836
# Shear Modulus (GPa) = 26.93824 30.88935 28.91380
#
# Velocity S-wave (km/s) = 3.52187 3.77132 3.64873
# Velocity P-wave (km/s) = 6.05791 6.67749 6.37523
#
# Compressibility (1/GPa) = 0.02283939
#
# Stress axis : x y z
#
# Youngs Moduli (GPa) = 68.57571 67.77040 62.79918
#
# Poissons Ratio (x) = 0.58933 0.05831
# Poissons Ratio (y) = 0.59634 0.09965
# Poissons Ratio (z) = 0.06367 0.10754
#
# Static dielectric constant tensor:
#      x y z
#    x 4.105100 0.000000 -0.245910 
#    y 0.000000 4.093840 0.000000 
#    z -0.245910 0.000000 3.992220 
# 
# 
# High freq. dielectric constant tensor:
#      x y z
#    x 1.855180 0.000000 -0.018560 
#    y 0.000000 1.842410 0.000000 
#    z -0.018560 0.000000 1.865540 
# 
# From -- ./inp_files/3685.got.cif
#   From: 2010.03.12/outbox.cif.g09.slc.cpg/sg14_2_cif.got.tgz:3685.got - 2010.03.31 13:35:05.
