data_PCOD8127471
_publ_section_title
;
Structure prediction by ZEFSAII (Michael W. Deem and Ramdas Pophale) SiO2 
 PCOD8127471
Probable space group: P 21/C
;
_chemical_formula_sum "Si O2"
_cell_formula_units_Z 24
_cell_length_a 8.823901
_cell_length_b 11.499914
_cell_length_c 10.518599
_cell_angle_alpha 90.000000
_cell_angle_beta 105.696196
_cell_angle_gamma 90.000000
_cell_volume 1027.563030
_symmetry_space_group_name_H-M "P 21/C"
_symmetry_group_IT_number 14
_symmetry_cell_setting 'monoclinic'
loop_
_space_group_symop_operation_xyz
x,y,z
-x,1/2+y,1/2-z
-x,-y,-z
x,1/2-y,1/2+z
loop_
_atom_site_type_symbol
_atom_site_label
_atom_site_fract_x
_atom_site_fract_y
_atom_site_fract_z
Si Si1 0.848221 0.194240 0.012676
Si Si2 0.307157 0.412603 0.865286
Si Si3 0.508247 0.871774 0.840959
Si Si4 0.956544 0.767502 0.197021
Si Si5 0.722560 0.963608 0.101737
Si Si6 0.609269 0.342422 0.073104
O O1 0.692308 0.275842 0.973451
O O2 0.949539 0.242395 0.153802
O O3 0.802959 0.059851 0.027998
O O4 0.933917 0.205974 0.898513
O O5 0.369961 0.371332 0.744482
O O6 0.146374 0.346463 0.860215
O O7 0.279070 0.551907 0.854543
O O8 0.436381 0.388259 0.001452
O O9 0.412427 0.750432 0.818146
O O10 0.379247 0.975857 0.808641
O O11 0.607906 0.881390 0.993813
O O12 0.850307 0.881446 0.197440
#
# Coordination Sequence:
#
# PCOD8127471 Si02
#       6
#     4   4   4   4   4   4
#     4  11  28  44  70  99 142 183 230 278 344 408
#     4  11  25  41  71  99 138 175 229 286 342 403
#     4  10  22  42  74  98 129 178 235 287 332 401
#     4  12  26  45  68 102 141 183 226 279 345 408
#     4  10  23  44  69 100 131 185 232 280 333 415
#     4  10  25  44  64 102 133 179 227 287 340 404
#
# _framework density 23.356231000000001
#
# number of rings (size 3 to 8) (size 9 to 14) (size 15 to 20)
#    0.000    1.333    1.667    1.500   11.667    2.000 
#    0.000    0.000    0.000    0.000    0.000    0.000 
#    0.000    0.000    0.000    0.000    0.000    0.000 
#
# Total GULP energy -297605.169212 kJ/mol
# GULP energy per Si atom -12400.215384 kJ/mol
# Density = 2.330307 g / cm^3
# Si number density = 23.356231 Si / 1000 Ang^3
#
#
#
# Elastic Constant Matrix: (Units=GPa)
#
#
# Indices 1 2 3 4 5 6 
#
# 1 75.2336 21.3989 2.7732 0.0000 -9.1346 0.0000
# 2 21.3989 134.2285 -6.5314 0.0000 -5.1055 0.0000
# 3 2.7732 -6.5314 43.8702 0.0000 -7.6792 0.0000
# 4 0.0000 0.0000 0.0000 13.7349 0.0000 -0.6518
# 5 -9.1346 -5.1055 -7.6792 0.0000 26.6480 0.0000
# 6 0.0000 0.0000 0.0000 -0.6518 0.0000 43.1026
#
#
#
# Elastic Compliance Matrix: (Units=1/GPa)
#
#
# Indices 1 2 3 4 5 6 
#
# 1 0.014459 -0.002160 -0.000464 0.000000 0.004409 0.000000
# 2 -0.002160 0.007915 0.001528 0.000000 0.001216 0.000000
# 3 -0.000464 0.001528 0.024301 0.000000 0.007136 0.000000
# 4 0.000000 0.000000 0.000000 0.072859 0.000000 0.001102
# 5 0.004409 0.001216 0.007136 0.000000 0.041327 0.000000
# 6 0.000000 0.000000 0.000000 0.001102 0.000000 0.023217
#
#
# Mechanical properties :
#
#
# Convention : Reuss Voigt Hill
#
# Bulk Modulus (GPa) = 22.48086 32.06819 27.27452
# Shear Modulus (GPa) = 24.86362 32.40988 28.63675
#
# Velocity S-wave (km/s) = 3.26627 3.72914 3.50535
# Velocity P-wave (km/s) = 4.88577 5.68347 5.29965
#
# Compressibility (1/GPa) = 0.04448229
#
# Stress axis : x y z
#
# Youngs Moduli (GPa) = 69.16268 126.34365 41.15139
#
# Poissons Ratio (x) = 0.27289 0.01909
# Poissons Ratio (y) = 0.14938 -0.06287
# Poissons Ratio (z) = 0.03208 -0.19303
#
# Static dielectric constant tensor:
#      x y z
#    x 4.466930 0.000000 0.045780 
#    y 0.000000 4.648430 0.000000 
#    z 0.045780 0.000000 3.750060 
# 
# 
# High freq. dielectric constant tensor:
#      x y z
#    x 1.934140 0.000000 0.000500 
#    y 0.000000 1.945930 0.000000 
#    z 0.000500 0.000000 1.896890 
# 
# From -- ./inp_files/24168.got.cif
#   From: 2010.03.12/outbox.cif.g09.slc.cpg/sg14_13_cif.got.tgz:24168.got - 2010.03.31 13:35:05.
