data_PCOD8127017
_publ_section_title
;
Structure prediction by ZEFSAII (Michael W. Deem and Ramdas Pophale) SiO2 
 PCOD8127017
Probable space group: P 21/C
;
_chemical_formula_sum "Si O2"
_cell_formula_units_Z 28
_cell_length_a 6.849652
_cell_length_b 8.007571
_cell_length_c 27.166328
_cell_angle_alpha 90.000000
_cell_angle_beta 114.616914
_cell_angle_gamma 90.000000
_cell_volume 1354.622236
_symmetry_space_group_name_H-M "P 21/C"
_symmetry_group_IT_number 14
_symmetry_cell_setting 'monoclinic'
loop_
_space_group_symop_operation_xyz
x,y,z
-x,1/2+y,1/2-z
-x,-y,-z
x,1/2-y,1/2+z
loop_
_atom_site_type_symbol
_atom_site_label
_atom_site_fract_x
_atom_site_fract_y
_atom_site_fract_z
Si Si1 0.377441 0.273511 0.584107
Si Si2 0.274298 0.789575 0.703787
Si Si3 0.948997 0.197038 0.996393
Si Si4 0.385764 0.844899 0.113744
Si Si5 0.209156 0.375577 0.857014
Si Si6 0.317812 0.896874 0.452780
Si Si7 0.470777 0.587686 0.810303
O O1 0.378894 0.467513 0.595348
O O2 0.590248 0.229290 0.577860
O O3 0.367004 0.174814 0.634391
O O4 0.180628 0.216068 0.527620
O O5 0.352769 0.667106 0.668531
O O6 0.357816 0.723387 0.764401
O O7 0.017412 0.793790 0.680129
O O8 0.378359 0.970276 0.706726
O O9 0.814263 0.268372 0.027974
O O10 0.817444 0.249694 0.933700
O O11 0.000000 0.000000 0.000000
O O12 0.608492 0.766515 0.118364
O O13 0.179327 0.471111 0.906077
O O14 0.281822 0.492076 0.819313
O O15 0.500000 0.000000 0.500000
#
# Coordination Sequence:
#
# PCOD8127017 Si02
#       7
#     4   4   4   4   4   4   4
#     4  10  23  40  62  89 130 162 209 259 305 376
#     4  11  23  41  67  85 125 161 202 265 315 366
#     4  10  22  38  60  93 125 165 206 255 314 371
#     4  10  22  39  60  95 124 159 210 252 307 380
#     4  10  23  41  62  95 122 162 211 253 317 377
#     4  11  22  39  63  90 128 170 207 257 314 379
#     4  10  23  42  60  92 117 159 211 253 310 376
#
# _framework density 20.669969999999999
#
# number of rings (size 3 to 8) (size 9 to 14) (size 15 to 20)
#    0.000    1.714    1.429    1.714    2.000    8.571 
#    0.000    4.286    0.000    0.000    0.000    0.000 
#    0.000    0.000    0.000    0.000    0.000    0.000 
#
# Total GULP energy -347020.893458 kJ/mol
# GULP energy per Si atom -12393.603338 kJ/mol
# Density = 2.062292 g / cm^3
# Si number density = 20.669970 Si / 1000 Ang^3
#
#
#
# Elastic Constant Matrix: (Units=GPa)
#
#
# Indices 1 2 3 4 5 6 
#
# 1 73.8320 35.3159 18.6926 0.0000 10.8125 0.0000
# 2 35.3159 81.6083 23.8591 0.0000 4.3298 0.0000
# 3 18.6926 23.8591 75.5849 0.0000 12.7770 0.0000
# 4 0.0000 0.0000 0.0000 34.3141 0.0000 -3.0732
# 5 10.8125 4.3298 12.7770 0.0000 34.9403 0.0000
# 6 0.0000 0.0000 0.0000 -3.0732 0.0000 30.0131
#
#
#
# Elastic Compliance Matrix: (Units=1/GPa)
#
#
# Indices 1 2 3 4 5 6 
#
# 1 0.017922 -0.007100 -0.001495 0.000000 -0.004120 0.000000
# 2 -0.007100 0.016313 -0.003649 0.000000 0.001510 0.000000
# 3 -0.001495 -0.003649 0.015559 0.000000 -0.004775 0.000000
# 4 0.000000 0.000000 0.000000 0.029412 0.000000 0.003012
# 5 -0.004120 0.001510 -0.004775 0.000000 0.031454 0.000000
# 6 0.000000 0.000000 0.000000 0.003012 0.000000 0.033627
#
#
# Mechanical properties :
#
#
# Convention : Reuss Voigt Hill
#
# Bulk Modulus (GPa) = 39.51511 42.97337 41.24424
# Shear Modulus (GPa) = 28.21514 30.06403 29.13958
#
# Velocity S-wave (km/s) = 3.69864 3.81790 3.75874
# Velocity P-wave (km/s) = 6.11544 6.34591 6.23174
#
# Compressibility (1/GPa) = 0.02530678
#
# Stress axis : x y z
#
# Youngs Moduli (GPa) = 55.79657 61.30121 64.27293
#
# Poissons Ratio (x) = 0.43526 0.09606
# Poissons Ratio (y) = 0.39617 0.23451
# Poissons Ratio (z) = 0.08339 0.22367
#
# Static dielectric constant tensor:
#      x y z
#    x 3.695690 0.000000 0.136620 
#    y 0.000000 3.694240 0.000000 
#    z 0.136620 0.000000 4.108500 
# 
# 
# High freq. dielectric constant tensor:
#      x y z
#    x 1.804210 0.000000 0.001730 
#    y 0.000000 1.810310 0.000000 
#    z 0.001730 0.000000 1.824430 
# 
# From -- ./inp_files/78753.got.cif
#   From: 2010.03.12/outbox.cif.g09.slc.cpg/sg14_40_cif.got.tgz:78753.got - 2010.03.31 13:35:05.
