data_PCOD8127858
_publ_section_title
;
Structure prediction by ZEFSAII (Michael W. Deem and Ramdas Pophale) SiO2 
 PCOD8127858
Probable space group: P 21/C
;
_chemical_formula_sum "Si O2"
_cell_formula_units_Z 24
_cell_length_a 10.506148
_cell_length_b 13.412774
_cell_length_c 21.111975
_cell_angle_alpha 90.000000
_cell_angle_beta 157.223716
_cell_angle_gamma 90.000000
_cell_volume 1151.734217
_symmetry_space_group_name_H-M "P 21/C"
_symmetry_group_IT_number 14
_symmetry_cell_setting 'monoclinic'
loop_
_space_group_symop_operation_xyz
x,y,z
-x,1/2+y,1/2-z
-x,-y,-z
x,1/2-y,1/2+z
loop_
_atom_site_type_symbol
_atom_site_label
_atom_site_fract_x
_atom_site_fract_y
_atom_site_fract_z
Si Si1 0.877363 0.628368 0.113218
Si Si2 0.999398 0.113538 0.474877
Si Si3 0.735960 0.548136 0.658751
Si Si4 0.203975 0.720089 0.844865
Si Si5 0.641491 0.715312 0.283101
Si Si6 0.274048 0.824262 0.011328
O O1 0.846893 0.621140 0.024086
O O2 0.970129 0.520128 0.182197
O O3 0.159264 0.705568 0.264816
O O4 0.534988 0.658205 0.987907
O O5 0.621302 0.152444 0.296714
O O6 0.231745 0.184228 0.624216
O O7 0.000000 0.000000 0.500000
O O8 0.500000 0.500000 0.500000
O O9 0.500714 0.577650 0.609883
O O10 0.892432 0.646752 0.700239
O O11 0.190976 0.781928 0.903860
O O12 0.951532 0.647051 0.404652
O O13 0.469216 0.739598 0.137905
#
# Coordination Sequence:
#
# PCOD8127858 Si02
#       6
#     4   4   4   4   4   4
#     4  12  24  42  66  96 136 169 220 272 328 396
#     4  11  25  45  66  97 131 180 229 265 329 392
#     4  12  24  39  62 101 131 166 216 264 337 404
#     4  12  23  42  66  97 134 172 207 279 344 387
#     4  10  23  42  69  90 130 178 219 273 320 394
#     4  11  20  41  66  91 128 163 221 265 334 381
#
# _framework density 20.838141
#
# number of rings (size 3 to 8) (size 9 to 14) (size 15 to 20)
#    0.000    0.667    5.000    2.500    2.333    1.333 
#    0.000    9.167    0.000    0.000    0.000    0.000 
#    0.000    0.000    0.000    0.000    0.000    0.000 
#
# Total GULP energy -297568.780070 kJ/mol
# GULP energy per Si atom -12398.699170 kJ/mol
# Density = 2.079071 g / cm^3
# Si number density = 20.838141 Si / 1000 Ang^3
#
#
#
# Elastic Constant Matrix: (Units=GPa)
#
#
# Indices 1 2 3 4 5 6 
#
# 1 89.8329 27.0078 24.9357 0.0000 -1.2879 0.0000
# 2 27.0078 99.4103 29.3977 0.0000 4.5095 0.0000
# 3 24.9357 29.3977 84.0321 0.0000 8.5428 0.0000
# 4 0.0000 0.0000 0.0000 49.3088 0.0000 -0.8860
# 5 -1.2879 4.5095 8.5428 0.0000 41.8429 0.0000
# 6 0.0000 0.0000 0.0000 -0.8860 0.0000 26.9854
#
#
#
# Elastic Compliance Matrix: (Units=1/GPa)
#
#
# Indices 1 2 3 4 5 6 
#
# 1 0.012777 -0.002643 -0.002998 0.000000 0.001290 0.000000
# 2 -0.002643 0.011774 -0.003265 0.000000 -0.000684 0.000000
# 3 -0.002998 -0.003265 0.014200 0.000000 -0.002640 0.000000
# 4 0.000000 0.000000 0.000000 0.020292 0.000000 0.000666
# 5 0.001290 -0.000684 -0.002640 0.000000 0.024551 0.000000
# 6 0.000000 0.000000 0.000000 0.000666 0.000000 0.037079
#
#
# Mechanical properties :
#
#
# Convention : Reuss Voigt Hill
#
# Bulk Modulus (GPa) = 47.75801 48.43974 48.09887
# Shear Modulus (GPa) = 34.37222 36.42306 35.39764
#
# Velocity S-wave (km/s) = 4.06579 4.18533 4.12599
# Velocity P-wave (km/s) = 6.70889 6.83024 6.76984
#
# Compressibility (1/GPa) = 0.02093890
#
# Stress axis : x y z
#
# Youngs Moduli (GPa) = 78.26492 84.93268 70.42037
#
# Poissons Ratio (x) = 0.22450 0.21112
# Poissons Ratio (y) = 0.20687 0.22993
# Poissons Ratio (z) = 0.23463 0.27732
#
# Static dielectric constant tensor:
#      x y z
#    x 4.147710 0.000000 0.410790 
#    y 0.000000 3.948880 0.000000 
#    z 0.410790 0.000000 4.307160 
# 
# 
# High freq. dielectric constant tensor:
#      x y z
#    x 1.816190 0.000000 0.005170 
#    y 0.000000 1.809420 0.000000 
#    z 0.005170 0.000000 1.834300 
# 
# From -- ./inp_files/12520.got.cif
#   From: 2010.03.12/outbox.cif.g09.slc.cpg/sg14_7_cif.got.tgz:12520.got - 2010.03.31 13:35:05.
