data_PCOD8127808
_publ_section_title
;
Structure prediction by ZEFSAII (Michael W. Deem and Ramdas Pophale) SiO2 
 PCOD8127808
Probable space group: P 21/C
;
_chemical_formula_sum "Si O2"
_cell_formula_units_Z 32
_cell_length_a 28.265217
_cell_length_b 9.144047
_cell_length_c 11.769575
_cell_angle_alpha 90.000000
_cell_angle_beta 29.479176
_cell_angle_gamma 90.000000
_cell_volume 1496.963712
_symmetry_space_group_name_H-M "P 21/C"
_symmetry_group_IT_number 14
_symmetry_cell_setting 'monoclinic'
loop_
_space_group_symop_operation_xyz
x,y,z
-x,1/2+y,1/2-z
-x,-y,-z
x,1/2-y,1/2+z
loop_
_atom_site_type_symbol
_atom_site_label
_atom_site_fract_x
_atom_site_fract_y
_atom_site_fract_z
Si Si1 0.593727 0.739092 0.562664
Si Si2 0.271007 0.661738 0.302402
Si Si3 0.106638 0.473506 0.013833
Si Si4 0.260199 0.452322 0.121118
Si Si5 0.720850 0.008290 0.682083
Si Si6 0.884968 0.501761 0.252847
Si Si7 0.544407 0.484140 0.028027
Si Si8 0.920948 0.658832 0.391517
O O1 0.664536 0.824464 0.501317
O O2 0.651505 0.620109 0.368366
O O3 0.510529 0.647652 0.796001
O O4 0.538699 0.859277 0.602103
O O5 0.270558 0.599866 0.174426
O O6 0.166474 0.642066 0.583708
O O7 0.310788 0.827126 0.218752
O O8 0.344471 0.560340 0.219067
O O9 0.051337 0.324865 0.150413
O O10 0.025761 0.594104 0.184531
O O11 0.177505 0.494149 0.969487
O O12 0.159856 0.471391 0.778586
O O13 0.152037 0.391449 0.357840
O O14 0.274755 0.498480 0.961913
O O15 0.866914 0.630571 0.382999
O O16 0.000000 0.500000 0.000000
O O17 0.500000 0.500000 0.000000
#
# Coordination Sequence:
#
# PCOD8127808 Si02
#       8
#     4   4   4   4   4   4   4   4
#     4  11  24  46  67 104 132 175 224 274 345 399
#     4  10  25  44  67 100 133 179 227 273 335 400
#     4  11  25  38  67  93 131 178 226 272 335 400
#     4  10  24  45  65  95 143 172 223 284 329 399
#     4  12  26  40  71  99 133 182 225 275 338 401
#     4   9  22  43  66  89 137 175 220 279 330 387
#     4  11  25  44  74  97 136 177 220 280 337 404
#     4  10  23  42  61  95 131 176 226 278 330 398
#
# _framework density 21.376605000000001
#
# number of rings (size 3 to 8) (size 9 to 14) (size 15 to 20)
#    0.000    1.500    1.250    1.500   10.500    3.500 
#    0.000    4.375    0.000    0.000    0.000    0.000 
#    0.000    0.000    0.000    0.000    0.000    0.000 
#
# Total GULP energy -396544.774610 kJ/mol
# GULP energy per Si atom -12392.024207 kJ/mol
# Density = 2.132795 g / cm^3
# Si number density = 21.376605 Si / 1000 Ang^3
#
#
#
# Elastic Constant Matrix: (Units=GPa)
#
#
# Indices 1 2 3 4 5 6 
#
# 1 236.1540 76.7464 15.4604 0.0000 -16.1161 0.0000
# 2 76.7464 156.2204 42.1715 0.0000 16.3027 0.0000
# 3 15.4604 42.1715 110.4538 0.0000 17.5904 0.0000
# 4 0.0000 0.0000 0.0000 33.0301 0.0000 -4.6124
# 5 -16.1161 16.3027 17.5904 0.0000 32.9467 0.0000
# 6 0.0000 0.0000 0.0000 -4.6124 0.0000 23.5028
#
#
#
# Elastic Compliance Matrix: (Units=1/GPa)
#
#
# Indices 1 2 3 4 5 6 
#
# 1 0.005569 -0.003118 -0.000293 0.000000 0.004424 0.000000
# 2 -0.003118 0.009042 -0.002252 0.000000 -0.004797 0.000000
# 3 -0.000293 -0.002252 0.010710 0.000000 -0.004748 0.000000
# 4 0.000000 0.000000 0.000000 0.031128 0.000000 0.006109
# 5 0.004424 -0.004797 -0.004748 0.000000 0.037425 0.000000
# 6 0.000000 0.000000 0.000000 0.006109 0.000000 0.043747
#
#
# Mechanical properties :
#
#
# Convention : Reuss Voigt Hill
#
# Bulk Modulus (GPa) = 71.45818 85.73167 78.59493
# Shear Modulus (GPa) = 32.54938 42.45924 37.50431
#
# Velocity S-wave (km/s) = 3.90637 4.46157 4.19317
# Velocity P-wave (km/s) = 7.33805 8.16904 7.76467
#
# Compressibility (1/GPa) = 0.01399420
#
# Stress axis : x y z
#
# Youngs Moduli (GPa) = 179.56377 110.59964 93.36709
#
# Poissons Ratio (x) = 0.34489 0.02740
# Poissons Ratio (y) = 0.55994 0.21023
# Poissons Ratio (z) = 0.05269 0.24903
#
# Static dielectric constant tensor:
#      x y z
#    x 4.063170 0.000000 0.078570 
#    y 0.000000 2.989820 0.000000 
#    z 0.078570 0.000000 3.839740 
# 
# 
# High freq. dielectric constant tensor:
#      x y z
#    x 1.844180 0.000000 -0.000770 
#    y 0.000000 1.848120 0.000000 
#    z -0.000770 0.000000 1.838790 
# 
# From -- ./inp_files/36471.got.cif
#   From: 2010.03.12/outbox.cif.g09.slc.cpg/sg14_19_cif.got.tgz:36471.got - 2010.03.31 13:35:05.
