data_PCOD8127434
_publ_section_title
;
Structure prediction by ZEFSAII (Michael W. Deem and Ramdas Pophale) SiO2 
 PCOD8127434
Probable space group: P 21/C
;
_chemical_formula_sum "Si O2"
_cell_formula_units_Z 28
_cell_length_a 8.961144
_cell_length_b 8.071661
_cell_length_c 27.638776
_cell_angle_alpha 90.000000
_cell_angle_beta 140.468842
_cell_angle_gamma 90.000000
_cell_volume 1272.453862
_symmetry_space_group_name_H-M "P 21/C"
_symmetry_group_IT_number 14
_symmetry_cell_setting 'monoclinic'
loop_
_space_group_symop_operation_xyz
x,y,z
-x,1/2+y,1/2-z
-x,-y,-z
x,1/2-y,1/2+z
loop_
_atom_site_type_symbol
_atom_site_label
_atom_site_fract_x
_atom_site_fract_y
_atom_site_fract_z
Si Si1 0.193015 0.424769 0.240200
Si Si2 0.817554 0.688706 0.177882
Si Si3 0.247129 0.046712 0.917328
Si Si4 0.864494 0.706583 0.515644
Si Si5 0.384554 0.965040 0.524056
Si Si6 0.006882 0.259456 0.608231
Si Si7 0.285787 0.492856 0.606458
O O1 0.145530 0.256903 0.258840
O O2 0.464086 0.467792 0.309747
O O3 0.045474 0.584918 0.219778
O O4 0.136652 0.387049 0.169791
O O5 0.767048 0.858857 0.136544
O O6 0.590766 0.572111 0.113977
O O7 0.135575 0.170713 0.927902
O O8 0.090221 0.882688 0.874774
O O9 0.500000 0.000000 0.000000
O O10 0.691909 0.585703 0.441768
O O11 0.130138 0.662560 0.564347
O O12 0.772915 0.893780 0.489555
O O13 0.213980 0.809137 0.476941
O O14 0.500000 0.000000 0.500000
O O15 0.172650 0.351807 0.611987
#
# Coordination Sequence:
#
# PCOD8127434 Si02
#       7
#     4   4   4   4   4   4   4
#     4  12  27  46  63 101 139 175 222 273 347 402
#     4  12  26  42  71 101 138 175 222 285 345 400
#     4  11  19  38  70  97 132 170 219 280 333 396
#     4  10  22  42  68  96 129 173 233 269 335 396
#     4  12  22  43  71 105 129 170 230 289 330 398
#     4  11  24  43  67  99 132 179 225 269 340 399
#     4  10  26  45  66  92 137 186 217 275 332 414
#
# _framework density 22.004729000000001
#
# number of rings (size 3 to 8) (size 9 to 14) (size 15 to 20)
#    0.000    0.857    4.286    1.714    6.000    4.000 
#    2.571    0.000    0.000    0.000    0.000    0.000 
#    0.000    0.000    0.000    0.000    0.000    0.000 
#
# Total GULP energy -347047.775381 kJ/mol
# GULP energy per Si atom -12394.563406 kJ/mol
# Density = 2.195464 g / cm^3
# Si number density = 22.004729 Si / 1000 Ang^3
#
#
#
# Elastic Constant Matrix: (Units=GPa)
#
#
# Indices 1 2 3 4 5 6 
#
# 1 61.5350 35.7669 19.3688 0.0000 12.8289 0.0000
# 2 35.7669 108.2871 20.7396 0.0000 20.6344 0.0000
# 3 19.3688 20.7396 87.7924 0.0000 21.2907 0.0000
# 4 0.0000 0.0000 0.0000 45.6603 0.0000 -1.6814
# 5 12.8289 20.6344 21.2907 0.0000 37.7844 0.0000
# 6 0.0000 0.0000 0.0000 -1.6814 0.0000 45.7203
#
#
#
# Elastic Compliance Matrix: (Units=1/GPa)
#
#
# Indices 1 2 3 4 5 6 
#
# 1 0.021068 -0.005996 -0.002654 0.000000 -0.002383 0.000000
# 2 -0.005996 0.012132 -0.000498 0.000000 -0.004309 0.000000
# 3 -0.002654 -0.000498 0.013678 0.000000 -0.006534 0.000000
# 4 0.000000 0.000000 0.000000 0.021931 0.000000 0.000807
# 5 -0.002383 -0.004309 -0.006534 0.000000 0.033310 0.000000
# 6 0.000000 0.000000 0.000000 0.000807 0.000000 0.021902
#
#
# Mechanical properties :
#
#
# Convention : Reuss Voigt Hill
#
# Bulk Modulus (GPa) = 34.98679 45.48501 40.23590
# Shear Modulus (GPa) = 32.92839 37.94895 35.43867
#
# Velocity S-wave (km/s) = 3.87256 4.15731 4.01746
# Velocity P-wave (km/s) = 5.99415 6.61512 6.31227
#
# Compressibility (1/GPa) = 0.02858222
#
# Stress axis : x y z
#
# Youngs Moduli (GPa) = 47.46429 82.42839 73.10853
#
# Poissons Ratio (x) = 0.49428 0.19400
# Poissons Ratio (y) = 0.28462 0.03642
# Poissons Ratio (z) = 0.12595 0.04106
#
# Static dielectric constant tensor:
#      x y z
#    x 3.863470 0.000000 -0.052790 
#    y 0.000000 4.019730 0.000000 
#    z -0.052790 0.000000 4.125460 
# 
# 
# High freq. dielectric constant tensor:
#      x y z
#    x 1.856640 0.000000 -0.000440 
#    y 0.000000 1.870410 0.000000 
#    z -0.000440 0.000000 1.873520 
# 
# From -- ./inp_files/76394.got.cif
#   From: 2010.03.12/outbox.cif.g09.slc.cpg/sg14_39_cif.got.tgz:76394.got - 2010.03.31 13:35:05.
