data_PCOD8127320
_publ_section_title
;
Structure prediction by ZEFSAII (Michael W. Deem and Ramdas Pophale) SiO2 
 PCOD8127320
Probable space group: P 21/C
;
_chemical_formula_sum "Si O2"
_cell_formula_units_Z 28
_cell_length_a 26.649107
_cell_length_b 7.810017
_cell_length_c 10.632643
_cell_angle_alpha 90.000000
_cell_angle_beta 145.652372
_cell_angle_gamma 90.000000
_cell_volume 1248.586465
_symmetry_space_group_name_H-M "P 21/C"
_symmetry_group_IT_number 14
_symmetry_cell_setting 'monoclinic'
loop_
_space_group_symop_operation_xyz
x,y,z
-x,1/2+y,1/2-z
-x,-y,-z
x,1/2-y,1/2+z
loop_
_atom_site_type_symbol
_atom_site_label
_atom_site_fract_x
_atom_site_fract_y
_atom_site_fract_z
Si Si1 0.268547 0.009243 0.252827
Si Si2 0.561573 0.119142 0.480715
Si Si3 0.818066 0.977360 0.671727
Si Si4 0.597671 0.118539 0.834410
Si Si5 0.773647 0.127529 0.329618
Si Si6 0.079856 0.681299 0.053575
Si Si7 0.113295 0.353494 0.285071
O O1 0.369984 0.037056 0.414960
O O2 0.259984 0.020422 0.386037
O O3 0.247062 0.816606 0.162228
O O4 0.199750 0.144109 0.052848
O O5 0.588476 0.196665 0.674052
O O6 0.564798 0.256770 0.376426
O O7 0.461159 0.052348 0.280940
O O8 0.770370 0.996950 0.438567
O O9 0.886704 0.132166 0.835175
O O10 0.871247 0.796877 0.785314
O O11 0.700922 0.070151 0.074037
O O12 0.872517 0.124115 0.476046
O O13 0.101376 0.540559 0.202780
O O14 0.973836 0.690569 0.812032
#
# Coordination Sequence:
#
# PCOD8127320 Si02
#       7
#     4   4   4   4   4   4   4
#     4  10  23  43  65  93 130 173 223 279 334 413
#     4  10  23  44  68  99 137 171 228 275 342 407
#     4  11  24  42  64  98 128 180 224 278 336 406
#     4  10  23  42  69  99 132 181 217 283 338 405
#     4  10  22  41  68  87 134 177 220 272 347 391
#     4  10  23  42  62  92 130 176 217 283 330 399
#     4  11  23  40  64  92 132 171 227 273 337 393
#
# _framework density 22.425359
#
# number of rings (size 3 to 8) (size 9 to 14) (size 15 to 20)
#    0.000    1.714    1.429    1.286   12.000    5.143 
#    5.143    0.000    0.000    0.000    0.000    0.000 
#    0.000    0.000    0.000    0.000    0.000    0.000 
#
# Total GULP energy -347101.998757 kJ/mol
# GULP energy per Si atom -12396.499956 kJ/mol
# Density = 2.237432 g / cm^3
# Si number density = 22.425359 Si / 1000 Ang^3
#
#
#
# Elastic Constant Matrix: (Units=GPa)
#
#
# Indices 1 2 3 4 5 6 
#
# 1 102.7869 19.6695 23.3089 0.0000 -14.0358 0.0000
# 2 19.6695 60.9923 26.5599 0.0000 -3.8307 0.0000
# 3 23.3089 26.5599 84.3811 0.0000 -15.5709 0.0000
# 4 0.0000 0.0000 0.0000 25.3544 0.0000 2.2922
# 5 -14.0358 -3.8307 -15.5709 0.0000 40.2841 0.0000
# 6 0.0000 0.0000 0.0000 2.2922 0.0000 22.9198
#
#
#
# Elastic Compliance Matrix: (Units=1/GPa)
#
#
# Indices 1 2 3 4 5 6 
#
# 1 0.011014 -0.002641 -0.001669 0.000000 0.002942 0.000000
# 2 -0.002641 0.019644 -0.005684 0.000000 -0.001249 0.000000
# 3 -0.001669 -0.005684 0.014961 0.000000 0.004661 0.000000
# 4 0.000000 0.000000 0.000000 0.039801 0.000000 -0.003980
# 5 0.002942 -0.001249 0.004661 0.000000 0.027531 0.000000
# 6 0.000000 0.000000 0.000000 -0.003980 0.000000 0.044029
#
#
# Mechanical properties :
#
#
# Convention : Reuss Voigt Hill
#
# Bulk Modulus (GPa) = 39.01292 43.02630 41.01961
# Shear Modulus (GPa) = 26.95259 29.61979 28.28619
#
# Velocity S-wave (km/s) = 3.47058 3.63825 3.55540
# Velocity P-wave (km/s) = 5.78744 6.07266 5.93176
#
# Compressibility (1/GPa) = 0.02563253
#
# Stress axis : x y z
#
# Youngs Moduli (GPa) = 90.79158 50.90633 66.83969
#
# Poissons Ratio (x) = 0.13443 0.11152
# Poissons Ratio (y) = 0.23975 0.37993
# Poissons Ratio (z) = 0.15149 0.28936
#
# Static dielectric constant tensor:
#      x y z
#    x 4.384840 0.000000 0.226150 
#    y 0.000000 3.834190 0.000000 
#    z 0.226150 0.000000 4.041600 
# 
# 
# High freq. dielectric constant tensor:
#      x y z
#    x 1.899440 0.000000 0.002120 
#    y 0.000000 1.864280 0.000000 
#    z 0.002120 0.000000 1.874030 
# 
# From -- ./inp_files/19677.got.cif
#   From: 2010.03.12/outbox.cif.g09.slc.cpg/sg14_10_cif.got.tgz:19677.got - 2010.03.31 13:35:05.
