data_PCOD8127192
_publ_section_title
;
Structure prediction by ZEFSAII (Michael W. Deem and Ramdas Pophale) SiO2 
 PCOD8127192
Probable space group: P 21/C
;
_chemical_formula_sum "Si O2"
_cell_formula_units_Z 32
_cell_length_a 17.273681
_cell_length_b 4.950391
_cell_length_c 14.512325
_cell_angle_alpha 90.000000
_cell_angle_beta 89.457576
_cell_angle_gamma 90.000000
_cell_volume 1240.914705
_symmetry_space_group_name_H-M "P 21/C"
_symmetry_group_IT_number 14
_symmetry_cell_setting 'monoclinic'
loop_
_space_group_symop_operation_xyz
x,y,z
-x,1/2+y,1/2-z
-x,-y,-z
x,1/2-y,1/2+z
loop_
_atom_site_type_symbol
_atom_site_label
_atom_site_fract_x
_atom_site_fract_y
_atom_site_fract_z
Si Si1 0.702676 0.846425 0.892585
Si Si2 0.202858 0.244527 0.438356
Si Si3 0.251576 0.969915 0.760543
Si Si4 0.058012 0.248830 0.843382
Si Si5 0.391241 0.661902 0.056041
Si Si6 0.096997 0.746882 0.728225
Si Si7 0.478797 0.244623 0.308256
Si Si8 0.659313 0.414985 0.134396
O O1 0.726579 0.749148 0.790382
O O2 0.635402 0.647945 0.931143
O O3 0.669437 0.148837 0.887794
O O4 0.776887 0.844972 0.959537
O O5 0.217693 0.474163 0.361990
O O6 0.109802 0.184376 0.434198
O O7 0.257733 0.994093 0.410248
O O8 0.186176 0.812984 0.699527
O O9 0.326946 0.782991 0.778604
O O10 0.092902 0.438720 0.762150
O O11 0.964847 0.293607 0.855783
O O12 0.069944 0.940916 0.811559
O O13 0.476624 0.708091 0.095266
O O14 0.389918 0.733348 0.946740
O O15 0.484694 0.548063 0.270264
O O16 0.388872 0.173040 0.327429
#
# Coordination Sequence:
#
# PCOD8127192 Si02
#       8
#     4   4   4   4   4   4   4   4
#     4  11  25  40  66  97 131 170 225 276 322 391
#     4  10  22  40  63  96 127 172 221 269 327 387
#     4  11  22  39  67  95 133 172 223 272 330 387
#     4   9  17  33  58  87 131 168 215 265 320 384
#     4  11  25  47  64  95 131 171 217 271 334 395
#     4   9  18  32  57  93 123 173 216 259 324 389
#     4  12  28  44  68  98 130 169 217 273 334 397
#     4  11  24  43  69  93 129 174 221 269 336 395
#
# _framework density 25.787430000000001
#
# number of rings (size 3 to 8) (size 9 to 14) (size 15 to 20)
#    0.000    1.500    2.500    1.875    7.000    0.000 
#    0.000    3.750    0.000    0.000    0.000   12.250 
#    0.000    0.000    0.000    0.250    0.000    0.000 
#
# Total GULP energy -396665.187892 kJ/mol
# GULP energy per Si atom -12395.787122 kJ/mol
# Density = 2.572874 g / cm^3
# Si number density = 25.787430 Si / 1000 Ang^3
#
#
#
# Elastic Constant Matrix: (Units=GPa)
#
#
# Indices 1 2 3 4 5 6 
#
# 1 118.2706 -1.2777 38.0997 0.0000 46.8355 0.0000
# 2 -1.2777 55.4450 0.7393 0.0000 10.3381 0.0000
# 3 38.0997 0.7393 83.7393 0.0000 28.7852 0.0000
# 4 0.0000 0.0000 0.0000 26.5414 0.0000 4.1721
# 5 46.8355 10.3381 28.7852 0.0000 44.0709 0.0000
# 6 0.0000 0.0000 0.0000 4.1721 0.0000 30.1765
#
#
#
# Elastic Compliance Matrix: (Units=1/GPa)
#
#
# Indices 1 2 3 4 5 6 
#
# 1 0.015366 0.003389 -0.001463 0.000000 -0.016170 0.000000
# 2 0.003389 0.019808 0.001442 0.000000 -0.009190 0.000000
# 3 -0.001463 0.001442 0.015702 0.000000 -0.009039 0.000000
# 4 0.000000 0.000000 0.000000 0.038514 0.000000 -0.005325
# 5 -0.016170 -0.009190 -0.009039 0.000000 0.047935 0.000000
# 6 0.000000 0.000000 0.000000 -0.005325 0.000000 0.033875
#
#
# Mechanical properties :
#
#
# Convention : Reuss Voigt Hill
#
# Bulk Modulus (GPa) = 17.35738 36.95305 27.15522
# Shear Modulus (GPa) = 27.22304 34.81733 31.02018
#
# Velocity S-wave (km/s) = 3.25263 3.67845 3.47207
# Velocity P-wave (km/s) = 4.56637 5.69230 5.16014
#
# Compressibility (1/GPa) = 0.05761239
#
# Stress axis : x y z
#
# Youngs Moduli (GPa) = 65.07758 50.48404 63.68599
#
# Poissons Ratio (x) = -0.17107 0.09317
# Poissons Ratio (y) = -0.22052 -0.09186
# Poissons Ratio (z) = 0.09521 -0.07282
#
# Static dielectric constant tensor:
#      x y z
#    x 5.050740 0.000000 0.714640 
#    y 0.000000 4.466740 0.000000 
#    z 0.714640 0.000000 4.404650 
# 
# 
# High freq. dielectric constant tensor:
#      x y z
#    x 2.037690 0.000000 0.046120 
#    y 0.000000 2.032220 0.000000 
#    z 0.046120 0.000000 1.998250 
# 
# From -- ./inp_files/48169.got.cif
#   From: 2010.03.12/outbox.cif.g09.slc.cpg/sg14_25_cif.got.tgz:48169.got - 2010.03.31 13:35:05.
