data_PCOD8127257
_publ_section_title
;
Structure prediction by ZEFSAII (Michael W. Deem and Ramdas Pophale) SiO2 
 PCOD8127257
Probable space group: P 21/C
;
_chemical_formula_sum "Si O2"
_cell_formula_units_Z 28
_cell_length_a 7.836756
_cell_length_b 12.135445
_cell_length_c 19.502038
_cell_angle_alpha 90.000000
_cell_angle_beta 48.051565
_cell_angle_gamma 90.000000
_cell_volume 1379.421840
_symmetry_space_group_name_H-M "P 21/C"
_symmetry_group_IT_number 14
_symmetry_cell_setting 'monoclinic'
loop_
_space_group_symop_operation_xyz
x,y,z
-x,1/2+y,1/2-z
-x,-y,-z
x,1/2-y,1/2+z
loop_
_atom_site_type_symbol
_atom_site_label
_atom_site_fract_x
_atom_site_fract_y
_atom_site_fract_z
Si Si1 0.893208 0.449674 0.235497
Si Si2 0.956902 0.775645 0.852341
Si Si3 0.942786 0.401781 0.464174
Si Si4 0.190986 0.990051 0.776394
Si Si5 0.719314 0.487488 0.134612
Si Si6 0.062391 0.181515 0.497586
Si Si7 0.440299 0.066182 0.083452
O O1 0.866154 0.497246 0.165658
O O2 0.653774 0.476770 0.337161
O O3 0.936411 0.318579 0.224476
O O4 0.108944 0.503273 0.218767
O O5 0.742980 0.836185 0.874811
O O6 0.160331 0.864240 0.810953
O O7 0.864518 0.721828 0.946909
O O8 0.673515 0.378553 0.546037
O O9 0.000000 0.500000 0.500000
O O10 0.018150 0.433728 0.366998
O O11 0.064077 0.287212 0.448468
O O12 0.449361 0.030705 0.718879
O O13 0.747163 0.598268 0.082916
O O14 0.817338 0.382231 0.066546
O O15 0.500000 0.000000 0.000000
#
# Coordination Sequence:
#
# PCOD8127257 Si02
#       7
#     4   4   4   4   4   4   4
#     4  10  23  42  62  95 130 163 215 260 317 383
#     4  10  22  41  61  92 130 166 208 267 315 379
#     4  12  22  39  65  95 122 164 216 259 318 380
#     4  11  23  41  64  95 124 164 216 259 322 376
#     4  10  24  45  64  91 130 171 207 263 316 382
#     4  10  23  44  64  91 128 166 215 256 319 383
#     4  11  21  40  64  92 129 161 210 266 313 373
#
# _framework density 20.298359000000001
#
# number of rings (size 3 to 8) (size 9 to 14) (size 15 to 20)
#    0.000    1.429    4.286    0.857    2.000    6.857 
#    2.571    2.143    0.000    0.000    0.000    0.000 
#    0.000    0.000    0.000    0.000    0.000    0.000 
#
# Total GULP energy -347135.514667 kJ/mol
# GULP energy per Si atom -12397.696952 kJ/mol
# Density = 2.025216 g / cm^3
# Si number density = 20.298359 Si / 1000 Ang^3
#
#
#
# Elastic Constant Matrix: (Units=GPa)
#
#
# Indices 1 2 3 4 5 6 
#
# 1 90.1814 26.7235 31.9570 0.0000 -6.9790 0.0000
# 2 26.7235 130.1051 49.0428 0.0000 3.4962 0.0000
# 3 31.9570 49.0428 99.7390 0.0000 -6.7365 0.0000
# 4 0.0000 0.0000 0.0000 32.3765 0.0000 8.5094
# 5 -6.9790 3.4962 -6.7365 0.0000 39.4310 0.0000
# 6 0.0000 0.0000 0.0000 8.5094 0.0000 27.6299
#
#
#
# Elastic Compliance Matrix: (Units=1/GPa)
#
#
# Indices 1 2 3 4 5 6 
#
# 1 0.012820 -0.001450 -0.003270 0.000000 0.001839 0.000000
# 2 -0.001450 0.009706 -0.004435 0.000000 -0.001875 0.000000
# 3 -0.003270 -0.004435 0.013397 0.000000 0.002103 0.000000
# 4 0.000000 0.000000 0.000000 0.033607 0.000000 -0.010350
# 5 0.001839 -0.001875 0.002103 0.000000 0.026212 0.000000
# 6 0.000000 0.000000 0.000000 -0.010350 0.000000 0.039380
#
#
# Mechanical properties :
#
#
# Convention : Reuss Voigt Hill
#
# Bulk Modulus (GPa) = 56.77784 59.49691 58.13738
# Shear Modulus (GPa) = 31.38706 34.04097 32.71402
#
# Velocity S-wave (km/s) = 3.93655 4.09960 4.01890
# Velocity P-wave (km/s) = 6.97813 7.19609 7.08795
#
# Compressibility (1/GPa) = 0.01761250
#
# Stress axis : x y z
#
# Youngs Moduli (GPa) = 78.00565 103.03044 74.64572
#
# Poissons Ratio (x) = 0.14937 0.24412
# Poissons Ratio (y) = 0.11309 0.33102
# Poissons Ratio (z) = 0.25511 0.45690
#
# Static dielectric constant tensor:
#      x y z
#    x 3.827580 0.000000 -0.023010 
#    y 0.000000 3.851380 0.000000 
#    z -0.023010 0.000000 3.883860 
# 
# 
# High freq. dielectric constant tensor:
#      x y z
#    x 1.785340 0.000000 0.005440 
#    y 0.000000 1.797320 0.000000 
#    z 0.005440 0.000000 1.795170 
# 
# From -- ./inp_files/65535.got.cif
#   From: 2010.03.12/outbox.cif.g09.slc.cpg/sg14_33_cif.got.tgz:65535.got - 2010.03.31 13:35:05.
