data_PCOD8127208
_publ_section_title
;
Structure prediction by ZEFSAII (Michael W. Deem and Ramdas Pophale) SiO2 
 PCOD8127208
Probable space group: P 21/C
;
_chemical_formula_sum "Si O2"
_cell_formula_units_Z 16
_cell_length_a 8.739177
_cell_length_b 8.564632
_cell_length_c 13.790121
_cell_angle_alpha 90.000000
_cell_angle_beta 55.440489
_cell_angle_gamma 90.000000
_cell_volume 850.022980
_symmetry_space_group_name_H-M "P 21/C"
_symmetry_group_IT_number 14
_symmetry_cell_setting 'monoclinic'
loop_
_space_group_symop_operation_xyz
x,y,z
-x,1/2+y,1/2-z
-x,-y,-z
x,1/2-y,1/2+z
loop_
_atom_site_type_symbol
_atom_site_label
_atom_site_fract_x
_atom_site_fract_y
_atom_site_fract_z
Si Si1 0.410853 0.148746 0.983009
Si Si2 0.119381 0.332253 0.209474
Si Si3 0.243151 0.660195 0.192001
Si Si4 0.809851 0.544211 0.619450
O O1 0.560867 0.286387 0.921318
O O2 0.342320 0.103313 0.900960
O O3 0.240521 0.205386 0.109478
O O4 0.500000 0.000000 0.000000
O O5 0.169370 0.509285 0.157361
O O6 0.153828 0.319691 0.313432
O O7 0.903705 0.300981 0.264238
O O8 0.265943 0.610173 0.296961
O O9 0.000000 0.500000 0.500000
#
# Coordination Sequence:
#
# PCOD8127208 Si02
#       4
#     4   4   4   4
#     4  12  23  41  67  94 130 171 213 267 313 382
#     4  10  22  41  64  92 130 167 211 264 318 377
#     4  10  22  40  65  93 129 168 210 264 319 377
#     4  10  22  40  65  89 132 161 214 255 322 374
#
# _framework density 18.823021000000001
#
# number of rings (size 3 to 8) (size 9 to 14) (size 15 to 20)
#    1.500    0.000    2.500    3.750    3.500    0.000 
#    0.000    1.250    0.000    0.000    0.000    0.000 
#    0.000    0.000    0.000    0.000    0.000    0.000 
#
# Total GULP energy -198324.323008 kJ/mol
# GULP energy per Si atom -12395.270188 kJ/mol
# Density = 1.878018 g / cm^3
# Si number density = 18.823021 Si / 1000 Ang^3
#
#
#
# Elastic Constant Matrix: (Units=GPa)
#
#
# Indices 1 2 3 4 5 6 
#
# 1 102.7548 31.7057 31.8608 0.0000 11.9191 0.0000
# 2 31.7057 72.2445 16.0835 0.0000 11.7423 0.0000
# 3 31.8608 16.0835 89.6180 0.0000 10.6939 0.0000
# 4 0.0000 0.0000 0.0000 37.6136 0.0000 -0.6890
# 5 11.9191 11.7423 10.6939 0.0000 37.5514 0.0000
# 6 0.0000 0.0000 0.0000 -0.6890 0.0000 42.9093
#
#
#
# Elastic Compliance Matrix: (Units=1/GPa)
#
#
# Indices 1 2 3 4 5 6 
#
# 1 0.012326 -0.004397 -0.003406 0.000000 -0.001568 0.000000
# 2 -0.004397 0.016561 -0.000991 0.000000 -0.003501 0.000000
# 3 -0.003406 -0.000991 0.012817 0.000000 -0.002259 0.000000
# 4 0.000000 0.000000 0.000000 0.026594 0.000000 0.000427
# 5 -0.001568 -0.003501 -0.002259 0.000000 0.028866 0.000000
# 6 0.000000 0.000000 0.000000 0.000427 0.000000 0.023312
#
#
# Mechanical properties :
#
#
# Convention : Reuss Voigt Hill
#
# Bulk Modulus (GPa) = 41.46582 47.10191 44.28387
# Shear Modulus (GPa) = 34.22242 35.94599 35.08420
#
# Velocity S-wave (km/s) = 4.26856 4.37473 4.32197
# Velocity P-wave (km/s) = 6.80965 7.11306 6.96301
#
# Compressibility (1/GPa) = 0.02411625
#
# Stress axis : x y z
#
# Youngs Moduli (GPa) = 81.12615 60.38248 78.02198
#
# Poissons Ratio (x) = 0.26548 0.26576
# Poissons Ratio (y) = 0.35668 0.07735
# Poissons Ratio (z) = 0.27633 0.05986
#
# Static dielectric constant tensor:
#      x y z
#    x 3.422030 0.000000 0.018790 
#    y 0.000000 3.349820 0.000000 
#    z 0.018790 0.000000 3.509520 
# 
# 
# High freq. dielectric constant tensor:
#      x y z
#    x 1.730180 0.000000 -0.010320 
#    y 0.000000 1.724660 0.000000 
#    z -0.010320 0.000000 1.734440 
# 
# From -- ./inp_files/22567.got.cif
#   From: 2010.03.12/outbox.cif.g09.slc.cpg/sg14_12_cif.got.tgz:22567.got - 2010.03.31 13:35:05.
