data_PCOD8127070
_publ_section_title
;
Structure prediction by ZEFSAII (Michael W. Deem and Ramdas Pophale) SiO2 
 PCOD8127070
Probable space group: P 21/C
;
_chemical_formula_sum "Si O2"
_cell_formula_units_Z 16
_cell_length_a 4.900063
_cell_length_b 14.318354
_cell_length_c 8.687216
_cell_angle_alpha 90.000000
_cell_angle_beta 92.802623
_cell_angle_gamma 90.000000
_cell_volume 608.773317
_symmetry_space_group_name_H-M "P 21/C"
_symmetry_group_IT_number 14
_symmetry_cell_setting 'monoclinic'
loop_
_space_group_symop_operation_xyz
x,y,z
-x,1/2+y,1/2-z
-x,-y,-z
x,1/2-y,1/2+z
loop_
_atom_site_type_symbol
_atom_site_label
_atom_site_fract_x
_atom_site_fract_y
_atom_site_fract_z
Si Si1 0.695096 0.874106 0.224069
Si Si2 0.387945 0.627152 0.132954
Si Si3 0.810219 0.476045 0.143467
Si Si4 0.455764 0.214715 0.075566
O O1 0.403123 0.909905 0.274031
O O2 0.746653 0.777118 0.320952
O O3 0.907858 0.957332 0.260966
O O4 0.708782 0.855704 0.040775
O O5 0.695325 0.581967 0.139784
O O6 0.335258 0.654637 0.309492
O O7 0.174099 0.555998 0.040864
O O8 0.368280 0.721120 0.033366
#
# Coordination Sequence:
#
# PCOD8127070 Si02
#       4
#     4   4   4   4
#     4  10  22  39  60  86 117 154 194 238 288 342
#     4   9  20  38  61  86 118 154 193 238 289 344
#     4  10  22  40  61  86 117 153 193 239 289 341
#     4   9  20  39  60  87 118 153 194 239 288 343
#
# _framework density 26.282364000000001
#
# number of rings (size 3 to 8) (size 9 to 14) (size 15 to 20)
#    0.000    2.500    0.000    0.000    0.000   19.000 
#    0.000   12.500    0.000    0.000    0.000    0.000 
#    0.000    0.000    0.000    0.000    0.000    0.000 
#
# Total GULP energy -198237.307267 kJ/mol
# GULP energy per Si atom -12389.831704 kJ/mol
# Density = 2.622254 g / cm^3
# Si number density = 26.282364 Si / 1000 Ang^3
#
#
#
# Elastic Constant Matrix: (Units=GPa)
#
#
# Indices 1 2 3 4 5 6 
#
# 1 42.7764 3.0544 31.4286 0.0000 6.3966 0.0000
# 2 3.0544 103.4231 69.5887 0.0000 6.4944 0.0000
# 3 31.4286 69.5887 230.9943 0.0000 9.6451 0.0000
# 4 0.0000 0.0000 0.0000 58.4474 0.0000 15.5297
# 5 6.3966 6.4944 9.6451 0.0000 26.0820 0.0000
# 6 0.0000 0.0000 0.0000 15.5297 0.0000 20.7755
#
#
#
# Elastic Compliance Matrix: (Units=1/GPa)
#
#
# Indices 1 2 3 4 5 6 
#
# 1 0.027119 0.002357 -0.004162 0.000000 -0.005699 0.000000
# 2 0.002357 0.012406 -0.003966 0.000000 -0.002201 0.000000
# 3 -0.004162 -0.003966 0.006101 0.000000 -0.000248 0.000000
# 4 0.000000 0.000000 0.000000 0.021350 0.000000 -0.015959
# 5 -0.005699 -0.002201 -0.000248 0.000000 0.040378 0.000000
# 6 0.000000 0.000000 0.000000 -0.015959 0.000000 0.060063
#
#
# Mechanical properties :
#
#
# Convention : Reuss Voigt Hill
#
# Bulk Modulus (GPa) = 29.33917 65.03747 47.18832
# Shear Modulus (GPa) = 26.27151 39.26911 32.77031
#
# Velocity S-wave (km/s) = 3.16505 3.86958 3.53491
# Velocity P-wave (km/s) = 4.95420 6.69061 5.88678
#
# Compressibility (1/GPa) = 0.03408413
#
# Stress axis : x y z
#
# Youngs Moduli (GPa) = 36.87434 80.60377 163.91777
#
# Poissons Ratio (x) = -0.19001 0.68222
# Poissons Ratio (y) = -0.08693 0.65016
# Poissons Ratio (z) = 0.15347 0.31970
#
# Static dielectric constant tensor:
#      x y z
#    x 4.195230 0.000000 0.013650 
#    y 0.000000 5.105530 0.000000 
#    z 0.013650 0.000000 5.239200 
# 
# 
# High freq. dielectric constant tensor:
#      x y z
#    x 2.009550 0.000000 -0.001320 
#    y 0.000000 2.071370 0.000000 
#    z -0.001320 0.000000 2.071110 
# 
# From -- ./inp_files/5013.got.cif
#   From: 2010.03.12/outbox.cif.g09.slc.cpg/sg14_3_cif.got.tgz:5013.got - 2010.03.31 13:35:05.
