data_PCOD8127447
_publ_section_title
;
Structure prediction by ZEFSAII (Michael W. Deem and Ramdas Pophale) SiO2 
 PCOD8127447
Probable space group: P 21/C
;
_chemical_formula_sum "Si O2"
_cell_formula_units_Z 24
_cell_length_a 7.033886
_cell_length_b 9.198443
_cell_length_c 19.925680
_cell_angle_alpha 90.000000
_cell_angle_beta 134.528548
_cell_angle_gamma 90.000000
_cell_volume 919.077428
_symmetry_space_group_name_H-M "P 21/C"
_symmetry_group_IT_number 14
_symmetry_cell_setting 'monoclinic'
loop_
_space_group_symop_operation_xyz
x,y,z
-x,1/2+y,1/2-z
-x,-y,-z
x,1/2-y,1/2+z
loop_
_atom_site_type_symbol
_atom_site_label
_atom_site_fract_x
_atom_site_fract_y
_atom_site_fract_z
Si Si1 0.437969 0.013984 0.347468
Si Si2 0.875221 0.117036 0.620111
Si Si3 0.897261 0.349974 0.517103
Si Si4 0.091217 0.901669 0.152037
Si Si5 0.692428 0.835586 0.166924
Si Si6 0.024033 0.873229 0.564038
O O1 0.289509 0.160932 0.332898
O O2 0.758958 0.027577 0.422629
O O3 0.360200 0.891194 0.382639
O O4 0.346944 0.969629 0.250756
O O5 0.836181 0.269401 0.572631
O O6 0.161981 0.110150 0.728800
O O7 0.832707 0.982014 0.557679
O O8 0.618278 0.379084 0.408618
O O9 0.091059 0.241778 0.520615
O O10 0.029175 0.505684 0.568253
O O11 0.164254 0.735090 0.152280
O O12 0.835497 0.905824 0.137835
#
# Coordination Sequence:
#
# PCOD8127447 Si02
#       6
#     4   4   4   4   4   4
#     4  10  23  41  70  97 130 181 225 273 342 394
#     4  11  23  47  69  95 142 175 230 282 330 412
#     4  11  24  42  71 100 135 178 225 282 341 405
#     4  11  22  44  67  99 138 174 227 288 330 409
#     4  10  22  42  69  99 130 182 225 277 339 396
#     4  11  25  41  68  99 135 179 223 278 344 402
#
# _framework density 26.113140999999999
#
# number of rings (size 3 to 8) (size 9 to 14) (size 15 to 20)
#    0.000    1.333    3.333    1.500    4.667    2.667 
#    3.000    0.000    0.000    0.000    0.000    0.000 
#    0.000    0.000    0.000    0.000    0.000    0.000 
#
# Total GULP energy -297548.469892 kJ/mol
# GULP energy per Si atom -12397.852912 kJ/mol
# Density = 2.605371 g / cm^3
# Si number density = 26.113141 Si / 1000 Ang^3
#
#
#
# Elastic Constant Matrix: (Units=GPa)
#
#
# Indices 1 2 3 4 5 6 
#
# 1 72.9094 7.6848 12.4437 0.0000 -0.6637 0.0000
# 2 7.6848 94.2036 5.4209 0.0000 2.0283 0.0000
# 3 12.4437 5.4209 114.3772 0.0000 -0.5853 0.0000
# 4 0.0000 0.0000 0.0000 48.9455 0.0000 -10.8256
# 5 -0.6637 2.0283 -0.5853 0.0000 24.0259 0.0000
# 6 0.0000 0.0000 0.0000 -10.8256 0.0000 45.1782
#
#
#
# Elastic Compliance Matrix: (Units=1/GPa)
#
#
# Indices 1 2 3 4 5 6 
#
# 1 0.014085 -0.001073 -0.001479 0.000000 0.000444 0.000000
# 2 -0.001073 0.010746 -0.000397 0.000000 -0.000947 0.000000
# 3 -0.001479 -0.000397 0.008924 0.000000 0.000210 0.000000
# 4 0.000000 0.000000 0.000000 0.021574 0.000000 0.005170
# 5 0.000444 -0.000947 0.000210 0.000000 0.041719 0.000000
# 6 0.000000 0.000000 0.000000 0.005170 0.000000 0.023373
#
#
# Mechanical properties :
#
#
# Convention : Reuss Voigt Hill
#
# Bulk Modulus (GPa) = 35.90011 36.95435 36.42723
# Shear Modulus (GPa) = 36.87120 40.69263 38.78192
#
# Velocity S-wave (km/s) = 3.76171 3.95184 3.85794
# Velocity P-wave (km/s) = 5.71358 5.91651 5.81593
#
# Compressibility (1/GPa) = 0.02785507
#
# Stress axis : x y z
#
# Youngs Moduli (GPa) = 70.99593 93.05684 112.05928
#
# Poissons Ratio (x) = 0.09989 0.16577
# Poissons Ratio (y) = 0.07621 0.04453
# Poissons Ratio (z) = 0.10502 0.03698
#
# Static dielectric constant tensor:
#      x y z
#    x 4.487810 0.000000 -0.436750 
#    y 0.000000 4.816980 0.000000 
#    z -0.436750 0.000000 4.898360 
# 
# 
# High freq. dielectric constant tensor:
#      x y z
#    x 2.044480 0.000000 -0.036980 
#    y 0.000000 2.053560 0.000000 
#    z -0.036980 0.000000 2.055050 
# 
# From -- ./inp_files/71997.got.cif
#   From: 2010.03.12/outbox.cif.g09.slc.cpg/sg14_36_cif.got.tgz:71997.got - 2010.03.31 13:35:05.
