data_PCOD8127466
_publ_section_title
;
Structure prediction by ZEFSAII (Michael W. Deem and Ramdas Pophale) SiO2 
 PCOD8127466
Probable space group: P 21/C
;
_chemical_formula_sum "Si O2"
_cell_formula_units_Z 28
_cell_length_a 16.784792
_cell_length_b 9.752527
_cell_length_c 11.314299
_cell_angle_alpha 90.000000
_cell_angle_beta 37.244760
_cell_angle_gamma 90.000000
_cell_volume 1120.920726
_symmetry_space_group_name_H-M "P 21/C"
_symmetry_group_IT_number 14
_symmetry_cell_setting 'monoclinic'
loop_
_space_group_symop_operation_xyz
x,y,z
-x,1/2+y,1/2-z
-x,-y,-z
x,1/2-y,1/2+z
loop_
_atom_site_type_symbol
_atom_site_label
_atom_site_fract_x
_atom_site_fract_y
_atom_site_fract_z
Si Si1 0.017427 0.965262 0.664981
Si Si2 0.178375 0.376127 0.417218
Si Si3 0.569073 0.789041 0.907440
Si Si4 0.651278 0.386838 0.738694
Si Si5 0.048048 0.781851 0.404943
Si Si6 0.750379 0.142112 0.476581
Si Si7 0.484021 0.007327 0.823201
O O1 0.140539 0.966405 0.608518
O O2 0.058520 0.870236 0.508186
O O3 0.990061 0.121304 0.661258
O O4 0.888767 0.899383 0.876236
O O5 0.283836 0.253944 0.299727
O O6 0.251502 0.519113 0.295540
O O7 0.065709 0.335437 0.454471
O O8 0.509632 0.869269 0.866464
O O9 0.480072 0.653761 0.033815
O O10 0.577032 0.879632 0.016958
O O11 0.725424 0.248988 0.612643
O O12 0.617073 0.475791 0.661846
O O13 0.192483 0.718334 0.207517
O O14 0.617165 0.061950 0.604497
#
# Coordination Sequence:
#
# PCOD8127466 Si02
#       7
#     4   4   4   4   4   4   4
#     4  10  22  43  68  95 128 179 225 278 339 395
#     4  11  23  40  65 100 135 166 228 279 330 406
#     4  10  24  43  66  98 132 178 226 278 338 411
#     4  11  24  43  67  99 138 175 222 289 336 403
#     4  10  22  42  73  94 128 182 220 282 342 394
#     4  10  22  43  65  99 135 170 229 280 328 414
#     4  10  24  44  70  97 132 185 222 272 352 404
#
# _framework density 24.979464
#
# number of rings (size 3 to 8) (size 9 to 14) (size 15 to 20)
#    0.000    1.714    1.429    1.286    6.000    3.429 
#    2.571    0.714    0.000    0.000    0.000    0.000 
#    0.000    0.000    0.000    0.000    0.000    0.000 
#
# Total GULP energy -347276.728642 kJ/mol
# GULP energy per Si atom -12402.740309 kJ/mol
# Density = 2.492261 g / cm^3
# Si number density = 24.979464 Si / 1000 Ang^3
#
#
#
# Elastic Constant Matrix: (Units=GPa)
#
#
# Indices 1 2 3 4 5 6 
#
# 1 15.8532 16.5250 6.9078 0.0000 -7.0379 0.0000
# 2 16.5250 88.9368 28.2840 0.0000 -4.6306 0.0000
# 3 6.9078 28.2840 126.6154 0.0000 -12.6368 0.0000
# 4 0.0000 0.0000 0.0000 42.2480 0.0000 0.6422
# 5 -7.0379 -4.6306 -12.6368 0.0000 26.2658 0.0000
# 6 0.0000 0.0000 0.0000 0.6422 0.0000 35.4160
#
#
#
# Elastic Compliance Matrix: (Units=1/GPa)
#
#
# Indices 1 2 3 4 5 6 
#
# 1 0.088436 -0.015570 0.000782 0.000000 0.021328 0.000000
# 2 -0.015570 0.014864 -0.002758 0.000000 -0.002879 0.000000
# 3 0.000782 -0.002758 0.008870 0.000000 0.003991 0.000000
# 4 0.000000 0.000000 0.000000 0.023676 0.000000 -0.000429
# 5 0.021328 -0.002879 0.003991 0.000000 0.045199 0.000000
# 6 0.000000 0.000000 0.000000 -0.000429 0.000000 0.028244
#
#
# Mechanical properties :
#
#
# Convention : Reuss Voigt Hill
#
# Bulk Modulus (GPa) = 12.97403 37.20434 25.08919
# Shear Modulus (GPa) = 18.51338 32.76522 25.63930
#
# Velocity S-wave (km/s) = 2.72535 3.62565 3.20725
# Velocity P-wave (km/s) = 3.88697 5.69679 4.87657
#
# Compressibility (1/GPa) = 0.07707704
#
# Stress axis : x y z
#
# Youngs Moduli (GPa) = 11.30759 67.27528 112.74326
#
# Poissons Ratio (x) = 1.04749 -0.08816
# Poissons Ratio (y) = 0.17606 0.31098
# Poissons Ratio (z) = -0.00884 0.18556
#
# Static dielectric constant tensor:
#      x y z
#    x 4.058420 0.000000 -0.059800 
#    y 0.000000 4.645810 0.000000 
#    z -0.059800 0.000000 4.686900 
# 
# 
# High freq. dielectric constant tensor:
#      x y z
#    x 1.974840 0.000000 -0.005000 
#    y 0.000000 2.003750 0.000000 
#    z -0.005000 0.000000 2.011000 
# 
# From -- ./inp_files/50205.got.cif
#   From: 2010.03.12/outbox.cif.g09.slc.cpg/sg14_26_cif.got.tgz:50205.got - 2010.03.31 13:35:05.
