data_PCOD8127134
_publ_section_title
;
Structure prediction by ZEFSAII (Michael W. Deem and Ramdas Pophale) SiO2 
 PCOD8127134
Probable space group: P 21/C
;
_chemical_formula_sum "Si O2"
_cell_formula_units_Z 24
_cell_length_a 11.824620
_cell_length_b 11.014149
_cell_length_c 22.682572
_cell_angle_alpha 90.000000
_cell_angle_beta 22.375436
_cell_angle_gamma 90.000000
_cell_volume 1124.562551
_symmetry_space_group_name_H-M "P 21/C"
_symmetry_group_IT_number 14
_symmetry_cell_setting 'monoclinic'
loop_
_space_group_symop_operation_xyz
x,y,z
-x,1/2+y,1/2-z
-x,-y,-z
x,1/2-y,1/2+z
loop_
_atom_site_type_symbol
_atom_site_label
_atom_site_fract_x
_atom_site_fract_y
_atom_site_fract_z
Si Si1 0.056356 0.202793 0.139554
Si Si2 0.660891 0.417563 0.316432
Si Si3 0.140133 0.341371 0.729819
Si Si4 0.412488 0.689270 0.924274
Si Si5 0.639869 0.418004 0.628418
Si Si6 0.743866 0.479549 0.705383
O O1 0.969016 0.341683 0.165030
O O2 0.980129 0.175744 0.244476
O O3 0.845656 0.121547 0.201455
O O4 0.403185 0.175289 0.961684
O O5 0.700901 0.526789 0.344094
O O6 0.570267 0.476463 0.297457
O O7 0.380720 0.234036 0.621506
O O8 0.915302 0.327921 0.892612
O O9 0.439649 0.786796 0.858631
O O10 0.504581 0.560502 0.854096
O O11 0.591186 0.416896 0.722135
O O12 0.982227 0.438783 0.447362
#
# Coordination Sequence:
#
# PCOD8127134 Si02
#       6
#     4   4   4   4   4   4
#     4  11  24  41  65  92 131 170 210 264 318 371
#     4  10  24  42  62  95 127 167 213 263 319 373
#     4  11  24  41  66  92 134 165 217 258 314 385
#     4  11  22  41  66  96 123 171 211 260 322 372
#     4   9  21  44  62  93 126 163 210 263 313 375
#     4  10  22  39  67  89 127 167 207 262 317 372
#
# _framework density 21.341632000000001
#
# number of rings (size 3 to 8) (size 9 to 14) (size 15 to 20)
#    0.000    1.667    1.667    1.500    7.000    0.667 
#    0.000    3.333    0.000    0.000    0.000    0.000 
#    0.000    0.000    0.000    0.000    0.000    0.000 
#
# Total GULP energy -297655.038260 kJ/mol
# GULP energy per Si atom -12402.293261 kJ/mol
# Density = 2.129306 g / cm^3
# Si number density = 21.341632 Si / 1000 Ang^3
#
#
#
# Elastic Constant Matrix: (Units=GPa)
#
#
# Indices 1 2 3 4 5 6 
#
# 1 154.1898 41.8216 17.9436 0.0000 -5.2376 0.0000
# 2 41.8216 71.0600 29.1470 0.0000 1.3594 0.0000
# 3 17.9436 29.1470 67.5827 0.0000 -7.5220 0.0000
# 4 0.0000 0.0000 0.0000 40.8502 0.0000 -11.5174
# 5 -5.2376 1.3594 -7.5220 0.0000 19.8732 0.0000
# 6 0.0000 0.0000 0.0000 -11.5174 0.0000 27.5899
#
#
#
# Elastic Compliance Matrix: (Units=1/GPa)
#
#
# Indices 1 2 3 4 5 6 
#
# 1 0.007832 -0.004759 0.000250 0.000000 0.002484 0.000000
# 2 -0.004759 0.020321 -0.008137 0.000000 -0.005724 0.000000
# 3 0.000250 -0.008137 0.019114 0.000000 0.007857 0.000000
# 4 0.000000 0.000000 0.000000 0.027745 0.000000 0.011582
# 5 0.002484 -0.005724 0.007857 0.000000 0.054339 0.000000
# 6 0.000000 0.000000 0.000000 0.011582 0.000000 0.041080
#
#
# Mechanical properties :
#
#
# Convention : Reuss Voigt Hill
#
# Bulk Modulus (GPa) = 45.51043 52.29518 48.90281
# Shear Modulus (GPa) = 24.62449 31.25735 27.94092
#
# Velocity S-wave (km/s) = 3.40048 3.83119 3.62224
# Velocity P-wave (km/s) = 6.06537 6.64287 6.36068
#
# Compressibility (1/GPa) = 0.02197298
#
# Stress axis : x y z
#
# Youngs Moduli (GPa) = 127.68632 49.21047 52.31645
#
# Poissons Ratio (x) = 0.23420 -0.01306
# Poissons Ratio (y) = 0.60768 0.42572
# Poissons Ratio (z) = -0.03188 0.40045
#
# Static dielectric constant tensor:
#      x y z
#    x 3.969800 0.000000 -0.166110 
#    y 0.000000 3.794240 0.000000 
#    z -0.166110 0.000000 3.662180 
# 
# 
# High freq. dielectric constant tensor:
#      x y z
#    x 1.844210 0.000000 -0.012820 
#    y 0.000000 1.838410 0.000000 
#    z -0.012820 0.000000 1.825460 
# 
# From -- ./inp_files/12387.got.cif
#   From: 2010.03.12/outbox.cif.g09.slc.cpg/sg14_7_cif.got.tgz:12387.got - 2010.03.31 13:35:05.
