data_PCOD8127577
_publ_section_title
;
Structure prediction by ZEFSAII (Michael W. Deem and Ramdas Pophale) SiO2 
 PCOD8127577
Probable space group: P 21/C
;
_chemical_formula_sum "Si O2"
_cell_formula_units_Z 32
_cell_length_a 14.922179
_cell_length_b 17.696709
_cell_length_c 11.116276
_cell_angle_alpha 90.000000
_cell_angle_beta 149.378473
_cell_angle_gamma 90.000000
_cell_volume 1495.247153
_symmetry_space_group_name_H-M "P 21/C"
_symmetry_group_IT_number 14
_symmetry_cell_setting 'monoclinic'
loop_
_space_group_symop_operation_xyz
x,y,z
-x,1/2+y,1/2-z
-x,-y,-z
x,1/2-y,1/2+z
loop_
_atom_site_type_symbol
_atom_site_label
_atom_site_fract_x
_atom_site_fract_y
_atom_site_fract_z
Si Si1 0.558871 0.281936 0.349773
Si Si2 0.130078 0.793705 0.391752
Si Si3 0.479663 0.303125 0.995613
Si Si4 0.138394 0.652904 0.548380
Si Si5 0.725073 0.049859 0.358949
Si Si6 0.123897 0.379374 0.544596
Si Si7 0.910251 0.484780 0.662698
Si Si8 0.414650 0.953014 0.065844
O O1 0.760999 0.251872 0.585741
O O2 0.484085 0.257154 0.129338
O O3 0.459189 0.251104 0.353639
O O4 0.551150 0.372189 0.334550
O O5 0.100040 0.740839 0.473220
O O6 0.244194 0.867622 0.552515
O O7 0.936430 0.817773 0.124390
O O8 0.654314 0.354346 0.182105
O O9 0.316305 0.359834 0.813355
O O10 0.087496 0.602438 0.374265
O O11 0.022486 0.623625 0.522537
O O12 0.590612 0.002843 0.287660
O O13 0.631600 0.061388 0.124931
O O14 0.908613 0.004549 0.560190
O O15 0.120319 0.463720 0.489662
O O16 0.747039 0.498552 0.562794
#
# Coordination Sequence:
#
# PCOD8127577 Si02
#       8
#     4   4   4   4   4   4   4   4
#     4  11  23  46  69 100 135 182 225 279 347 398
#     4  10  22  44  67  93 136 177 221 285 338 400
#     4  11  25  43  70 100 136 179 233 277 341 406
#     4  11  23  44  66  94 135 178 221 284 340 405
#     4  10  25  41  67  98 138 181 229 281 337 409
#     4  11  26  40  65 101 128 179 224 280 345 400
#     4  11  24  42  65  98 134 177 228 278 343 412
#     4  11  22  44  67  98 135 183 227 281 342 403
#
# _framework density 21.401143999999999
#
# number of rings (size 3 to 8) (size 9 to 14) (size 15 to 20)
#    0.000    1.250    3.750    2.250    5.250    0.500 
#    0.000    0.000    0.000    0.000    0.000    0.000 
#    0.000    0.000    0.000    0.000    0.000    0.000 
#
# Total GULP energy -396710.747185 kJ/mol
# GULP energy per Si atom -12397.210850 kJ/mol
# Density = 2.135243 g / cm^3
# Si number density = 21.401144 Si / 1000 Ang^3
#
#
#
# Elastic Constant Matrix: (Units=GPa)
#
#
# Indices 1 2 3 4 5 6 
#
# 1 108.2315 32.6366 31.7273 0.0000 2.2947 0.0000
# 2 32.6366 99.5732 16.7068 0.0000 9.0296 0.0000
# 3 31.7273 16.7068 84.0553 0.0000 14.2766 0.0000
# 4 0.0000 0.0000 0.0000 27.6203 0.0000 -0.1659
# 5 2.2947 9.0296 14.2766 0.0000 35.4580 0.0000
# 6 0.0000 0.0000 0.0000 -0.1659 0.0000 32.4885
#
#
#
# Elastic Compliance Matrix: (Units=1/GPa)
#
#
# Indices 1 2 3 4 5 6 
#
# 1 0.011319 -0.003203 -0.003918 0.000000 0.001661 0.000000
# 2 -0.003203 0.011423 -0.000647 0.000000 -0.002441 0.000000
# 3 -0.003918 -0.000647 0.014419 0.000000 -0.005387 0.000000
# 4 0.000000 0.000000 0.000000 0.036206 0.000000 0.000185
# 5 0.001661 -0.002441 -0.005387 0.000000 0.030886 0.000000
# 6 0.000000 0.000000 0.000000 0.000185 0.000000 0.030781
#
#
# Mechanical properties :
#
#
# Convention : Reuss Voigt Hill
#
# Bulk Modulus (GPa) = 46.24169 50.44459 48.34314
# Shear Modulus (GPa) = 31.69031 33.16599 32.42815
#
# Velocity S-wave (km/s) = 3.85226 3.94093 3.89685
# Velocity P-wave (km/s) = 6.43743 6.65808 6.54869
#
# Compressibility (1/GPa) = 0.02162551
#
# Stress axis : x y z
#
# Youngs Moduli (GPa) = 88.35047 87.54579 69.35160
#
# Poissons Ratio (x) = 0.28042 0.27170
# Poissons Ratio (y) = 0.28299 0.04485
# Poissons Ratio (z) = 0.34613 0.05662
#
# Static dielectric constant tensor:
#      x y z
#    x 3.978580 0.000000 -0.017930 
#    y 0.000000 3.863850 0.000000 
#    z -0.017930 0.000000 3.948320 
# 
# 
# High freq. dielectric constant tensor:
#      x y z
#    x 1.844530 0.000000 -0.000410 
#    y 0.000000 1.836400 0.000000 
#    z -0.000410 0.000000 1.837420 
# 
# From -- ./inp_files/33070.got.cif
#   From: 2010.03.12/outbox.cif.g09.slc.cpg/sg14_17_cif.got.tgz:33070.got - 2010.03.31 13:35:05.
