data_PCOD8127704
_publ_section_title
;
Structure prediction by ZEFSAII (Michael W. Deem and Ramdas Pophale) SiO2 
 PCOD8127704
Probable space group: P 21/C
;
_chemical_formula_sum "Si O2"
_cell_formula_units_Z 28
_cell_length_a 6.875641
_cell_length_b 16.608948
_cell_length_c 17.382929
_cell_angle_alpha 90.000000
_cell_angle_beta 134.506577
_cell_angle_gamma 90.000000
_cell_volume 1415.700327
_symmetry_space_group_name_H-M "P 21/C"
_symmetry_group_IT_number 14
_symmetry_cell_setting 'monoclinic'
loop_
_space_group_symop_operation_xyz
x,y,z
-x,1/2+y,1/2-z
-x,-y,-z
x,1/2-y,1/2+z
loop_
_atom_site_type_symbol
_atom_site_label
_atom_site_fract_x
_atom_site_fract_y
_atom_site_fract_z
Si Si1 0.640864 0.331462 0.877361
Si Si2 0.551241 0.499676 0.230345
Si Si3 0.134742 0.051531 0.864795
Si Si4 0.542634 0.942641 0.896430
Si Si5 0.186766 0.211069 0.791087
Si Si6 0.196995 0.149506 0.622214
Si Si7 0.638383 0.274179 0.706915
O O1 0.495830 0.417422 0.827426
O O2 0.439184 0.272633 0.868171
O O3 0.716499 0.293594 0.816327
O O4 0.915497 0.342110 0.000268
O O5 0.617940 0.513775 0.338157
O O6 0.285755 0.443808 0.147503
O O7 0.809890 0.453990 0.265521
O O8 0.245014 0.136379 0.863520
O O9 0.262403 0.978537 0.852005
O O10 0.213546 0.042834 0.976061
O O11 0.509401 0.848219 0.874690
O O12 0.152287 0.180905 0.695240
O O13 0.912415 0.256219 0.737501
O O14 0.430452 0.200049 0.643964
#
# Coordination Sequence:
#
# PCOD8127704 Si02
#       7
#     4   4   4   4   4   4   4
#     4  10  25  41  63  92 125 165 204 255 312 366
#     4  11  21  44  61  91 126 161 209 252 303 371
#     4  11  22  39  65  91 123 164 202 257 311 359
#     4  10  23  39  62  93 121 160 205 257 306 366
#     4  11  23  41  62  93 127 158 210 257 303 371
#     4  11  23  40  65  90 124 166 205 258 308 364
#     4  10  23  42  62  90 125 162 210 255 304 375
#
# _framework density 19.778196999999999
#
# number of rings (size 3 to 8) (size 9 to 14) (size 15 to 20)
#    0.000    1.429    2.857    1.714    4.000    0.000 
#    5.143    0.714    0.000    0.000    0.000    0.000 
#    0.000    0.000    0.000    0.000    0.000    0.000 
#
# Total GULP energy -347339.987138 kJ/mol
# GULP energy per Si atom -12404.999541 kJ/mol
# Density = 1.973318 g / cm^3
# Si number density = 19.778197 Si / 1000 Ang^3
#
#
#
# Elastic Constant Matrix: (Units=GPa)
#
#
# Indices 1 2 3 4 5 6 
#
# 1 109.5752 47.4549 47.6998 0.0000 13.9360 0.0000
# 2 47.4549 117.8980 48.6618 0.0000 0.0324 0.0000
# 3 47.6998 48.6618 102.4689 0.0000 17.4693 0.0000
# 4 0.0000 0.0000 0.0000 18.7771 0.0000 -0.7978
# 5 13.9360 0.0324 17.4693 0.0000 25.1059 0.0000
# 6 0.0000 0.0000 0.0000 -0.7978 0.0000 31.8511
#
#
#
# Elastic Compliance Matrix: (Units=1/GPa)
#
#
# Indices 1 2 3 4 5 6 
#
# 1 0.012834 -0.003775 -0.003368 0.000000 -0.004776 0.000000
# 2 -0.003775 0.012015 -0.004882 0.000000 0.005477 0.000000
# 3 -0.003368 -0.004882 0.015119 0.000000 -0.008645 0.000000
# 4 0.000000 0.000000 0.000000 0.053313 0.000000 0.001335
# 5 -0.004776 0.005477 -0.008645 0.000000 0.048490 0.000000
# 6 0.000000 0.000000 0.000000 0.001335 0.000000 0.031430
#
#
# Mechanical properties :
#
#
# Convention : Reuss Voigt Hill
#
# Bulk Modulus (GPa) = 62.81843 68.61945 65.71894
# Shear Modulus (GPa) = 24.68439 27.55520 26.11980
#
# Velocity S-wave (km/s) = 3.53662 3.73662 3.63800
# Velocity P-wave (km/s) = 6.96472 7.30659 7.13770
#
# Compressibility (1/GPa) = 0.01591890
#
# Stress axis : x y z
#
# Youngs Moduli (GPa) = 77.91636 83.22980 66.14136
#
# Poissons Ratio (x) = 0.31416 0.22274
# Poissons Ratio (y) = 0.29410 0.32293
# Poissons Ratio (z) = 0.26239 0.40637
#
# Static dielectric constant tensor:
#      x y z
#    x 3.691410 0.000000 -0.102960 
#    y 0.000000 3.787520 0.000000 
#    z -0.102960 0.000000 3.456170 
# 
# 
# High freq. dielectric constant tensor:
#      x y z
#    x 1.778840 0.000000 -0.002310 
#    y 0.000000 1.787030 0.000000 
#    z -0.002310 0.000000 1.765550 
# 
# From -- ./inp_files/37785.got.cif
#   From: 2010.03.12/outbox.cif.g09.slc.cpg/sg14_19_cif.got.tgz:37785.got - 2010.03.31 13:35:05.
