data_PCOD8127672
_publ_section_title
;
Structure prediction by ZEFSAII (Michael W. Deem and Ramdas Pophale) SiO2 
 PCOD8127672
Probable space group: P 21/C
;
_chemical_formula_sum "Si O2"
_cell_formula_units_Z 28
_cell_length_a 22.493203
_cell_length_b 7.636495
_cell_length_c 16.205482
_cell_angle_alpha 90.000000
_cell_angle_beta 152.103704
_cell_angle_gamma 90.000000
_cell_volume 1302.371891
_symmetry_space_group_name_H-M "P 21/C"
_symmetry_group_IT_number 14
_symmetry_cell_setting 'monoclinic'
loop_
_space_group_symop_operation_xyz
x,y,z
-x,1/2+y,1/2-z
-x,-y,-z
x,1/2-y,1/2+z
loop_
_atom_site_type_symbol
_atom_site_label
_atom_site_fract_x
_atom_site_fract_y
_atom_site_fract_z
Si Si1 0.925371 0.368272 0.965181
Si Si2 0.954689 0.978295 0.825058
Si Si3 0.572969 0.957365 0.506068
Si Si4 0.667798 0.187321 0.856947
Si Si5 0.183922 0.475555 0.008911
Si Si6 0.732420 0.279571 0.113602
Si Si7 0.778103 0.882772 0.876939
O O1 0.004305 0.188787 0.070870
O O2 0.907017 0.452935 0.031482
O O3 0.786590 0.339647 0.753961
O O4 0.000000 0.500000 0.000000
O O5 0.908811 0.920903 0.678704
O O6 0.840670 0.077110 0.729550
O O7 0.072925 0.110098 0.959853
O O8 0.484585 0.827884 0.343491
O O9 0.706889 0.879175 0.700960
O O10 0.500000 0.000000 0.500000
O O11 0.603385 0.127078 0.486994
O O12 0.710238 0.381743 0.884328
O O13 0.740077 0.044254 0.889828
O O14 0.700653 0.162094 0.994112
O O15 0.258042 0.299461 0.124302
#
# Coordination Sequence:
#
# PCOD8127672 Si02
#       7
#     4   4   4   4   4   4   4
#     4  12  24  37  64 108 143 174 226 280 343 429
#     4  11  23  42  68  97 145 177 219 284 360 413
#     4  10  22  47  70  90 132 186 232 281 346 396
#     4  10  24  47  68  94 138 180 234 284 333 414
#     4  11  24  41  67 103 130 181 230 269 346 420
#     4  11  24  44  69 102 139 181 232 292 351 409
#     4  11  22  42  73  96 134 183 219 284 349 411
#
# _framework density 21.499236
#
# number of rings (size 3 to 8) (size 9 to 14) (size 15 to 20)
#    0.000    1.143    2.857    3.000    8.000    0.571 
#   12.857    0.000    0.000    0.000    0.000    0.000 
#    0.000    0.000    0.000    0.000    0.000    0.000 
#
# Total GULP energy -347187.844815 kJ/mol
# GULP energy per Si atom -12399.565886 kJ/mol
# Density = 2.145030 g / cm^3
# Si number density = 21.499236 Si / 1000 Ang^3
#
#
#
# Elastic Constant Matrix: (Units=GPa)
#
#
# Indices 1 2 3 4 5 6 
#
# 1 84.1813 11.5057 31.0854 0.0000 -3.5641 0.0000
# 2 11.5057 98.9899 37.1614 0.0000 -0.0707 0.0000
# 3 31.0854 37.1614 131.8130 0.0000 -13.2067 0.0000
# 4 0.0000 0.0000 0.0000 35.3060 0.0000 -1.6771
# 5 -3.5641 -0.0707 -13.2067 0.0000 37.5515 0.0000
# 6 0.0000 0.0000 0.0000 -1.6771 0.0000 26.8480
#
#
#
# Elastic Compliance Matrix: (Units=1/GPa)
#
#
# Indices 1 2 3 4 5 6 
#
# 1 0.013028 -0.000412 -0.002936 0.000000 0.000203 0.000000
# 2 -0.000412 0.011358 -0.003220 0.000000 -0.001150 0.000000
# 3 -0.002936 -0.003220 0.009493 0.000000 0.003054 0.000000
# 4 0.000000 0.000000 0.000000 0.028408 0.000000 0.001775
# 5 0.000203 -0.001150 0.003054 0.000000 0.027721 0.000000
# 6 0.000000 0.000000 0.000000 0.001775 0.000000 0.037358
#
#
# Mechanical properties :
#
#
# Convention : Reuss Voigt Hill
#
# Bulk Modulus (GPa) = 48.20976 52.72103 50.46540
# Shear Modulus (GPa) = 33.91758 35.62321 34.77039
#
# Velocity S-wave (km/s) = 3.97623 4.07498 4.02591
# Velocity P-wave (km/s) = 6.59948 6.83492 6.71824
#
# Compressibility (1/GPa) = 0.02074269
#
# Stress axis : x y z
#
# Youngs Moduli (GPa) = 76.75671 88.04384 105.34396
#
# Poissons Ratio (x) = 0.03627 0.30928
# Poissons Ratio (y) = 0.03162 0.33923
# Poissons Ratio (z) = 0.22535 0.28352
#
# Static dielectric constant tensor:
#      x y z
#    x 3.973280 0.000000 -0.264090 
#    y 0.000000 3.844350 0.000000 
#    z -0.264090 0.000000 4.559130 
# 
# 
# High freq. dielectric constant tensor:
#      x y z
#    x 1.851200 0.000000 -0.016110 
#    y 0.000000 1.831540 0.000000 
#    z -0.016110 0.000000 1.855790 
# 
# From -- ./inp_files/50279.got.cif
#   From: 2010.03.12/outbox.cif.g09.slc.cpg/sg14_26_cif.got.tgz:50279.got - 2010.03.31 13:35:05.
