data_PCOD8127537
_publ_section_title
;
Structure prediction by ZEFSAII (Michael W. Deem and Ramdas Pophale) SiO2 
 PCOD8127537
Probable space group: P 21/C
;
_chemical_formula_sum "Si O2"
_cell_formula_units_Z 32
_cell_length_a 10.621685
_cell_length_b 14.249296
_cell_length_c 8.821247
_cell_angle_alpha 90.000000
_cell_angle_beta 82.341601
_cell_angle_gamma 90.000000
_cell_volume 1323.200384
_symmetry_space_group_name_H-M "P 21/C"
_symmetry_group_IT_number 14
_symmetry_cell_setting 'monoclinic'
loop_
_space_group_symop_operation_xyz
x,y,z
-x,1/2+y,1/2-z
-x,-y,-z
x,1/2-y,1/2+z
loop_
_atom_site_type_symbol
_atom_site_label
_atom_site_fract_x
_atom_site_fract_y
_atom_site_fract_z
Si Si1 0.752884 0.526139 0.202549
Si Si2 0.640730 0.847273 0.268214
Si Si3 0.889930 0.884964 0.392737
Si Si4 0.490783 0.768719 0.571781
Si Si5 0.523572 0.036710 0.328375
Si Si6 0.243620 0.822215 0.186793
Si Si7 0.016921 0.460452 0.661959
Si Si8 0.089946 0.722161 0.426334
O O1 0.607006 0.554396 0.242049
O O2 0.758262 0.415122 0.214079
O O3 0.834942 0.563839 0.330821
O O4 0.809749 0.564657 0.036489
O O5 0.787519 0.837361 0.294478
O O6 0.538438 0.808103 0.404817
O O7 0.614289 0.781419 0.127413
O O8 0.613841 0.958598 0.234879
O O9 0.984830 0.805973 0.444190
O O10 0.967282 0.967560 0.297257
O O11 0.377373 0.692703 0.579331
O O12 0.424774 0.856668 0.672582
O O13 0.500000 0.000000 0.500000
O O14 0.221919 0.750710 0.327733
O O15 0.122957 0.815488 0.090201
O O16 0.950697 0.360725 0.679193
O O17 0.000000 0.500000 0.500000
#
# Coordination Sequence:
#
# PCOD8127537 Si02
#       8
#     4   4   4   4   4   4   4   4
#     4  12  23  47  72 107 144 194 244 300 360 444
#     4  11  25  45  70 107 140 191 241 296 369 436
#     4  12  27  47  77 103 147 202 242 295 376 453
#     4  11  24  45  70 103 143 185 239 304 361 432
#     4  10  22  43  71 101 139 186 240 288 362 433
#     4  12  26  43  75 103 144 188 250 302 360 437
#     4  12  27  47  69 107 152 186 242 309 367 432
#     4  12  27  45  70 108 144 194 243 299 370 435
#
# _framework density 24.183789000000001
#
# number of rings (size 3 to 8) (size 9 to 14) (size 15 to 20)
#    0.000    0.500    6.250    1.875    7.000    2.000 
#    0.000    0.625    0.000    0.000    0.000    0.000 
#    0.000    0.000    0.000    0.000    0.000    0.000 
#
# Total GULP energy -396487.544039 kJ/mol
# GULP energy per Si atom -12390.235751 kJ/mol
# Density = 2.412875 g / cm^3
# Si number density = 24.183789 Si / 1000 Ang^3
#
#
#
# Elastic Constant Matrix: (Units=GPa)
#
#
# Indices 1 2 3 4 5 6 
#
# 1 97.5919 0.4731 6.4309 0.0000 15.6869 0.0000
# 2 0.4731 99.6421 0.2322 0.0000 4.4806 0.0000
# 3 6.4309 0.2322 37.8020 0.0000 15.0469 0.0000
# 4 0.0000 0.0000 0.0000 32.5174 0.0000 7.7844
# 5 15.6869 4.4806 15.0469 0.0000 32.3492 0.0000
# 6 0.0000 0.0000 0.0000 7.7844 0.0000 35.8035
#
#
#
# Elastic Compliance Matrix: (Units=1/GPa)
#
#
# Indices 1 2 3 4 5 6 
#
# 1 0.011120 0.000197 0.000324 0.000000 -0.005570 0.000000
# 2 0.000197 0.010114 0.000614 0.000000 -0.001782 0.000000
# 3 0.000324 0.000614 0.032510 0.000000 -0.015364 0.000000
# 4 0.000000 0.000000 0.000000 0.032441 0.000000 -0.007053
# 5 -0.005570 -0.001782 -0.015364 0.000000 0.041007 0.000000
# 6 0.000000 0.000000 0.000000 -0.007053 0.000000 0.029464
#
#
# Mechanical properties :
#
#
# Convention : Reuss Voigt Hill
#
# Bulk Modulus (GPa) = 17.85286 27.70095 22.77690
# Shear Modulus (GPa) = 28.89216 35.32734 32.10975
#
# Velocity S-wave (km/s) = 3.46018 3.82617 3.64777
# Velocity P-wave (km/s) = 4.83342 5.56764 5.21347
#
# Compressibility (1/GPa) = 0.05601344
#
# Stress axis : x y z
#
# Youngs Moduli (GPa) = 89.92962 98.87612 30.75951
#
# Poissons Ratio (x) = -0.01947 -0.00998
# Poissons Ratio (y) = -0.01771 -0.01887
# Poissons Ratio (z) = -0.02917 -0.06067
#
# Static dielectric constant tensor:
#      x y z
#    x 4.601050 0.000000 0.388460 
#    y 0.000000 4.874080 0.000000 
#    z 0.388460 0.000000 3.959720 
# 
# 
# High freq. dielectric constant tensor:
#      x y z
#    x 1.965260 0.000000 0.022940 
#    y 0.000000 1.978220 0.000000 
#    z 0.022940 0.000000 1.940360 
# 
# From -- ./inp_files/13319.got.cif
#   From: 2010.03.12/outbox.cif.g09.slc.cpg/sg14_7_cif.got.tgz:13319.got - 2010.03.31 13:35:05.
