data_PCOD8127723
_publ_section_title
;
Structure prediction by ZEFSAII (Michael W. Deem and Ramdas Pophale) SiO2 
 PCOD8127723
Probable space group: P 21/C
;
_chemical_formula_sum "Si O2"
_cell_formula_units_Z 28
_cell_length_a 11.181424
_cell_length_b 6.550936
_cell_length_c 20.149326
_cell_angle_alpha 90.000000
_cell_angle_beta 70.668497
_cell_angle_gamma 90.000000
_cell_volume 1392.700434
_symmetry_space_group_name_H-M "P 21/C"
_symmetry_group_IT_number 14
_symmetry_cell_setting 'monoclinic'
loop_
_space_group_symop_operation_xyz
x,y,z
-x,1/2+y,1/2-z
-x,-y,-z
x,1/2-y,1/2+z
loop_
_atom_site_type_symbol
_atom_site_label
_atom_site_fract_x
_atom_site_fract_y
_atom_site_fract_z
Si Si1 0.388841 0.247906 0.824713
Si Si2 0.804435 0.469813 0.571297
Si Si3 0.240038 0.637337 0.830695
Si Si4 0.164256 0.302682 0.185217
Si Si5 0.359229 0.940981 0.713677
Si Si6 0.073327 0.992388 0.090605
Si Si7 0.971947 0.607058 0.176704
O O1 0.342510 0.461852 0.804195
O O2 0.524509 0.300912 0.834542
O O3 0.284596 0.163914 0.896189
O O4 0.412214 0.088886 0.761477
O O5 0.732987 0.261630 0.605659
O O6 0.833304 0.473696 0.488700
O O7 0.931071 0.458457 0.593583
O O8 0.252418 0.792250 0.765565
O O9 0.097884 0.541122 0.862994
O O10 0.300078 0.420054 0.164661
O O11 0.141831 0.158715 0.125527
O O12 0.146312 0.188160 0.258205
O O13 0.058580 0.476141 0.208818
O O14 0.063987 0.773161 0.127075
#
# Coordination Sequence:
#
# PCOD8127723 Si02
#       7
#     4   4   4   4   4   4   4
#     4  11  21  39  62  89 123 159 208 260 304 361
#     4  10  23  40  59  87 124 165 210 249 303 375
#     4  11  20  37  62  91 123 155 203 260 308 366
#     4  12  23  36  59  93 127 156 199 258 323 368
#     4  11  23  37  61  95 122 160 208 259 313 368
#     4  11  23  39  59  89 126 163 202 254 310 377
#     4  12  21  36  61  93 125 155 195 258 324 367
#
# _framework density 20.104825999999999
#
# number of rings (size 3 to 8) (size 9 to 14) (size 15 to 20)
#    0.000    0.857    7.143    1.714    0.000    1.714 
#    0.000    0.714    0.000    1.714    0.000    0.000 
#    0.000    0.000    0.000    0.000    0.000    0.000 
#
# Total GULP energy -346954.720295 kJ/mol
# GULP energy per Si atom -12391.240011 kJ/mol
# Density = 2.005907 g / cm^3
# Si number density = 20.104826 Si / 1000 Ang^3
#
#
#
# Elastic Constant Matrix: (Units=GPa)
#
#
# Indices 1 2 3 4 5 6 
#
# 1 105.6716 47.7649 36.0309 0.0000 -6.0359 0.0000
# 2 47.7649 114.0417 43.6140 0.0000 -0.9221 0.0000
# 3 36.0309 43.6140 104.9524 0.0000 -3.4065 0.0000
# 4 0.0000 0.0000 0.0000 12.0573 0.0000 0.4217
# 5 -6.0359 -0.9221 -3.4065 0.0000 18.8173 0.0000
# 6 0.0000 0.0000 0.0000 0.4217 0.0000 45.4928
#
#
#
# Elastic Compliance Matrix: (Units=1/GPa)
#
#
# Indices 1 2 3 4 5 6 
#
# 1 0.012386 -0.004252 -0.002377 0.000000 0.003334 0.000000
# 2 -0.004252 0.011886 -0.003526 0.000000 -0.001420 0.000000
# 3 -0.002377 -0.003526 0.011849 0.000000 0.001210 0.000000
# 4 0.000000 0.000000 0.000000 0.082964 0.000000 -0.000769
# 5 0.003334 -0.001420 0.001210 0.000000 0.054361 0.000000
# 6 0.000000 0.000000 0.000000 -0.000769 0.000000 0.021989
#
#
# Mechanical properties :
#
#
# Convention : Reuss Voigt Hill
#
# Bulk Modulus (GPa) = 63.24460 64.38727 63.81594
# Shear Modulus (GPa) = 22.62278 28.42387 25.52333
#
# Velocity S-wave (km/s) = 3.35810 3.76411 3.56689
# Velocity P-wave (km/s) = 6.82360 7.14050 6.98384
#
# Compressibility (1/GPa) = 0.01581163
#
# Stress axis : x y z
#
# Youngs Moduli (GPa) = 80.73573 84.12920 84.39701
#
# Poissons Ratio (x) = 0.35769 0.20063
# Poissons Ratio (y) = 0.34326 0.29758
# Poissons Ratio (z) = 0.19192 0.29664
#
# Static dielectric constant tensor:
#      x y z
#    x 3.618560 0.000000 -0.058170 
#    y 0.000000 4.090110 0.000000 
#    z -0.058170 0.000000 3.243880 
# 
# 
# High freq. dielectric constant tensor:
#      x y z
#    x 1.775200 0.000000 -0.007700 
#    y 0.000000 1.812370 0.000000 
#    z -0.007700 0.000000 1.740090 
# 
# From -- ./inp_files/66326.got.cif
#   From: 2010.03.12/outbox.cif.g09.slc.cpg/sg14_34_cif.got.tgz:66326.got - 2010.03.31 13:35:05.
