data_PCOD8127651
_publ_section_title
;
Structure prediction by ZEFSAII (Michael W. Deem and Ramdas Pophale) SiO2 
 PCOD8127651
Probable space group: P 21/C
;
_chemical_formula_sum "Si O2"
_cell_formula_units_Z 28
_cell_length_a 5.123451
_cell_length_b 25.024550
_cell_length_c 9.982428
_cell_angle_alpha 90.000000
_cell_angle_beta 95.988115
_cell_angle_gamma 90.000000
_cell_volume 1272.884090
_symmetry_space_group_name_H-M "P 21/C"
_symmetry_group_IT_number 14
_symmetry_cell_setting 'monoclinic'
loop_
_space_group_symop_operation_xyz
x,y,z
-x,1/2+y,1/2-z
-x,-y,-z
x,1/2-y,1/2+z
loop_
_atom_site_type_symbol
_atom_site_label
_atom_site_fract_x
_atom_site_fract_y
_atom_site_fract_z
Si Si1 0.009656 0.367915 0.671284
Si Si2 0.038757 0.240037 0.310210
Si Si3 0.332267 0.840157 0.263474
Si Si4 0.781297 0.435529 0.069755
Si Si5 0.500360 0.847339 0.986139
Si Si6 0.365795 0.238253 0.580796
Si Si7 0.252426 0.055829 0.398700
O O1 0.927746 0.317485 0.759507
O O2 0.211401 0.355958 0.560897
O O3 0.140032 0.415072 0.762185
O O4 0.730187 0.384232 0.589875
O O5 0.117838 0.234209 0.469543
O O6 0.291054 0.248989 0.230515
O O7 0.852719 0.291052 0.288591
O O8 0.187356 0.892758 0.309134
O O9 0.496753 0.819459 0.401568
O O10 0.510889 0.857544 0.146157
O O11 0.730309 0.493050 0.134908
O O12 0.541816 0.422788 0.954058
O O13 0.058958 0.434224 0.011544
O O14 0.434057 0.784276 0.958931
#
# Coordination Sequence:
#
# PCOD8127651 Si02
#       7
#     4   4   4   4   4   4   4
#     4  11  23  42  64  88 133 168 214 264 322 386
#     4  11  24  37  61  92 129 173 215 258 328 395
#     4  12  24  40  63  93 133 169 217 269 334 379
#     4  10  24  40  71  97 128 163 218 279 321 386
#     4  11  24  41  58  94 129 169 214 268 311 403
#     4  11  23  40  59  89 132 175 211 267 320 390
#     4  10  22  46  66  99 124 166 223 269 327 385
#
# _framework density 21.997288999999999
#
# number of rings (size 3 to 8) (size 9 to 14) (size 15 to 20)
#    0.000    1.143    2.857    3.429    4.000    1.143 
#    0.000    1.429    0.000    0.000    0.000    0.000 
#    0.000    0.000    0.000    0.000    0.000    0.000 
#
# Total GULP energy -347050.750471 kJ/mol
# GULP energy per Si atom -12394.669660 kJ/mol
# Density = 2.194722 g / cm^3
# Si number density = 21.997289 Si / 1000 Ang^3
#
#
#
# Elastic Constant Matrix: (Units=GPa)
#
#
# Indices 1 2 3 4 5 6 
#
# 1 72.3886 6.0092 9.0039 0.0000 12.7321 0.0000
# 2 6.0092 80.1773 31.9950 0.0000 1.5238 0.0000
# 3 9.0039 31.9950 86.5566 0.0000 5.3254 0.0000
# 4 0.0000 0.0000 0.0000 33.6851 0.0000 4.2531
# 5 12.7321 1.5238 5.3254 0.0000 32.6073 0.0000
# 6 0.0000 0.0000 0.0000 4.2531 0.0000 22.4482
#
#
#
# Elastic Compliance Matrix: (Units=1/GPa)
#
#
# Indices 1 2 3 4 5 6 
#
# 1 0.014984 -0.000625 -0.000979 0.000000 -0.005662 0.000000
# 2 -0.000625 0.014658 -0.005380 0.000000 0.000438 0.000000
# 3 -0.000979 -0.005380 0.013743 0.000000 -0.001611 0.000000
# 4 0.000000 0.000000 0.000000 0.030414 0.000000 -0.005762
# 5 -0.005662 0.000438 -0.001611 0.000000 0.033121 0.000000
# 6 0.000000 0.000000 0.000000 -0.005762 0.000000 0.045639
#
#
# Mechanical properties :
#
#
# Convention : Reuss Voigt Hill
#
# Bulk Modulus (GPa) = 33.99494 37.01542 35.50518
# Shear Modulus (GPa) = 28.35554 30.55574 29.45564
#
# Velocity S-wave (km/s) = 3.59423 3.73106 3.66328
# Velocity P-wave (km/s) = 5.71947 5.95188 5.83683
#
# Compressibility (1/GPa) = 0.02941614
#
# Stress axis : x y z
#
# Youngs Moduli (GPa) = 66.73886 68.22307 72.76518
#
# Poissons Ratio (x) = 0.04261 0.07127
# Poissons Ratio (y) = 0.04168 0.39148
# Poissons Ratio (z) = 0.06537 0.36705
#
# Static dielectric constant tensor:
#      x y z
#    x 3.871950 0.000000 -0.020090 
#    y 0.000000 3.994650 0.000000 
#    z -0.020090 0.000000 3.985650 
# 
# 
# High freq. dielectric constant tensor:
#      x y z
#    x 1.868630 0.000000 -0.000660 
#    y 0.000000 1.847020 0.000000 
#    z -0.000660 0.000000 1.864340 
# 
# From -- ./inp_files/6545.got.cif
#   From: 2010.03.12/outbox.cif.g09.slc.cpg/sg14_4_cif.got.tgz:6545.got - 2010.03.31 13:35:05.
