data_PCOD8127967
_publ_section_title
;
Structure prediction by ZEFSAII (Michael W. Deem and Ramdas Pophale) SiO2 
 PCOD8127967
Probable space group: P 21/C
;
_chemical_formula_sum "Si O2"
_cell_formula_units_Z 32
_cell_length_a 16.193841
_cell_length_b 8.419838
_cell_length_c 23.148281
_cell_angle_alpha 90.000000
_cell_angle_beta 153.125285
_cell_angle_gamma 90.000000
_cell_volume 1426.757894
_symmetry_space_group_name_H-M "P 21/C"
_symmetry_group_IT_number 14
_symmetry_cell_setting 'monoclinic'
loop_
_space_group_symop_operation_xyz
x,y,z
-x,1/2+y,1/2-z
-x,-y,-z
x,1/2-y,1/2+z
loop_
_atom_site_type_symbol
_atom_site_label
_atom_site_fract_x
_atom_site_fract_y
_atom_site_fract_z
Si Si1 0.285453 0.027018 0.093662
Si Si2 0.983429 0.827818 0.860203
Si Si3 0.750888 0.428595 0.012958
Si Si4 0.357861 0.134607 0.836117
Si Si5 0.287068 0.228669 0.985248
Si Si6 0.090301 0.901413 0.265701
Si Si7 0.445775 0.280941 0.271254
Si Si8 0.385987 0.805516 0.901779
O O1 0.323273 0.084503 0.051699
O O2 0.294347 0.175927 0.142992
O O3 0.440946 0.892477 0.202706
O O4 0.086591 0.940654 0.972070
O O5 0.778065 0.784362 0.747420
O O6 0.086658 0.659545 0.919262
O O7 0.976990 0.925793 0.796678
O O8 0.781146 0.420814 0.099793
O O9 0.730470 0.614438 0.985699
O O10 0.564687 0.345454 0.880235
O O11 0.373612 0.104618 0.777048
O O12 0.289804 0.970049 0.822097
O O13 0.540792 0.179360 0.986440
O O14 0.447526 0.240095 0.037518
O O15 0.090357 0.201202 0.831662
O O16 0.219827 0.820660 0.297227
#
# Coordination Sequence:
#
# PCOD8127967 Si02
#       8
#     4   4   4   4   4   4   4   4
#     4  10  23  44  64  93 124 176 226 270 322 397
#     4  10  24  39  62  94 135 174 217 271 340 396
#     4  11  21  37  62  92 128 171 214 263 335 394
#     4  11  22  39  63  95 134 171 215 278 343 395
#     4  11  23  40  65  94 130 174 221 269 332 400
#     4  11  22  38  60  96 137 169 217 271 332 406
#     4  11  22  41  66  89 126 169 225 271 322 394
#     4  11  23  38  65 100 136 173 219 275 343 408
#
# _framework density 22.428473
#
# number of rings (size 3 to 8) (size 9 to 14) (size 15 to 20)
#    0.000    1.250    2.500    3.750    1.750    2.500 
#    0.000    0.000    2.750    6.750    0.000    0.000 
#    0.000    0.000    0.000    0.000    0.000    0.000 
#
# Total GULP energy -396492.518045 kJ/mol
# GULP energy per Si atom -12390.391189 kJ/mol
# Density = 2.237742 g / cm^3
# Si number density = 22.428473 Si / 1000 Ang^3
#
#
#
# Elastic Constant Matrix: (Units=GPa)
#
#
# Indices 1 2 3 4 5 6 
#
# 1 58.8841 8.0402 29.9171 0.0000 -4.9406 0.0000
# 2 8.0402 95.5623 32.7034 0.0000 -3.6271 0.0000
# 3 29.9171 32.7034 87.0149 0.0000 -0.4940 0.0000
# 4 0.0000 0.0000 0.0000 44.8237 0.0000 -1.2414
# 5 -4.9406 -3.6271 -0.4940 0.0000 31.9607 0.0000
# 6 0.0000 0.0000 0.0000 -1.2414 0.0000 31.5867
#
#
#
# Elastic Compliance Matrix: (Units=1/GPa)
#
#
# Indices 1 2 3 4 5 6 
#
# 1 0.020956 0.000940 -0.007540 0.000000 0.003230 0.000000
# 2 0.000940 0.012105 -0.004864 0.000000 0.001444 0.000000
# 3 -0.007540 -0.004864 0.015904 0.000000 -0.001472 0.000000
# 4 0.000000 0.000000 0.000000 0.022334 0.000000 0.000878
# 5 0.003230 0.001444 -0.001472 0.000000 0.031929 0.000000
# 6 0.000000 0.000000 0.000000 0.000878 0.000000 0.031693
#
#
# Mechanical properties :
#
#
# Convention : Reuss Voigt Hill
#
# Bulk Modulus (GPa) = 38.40793 42.53142 40.46967
# Shear Modulus (GPa) = 30.02481 33.06090 31.54286
#
# Velocity S-wave (km/s) = 3.66278 3.84351 3.75424
# Velocity P-wave (km/s) = 5.92029 6.22102 6.07251
#
# Compressibility (1/GPa) = 0.02603629
#
# Stress axis : x y z
#
# Youngs Moduli (GPa) = 47.71920 82.61191 62.87557
#
# Poissons Ratio (x) = -0.07763 0.47407
# Poissons Ratio (y) = -0.04484 0.30585
# Poissons Ratio (z) = 0.35979 0.40185
#
# Static dielectric constant tensor:
#      x y z
#    x 3.709080 0.000000 -0.051060 
#    y 0.000000 4.306560 0.000000 
#    z -0.051060 0.000000 4.036860 
# 
# 
# High freq. dielectric constant tensor:
#      x y z
#    x 1.846150 0.000000 -0.003030 
#    y 0.000000 1.901210 0.000000 
#    z -0.003030 0.000000 1.881510 
# 
# From -- ./inp_files/73874.got.cif
#   From: 2010.03.12/outbox.cif.g09.slc.cpg/sg14_37_cif.got.tgz:73874.got - 2010.03.31 13:35:05.
