data_PCOD8127130
_publ_section_title
;
Structure prediction by ZEFSAII (Michael W. Deem and Ramdas Pophale) SiO2 
 PCOD8127130
Probable space group: P 21/C
;
_chemical_formula_sum "Si O2"
_cell_formula_units_Z 28
_cell_length_a 12.101253
_cell_length_b 12.477462
_cell_length_c 9.735338
_cell_angle_alpha 90.000000
_cell_angle_beta 54.596714
_cell_angle_gamma 90.000000
_cell_volume 1198.162249
_symmetry_space_group_name_H-M "P 21/C"
_symmetry_group_IT_number 14
_symmetry_cell_setting 'monoclinic'
loop_
_space_group_symop_operation_xyz
x,y,z
-x,1/2+y,1/2-z
-x,-y,-z
x,1/2-y,1/2+z
loop_
_atom_site_type_symbol
_atom_site_label
_atom_site_fract_x
_atom_site_fract_y
_atom_site_fract_z
Si Si1 0.536016 0.993221 0.778446
Si Si2 0.771225 0.023795 0.419797
Si Si3 0.714388 0.391496 0.679001
Si Si4 0.345870 0.280294 0.738202
Si Si5 0.083383 0.185830 0.577952
Si Si6 0.917255 0.275706 0.936656
Si Si7 0.503343 0.278422 0.376759
O O1 0.615444 0.008082 0.577186
O O2 0.539711 0.096983 0.874829
O O3 0.382145 0.957328 0.855224
O O4 0.625197 0.906716 0.795878
O O5 0.773792 0.028260 0.251887
O O6 0.817848 0.136454 0.447402
O O7 0.870622 0.930467 0.402449
O O8 0.838659 0.337855 0.506881
O O9 0.632554 0.295618 0.814158
O O10 0.375300 0.236833 0.562816
O O11 0.462877 0.229890 0.747739
O O12 0.201057 0.252599 0.906854
O O13 0.040635 0.256998 0.740212
O O14 0.963733 0.179522 0.551874
#
# Coordination Sequence:
#
# PCOD8127130 Si02
#       7
#     4   4   4   4   4   4   4
#     4  10  22  39  66 103 134 169 221 282 350 410
#     4  11  23  47  69 101 138 182 229 282 346 401
#     4  11  24  41  73 104 133 181 220 285 351 406
#     4  10  23  40  63  98 128 178 222 276 338 397
#     4  11  26  45  69  95 139 187 234 278 332 403
#     4  12  24  47  69  99 140 183 233 280 338 407
#     4  11  21  41  68  98 139 167 221 286 346 410
#
# _framework density 23.369122000000001
#
# number of rings (size 3 to 8) (size 9 to 14) (size 15 to 20)
#    0.000    1.143    2.857    3.000    2.000    4.000 
#   10.286    0.000    0.000    0.000    0.000    0.000 
#    0.000    0.000    0.000    0.000    0.000    0.000 
#
# Total GULP energy -347136.180750 kJ/mol
# GULP energy per Si atom -12397.720741 kJ/mol
# Density = 2.331593 g / cm^3
# Si number density = 23.369122 Si / 1000 Ang^3
#
#
#
# Elastic Constant Matrix: (Units=GPa)
#
#
# Indices 1 2 3 4 5 6 
#
# 1 75.2564 18.0325 19.8760 0.0000 1.6193 0.0000
# 2 18.0325 54.6801 25.8112 0.0000 -7.6211 0.0000
# 3 19.8760 25.8112 117.4347 0.0000 -5.8407 0.0000
# 4 0.0000 0.0000 0.0000 31.5983 0.0000 -2.5339
# 5 1.6193 -7.6211 -5.8407 0.0000 34.5786 0.0000
# 6 0.0000 0.0000 0.0000 -2.5339 0.0000 36.7592
#
#
#
# Elastic Compliance Matrix: (Units=1/GPa)
#
#
# Indices 1 2 3 4 5 6 
#
# 1 0.014812 -0.004380 -0.001641 0.000000 -0.001936 0.000000
# 2 -0.004380 0.022200 -0.003917 0.000000 0.004436 0.000000
# 3 -0.001641 -0.003917 0.009696 0.000000 0.000851 0.000000
# 4 0.000000 0.000000 0.000000 0.031823 0.000000 0.002194
# 5 -0.001936 0.004436 0.000851 0.000000 0.030132 0.000000
# 6 0.000000 0.000000 0.000000 0.002194 0.000000 0.027355
#
#
# Mechanical properties :
#
#
# Convention : Reuss Voigt Hill
#
# Bulk Modulus (GPa) = 37.26824 41.64560 39.45692
# Shear Modulus (GPa) = 30.33242 32.83066 31.58154
#
# Velocity S-wave (km/s) = 3.60664 3.75223 3.68016
# Velocity P-wave (km/s) = 5.77288 6.05242 5.91430
#
# Compressibility (1/GPa) = 0.02683250
#
# Stress axis : x y z
#
# Youngs Moduli (GPa) = 67.51079 45.04455 103.13113
#
# Poissons Ratio (x) = 0.19731 0.16919
# Poissons Ratio (y) = 0.29572 0.40401
# Poissons Ratio (z) = 0.11076 0.17646
#
# Static dielectric constant tensor:
#      x y z
#    x 3.969840 0.000000 -0.054960 
#    y 0.000000 4.268340 0.000000 
#    z -0.054960 0.000000 4.379830 
# 
# 
# High freq. dielectric constant tensor:
#      x y z
#    x 1.914160 0.000000 0.002830 
#    y 0.000000 1.920440 0.000000 
#    z 0.002830 0.000000 1.934260 
# 
# From -- ./inp_files/13227.got.cif
#   From: 2010.03.12/outbox.cif.g09.slc.cpg/sg14_7_cif.got.tgz:13227.got - 2010.03.31 13:35:05.
