data_PCOD8127505
_publ_section_title
;
Structure prediction by ZEFSAII (Michael W. Deem and Ramdas Pophale) SiO2 
 PCOD8127505
Probable space group: P 21/C
;
_chemical_formula_sum "Si O2"
_cell_formula_units_Z 32
_cell_length_a 15.499079
_cell_length_b 10.651570
_cell_length_c 30.718987
_cell_angle_alpha 90.000000
_cell_angle_beta 162.170365
_cell_angle_gamma 90.000000
_cell_volume 1552.795251
_symmetry_space_group_name_H-M "P 21/C"
_symmetry_group_IT_number 14
_symmetry_cell_setting 'monoclinic'
loop_
_space_group_symop_operation_xyz
x,y,z
-x,1/2+y,1/2-z
-x,-y,-z
x,1/2-y,1/2+z
loop_
_atom_site_type_symbol
_atom_site_label
_atom_site_fract_x
_atom_site_fract_y
_atom_site_fract_z
Si Si1 0.304923 0.143164 0.271212
Si Si2 0.816839 0.208812 0.576730
Si Si3 0.749850 0.353457 0.357838
Si Si4 0.684077 0.122328 0.089232
Si Si5 0.781942 0.971694 0.609640
Si Si6 0.327440 0.361931 0.681130
Si Si7 0.108134 0.868439 0.173387
Si Si8 0.421799 0.240214 0.543617
O O1 0.591922 0.155164 0.435183
O O2 0.377043 0.160027 0.255593
O O3 0.088323 0.250552 0.180412
O O4 0.166902 0.010016 0.215910
O O5 0.676080 0.318972 0.537427
O O6 0.919221 0.100813 0.659011
O O7 0.605218 0.490590 0.298022
O O8 0.530518 0.237916 0.254614
O O9 0.886534 0.353653 0.375793
O O10 0.003531 0.331673 0.513603
O O11 0.556908 0.215525 0.063540
O O12 0.008208 0.094842 0.256150
O O13 0.500000 0.000000 0.000000
O O14 0.732313 0.889304 0.542433
O O15 0.500000 0.000000 0.500000
O O16 0.338587 0.777008 0.305163
O O17 0.798137 0.838174 0.042061
#
# Coordination Sequence:
#
# PCOD8127505 Si02
#       8
#     4   4   4   4   4   4   4   4
#     4  11  24  42  65  94 128 165 207 268 317 381
#     4  12  24  41  63  88 128 165 212 258 319 371
#     4  10  22  43  68  97 131 170 211 268 330 393
#     4  12  27  40  64  90 122 172 216 259 316 379
#     4  12  25  42  61  87 125 169 213 264 314 366
#     4  10  22  43  67  97 132 167 212 263 330 394
#     4  11  24  43  66  93 129 166 214 268 318 379
#     4  12  24  43  62  91 127 166 217 263 315 377
#
# _framework density 20.607996
#
# number of rings (size 3 to 8) (size 9 to 14) (size 15 to 20)
#    0.000    0.750    3.750    3.750    3.500    0.500 
#    2.250    0.000    0.000    0.000    0.000    0.000 
#    0.000    0.000    0.000    0.000    0.000    0.000 
#
# Total GULP energy -396944.540281 kJ/mol
# GULP energy per Si atom -12404.516884 kJ/mol
# Density = 2.056109 g / cm^3
# Si number density = 20.607996 Si / 1000 Ang^3
#
#
#
# Elastic Constant Matrix: (Units=GPa)
#
#
# Indices 1 2 3 4 5 6 
#
# 1 72.2044 27.4155 23.1631 0.0000 0.0985 0.0000
# 2 27.4155 88.5429 22.0657 0.0000 6.8497 0.0000
# 3 23.1631 22.0657 91.9094 0.0000 -3.8917 0.0000
# 4 0.0000 0.0000 0.0000 37.7562 0.0000 3.2191
# 5 0.0985 6.8497 -3.8917 0.0000 38.0617 0.0000
# 6 0.0000 0.0000 0.0000 3.2191 0.0000 38.4096
#
#
#
# Elastic Compliance Matrix: (Units=1/GPa)
#
#
# Indices 1 2 3 4 5 6 
#
# 1 0.016500 -0.004372 -0.003091 0.000000 0.000428 0.000000
# 2 -0.004372 0.013406 -0.002228 0.000000 -0.002629 0.000000
# 3 -0.003091 -0.002228 0.012265 0.000000 0.001663 0.000000
# 4 0.000000 0.000000 0.000000 0.026676 0.000000 -0.002236
# 5 0.000428 -0.002629 0.001663 0.000000 0.026915 0.000000
# 6 0.000000 0.000000 0.000000 -0.002236 0.000000 0.026223
#
#
# Mechanical properties :
#
#
# Convention : Reuss Voigt Hill
#
# Bulk Modulus (GPa) = 43.87925 44.21616 44.04770
# Shear Modulus (GPa) = 33.56525 34.84631 34.20578
#
# Velocity S-wave (km/s) = 4.04015 4.11653 4.07852
# Velocity P-wave (km/s) = 6.56524 6.64055 6.60300
#
# Compressibility (1/GPa) = 0.02278981
#
# Stress axis : x y z
#
# Youngs Moduli (GPa) = 60.60431 74.59184 81.53579
#
# Poissons Ratio (x) = 0.32611 0.25201
# Poissons Ratio (y) = 0.26496 0.18167
# Poissons Ratio (z) = 0.18731 0.16620
#
# Static dielectric constant tensor:
#      x y z
#    x 3.700490 0.000000 -0.164350 
#    y 0.000000 3.898310 0.000000 
#    z -0.164350 0.000000 3.736320 
# 
# 
# High freq. dielectric constant tensor:
#      x y z
#    x 1.803910 0.000000 -0.010210 
#    y 0.000000 1.819280 0.000000 
#    z -0.010210 0.000000 1.815210 
# 
# From -- ./inp_files/77605.got.cif
#   From: 2010.03.12/outbox.cif.g09.slc.cpg/sg14_39_cif.got.tgz:77605.got - 2010.03.31 13:35:05.
