data_PCOD8127815
_publ_section_title
;
Structure prediction by ZEFSAII (Michael W. Deem and Ramdas Pophale) SiO2 
 PCOD8127815
Probable space group: P 21/C
;
_chemical_formula_sum "Si O2"
_cell_formula_units_Z 20
_cell_length_a 18.041981
_cell_length_b 12.420055
_cell_length_c 5.465339
_cell_angle_alpha 90.000000
_cell_angle_beta 139.227735
_cell_angle_gamma 90.000000
_cell_volume 799.786372
_symmetry_space_group_name_H-M "P 21/C"
_symmetry_group_IT_number 14
_symmetry_cell_setting 'monoclinic'
loop_
_space_group_symop_operation_xyz
x,y,z
-x,1/2+y,1/2-z
-x,-y,-z
x,1/2-y,1/2+z
loop_
_atom_site_type_symbol
_atom_site_label
_atom_site_fract_x
_atom_site_fract_y
_atom_site_fract_z
Si Si1 0.367488 0.811893 0.308669
Si Si2 0.126948 0.795118 0.405958
Si Si3 0.126947 0.295118 0.228776
Si Si4 0.222622 1.000000 0.806550
Si Si5 0.367486 0.188107 0.028764
O O1 0.335619 0.731429 0.453293
O O2 0.500001 0.836827 0.656954
O O3 0.302479 0.926267 0.178055
O O4 0.185703 0.754553 0.809917
O O5 0.138199 0.924588 0.430935
O O6 0.000001 0.749998 0.102584
O O7 0.185701 0.245448 0.618594
O O8 0.138200 0.424588 0.260060
O O9 0.302478 0.073733 0.834331
O O10 0.335617 0.231428 0.224796
#
# Coordination Sequence:
#
# PCOD8127815 Si02
#       5
#     4   4   4   4   4
#     4  10  23  42  63  93 127 157 201 254 302 364
#     4  10  24  42  60  89 123 159 207 257 299 355
#     4  10  24  42  60  89 123 159 207 257 299 355
#     4  12  23  40  68  90 122 168 205 244 312 364
#     4  10  23  42  63  93 127 157 201 254 302 364
#
# _framework density 25.006679999999999
#
# number of rings (size 3 to 8) (size 9 to 14) (size 15 to 20)
#    0.000    1.600    0.000    3.000    0.000   12.800 
#    0.000    6.000    0.000    0.000    0.000    0.000 
#    0.000    0.000    0.000    0.000    0.000    0.000 
#
# Total GULP energy -247947.099431 kJ/mol
# GULP energy per Si atom -12397.354972 kJ/mol
# Density = 2.494976 g / cm^3
# Si number density = 25.006680 Si / 1000 Ang^3
#
#
#
# Elastic Constant Matrix: (Units=GPa)
#
#
# Indices 1 2 3 4 5 6 
#
# 1 153.5739 61.7991 63.8239 0.0000 6.0942 0.0000
# 2 61.7991 200.1201 65.0821 0.0000 17.7313 0.0000
# 3 63.8239 65.0821 155.6165 0.0000 4.9182 0.0000
# 4 0.0000 0.0000 0.0000 46.6312 0.0000 22.5716
# 5 6.0942 17.7313 4.9182 0.0000 39.0847 0.0000
# 6 0.0000 0.0000 0.0000 22.5716 0.0000 42.4512
#
#
#
# Elastic Compliance Matrix: (Units=1/GPa)
#
#
# Indices 1 2 3 4 5 6 
#
# 1 0.008316 -0.001671 -0.002706 0.000000 -0.000198 0.000000
# 2 -0.001671 0.006338 -0.001891 0.000000 -0.002377 0.000000
# 3 -0.002706 -0.001891 0.008319 0.000000 0.000233 0.000000
# 4 0.000000 0.000000 0.000000 0.028877 0.000000 -0.015354
# 5 -0.000198 -0.002377 0.000233 0.000000 0.026666 0.000000
# 6 0.000000 0.000000 0.000000 -0.015354 0.000000 0.031720
#
#
# Mechanical properties :
#
#
# Convention : Reuss Voigt Hill
#
# Bulk Modulus (GPa) = 95.78771 98.96899 97.37835
# Shear Modulus (GPa) = 39.60388 46.87376 43.23882
#
# Velocity S-wave (km/s) = 3.98393 4.33419 4.16274
# Velocity P-wave (km/s) = 7.71688 8.04424 7.88226
#
# Compressibility (1/GPa) = 0.01043975
#
# Stress axis : x y z
#
# Youngs Moduli (GPa) = 120.24790 157.77000 120.20510
#
# Poissons Ratio (x) = 0.26357 0.32525
# Poissons Ratio (y) = 0.20088 0.22725
# Poissons Ratio (z) = 0.32537 0.29827
#
# Static dielectric constant tensor:
#      x y z
#    x 5.542650 0.000000 -0.331530 
#    y 0.000000 4.335950 0.000000 
#    z -0.331530 0.000000 5.481290 
# 
# 
# High freq. dielectric constant tensor:
#      x y z
#    x 2.041600 0.000000 0.036150 
#    y 0.000000 1.978320 0.000000 
#    z 0.036150 0.000000 2.048290 
# 
# From -- ./inp_files/3495.got.cif
#   From: 2010.03.12/outbox.cif.g09.slc.cpg/sg14_2_cif.got.tgz:3495.got - 2010.03.31 13:35:05.
