data_PCOD8127259
_publ_section_title
;
Structure prediction by ZEFSAII (Michael W. Deem and Ramdas Pophale) SiO2 
 PCOD8127259
Probable space group: P 21/C
;
_chemical_formula_sum "Si O2"
_cell_formula_units_Z 20
_cell_length_a 12.105955
_cell_length_b 7.256415
_cell_length_c 19.142942
_cell_angle_alpha 90.000000
_cell_angle_beta 144.014981
_cell_angle_gamma 90.000000
_cell_volume 988.080207
_symmetry_space_group_name_H-M "P 21/C"
_symmetry_group_IT_number 14
_symmetry_cell_setting 'monoclinic'
loop_
_space_group_symop_operation_xyz
x,y,z
-x,1/2+y,1/2-z
-x,-y,-z
x,1/2-y,1/2+z
loop_
_atom_site_type_symbol
_atom_site_label
_atom_site_fract_x
_atom_site_fract_y
_atom_site_fract_z
Si Si1 0.128845 0.977208 0.729373
Si Si2 0.004509 0.191792 0.081188
Si Si3 0.115678 0.121811 0.876743
Si Si4 0.499788 0.349719 0.645313
Si Si5 0.308437 0.951606 0.171496
O O1 0.347261 0.954544 0.823064
O O2 0.033008 0.778974 0.681182
O O3 0.025001 0.099794 0.617760
O O4 0.113991 0.084322 0.794163
O O5 0.203227 0.126273 0.151321
O O6 0.942888 0.062023 0.113249
O O7 0.845744 0.188547 0.939901
O O8 0.320591 0.189607 0.005203
O O9 0.575961 0.152720 0.709799
O O10 0.451690 0.477700 0.686505
#
# Coordination Sequence:
#
# PCOD8127259 Si02
#       5
#     4   4   4   4   4
#     4  12  23  44  68  89 130 172 211 263 323 364
#     4  10  22  42  65  91 130 170 207 265 313 377
#     4  11  24  43  64  96 128 167 219 259 314 377
#     4  11  24  40  66  97 129 166 213 263 316 380
#     4  10  22  41  61  98 132 160 216 260 312 382
#
# _framework density 20.241273
#
# number of rings (size 3 to 8) (size 9 to 14) (size 15 to 20)
#    0.000    1.200    4.000    1.800    2.800    0.800 
#    0.000    2.000    0.000    0.000    0.000    0.000 
#    0.000    0.000    0.000    0.000    0.000    0.000 
#
# Total GULP energy -248134.557232 kJ/mol
# GULP energy per Si atom -12406.727862 kJ/mol
# Density = 2.019520 g / cm^3
# Si number density = 20.241273 Si / 1000 Ang^3
#
#
#
# Elastic Constant Matrix: (Units=GPa)
#
#
# Indices 1 2 3 4 5 6 
#
# 1 83.9854 9.4267 7.4632 0.0000 23.3760 0.0000
# 2 9.4267 49.9175 8.9529 0.0000 10.8153 0.0000
# 3 7.4632 8.9529 70.5349 0.0000 13.7962 0.0000
# 4 0.0000 0.0000 0.0000 29.9551 0.0000 -7.5927
# 5 23.3760 10.8153 13.7962 0.0000 34.0689 0.0000
# 6 0.0000 0.0000 0.0000 -7.5927 0.0000 34.9713
#
#
#
# Elastic Compliance Matrix: (Units=1/GPa)
#
#
# Indices 1 2 3 4 5 6 
#
# 1 0.014753 -0.000686 0.000503 0.000000 -0.010108 0.000000
# 2 -0.000686 0.021695 -0.001549 0.000000 -0.005789 0.000000
# 3 0.000503 -0.001549 0.015521 0.000000 -0.006139 0.000000
# 4 0.000000 0.000000 0.000000 0.035327 0.000000 0.007670
# 5 -0.010108 -0.005789 -0.006139 0.000000 0.040612 0.000000
# 6 0.000000 0.000000 0.000000 0.007670 0.000000 0.030260
#
#
# Mechanical properties :
#
#
# Convention : Reuss Voigt Hill
#
# Bulk Modulus (GPa) = 20.61623 28.45816 24.53719
# Shear Modulus (GPa) = 28.12152 31.70540 29.91346
#
# Velocity S-wave (km/s) = 3.73140 3.96204 3.84845
# Velocity P-wave (km/s) = 5.36393 5.91780 5.64766
#
# Compressibility (1/GPa) = 0.04850548
#
# Stress axis : x y z
#
# Youngs Moduli (GPa) = 67.78459 46.09426 64.42688
#
# Poissons Ratio (x) = 0.03163 -0.03242
# Poissons Ratio (y) = 0.04651 0.09978
# Poissons Ratio (z) = -0.03411 0.07139
#
# Static dielectric constant tensor:
#      x y z
#    x 3.841030 0.000000 0.052020 
#    y 0.000000 3.449760 0.000000 
#    z 0.052020 0.000000 3.717670 
# 
# 
# High freq. dielectric constant tensor:
#      x y z
#    x 1.810130 0.000000 0.003310 
#    y 0.000000 1.783850 0.000000 
#    z 0.003310 0.000000 1.792140 
# 
# From -- ./inp_files/27741.got.cif
#   From: 2010.03.12/outbox.cif.g09.slc.cpg/sg14_14_cif.got.tgz:27741.got - 2010.03.31 13:35:05.
