data_PCOD8127216
_publ_section_title
;
Structure prediction by ZEFSAII (Michael W. Deem and Ramdas Pophale) SiO2 
 PCOD8127216
Probable space group: P 21/C
;
_chemical_formula_sum "Si O2"
_cell_formula_units_Z 28
_cell_length_a 5.042415
_cell_length_b 17.922209
_cell_length_c 14.669605
_cell_angle_alpha 90.000000
_cell_angle_beta 107.504241
_cell_angle_gamma 90.000000
_cell_volume 1264.322621
_symmetry_space_group_name_H-M "P 21/C"
_symmetry_group_IT_number 14
_symmetry_cell_setting 'monoclinic'
loop_
_space_group_symop_operation_xyz
x,y,z
-x,1/2+y,1/2-z
-x,-y,-z
x,1/2-y,1/2+z
loop_
_atom_site_type_symbol
_atom_site_label
_atom_site_fract_x
_atom_site_fract_y
_atom_site_fract_z
Si Si1 0.809236 0.868431 0.884879
Si Si2 0.808616 0.408729 0.728638
Si Si3 0.191520 0.424673 0.244696
Si Si4 0.364815 0.836609 0.305840
Si Si5 0.202375 0.750289 0.460998
Si Si6 0.916006 0.272434 0.853749
Si Si7 0.663109 0.853071 0.063388
O O1 0.497645 0.875354 0.816122
O O2 0.018693 0.919454 0.847384
O O3 0.823719 0.890293 0.993895
O O4 0.908950 0.780414 0.888350
O O5 0.795832 0.488032 0.777885
O O6 0.977401 0.349709 0.808204
O O7 0.342434 0.378354 0.179861
O O8 0.357385 0.412806 0.357343
O O9 0.876203 0.398570 0.222616
O O10 0.369632 0.800112 0.406472
O O11 0.323189 0.774862 0.222805
O O12 0.171446 0.794609 0.552368
O O13 0.361236 0.672184 0.497499
O O14 0.191050 0.222115 0.884013
#
# Coordination Sequence:
#
# PCOD8127216 Si02
#       7
#     4   4   4   4   4   4   4
#     4  11  23  39  65  96 124 165 215 269 325 376
#     4  12  25  43  64  95 135 173 211 263 330 391
#     4  11  26  43  62  94 136 174 206 265 335 382
#     4  11  23  43  66  89 130 172 216 267 316 385
#     4  11  22  40  69 100 122 165 226 274 312 374
#     4  10  23  38  69  94 125 168 223 266 315 384
#     4  10  22  40  65  99 126 164 223 272 323 380
#
# _framework density 22.146245
#
# number of rings (size 3 to 8) (size 9 to 14) (size 15 to 20)
#    0.000    1.143    4.286    0.857    8.000    1.143 
#    0.000    1.429    0.000    0.000    0.000    0.000 
#    0.000    0.000    0.000    0.000    0.000    0.000 
#
# Total GULP energy -347185.739737 kJ/mol
# GULP energy per Si atom -12399.490705 kJ/mol
# Density = 2.209584 g / cm^3
# Si number density = 22.146245 Si / 1000 Ang^3
#
#
#
# Elastic Constant Matrix: (Units=GPa)
#
#
# Indices 1 2 3 4 5 6 
#
# 1 80.8472 2.9935 13.7849 0.0000 -19.0862 0.0000
# 2 2.9935 82.4395 24.8396 0.0000 -11.2326 0.0000
# 3 13.7849 24.8396 74.7266 0.0000 -18.6285 0.0000
# 4 0.0000 0.0000 0.0000 23.8991 0.0000 -5.9645
# 5 -19.0862 -11.2326 -18.6285 0.0000 30.4889 0.0000
# 6 0.0000 0.0000 0.0000 -5.9645 0.0000 26.8852
#
#
#
# Elastic Compliance Matrix: (Units=1/GPa)
#
#
# Indices 1 2 3 4 5 6 
#
# 1 0.014591 0.000925 -0.000752 0.000000 0.009016 0.000000
# 2 0.000925 0.013720 -0.003925 0.000000 0.003236 0.000000
# 3 -0.000752 -0.003925 0.016926 0.000000 0.008425 0.000000
# 4 0.000000 0.000000 0.000000 0.044295 0.000000 0.009827
# 5 0.009016 0.003236 0.008425 0.000000 0.044783 0.000000
# 6 0.000000 0.000000 0.000000 0.009827 0.000000 0.039375
#
#
# Mechanical properties :
#
#
# Convention : Reuss Voigt Hill
#
# Bulk Modulus (GPa) = 26.50092 35.69438 31.09765
# Shear Modulus (GPa) = 25.80377 29.34765 27.57571
#
# Velocity S-wave (km/s) = 3.41714 3.64424 3.53252
# Velocity P-wave (km/s) = 5.24990 5.81893 5.54172
#
# Compressibility (1/GPa) = 0.03773454
#
# Stress axis : x y z
#
# Youngs Moduli (GPa) = 68.53374 72.88674 59.08216
#
# Poissons Ratio (x) = -0.06742 0.04441
# Poissons Ratio (y) = -0.06340 0.23187
# Poissons Ratio (z) = 0.05151 0.28605
#
# Static dielectric constant tensor:
#      x y z
#    x 4.046110 0.000000 -0.142580 
#    y 0.000000 3.633120 0.000000 
#    z -0.142580 0.000000 4.020880 
# 
# 
# High freq. dielectric constant tensor:
#      x y z
#    x 1.883720 0.000000 -0.011370 
#    y 0.000000 1.836180 0.000000 
#    z -0.011370 0.000000 1.864570 
# 
# From -- ./inp_files/37740.got.cif
#   From: 2010.03.12/outbox.cif.g09.slc.cpg/sg14_19_cif.got.tgz:37740.got - 2010.03.31 13:35:05.
