data_PCOD8127131
_publ_section_title
;
Structure prediction by ZEFSAII (Michael W. Deem and Ramdas Pophale) SiO2 
 PCOD8127131
Probable space group: P 21/C
;
_chemical_formula_sum "Si O2"
_cell_formula_units_Z 28
_cell_length_a 18.278786
_cell_length_b 17.763125
_cell_length_c 7.824912
_cell_angle_alpha 90.000000
_cell_angle_beta 145.986821
_cell_angle_gamma 90.000000
_cell_volume 1421.202287
_symmetry_space_group_name_H-M "P 21/C"
_symmetry_group_IT_number 14
_symmetry_cell_setting 'monoclinic'
loop_
_space_group_symop_operation_xyz
x,y,z
-x,1/2+y,1/2-z
-x,-y,-z
x,1/2-y,1/2+z
loop_
_atom_site_type_symbol
_atom_site_label
_atom_site_fract_x
_atom_site_fract_y
_atom_site_fract_z
Si Si1 0.213039 0.351681 0.195727
Si Si2 0.485373 0.667058 0.268115
Si Si3 0.394981 0.934397 0.288541
Si Si4 0.131293 0.510999 0.151844
Si Si5 0.930003 0.753679 0.856278
Si Si6 0.099787 0.668421 0.951164
Si Si7 0.391717 0.823780 0.968028
O O1 0.363905 0.355276 0.441946
O O2 0.163708 0.436698 0.109105
O O3 0.186057 0.304418 0.316870
O O4 0.125506 0.310015 0.888920
O O5 0.433016 0.650966 0.357676
O O6 0.405968 0.618185 0.976124
O O7 0.476196 0.753930 0.197901
O O8 0.500000 0.000000 0.500000
O O9 0.249761 0.969449 0.010861
O O10 0.416500 0.890355 0.151740
O O11 0.110537 0.578370 0.977583
O O12 0.000000 0.500000 0.000000
O O13 0.057728 0.704773 0.050677
O O14 0.979506 0.808899 0.099160
O O15 0.240070 0.701386 0.167886
#
# Coordination Sequence:
#
# PCOD8127131 Si02
#       7
#     4   4   4   4   4   4   4
#     4  11  23  41  64  94 130 170 221 266 335 394
#     4  12  23  43  68  99 133 174 225 275 328 401
#     4  11  25  45  68  98 137 176 220 279 333 394
#     4  11  23  43  65  94 133 175 213 271 339 392
#     4  10  22  39  66  92 127 169 216 274 322 391
#     4  10  22  41  63  95 128 165 220 268 327 395
#     4  11  24  40  71  99 128 175 225 270 334 397
#
# _framework density 19.701627999999999
#
# number of rings (size 3 to 8) (size 9 to 14) (size 15 to 20)
#    0.000    1.143    4.286    1.714    2.000    2.286 
#    2.571    0.000    0.000    0.000    0.000    0.000 
#    0.000    0.000    0.000    0.000    0.000    0.000 
#
# Total GULP energy -347198.361033 kJ/mol
# GULP energy per Si atom -12399.941465 kJ/mol
# Density = 1.965679 g / cm^3
# Si number density = 19.701628 Si / 1000 Ang^3
#
#
#
# Elastic Constant Matrix: (Units=GPa)
#
#
# Indices 1 2 3 4 5 6 
#
# 1 136.7957 39.2742 51.7332 0.0000 4.7771 0.0000
# 2 39.2742 126.1674 51.0985 0.0000 -5.8634 0.0000
# 3 51.7332 51.0985 95.4416 0.0000 8.3797 0.0000
# 4 0.0000 0.0000 0.0000 40.3498 0.0000 1.3208
# 5 4.7771 -5.8634 8.3797 0.0000 40.8531 0.0000
# 6 0.0000 0.0000 0.0000 1.3208 0.0000 29.3965
#
#
#
# Elastic Compliance Matrix: (Units=1/GPa)
#
#
# Indices 1 2 3 4 5 6 
#
# 1 0.009316 -0.001128 -0.004415 0.000000 -0.000345 0.000000
# 2 -0.001128 0.010538 -0.005270 0.000000 0.002725 0.000000
# 3 -0.004415 -0.005270 0.016002 0.000000 -0.003522 0.000000
# 4 0.000000 0.000000 0.000000 0.024820 0.000000 -0.001115
# 5 -0.000345 0.002725 -0.003522 0.000000 0.025632 0.000000
# 6 0.000000 0.000000 0.000000 -0.001115 0.000000 0.034068
#
#
# Mechanical properties :
#
#
# Convention : Reuss Voigt Hill
#
# Bulk Modulus (GPa) = 70.27740 71.40181 70.83961
# Shear Modulus (GPa) = 34.07283 36.53981 35.30632
#
# Velocity S-wave (km/s) = 4.16317 4.31125 4.23785
# Velocity P-wave (km/s) = 7.67187 7.81682 7.74469
#
# Compressibility (1/GPa) = 0.01422932
#
# Stress axis : x y z
#
# Youngs Moduli (GPa) = 107.34424 94.89438 62.49315
#
# Poissons Ratio (x) = 0.10701 0.27594
# Poissons Ratio (y) = 0.12105 0.32934
# Poissons Ratio (z) = 0.47398 0.50009
#
# Static dielectric constant tensor:
#      x y z
#    x 3.920410 0.000000 0.069890 
#    y 0.000000 3.636980 0.000000 
#    z 0.069890 0.000000 3.644840 
# 
# 
# High freq. dielectric constant tensor:
#      x y z
#    x 1.771040 0.000000 0.009620 
#    y 0.000000 1.779370 0.000000 
#    z 0.009620 0.000000 1.774350 
# 
# From -- ./inp_files/19092.got.cif
#   From: 2010.03.12/outbox.cif.g09.slc.cpg/sg14_10_cif.got.tgz:19092.got - 2010.03.31 13:35:05.
