data_PCOD8127875
_publ_section_title
;
Structure prediction by ZEFSAII (Michael W. Deem and Ramdas Pophale) SiO2 
 PCOD8127875
Probable space group: P 21/C
;
_chemical_formula_sum "Si O2"
_cell_formula_units_Z 16
_cell_length_a 10.660394
_cell_length_b 7.033117
_cell_length_c 9.314716
_cell_angle_alpha 90.000000
_cell_angle_beta 91.798242
_cell_angle_gamma 90.000000
_cell_volume 698.034333
_symmetry_space_group_name_H-M "P 21/C"
_symmetry_group_IT_number 14
_symmetry_cell_setting 'monoclinic'
loop_
_space_group_symop_operation_xyz
x,y,z
-x,1/2+y,1/2-z
-x,-y,-z
x,1/2-y,1/2+z
loop_
_atom_site_type_symbol
_atom_site_label
_atom_site_fract_x
_atom_site_fract_y
_atom_site_fract_z
Si Si1 0.865258 0.095025 0.005606
Si Si2 0.510447 0.827340 0.391703
Si Si3 0.241556 0.604671 0.814754
Si Si4 0.327477 0.178461 0.875972
O O1 0.863443 0.302605 0.082911
O O2 0.788045 0.960527 0.109206
O O3 0.805488 0.117297 0.848231
O O4 0.000000 0.000000 0.000000
O O5 0.370265 0.770426 0.336426
O O6 0.582207 0.660983 0.480414
O O7 0.592199 0.886026 0.257676
O O8 0.500000 0.000000 0.500000
O O9 0.268848 0.388491 0.858338
#
# Coordination Sequence:
#
# PCOD8127875 Si02
#       4
#     4   4   4   4
#     4  12  30  47  73 104 149 199 244 289 356 441
#     4  10  23  42  74 109 144 180 237 303 368 424
#     4  11  27  46  72 108 140 190 243 301 361 425
#     4  11  24  47  73 107 148 188 235 305 367 424
#
# _framework density 22.921507999999999
#
# number of rings (size 3 to 8) (size 9 to 14) (size 15 to 20)
#    0.000    1.000    2.500    1.500   17.500    3.000 
#    0.000    0.000    0.000    0.000    0.000    0.000 
#    0.000    0.000    0.000    0.000    0.000    0.000 
#
# Total GULP energy -198372.570488 kJ/mol
# GULP energy per Si atom -12398.285656 kJ/mol
# Density = 2.286934 g / cm^3
# Si number density = 22.921508 Si / 1000 Ang^3
#
#
#
# Elastic Constant Matrix: (Units=GPa)
#
#
# Indices 1 2 3 4 5 6 
#
# 1 147.5412 41.0789 76.1716 0.0000 -20.8902 0.0000
# 2 41.0789 71.1987 27.4132 0.0000 -5.6101 0.0000
# 3 76.1716 27.4132 168.4807 0.0000 3.1725 0.0000
# 4 0.0000 0.0000 0.0000 37.2231 0.0000 -15.9757
# 5 -20.8902 -5.6101 3.1725 0.0000 29.2389 0.0000
# 6 0.0000 0.0000 0.0000 -15.9757 0.0000 37.5813
#
#
#
# Elastic Compliance Matrix: (Units=1/GPa)
#
#
# Indices 1 2 3 4 5 6 
#
# 1 0.011465 -0.004204 -0.004648 0.000000 0.007889 0.000000
# 2 -0.004204 0.016820 -0.000842 0.000000 0.000315 0.000000
# 3 -0.004648 -0.000842 0.008256 0.000000 -0.004378 0.000000
# 4 0.000000 0.000000 0.000000 0.032860 0.000000 0.013969
# 5 0.007889 0.000315 -0.004378 0.000000 0.040373 0.000000
# 6 0.000000 0.000000 0.000000 0.013969 0.000000 0.032547
#
#
# Mechanical properties :
#
#
# Convention : Reuss Voigt Hill
#
# Bulk Modulus (GPa) = 58.29775 75.17198 66.73487
# Shear Modulus (GPa) = 29.86396 36.97911 33.42154
#
# Velocity S-wave (km/s) = 3.61346 4.02094 3.82263
# Velocity P-wave (km/s) = 6.54968 7.37725 6.97575
#
# Compressibility (1/GPa) = 0.01715332
#
# Stress axis : x y z
#
# Youngs Moduli (GPa) = 87.22421 59.45453 121.12074
#
# Poissons Ratio (x) = 0.24992 0.56296
# Poissons Ratio (y) = 0.36665 0.10200
# Poissons Ratio (z) = 0.40541 0.05007
#
# Static dielectric constant tensor:
#      x y z
#    x 4.727510 0.000000 0.421450 
#    y 0.000000 4.414780 0.000000 
#    z 0.421450 0.000000 4.549330 
# 
# 
# High freq. dielectric constant tensor:
#      x y z
#    x 1.897410 0.000000 0.001240 
#    y 0.000000 1.910340 0.000000 
#    z 0.001240 0.000000 1.925120 
# 
# From -- ./inp_files/7336.got.cif
#   From: 2010.03.12/outbox.cif.g09.slc.cpg/sg14_4_cif.got.tgz:7336.got - 2010.03.31 13:35:05.
