data_PCOD8127354
_publ_section_title
;
Structure prediction by ZEFSAII (Michael W. Deem and Ramdas Pophale) SiO2 
 PCOD8127354
Probable space group: P 21/C
;
_chemical_formula_sum "Si O2"
_cell_formula_units_Z 32
_cell_length_a 6.508905
_cell_length_b 25.906058
_cell_length_c 10.721150
_cell_angle_alpha 90.000000
_cell_angle_beta 118.047210
_cell_angle_gamma 90.000000
_cell_volume 1595.493747
_symmetry_space_group_name_H-M "P 21/C"
_symmetry_group_IT_number 14
_symmetry_cell_setting 'monoclinic'
loop_
_space_group_symop_operation_xyz
x,y,z
-x,1/2+y,1/2-z
-x,-y,-z
x,1/2-y,1/2+z
loop_
_atom_site_type_symbol
_atom_site_label
_atom_site_fract_x
_atom_site_fract_y
_atom_site_fract_z
Si Si1 0.491219 0.843986 0.949537
Si Si2 0.789930 0.107296 0.919483
Si Si3 0.473421 0.447754 0.152406
Si Si4 0.229542 0.385566 0.687763
Si Si5 0.019691 0.696372 0.219892
Si Si6 0.949441 0.630914 0.959899
Si Si7 0.379371 0.942276 0.576103
Si Si8 0.044131 0.184161 0.806972
O O1 0.583393 0.881158 0.868249
O O2 0.287282 0.812050 0.829177
O O3 0.411921 0.875042 0.046785
O O4 0.702828 0.809491 0.059265
O O5 0.672994 0.060511 0.812287
O O6 0.871817 0.154186 0.852428
O O7 0.004021 0.086289 0.064358
O O8 0.286474 0.401824 0.097920
O O9 0.346902 0.502926 0.138287
O O10 0.629219 0.450791 0.073278
O O11 0.359485 0.420406 0.826116
O O12 0.148687 0.331170 0.726641
O O13 0.022008 0.757283 0.232397
O O14 0.949386 0.676573 0.062198
O O15 0.964984 0.654803 0.827232
O O16 0.171688 0.595516 0.056982
#
# Coordination Sequence:
#
# PCOD8127354 Si02
#       8
#     4   4   4   4   4   4   4   4
#     4  10  22  42  61  82 132 162 201 260 306 360
#     4  10  22  42  62  90 126 163 209 258 305 376
#     4  11  23  42  66  92 125 167 208 264 318 365
#     4  10  22  42  62  90 126 163 209 258 305 376
#     4  11  25  39  64  93 125 169 210 253 316 372
#     4  12  23  42  64  96 128 164 211 258 312 376
#     4  11  23  42  66  92 125 167 208 264 318 365
#     4  11  25  39  64  93 125 169 210 253 316 372
#
# _framework density 20.056488000000002
#
# number of rings (size 3 to 8) (size 9 to 14) (size 15 to 20)
#    0.000    1.250    5.000    0.375    5.250    3.500 
#    0.000    0.625    0.000    0.000    0.000    0.000 
#    0.000    0.000    0.000    0.000    0.000    0.000 
#
# Total GULP energy -396655.343763 kJ/mol
# GULP energy per Si atom -12395.479493 kJ/mol
# Density = 2.001084 g / cm^3
# Si number density = 20.056488 Si / 1000 Ang^3
#
#
#
# Elastic Constant Matrix: (Units=GPa)
#
#
# Indices 1 2 3 4 5 6 
#
# 1 83.8665 11.9682 17.4097 0.0000 -7.2496 0.0000
# 2 11.9682 69.5257 11.9095 0.0000 4.8976 0.0000
# 3 17.4097 11.9095 89.6213 0.0000 4.4755 0.0000
# 4 0.0000 0.0000 0.0000 23.5429 0.0000 0.8835
# 5 -7.2496 4.8976 4.4755 0.0000 40.1588 0.0000
# 6 0.0000 0.0000 0.0000 0.8835 0.0000 14.0148
#
#
#
# Elastic Compliance Matrix: (Units=1/GPa)
#
#
# Indices 1 2 3 4 5 6 
#
# 1 0.012955 -0.002021 -0.002390 0.000000 0.002852 0.000000
# 2 -0.002021 0.015135 -0.001517 0.000000 -0.002042 0.000000
# 3 -0.002390 -0.001517 0.011902 0.000000 -0.001573 0.000000
# 4 0.000000 0.000000 0.000000 0.042576 0.000000 -0.002684
# 5 0.002852 -0.002042 -0.001573 0.000000 0.025840 0.000000
# 6 0.000000 0.000000 0.000000 -0.002684 0.000000 0.071522
#
#
# Mechanical properties :
#
#
# Convention : Reuss Voigt Hill
#
# Bulk Modulus (GPa) = 35.54251 36.17648 35.85949
# Shear Modulus (GPa) = 24.85504 28.99169 26.92337
#
# Velocity S-wave (km/s) = 3.52412 3.80610 3.66782
# Velocity P-wave (km/s) = 5.85823 6.11487 5.98793
#
# Compressibility (1/GPa) = 0.02813532
#
# Stress axis : x y z
#
# Youngs Moduli (GPa) = 77.19086 66.07307 84.01597
#
# Poissons Ratio (x) = 0.13356 0.20083
# Poissons Ratio (y) = 0.15604 0.12742
# Poissons Ratio (z) = 0.18452 0.10020
#
# Static dielectric constant tensor:
#      x y z
#    x 3.823730 0.000000 0.140940 
#    y 0.000000 3.451160 0.000000 
#    z 0.140940 0.000000 4.043970 
# 
# 
# High freq. dielectric constant tensor:
#      x y z
#    x 1.790800 0.000000 0.003270 
#    y 0.000000 1.761120 0.000000 
#    z 0.003270 0.000000 1.808570 
# 
# From -- ./inp_files/22187.got.cif
#   From: 2010.03.12/outbox.cif.g09.slc.cpg/sg14_12_cif.got.tgz:22187.got - 2010.03.31 13:35:05.
