data_PCOD8127931
_publ_section_title
;
Structure prediction by ZEFSAII (Michael W. Deem and Ramdas Pophale) SiO2 
 PCOD8127931
Probable space group: P 21/C
;
_chemical_formula_sum "Si O2"
_cell_formula_units_Z 32
_cell_length_a 32.387943
_cell_length_b 4.945976
_cell_length_c 18.775698
_cell_angle_alpha 90.000000
_cell_angle_beta 29.722752
_cell_angle_gamma 90.000000
_cell_volume 1491.217884
_symmetry_space_group_name_H-M "P 21/C"
_symmetry_group_IT_number 14
_symmetry_cell_setting 'monoclinic'
loop_
_space_group_symop_operation_xyz
x,y,z
-x,1/2+y,1/2-z
-x,-y,-z
x,1/2-y,1/2+z
loop_
_atom_site_type_symbol
_atom_site_label
_atom_site_fract_x
_atom_site_fract_y
_atom_site_fract_z
Si Si1 0.722170 0.868958 0.084282
Si Si2 0.597213 0.528187 0.056549
Si Si3 0.937808 0.249926 0.093040
Si Si4 0.596372 0.024159 0.153880
Si Si5 0.826451 0.124851 0.626671
Si Si6 0.825810 0.128516 0.393983
Si Si7 0.948214 0.443668 0.827369
Si Si8 0.722998 0.872843 0.247375
O O1 0.697348 0.799733 0.203852
O O2 0.643818 0.982864 0.157313
O O3 0.754674 0.602048 0.993402
O O4 0.790524 0.104347 0.984102
O O5 0.622855 0.301241 0.075692
O O6 0.500504 0.509510 0.181187
O O7 0.620630 0.804928 0.059217
O O8 0.645942 0.509904 0.908741
O O9 0.872548 0.273402 0.127399
O O10 0.871654 0.225680 0.254920
O O11 0.000000 0.500000 0.000000
O O12 0.000000 0.000000 0.000000
O O13 0.895319 0.980247 0.475305
O O14 0.790381 0.389124 0.642488
O O15 0.756342 0.892101 0.739947
O O16 0.894943 0.984542 0.338388
O O17 0.029841 0.627313 0.704659
#
# Coordination Sequence:
#
# PCOD8127931 Si02
#       8
#     4   4   4   4   4   4   4   4
#     4  12  24  43  66 100 136 172 218 272 329 396
#     4  10  23  43  69 101 134 174 220 264 323 396
#     4  12  26  46  64  92 130 170 224 280 334 392
#     4  10  23  43  69 101 134 174 220 264 323 396
#     4  12  25  42  65  98 128 170 222 273 327 396
#     4  12  25  42  65  98 128 170 222 273 327 396
#     4  12  22  40  64  88 125 172 213 266 324 382
#     4  12  24  43  66 100 136 172 218 272 329 396
#
# _framework density 21.458971999999999
#
# number of rings (size 3 to 8) (size 9 to 14) (size 15 to 20)
#    0.000    0.500    2.500    6.000    5.250    0.500 
#    0.000    0.000    0.000    7.500    0.000    0.000 
#    0.000    0.000    0.000    0.000    0.000    0.000 
#
# Total GULP energy -396725.183130 kJ/mol
# GULP energy per Si atom -12397.661973 kJ/mol
# Density = 2.141013 g / cm^3
# Si number density = 21.458972 Si / 1000 Ang^3
#
#
#
# Elastic Constant Matrix: (Units=GPa)
#
#
# Indices 1 2 3 4 5 6 
#
# 1 138.6046 24.2759 63.7517 0.0000 2.1812 0.0000
# 2 24.2759 116.8552 37.2985 0.0000 -4.2039 0.0000
# 3 63.7517 37.2985 121.0631 0.0000 18.1091 0.0000
# 4 0.0000 0.0000 0.0000 33.3430 0.0000 -1.6370
# 5 2.1812 -4.2039 18.1091 0.0000 29.1067 0.0000
# 6 0.0000 0.0000 0.0000 -1.6370 0.0000 30.2557
#
#
#
# Elastic Compliance Matrix: (Units=1/GPa)
#
#
# Indices 1 2 3 4 5 6 
#
# 1 0.009714 -0.000182 -0.005454 0.000000 0.002639 0.000000
# 2 -0.000182 0.009833 -0.003471 0.000000 0.003593 0.000000
# 3 -0.005454 -0.003471 0.013469 0.000000 -0.008472 0.000000
# 4 0.000000 0.000000 0.000000 0.030071 0.000000 0.001627
# 5 0.002639 0.003593 -0.008472 0.000000 0.039949 0.000000
# 6 0.000000 0.000000 0.000000 0.001627 0.000000 0.033140
#
#
# Mechanical properties :
#
#
# Convention : Reuss Voigt Hill
#
# Bulk Modulus (GPa) = 67.56188 69.68612 68.62400
# Shear Modulus (GPa) = 31.38297 35.28754 33.33525
#
# Velocity S-wave (km/s) = 3.82837 4.05954 3.94565
# Velocity P-wave (km/s) = 7.14804 7.38362 7.26678
#
# Compressibility (1/GPa) = 0.01480125
#
# Stress axis : x y z
#
# Youngs Moduli (GPa) = 102.94791 101.70278 74.24574
#
# Poissons Ratio (x) = 0.01853 0.40492
# Poissons Ratio (y) = 0.01876 0.25770
# Poissons Ratio (z) = 0.56146 0.35300
#
# Static dielectric constant tensor:
#      x y z
#    x 3.764200 0.000000 0.042150 
#    y 0.000000 3.958230 0.000000 
#    z 0.042150 0.000000 3.632930 
# 
# 
# High freq. dielectric constant tensor:
#      x y z
#    x 1.844350 0.000000 0.001030 
#    y 0.000000 1.860610 0.000000 
#    z 0.001030 0.000000 1.843730 
# 
# From -- ./inp_files/62485.got.cif
#   From: 2010.03.12/outbox.cif.g09.slc.cpg/sg14_32_cif.got.tgz:62485.got - 2010.03.31 13:35:05.
