data_PCOD8127064
_publ_section_title
;
Structure prediction by ZEFSAII (Michael W. Deem and Ramdas Pophale) SiO2 
 PCOD8127064
Probable space group: P 21/C
;
_chemical_formula_sum "Si O2"
_cell_formula_units_Z 20
_cell_length_a 11.582236
_cell_length_b 9.079577
_cell_length_c 12.955901
_cell_angle_alpha 90.000000
_cell_angle_beta 144.360101
_cell_angle_gamma 90.000000
_cell_volume 793.893966
_symmetry_space_group_name_H-M "P 21/C"
_symmetry_group_IT_number 14
_symmetry_cell_setting 'monoclinic'
loop_
_space_group_symop_operation_xyz
x,y,z
-x,1/2+y,1/2-z
-x,-y,-z
x,1/2-y,1/2+z
loop_
_atom_site_type_symbol
_atom_site_label
_atom_site_fract_x
_atom_site_fract_y
_atom_site_fract_z
Si Si1 0.904714 0.199114 0.524813
Si Si2 0.419959 0.014942 0.075542
Si Si3 0.294041 0.182151 0.379917
Si Si4 0.179757 0.569417 0.231231
Si Si5 0.549439 0.086030 0.381586
O O1 0.867420 0.215789 0.372185
O O2 0.694654 0.203696 0.431100
O O3 0.059760 0.316973 0.680959
O O4 0.987735 0.032901 0.599094
O O5 0.643238 0.980227 0.199686
O O6 0.410078 0.008045 0.192884
O O7 0.354209 0.178170 0.991107
O O8 0.265730 0.898265 0.909259
O O9 0.415943 0.179335 0.362088
O O10 0.325019 0.035407 0.467301
#
# Coordination Sequence:
#
# PCOD8127064 Si02
#       5
#     4   4   4   4   4
#     4   9  18  36  62  86 117 160 200 250 297 354
#     4   9  18  34  60  88 122 164 197 245 298 355
#     4  10  22  39  59  89 124 156 199 252 309 365
#     4   8  16  32  56  90 114 144 207 239 275 360
#     4  10  22  39  59  89 125 159 201 252 309 363
#
# _framework density 25.192281000000001
#
# number of rings (size 3 to 8) (size 9 to 14) (size 15 to 20)
#    0.000    2.800    0.000    0.000    0.000   11.200 
#    0.000   12.000    0.000   21.600    0.000    8.400 
#    0.000    0.000    0.000    0.000    0.000    0.000 
#
# Total GULP energy -247800.757900 kJ/mol
# GULP energy per Si atom -12390.037895 kJ/mol
# Density = 2.513494 g / cm^3
# Si number density = 25.192281 Si / 1000 Ang^3
#
#
#
# Elastic Constant Matrix: (Units=GPa)
#
#
# Indices 1 2 3 4 5 6 
#
# 1 95.8923 12.8320 51.1687 0.0000 -15.5181 0.0000
# 2 12.8320 34.8252 25.7814 0.0000 -14.1135 0.0000
# 3 51.1687 25.7814 191.1323 0.0000 -27.2743 0.0000
# 4 0.0000 0.0000 0.0000 35.3720 0.0000 -2.8859
# 5 -15.5181 -14.1135 -27.2743 0.0000 37.1585 0.0000
# 6 0.0000 0.0000 0.0000 -2.8859 0.0000 16.0332
#
#
#
# Elastic Compliance Matrix: (Units=1/GPa)
#
#
# Indices 1 2 3 4 5 6 
#
# 1 0.012537 -0.001497 -0.002780 0.000000 0.002627 0.000000
# 2 -0.001497 0.035798 -0.002878 0.000000 0.010859 0.000000
# 3 -0.002780 -0.002878 0.006750 0.000000 0.002700 0.000000
# 4 0.000000 0.000000 0.000000 0.028692 0.000000 0.005164
# 5 0.002627 0.010859 0.002700 0.000000 0.034115 0.000000
# 6 0.000000 0.000000 0.000000 0.005164 0.000000 0.063300
#
#
# Mechanical properties :
#
#
# Convention : Reuss Voigt Hill
#
# Bulk Modulus (GPa) = 24.52512 55.71269 40.11891
# Shear Modulus (GPa) = 23.91271 33.18393 28.54832
#
# Velocity S-wave (km/s) = 3.08426 3.63330 3.36998
# Velocity P-wave (km/s) = 4.73708 6.30588 5.57692
#
# Compressibility (1/GPa) = 0.04077451
#
# Stress axis : x y z
#
# Youngs Moduli (GPa) = 79.76399 27.93446 148.15556
#
# Poissons Ratio (x) = 0.04182 0.41180
# Poissons Ratio (y) = 0.11942 0.42645
# Poissons Ratio (z) = 0.22171 0.08041
#
# Static dielectric constant tensor:
#      x y z
#    x 4.410010 0.000000 -0.275660 
#    y 0.000000 3.878050 0.000000 
#    z -0.275660 0.000000 5.364140 
# 
# 
# High freq. dielectric constant tensor:
#      x y z
#    x 1.994140 0.000000 -0.009360 
#    y 0.000000 1.961540 0.000000 
#    z -0.009360 0.000000 2.034470 
# 
# From -- ./inp_files/28899.got.cif
#   From: 2010.03.12/outbox.cif.g09.slc.cpg/sg14_15_cif.got.tgz:28899.got - 2010.03.31 13:35:05.
