data_PCOD8127655
_publ_section_title
;
Structure prediction by ZEFSAII (Michael W. Deem and Ramdas Pophale) SiO2 
 PCOD8127655
Probable space group: P 21/C
;
_chemical_formula_sum "Si O2"
_cell_formula_units_Z 32
_cell_length_a 9.096219
_cell_length_b 23.147514
_cell_length_c 14.424004
_cell_angle_alpha 90.000000
_cell_angle_beta 29.030194
_cell_angle_gamma 90.000000
_cell_volume 1473.787797
_symmetry_space_group_name_H-M "P 21/C"
_symmetry_group_IT_number 14
_symmetry_cell_setting 'monoclinic'
loop_
_space_group_symop_operation_xyz
x,y,z
-x,1/2+y,1/2-z
-x,-y,-z
x,1/2-y,1/2+z
loop_
_atom_site_type_symbol
_atom_site_label
_atom_site_fract_x
_atom_site_fract_y
_atom_site_fract_z
Si Si1 0.269749 0.888803 0.036567
Si Si2 0.671699 0.584499 0.487441
Si Si3 0.435416 0.365116 0.812229
Si Si4 0.059030 0.542336 0.886166
Si Si5 0.055860 0.817421 0.853620
Si Si6 0.255718 0.250247 0.812734
Si Si7 0.176189 0.747027 0.606670
Si Si8 0.860641 0.990611 0.305414
O O1 0.529954 0.912576 0.962250
O O2 0.194815 0.822492 0.100975
O O3 0.963225 0.927339 0.211364
O O4 0.390975 0.897567 0.866107
O O5 0.405002 0.563316 0.701919
O O6 0.784174 0.647360 0.456726
O O7 0.956450 0.541812 0.346170
O O8 0.654484 0.356394 0.780059
O O9 0.308641 0.304369 0.848818
O O10 0.152356 0.401718 0.002070
O O11 0.980502 0.502732 0.842723
O O12 0.000000 0.500000 0.000000
O O13 0.164033 0.769740 0.718992
O O14 0.939904 0.793335 0.016950
O O15 0.568097 0.224321 0.600937
O O16 0.111888 0.267393 0.793055
O O17 0.500000 0.000000 0.500000
#
# Coordination Sequence:
#
# PCOD8127655 Si02
#       8
#     4   4   4   4   4   4   4   4
#     4  10  22  46  67  96 140 181 231 291 347 417
#     4  11  25  43  68 101 135 183 231 288 355 417
#     4  11  24  43  68 101 137 177 235 287 344 420
#     4  11  24  43  72  99 134 185 231 289 352 414
#     4  12  26  44  71 103 144 183 236 290 356 430
#     4  11  25  44  64 103 138 183 231 281 352 428
#     4  11  26  43  69  99 142 186 225 290 352 415
#     4  11  24  44  69  98 135 180 234 286 351 417
#
# _framework density 21.712759999999999
#
# number of rings (size 3 to 8) (size 9 to 14) (size 15 to 20)
#    0.000    1.000    2.500    5.250    8.750    2.000 
#    0.000    2.500    0.000    0.000    0.000    0.000 
#    0.000    0.000    0.000    0.000    0.000    0.000 
#
# Total GULP energy -396648.560942 kJ/mol
# GULP energy per Si atom -12395.267529 kJ/mol
# Density = 2.166334 g / cm^3
# Si number density = 21.712760 Si / 1000 Ang^3
#
#
#
# Elastic Constant Matrix: (Units=GPa)
#
#
# Indices 1 2 3 4 5 6 
#
# 1 54.2904 91.2137 -8.4557 0.0000 -6.8806 0.0000
# 2 91.2137 -66.2376 156.4037 0.0000 -1.6415 0.0000
# 3 -8.4557 156.4037 80.7532 0.0000 -11.2357 0.0000
# 4 0.0000 0.0000 0.0000 46.3969 0.0000 -3.8619
# 5 -6.8806 -1.6415 -11.2357 0.0000 45.2645 0.0000
# 6 0.0000 0.0000 0.0000 -3.8619 0.0000 30.8183
#
#
#
# Elastic Compliance Matrix: (Units=1/GPa)
#
#
# Indices 1 2 3 4 5 6 
#
# 1 0.011813 0.003474 -0.005412 0.000000 0.000578 0.000000
# 2 0.003474 -0.001621 0.003696 0.000000 0.001387 0.000000
# 3 -0.005412 0.003696 0.004726 0.000000 0.000485 0.000000
# 4 0.000000 0.000000 0.000000 0.021780 0.000000 0.002729
# 5 0.000578 0.001387 0.000485 0.000000 0.022351 0.000000
# 6 0.000000 0.000000 0.000000 0.002729 0.000000 0.032790
#
#
# Mechanical properties :
#
#
# Convention : Reuss Voigt Hill
#
# Bulk Modulus (GPa) = 54.24469 60.79216 57.51843
# Shear Modulus (GPa) = 52.92795 13.13890 33.03342
#
# Velocity S-wave (km/s) = 4.94260 2.46259 3.90472
# Velocity P-wave (km/s) = 7.59010 6.01207 6.84670
#
# Compressibility (1/GPa) = 0.01843498
#
# Stress axis : x y z
#
# Youngs Moduli (GPa) = 84.65459 -617.02074 211.58316
#
# Poissons Ratio (x) = 2.14371 1.14501
# Poissons Ratio (y) = -0.29411 -0.78195
# Poissons Ratio (z) = 0.45812 2.28033
#
# Static dielectric constant tensor:
#      x y z
#    x 4.017740 0.000000 -0.055900 
#    y 0.000000 4.009770 0.000000 
#    z -0.055900 0.000000 4.604370 
# 
# 
# High freq. dielectric constant tensor:
#      x y z
#    x 1.857470 0.000000 -0.001160 
#    y 0.000000 1.849760 0.000000 
#    z -0.001160 0.000000 1.868510 
# 
# From -- ./inp_files/42215.got.cif
#   From: 2010.03.12/outbox.cif.g09.slc.cpg/sg14_22_cif.got.tgz:42215.got - 2010.03.31 13:35:05.
