data_PCOD8127323
_publ_section_title
;
Structure prediction by ZEFSAII (Michael W. Deem and Ramdas Pophale) SiO2 
 PCOD8127323
Probable space group: P 21/C
;
_chemical_formula_sum "Si O2"
_cell_formula_units_Z 16
_cell_length_a 10.332195
_cell_length_b 9.926350
_cell_length_c 12.021073
_cell_angle_alpha 90.000000
_cell_angle_beta 145.489296
_cell_angle_gamma 90.000000
_cell_volume 698.508134
_symmetry_space_group_name_H-M "P 21/C"
_symmetry_group_IT_number 14
_symmetry_cell_setting 'monoclinic'
loop_
_space_group_symop_operation_xyz
x,y,z
-x,1/2+y,1/2-z
-x,-y,-z
x,1/2-y,1/2+z
loop_
_atom_site_type_symbol
_atom_site_label
_atom_site_fract_x
_atom_site_fract_y
_atom_site_fract_z
Si Si1 0.347115 0.192801 0.377915
Si Si2 0.516713 0.509189 0.836895
Si Si3 0.649377 0.414412 0.520547
Si Si4 0.009479 0.932211 0.387199
O O1 0.327337 0.066189 0.278961
O O2 0.583791 0.262812 0.505843
O O3 0.125486 0.289568 0.211845
O O4 0.383230 0.140857 0.529001
O O5 0.398436 0.557880 0.641576
O O6 0.727372 0.408488 0.957643
O O7 0.500000 0.500000 0.500000
O O8 0.909629 0.458016 0.728457
O O9 0.000000 0.000000 0.500000
#
# Coordination Sequence:
#
# PCOD8127323 Si02
#       4
#     4   4   4   4
#     4  10  25  44  68 100 138 177 227 289 338 408
#     4  11  24  46  67 103 140 178 230 283 344 410
#     4  10  22  41  68  94 136 180 224 282 337 398
#     4  11  23  43  70 100 133 186 227 279 353 404
#
# _framework density 22.905958999999999
#
# number of rings (size 3 to 8) (size 9 to 14) (size 15 to 20)
#    0.000    1.500    5.000    0.000   10.500    0.000 
#    0.000    2.500    0.000    0.000    0.000    0.000 
#    0.000    0.000    0.000    0.000    0.000    0.000 
#
# Total GULP energy -198283.289491 kJ/mol
# GULP energy per Si atom -12392.705593 kJ/mol
# Density = 2.285382 g / cm^3
# Si number density = 22.905959 Si / 1000 Ang^3
#
#
#
# Elastic Constant Matrix: (Units=GPa)
#
#
# Indices 1 2 3 4 5 6 
#
# 1 69.9550 22.7616 59.1428 0.0000 -26.0571 0.0000
# 2 22.7616 95.2688 48.8401 0.0000 -16.5226 0.0000
# 3 59.1428 48.8401 153.0424 0.0000 -37.0972 0.0000
# 4 0.0000 0.0000 0.0000 20.0614 0.0000 -3.4186
# 5 -26.0571 -16.5226 -37.0972 0.0000 50.8710 0.0000
# 6 0.0000 0.0000 0.0000 -3.4186 0.0000 42.0562
#
#
#
# Elastic Compliance Matrix: (Units=1/GPa)
#
#
# Indices 1 2 3 4 5 6 
#
# 1 0.022865 -0.000744 -0.007068 0.000000 0.006316 0.000000
# 2 -0.000744 0.012657 -0.003459 0.000000 0.001207 0.000000
# 3 -0.007068 -0.003459 0.011199 0.000000 0.003423 0.000000
# 4 0.000000 0.000000 0.000000 0.050547 0.000000 0.004109
# 5 0.006316 0.001207 0.003423 0.000000 0.025781 0.000000
# 6 0.000000 0.000000 0.000000 0.004109 0.000000 0.024112
#
#
# Mechanical properties :
#
#
# Convention : Reuss Voigt Hill
#
# Bulk Modulus (GPa) = 41.35736 64.41725 52.88731
# Shear Modulus (GPa) = 28.12745 35.09918 31.61331
#
# Velocity S-wave (km/s) = 3.50802 3.91873 3.71905
# Velocity P-wave (km/s) = 5.87390 6.97558 6.44831
#
# Compressibility (1/GPa) = 0.02417949
#
# Stress axis : x y z
#
# Youngs Moduli (GPa) = 43.73514 79.00721 89.29377
#
# Poissons Ratio (x) = 0.05880 0.63109
# Poissons Ratio (y) = 0.03255 0.30886
# Poissons Ratio (z) = 0.30910 0.27328
#
# Static dielectric constant tensor:
#      x y z
#    x 4.486560 0.000000 0.323130 
#    y 0.000000 4.693190 0.000000 
#    z 0.323130 0.000000 4.743300 
# 
# 
# High freq. dielectric constant tensor:
#      x y z
#    x 1.911050 0.000000 -0.015810 
#    y 0.000000 1.904750 0.000000 
#    z -0.015810 0.000000 1.899430 
# 
# From -- ./inp_files/23288.got.cif
#   From: 2010.03.12/outbox.cif.g09.slc.cpg/sg14_12_cif.got.tgz:23288.got - 2010.03.31 13:35:05.
