data_PCOD8127703
_publ_section_title
;
Structure prediction by ZEFSAII (Michael W. Deem and Ramdas Pophale) SiO2 
 PCOD8127703
Probable space group: P 21/C
;
_chemical_formula_sum "Si O2"
_cell_formula_units_Z 24
_cell_length_a 25.297891
_cell_length_b 7.690366
_cell_length_c 12.788131
_cell_angle_alpha 90.000000
_cell_angle_beta 152.434366
_cell_angle_gamma 90.000000
_cell_volume 1151.326103
_symmetry_space_group_name_H-M "P 21/C"
_symmetry_group_IT_number 14
_symmetry_cell_setting 'monoclinic'
loop_
_space_group_symop_operation_xyz
x,y,z
-x,1/2+y,1/2-z
-x,-y,-z
x,1/2-y,1/2+z
loop_
_atom_site_type_symbol
_atom_site_label
_atom_site_fract_x
_atom_site_fract_y
_atom_site_fract_z
Si Si1 0.113104 0.526707 0.873348
Si Si2 0.387524 0.543613 0.657746
Si Si3 0.637805 0.048749 0.124002
Si Si4 0.146100 0.668045 0.282433
Si Si5 0.538863 0.760361 0.573711
Si Si6 0.041959 0.362322 0.220311
O O1 0.117372 0.641003 0.775938
O O2 0.106403 0.322476 0.834163
O O3 0.000841 0.587091 0.739223
O O4 0.225842 0.569777 0.139072
O O5 0.407489 0.501737 0.570833
O O6 0.277368 0.666224 0.476881
O O7 0.373223 0.366162 0.698614
O O8 0.499810 0.636318 0.901644
O O9 0.608580 0.904791 0.158843
O O10 0.573471 0.220605 0.052469
O O11 0.127943 0.514095 0.334980
O O12 0.067614 0.638440 0.045435
#
# Coordination Sequence:
#
# PCOD8127703 Si02
#       6
#     4   4   4   4   4   4
#     4  12  22  41  64  91 123 165 209 252 314 369
#     4  11  21  40  64  90 122 162 204 253 316 371
#     4  11  22  40  62  89 124 160 204 258 307 370
#     4  11  23  42  63  91 126 163 206 256 311 370
#     4  10  23  39  62  91 123 159 205 254 312 372
#     4  11  24  40  63  90 127 164 204 260 307 368
#
# _framework density 20.845528000000002
#
# number of rings (size 3 to 8) (size 9 to 14) (size 15 to 20)
#    0.000    1.000    5.000    2.500    0.000    0.000 
#    0.000    0.000    0.000    0.000    0.000    0.000 
#    0.000    0.000    0.000    0.000    0.000    0.000 
#
# Total GULP energy -297659.011095 kJ/mol
# GULP energy per Si atom -12402.458796 kJ/mol
# Density = 2.079808 g / cm^3
# Si number density = 20.845528 Si / 1000 Ang^3
#
#
#
# Elastic Constant Matrix: (Units=GPa)
#
#
# Indices 1 2 3 4 5 6 
#
# 1 77.5651 16.9497 10.2328 0.0000 -3.9235 0.0000
# 2 16.9497 92.8198 -1.4103 0.0000 1.4310 0.0000
# 3 10.2328 -1.4103 50.5851 0.0000 -2.6158 0.0000
# 4 0.0000 0.0000 0.0000 28.6145 0.0000 0.6264
# 5 -3.9235 1.4310 -2.6158 0.0000 28.4600 0.0000
# 6 0.0000 0.0000 0.0000 0.6264 0.0000 23.0169
#
#
#
# Elastic Compliance Matrix: (Units=1/GPa)
#
#
# Indices 1 2 3 4 5 6 
#
# 1 0.013923 -0.002613 -0.002797 0.000000 0.001794 0.000000
# 2 -0.002613 0.011276 0.000799 0.000000 -0.000854 0.000000
# 3 -0.002797 0.000799 0.020432 0.000000 0.001452 0.000000
# 4 0.000000 0.000000 0.000000 0.034968 0.000000 -0.000952
# 5 0.001794 -0.000854 0.001452 0.000000 0.035561 0.000000
# 6 0.000000 0.000000 0.000000 -0.000952 0.000000 0.043472
#
#
# Mechanical properties :
#
#
# Convention : Reuss Voigt Hill
#
# Bulk Modulus (GPa) = 27.46513 30.27938 28.87226
# Shear Modulus (GPa) = 27.62594 29.03145 28.32869
#
# Velocity S-wave (km/s) = 3.64437 3.73593 3.69044
# Velocity P-wave (km/s) = 5.55993 5.75905 5.66037
#
# Compressibility (1/GPa) = 0.03640981
#
# Stress axis : x y z
#
# Youngs Moduli (GPa) = 71.82367 88.68432 48.94348
#
# Poissons Ratio (x) = 0.23170 0.13687
# Poissons Ratio (y) = 0.18765 -0.03909
# Poissons Ratio (z) = 0.20086 -0.07083
#
# Static dielectric constant tensor:
#      x y z
#    x 3.713520 0.000000 -0.011710 
#    y 0.000000 3.810830 0.000000 
#    z -0.011710 0.000000 3.595540 
# 
# 
# High freq. dielectric constant tensor:
#      x y z
#    x 1.817900 0.000000 -0.001800 
#    y 0.000000 1.818120 0.000000 
#    z -0.001800 0.000000 1.811680 
# 
# From -- ./inp_files/28205.got.cif
#   From: 2010.03.12/outbox.cif.g09.slc.cpg/sg14_15_cif.got.tgz:28205.got - 2010.03.31 13:35:05.
