data_PCOD8127859
_publ_section_title
;
Structure prediction by ZEFSAII (Michael W. Deem and Ramdas Pophale) SiO2 
 PCOD8127859
Probable space group: P 21/C
;
_chemical_formula_sum "Si O2"
_cell_formula_units_Z 20
_cell_length_a 15.318026
_cell_length_b 9.337210
_cell_length_c 10.136772
_cell_angle_alpha 90.000000
_cell_angle_beta 146.396609
_cell_angle_gamma 90.000000
_cell_volume 802.399804
_symmetry_space_group_name_H-M "P 21/C"
_symmetry_group_IT_number 14
_symmetry_cell_setting 'monoclinic'
loop_
_space_group_symop_operation_xyz
x,y,z
-x,1/2+y,1/2-z
-x,-y,-z
x,1/2-y,1/2+z
loop_
_atom_site_type_symbol
_atom_site_label
_atom_site_fract_x
_atom_site_fract_y
_atom_site_fract_z
Si Si1 0.287085 0.376095 0.471685
Si Si2 0.287079 0.684248 0.559170
Si Si3 0.775044 0.051273 0.665447
Si Si4 0.985977 0.817174 0.841726
Si Si5 0.411631 0.321012 0.909067
O O1 0.311357 0.546956 0.495279
O O2 0.379005 0.306067 0.712786
O O3 0.346818 0.314650 0.408193
O O4 0.101691 0.335867 0.255062
O O5 0.334998 0.832937 0.547808
O O6 0.103282 0.689336 0.366313
O O7 0.400191 0.668471 0.829233
O O8 0.672519 0.965516 0.643980
O O9 0.915857 0.145093 0.904377
O O10 0.850464 0.939283 0.655545
#
# Coordination Sequence:
#
# PCOD8127859 Si02
#       5
#     4   4   4   4   4
#     4  11  25  46  68  98 136 177 221 280 331 400
#     4  12  23  40  73  97 129 180 223 271 339 394
#     4  10  23  45  66  96 134 179 220 278 332 399
#     4  10  23  42  69  93 136 173 225 271 334 394
#     4  11  25  47  68  98 139 175 223 278 337 395
#
# _framework density 24.925231
#
# number of rings (size 3 to 8) (size 9 to 14) (size 15 to 20)
#    0.000    1.200    2.000    3.000    8.400    0.800 
#    7.200    5.000    0.000    0.000    0.000    0.000 
#    0.000    0.000    0.000    0.000    0.000    0.000 
#
# Total GULP energy -247970.282636 kJ/mol
# GULP energy per Si atom -12398.514132 kJ/mol
# Density = 2.486850 g / cm^3
# Si number density = 24.925231 Si / 1000 Ang^3
#
#
#
# Elastic Constant Matrix: (Units=GPa)
#
#
# Indices 1 2 3 4 5 6 
#
# 1 56.8148 7.9416 -10.7977 0.0000 -0.3808 0.0000
# 2 7.9416 64.3920 12.7785 0.0000 12.5136 0.0000
# 3 -10.7977 12.7785 84.4871 0.0000 10.4912 0.0000
# 4 0.0000 0.0000 0.0000 24.8129 0.0000 -6.3978
# 5 -0.3808 12.5136 10.4912 0.0000 24.7095 0.0000
# 6 0.0000 0.0000 0.0000 -6.3978 0.0000 21.6074
#
#
#
# Elastic Compliance Matrix: (Units=1/GPa)
#
#
# Indices 1 2 3 4 5 6 
#
# 1 0.018538 -0.002950 0.002739 0.000000 0.000617 0.000000
# 2 -0.002950 0.017904 -0.002062 0.000000 -0.008237 0.000000
# 3 0.002739 -0.002062 0.013051 0.000000 -0.004455 0.000000
# 4 0.000000 0.000000 0.000000 0.043633 0.000000 0.012919
# 5 0.000617 -0.008237 -0.004455 0.000000 0.046543 0.000000
# 6 0.000000 0.000000 0.000000 0.012919 0.000000 0.050106
#
#
# Mechanical properties :
#
#
# Convention : Reuss Voigt Hill
#
# Bulk Modulus (GPa) = 22.24847 25.05985 23.65416
# Shear Modulus (GPa) = 23.88892 27.27739 25.58315
#
# Velocity S-wave (km/s) = 3.09920 3.31171 3.20722
# Velocity P-wave (km/s) = 4.66392 4.96982 4.81930
#
# Compressibility (1/GPa) = 0.04494691
#
# Stress axis : x y z
#
# Youngs Moduli (GPa) = 53.94323 55.85465 76.62117
#
# Poissons Ratio (x) = 0.16475 -0.20985
# Poissons Ratio (y) = 0.15912 0.15800
# Poissons Ratio (z) = -0.14774 0.11518
#
# Static dielectric constant tensor:
#      x y z
#    x 4.152500 0.000000 0.291000 
#    y 0.000000 4.567950 0.000000 
#    z 0.291000 0.000000 4.540680 
# 
# 
# High freq. dielectric constant tensor:
#      x y z
#    x 1.984720 0.000000 0.022580 
#    y 0.000000 1.997490 0.000000 
#    z 0.022580 0.000000 1.989920 
# 
# From -- ./inp_files/27957.got.cif
#   From: 2010.03.12/outbox.cif.g09.slc.cpg/sg14_14_cif.got.tgz:27957.got - 2010.03.31 13:35:05.
