data_PCOD8127351
_publ_section_title
;
Structure prediction by ZEFSAII (Michael W. Deem and Ramdas Pophale) SiO2 
 PCOD8127351
Probable space group: P 21/C
;
_chemical_formula_sum "Si O2"
_cell_formula_units_Z 20
_cell_length_a 10.955468
_cell_length_b 18.460117
_cell_length_c 7.503112
_cell_angle_alpha 90.000000
_cell_angle_beta 141.835688
_cell_angle_gamma 90.000000
_cell_volume 937.644504
_symmetry_space_group_name_H-M "P 21/C"
_symmetry_group_IT_number 14
_symmetry_cell_setting 'monoclinic'
loop_
_space_group_symop_operation_xyz
x,y,z
-x,1/2+y,1/2-z
-x,-y,-z
x,1/2-y,1/2+z
loop_
_atom_site_type_symbol
_atom_site_label
_atom_site_fract_x
_atom_site_fract_y
_atom_site_fract_z
Si Si1 0.357884 0.339023 0.532012
Si Si2 0.624078 0.037963 0.385367
Si Si3 0.705584 0.064963 0.864490
Si Si4 0.863734 0.911353 0.522749
Si Si5 0.633092 0.673812 0.048893
O O1 0.560094 0.384998 0.725468
O O2 0.399499 0.258224 0.517013
O O3 0.298671 0.342336 0.671273
O O4 0.177657 0.371651 0.211172
O O5 0.754384 0.049093 0.713029
O O6 0.413567 0.002400 0.192962
O O7 0.747065 0.988124 0.391277
O O8 0.577034 0.137720 0.734770
O O9 0.904679 0.074284 0.203638
O O10 0.799537 0.859747 0.612338
#
# Coordination Sequence:
#
# PCOD8127351 Si02
#       5
#     4   4   4   4   4
#     4  11  21  40  62  87 122 161 199 246 299 354
#     4   9  20  38  63  89 122 154 196 248 299 355
#     4   9  20  40  63  90 120 157 198 245 299 354
#     4  11  21  40  65  90 118 157 201 248 299 349
#     4  10  22  42  58  85 126 161 196 247 299 356
#
# _framework density 21.330044000000001
#
# number of rings (size 3 to 8) (size 9 to 14) (size 15 to 20)
#    0.000    2.000    2.000    2.400    0.000    0.800 
#    7.200   10.000    0.000    0.000    0.000    0.000 
#    0.000    0.000    0.000    0.000    0.000    0.000 
#
# Total GULP energy -248037.146212 kJ/mol
# GULP energy per Si atom -12401.857311 kJ/mol
# Density = 2.128150 g / cm^3
# Si number density = 21.330044 Si / 1000 Ang^3
#
#
#
# Elastic Constant Matrix: (Units=GPa)
#
#
# Indices 1 2 3 4 5 6 
#
# 1 52.8811 11.2023 48.3384 0.0000 -14.1645 0.0000
# 2 11.2023 118.4424 45.9479 0.0000 -1.8770 0.0000
# 3 48.3384 45.9479 114.9168 0.0000 -10.2759 0.0000
# 4 0.0000 0.0000 0.0000 24.2765 0.0000 -9.7351
# 5 -14.1645 -1.8770 -10.2759 0.0000 29.9971 0.0000
# 6 0.0000 0.0000 0.0000 -9.7351 0.0000 16.6691
#
#
#
# Elastic Compliance Matrix: (Units=1/GPa)
#
#
# Indices 1 2 3 4 5 6 
#
# 1 0.034876 0.002573 -0.014661 0.000000 0.011607 0.000000
# 2 0.002573 0.010200 -0.005153 0.000000 0.000088 0.000000
# 3 -0.014661 -0.005153 0.016796 0.000000 -0.001492 0.000000
# 4 0.000000 0.000000 0.000000 0.053790 0.000000 0.031415
# 5 0.011607 0.000088 -0.001492 0.000000 0.038312 0.000000
# 6 0.000000 0.000000 0.000000 0.031415 0.000000 0.078338
#
#
# Mechanical properties :
#
#
# Convention : Reuss Voigt Hill
#
# Bulk Modulus (GPa) = 36.50972 55.24639 45.87805
# Shear Modulus (GPa) = 18.12103 26.23865 22.17984
#
# Velocity S-wave (km/s) = 2.91787 3.51112 3.22815
# Velocity P-wave (km/s) = 5.33907 6.51109 5.95399
#
# Compressibility (1/GPa) = 0.02738997
#
# Stress axis : x y z
#
# Youngs Moduli (GPa) = 28.67318 98.04048 59.53892
#
# Poissons Ratio (x) = -0.25225 0.87290
# Poissons Ratio (y) = -0.07377 0.30678
# Poissons Ratio (z) = 0.42038 0.50517
#
# Static dielectric constant tensor:
#      x y z
#    x 3.698720 0.000000 -0.336020 
#    y 0.000000 4.153960 0.000000 
#    z -0.336020 0.000000 3.692970 
# 
# 
# High freq. dielectric constant tensor:
#      x y z
#    x 1.821130 0.000000 -0.028480 
#    y 0.000000 1.850760 0.000000 
#    z -0.028480 0.000000 1.829410 
# 
# From -- ./inp_files/5702.got.cif
#   From: 2010.03.12/outbox.cif.g09.slc.cpg/sg14_3_cif.got.tgz:5702.got - 2010.03.31 13:35:05.
