data_PCOD8127566
_publ_section_title
;
Structure prediction by ZEFSAII (Michael W. Deem and Ramdas Pophale) SiO2 
 PCOD8127566
Probable space group: P 21/C
;
_chemical_formula_sum "Si O2"
_cell_formula_units_Z 20
_cell_length_a 11.223824
_cell_length_b 12.954478
_cell_length_c 11.856380
_cell_angle_alpha 90.000000
_cell_angle_beta 144.733318
_cell_angle_gamma 90.000000
_cell_volume 995.352290
_symmetry_space_group_name_H-M "P 21/C"
_symmetry_group_IT_number 14
_symmetry_cell_setting 'monoclinic'
loop_
_space_group_symop_operation_xyz
x,y,z
-x,1/2+y,1/2-z
-x,-y,-z
x,1/2-y,1/2+z
loop_
_atom_site_type_symbol
_atom_site_label
_atom_site_fract_x
_atom_site_fract_y
_atom_site_fract_z
Si Si1 0.152644 0.420469 0.672485
Si Si2 0.729986 0.786379 0.311487
Si Si3 0.120798 0.464527 0.906224
Si Si4 0.501507 0.107237 0.296359
Si Si5 0.319333 0.437714 0.416586
O O1 0.103970 0.306241 0.581676
O O2 0.134367 0.419023 0.792207
O O3 0.386162 0.449565 0.812595
O O4 0.000000 0.500000 0.500000
O O5 0.812389 0.874418 0.457526
O O6 0.518631 0.732209 0.198225
O O7 0.688604 0.830126 0.155378
O O8 0.892124 0.499032 0.760829
O O9 0.266051 0.565852 0.032853
O O10 0.366746 0.081394 0.082630
O O11 0.500000 0.500000 0.500000
#
# Coordination Sequence:
#
# PCOD8127566 Si02
#       5
#     4   4   4   4   4
#     4  10  22  44  66 100 133 171 227 275 329 403
#     4  10  24  42  66 102 131 176 225 273 341 396
#     4  12  22  47  69  93 140 180 217 281 342 396
#     4  10  24  44  67  98 133 174 226 274 332 405
#     4  12  24  46  66 100 138 173 231 277 329 411
#
# _framework density 20.093388999999998
#
# number of rings (size 3 to 8) (size 9 to 14) (size 15 to 20)
#    1.200    0.000    4.000    2.400    0.000    0.000 
#   14.400    0.000    0.000    0.000    0.000    0.000 
#    0.000    0.000    0.000    0.000    0.000    0.000 
#
# Total GULP energy -247763.713662 kJ/mol
# GULP energy per Si atom -12388.185683 kJ/mol
# Density = 2.004766 g / cm^3
# Si number density = 20.093389 Si / 1000 Ang^3
#
#
#
# Elastic Constant Matrix: (Units=GPa)
#
#
# Indices 1 2 3 4 5 6 
#
# 1 116.3999 63.9455 57.0213 0.0000 9.8228 0.0000
# 2 63.9455 122.8997 43.8715 0.0000 7.1292 0.0000
# 3 57.0213 43.8715 82.1000 0.0000 11.1766 0.0000
# 4 0.0000 0.0000 0.0000 27.5176 0.0000 -3.3300
# 5 9.8228 7.1292 11.1766 0.0000 41.0182 0.0000
# 6 0.0000 0.0000 0.0000 -3.3300 0.0000 49.9859
#
#
#
# Elastic Compliance Matrix: (Units=1/GPa)
#
#
# Indices 1 2 3 4 5 6 
#
# 1 0.015277 -0.005134 -0.007779 0.000000 -0.000647 0.000000
# 2 -0.005134 0.011784 -0.002720 0.000000 -0.000077 0.000000
# 3 -0.007779 -0.002720 0.019440 0.000000 -0.002961 0.000000
# 4 0.000000 0.000000 0.000000 0.036636 0.000000 0.002441
# 5 -0.000647 -0.000077 -0.002961 0.000000 0.025355 0.000000
# 6 0.000000 0.000000 0.000000 0.002441 0.000000 0.020168
#
#
# Mechanical properties :
#
#
# Convention : Reuss Voigt Hill
#
# Bulk Modulus (GPa) = 65.64487 72.34179 68.99333
# Shear Modulus (GPa) = 30.30248 34.14175 32.22212
#
# Velocity S-wave (km/s) = 3.88762 4.12655 4.00886
# Velocity P-wave (km/s) = 7.27270 7.66717 7.47254
#
# Compressibility (1/GPa) = 0.01523348
#
# Stress axis : x y z
#
# Youngs Moduli (GPa) = 65.45876 84.86287 51.44154
#
# Poissons Ratio (x) = 0.43572 0.40014
# Poissons Ratio (y) = 0.33609 0.13994
# Poissons Ratio (z) = 0.50918 0.23085
#
# Static dielectric constant tensor:
#      x y z
#    x 3.959680 0.000000 -0.256710 
#    y 0.000000 4.310320 0.000000 
#    z -0.256710 0.000000 3.652350 
# 
# 
# High freq. dielectric constant tensor:
#      x y z
#    x 1.804100 0.000000 -0.018320 
#    y 0.000000 1.785510 0.000000 
#    z -0.018320 0.000000 1.770250 
# 
# From -- ./inp_files/28426.got.cif
#   From: 2010.03.12/outbox.cif.g09.slc.cpg/sg14_15_cif.got.tgz:28426.got - 2010.03.31 13:35:05.
