data_PCOD8127429
_publ_section_title
;
Structure prediction by ZEFSAII (Michael W. Deem and Ramdas Pophale) SiO2 
 PCOD8127429
Probable space group: P 21/C
;
_chemical_formula_sum "Si O2"
_cell_formula_units_Z 32
_cell_length_a 13.933552
_cell_length_b 17.661179
_cell_length_c 11.954975
_cell_angle_alpha 90.000000
_cell_angle_beta 149.720773
_cell_angle_gamma 90.000000
_cell_volume 1483.356674
_symmetry_space_group_name_H-M "P 21/C"
_symmetry_group_IT_number 14
_symmetry_cell_setting 'monoclinic'
loop_
_space_group_symop_operation_xyz
x,y,z
-x,1/2+y,1/2-z
-x,-y,-z
x,1/2-y,1/2+z
loop_
_atom_site_type_symbol
_atom_site_label
_atom_site_fract_x
_atom_site_fract_y
_atom_site_fract_z
Si Si1 0.015044 0.856770 0.798805
Si Si2 0.335947 0.050434 0.630963
Si Si3 0.103738 0.278877 0.615707
Si Si4 0.400469 0.878334 0.691923
Si Si5 0.432916 0.168435 0.906416
Si Si6 0.239353 0.745523 0.875789
Si Si7 0.632891 0.600572 0.217592
Si Si8 0.636573 0.070017 0.735886
O O1 0.128915 0.816659 0.815726
O O2 0.872807 0.918245 0.605068
O O3 0.893768 0.796230 0.749312
O O4 0.162642 0.896702 0.029071
O O5 0.413356 0.088550 0.822982
O O6 0.483192 0.070129 0.681131
O O7 0.308199 0.960632 0.620042
O O8 0.222949 0.202603 0.714044
O O9 0.189432 0.348370 0.632713
O O10 0.885225 0.274893 0.357437
O O11 0.253591 0.821853 0.481635
O O12 0.585740 0.888402 0.800535
O O13 0.459660 0.842788 0.868991
O O14 0.549681 0.228824 0.949033
O O15 0.684283 0.514124 0.241196
O O16 0.448743 0.619901 0.953294
#
# Coordination Sequence:
#
# PCOD8127429 Si02
#       8
#     4   4   4   4   4   4   4   4
#     4  12  25  41  72  98 137 182 224 286 344 409
#     4  11  24  48  69 102 136 186 233 279 344 410
#     4  12  26  40  67 102 135 176 230 282 347 408
#     4  11  26  45  74  97 139 184 232 282 343 409
#     4  12  26  48  69  97 143 186 227 287 338 413
#     4  12  26  45  67 104 136 180 233 283 346 406
#     4  10  22  42  68 103 134 176 227 284 344 410
#     4  10  22  43  69  99 140 176 221 286 349 402
#
# _framework density 21.572693000000001
#
# number of rings (size 3 to 8) (size 9 to 14) (size 15 to 20)
#    0.000    0.750    5.000    1.875    7.000    0.500 
#    0.000    0.625    0.000    0.000    0.000    0.000 
#    0.000    0.000    0.000    0.000    0.000    0.000 
#
# Total GULP energy -396908.247788 kJ/mol
# GULP energy per Si atom -12403.382743 kJ/mol
# Density = 2.152359 g / cm^3
# Si number density = 21.572693 Si / 1000 Ang^3
#
#
#
# Elastic Constant Matrix: (Units=GPa)
#
#
# Indices 1 2 3 4 5 6 
#
# 1 65.1530 17.9599 22.8551 0.0000 -5.9970 0.0000
# 2 17.9599 92.8540 40.9616 0.0000 -4.2863 0.0000
# 3 22.8551 40.9616 109.1275 0.0000 -6.2886 0.0000
# 4 0.0000 0.0000 0.0000 40.1224 0.0000 -3.3764
# 5 -5.9970 -4.2863 -6.2886 0.0000 37.1005 0.0000
# 6 0.0000 0.0000 0.0000 -3.3764 0.0000 30.8208
#
#
#
# Elastic Compliance Matrix: (Units=1/GPa)
#
#
# Indices 1 2 3 4 5 6 
#
# 1 0.017038 -0.002012 -0.002694 0.000000 0.002065 0.000000
# 2 -0.002012 0.013161 -0.004494 0.000000 0.000434 0.000000
# 3 -0.002694 -0.004494 0.011472 0.000000 0.000990 0.000000
# 4 0.000000 0.000000 0.000000 0.025156 0.000000 0.002756
# 5 0.002065 0.000434 0.000990 0.000000 0.027506 0.000000
# 6 0.000000 0.000000 0.000000 0.002756 0.000000 0.032747
#
#
# Mechanical properties :
#
#
# Convention : Reuss Voigt Hill
#
# Bulk Modulus (GPa) = 42.97103 47.85419 45.41261
# Shear Modulus (GPa) = 32.62935 33.96594 33.29765
#
# Velocity S-wave (km/s) = 3.89335 3.97229 3.93301
# Velocity P-wave (km/s) = 6.33824 6.57797 6.45922
#
# Compressibility (1/GPa) = 0.02327149
#
# Stress axis : x y z
#
# Youngs Moduli (GPa) = 58.69150 75.98153 87.17120
#
# Poissons Ratio (x) = 0.15285 0.23487
# Poissons Ratio (y) = 0.11807 0.39173
# Poissons Ratio (z) = 0.15813 0.34144
#
# Static dielectric constant tensor:
#      x y z
#    x 3.866360 0.000000 -0.061410 
#    y 0.000000 3.990260 0.000000 
#    z -0.061410 0.000000 3.849590 
# 
# 
# High freq. dielectric constant tensor:
#      x y z
#    x 1.847940 0.000000 -0.006230 
#    y 0.000000 1.855110 0.000000 
#    z -0.006230 0.000000 1.847090 
# 
# From -- ./inp_files/33068.got.cif
#   From: 2010.03.12/outbox.cif.g09.slc.cpg/sg14_17_cif.got.tgz:33068.got - 2010.03.31 13:35:05.
