data_PCOD8127529
_publ_section_title
;
Structure prediction by ZEFSAII (Michael W. Deem and Ramdas Pophale) SiO2 
 PCOD8127529
Probable space group: P 21/C
;
_chemical_formula_sum "Si O2"
_cell_formula_units_Z 28
_cell_length_a 9.491765
_cell_length_b 8.713738
_cell_length_c 22.149232
_cell_angle_alpha 90.000000
_cell_angle_beta 43.057838
_cell_angle_gamma 90.000000
_cell_volume 1250.728751
_symmetry_space_group_name_H-M "P 21/C"
_symmetry_group_IT_number 14
_symmetry_cell_setting 'monoclinic'
loop_
_space_group_symop_operation_xyz
x,y,z
-x,1/2+y,1/2-z
-x,-y,-z
x,1/2-y,1/2+z
loop_
_atom_site_type_symbol
_atom_site_label
_atom_site_fract_x
_atom_site_fract_y
_atom_site_fract_z
Si Si1 0.009853 0.452501 0.175339
Si Si2 0.915617 0.488792 0.459249
Si Si3 0.663110 0.950371 0.231007
Si Si4 0.747969 0.164149 0.309413
Si Si5 0.379049 0.395022 0.725077
Si Si6 0.666913 0.722417 0.987882
Si Si7 0.508881 0.386946 0.555008
O O1 0.891079 0.301781 0.239103
O O2 0.852014 0.556094 0.185418
O O3 0.104224 0.548829 0.200834
O O4 0.179319 0.420375 0.069288
O O5 0.801637 0.645748 0.477149
O O6 0.744039 0.355448 0.503670
O O7 0.000000 0.500000 0.500000
O O8 0.094559 0.443864 0.357650
O O9 0.630473 0.075176 0.292775
O O10 0.543518 0.003169 0.209005
O O11 0.579287 0.784655 0.277614
O O12 0.551347 0.214049 0.410341
O O13 0.389491 0.445023 0.651432
O O14 0.608036 0.740070 0.934714
O O15 0.500000 0.500000 0.500000
#
# Coordination Sequence:
#
# PCOD8127529 Si02
#       7
#     4   4   4   4   4   4   4
#     4  12  25  46  70 107 144 190 239 297 361 424
#     4  11  23  43  72 102 142 194 241 282 367 443
#     4  12  27  47  72 108 146 190 238 302 366 435
#     4  12  26  46  74 106 149 186 241 299 362 427
#     4  12  27  46  73 106 144 190 242 298 366 432
#     4  11  25  44  73 105 144 187 241 302 352 429
#     4  10  22  43  70 104 138 183 239 289 352 436
#
# _framework density 22.386949000000001
#
# number of rings (size 3 to 8) (size 9 to 14) (size 15 to 20)
#    0.000    0.571    2.857    5.571    8.000    0.000 
#    0.000    0.714    0.000    0.000    0.000    0.000 
#    0.000    0.000    0.000    0.000    0.000    0.000 
#
# Total GULP energy -346906.385724 kJ/mol
# GULP energy per Si atom -12389.513776 kJ/mol
# Density = 2.233600 g / cm^3
# Si number density = 22.386949 Si / 1000 Ang^3
#
#
#
# Elastic Constant Matrix: (Units=GPa)
#
#
# Indices 1 2 3 4 5 6 
#
# 1 146.0813 36.6734 31.7290 0.0000 0.3667 0.0000
# 2 36.6734 93.9329 26.4068 0.0000 5.0925 0.0000
# 3 31.7290 26.4068 85.5073 0.0000 -11.1202 0.0000
# 4 0.0000 0.0000 0.0000 31.8685 0.0000 -3.3775
# 5 0.3667 5.0925 -11.1202 0.0000 37.5950 0.0000
# 6 0.0000 0.0000 0.0000 -3.3775 0.0000 38.8124
#
#
#
# Elastic Compliance Matrix: (Units=1/GPa)
#
#
# Indices 1 2 3 4 5 6 
#
# 1 0.007950 -0.002450 -0.002247 0.000000 -0.000410 0.000000
# 2 -0.002450 0.012693 -0.003361 0.000000 -0.002689 0.000000
# 3 -0.002247 -0.003361 0.014174 0.000000 0.004670 0.000000
# 4 0.000000 0.000000 0.000000 0.031671 0.000000 0.002756
# 5 -0.000410 -0.002689 0.004670 0.000000 0.028349 0.000000
# 6 0.000000 0.000000 0.000000 0.002756 0.000000 0.026005
#
#
# Mechanical properties :
#
#
# Convention : Reuss Voigt Hill
#
# Bulk Modulus (GPa) = 53.47013 57.23777 55.35395
# Shear Modulus (GPa) = 34.91895 37.03601 35.97748
#
# Velocity S-wave (km/s) = 3.95370 4.07179 4.01318
# Velocity P-wave (km/s) = 6.69169 6.90861 6.80102
#
# Compressibility (1/GPa) = 0.01870203
#
# Stress axis : x y z
#
# Youngs Moduli (GPa) = 125.79371 78.78407 70.55349
#
# Poissons Ratio (x) = 0.19301 0.15850
# Poissons Ratio (y) = 0.30818 0.23710
# Poissons Ratio (z) = 0.28261 0.26476
#
# Static dielectric constant tensor:
#      x y z
#    x 4.604240 0.000000 -0.191740 
#    y 0.000000 4.212820 0.000000 
#    z -0.191740 0.000000 4.267210 
# 
# 
# High freq. dielectric constant tensor:
#      x y z
#    x 1.903820 0.000000 -0.011990 
#    y 0.000000 1.871750 0.000000 
#    z -0.011990 0.000000 1.891070 
# 
# From -- ./inp_files/64975.got.cif
#   From: 2010.03.12/outbox.cif.g09.slc.cpg/sg14_33_cif.got.tgz:64975.got - 2010.03.31 13:35:05.
