data_PCOD8127735
_publ_section_title
;
Structure prediction by ZEFSAII (Michael W. Deem and Ramdas Pophale) SiO2 
 PCOD8127735
Probable space group: P 21/C
;
_chemical_formula_sum "Si O2"
_cell_formula_units_Z 16
_cell_length_a 15.191214
_cell_length_b 7.812316
_cell_length_c 8.512285
_cell_angle_alpha 90.000000
_cell_angle_beta 34.703022
_cell_angle_gamma 90.000000
_cell_volume 575.144646
_symmetry_space_group_name_H-M "P 21/C"
_symmetry_group_IT_number 14
_symmetry_cell_setting 'monoclinic'
loop_
_space_group_symop_operation_xyz
x,y,z
-x,1/2+y,1/2-z
-x,-y,-z
x,1/2-y,1/2+z
loop_
_atom_site_type_symbol
_atom_site_label
_atom_site_fract_x
_atom_site_fract_y
_atom_site_fract_z
Si Si1 0.312726 0.047881 0.099778
Si Si2 0.799722 0.606930 0.565618
Si Si3 0.336858 0.058633 0.409100
Si Si4 0.852984 0.207672 0.472416
O O1 0.297118 0.154019 0.294394
O O2 0.188794 0.892693 0.302210
O O3 0.481376 0.966923 0.849248
O O4 0.285437 0.151628 0.977761
O O5 0.807002 0.402841 0.555873
O O6 0.966782 0.693796 0.328270
O O7 0.712454 0.655357 0.858565
O O8 0.246759 0.877792 0.523629
#
# Coordination Sequence:
#
# PCOD8127735 Si02
#       4
#     4   4   4   4
#     4   9  21  40  62  89 124 164 214 261 310 370
#     4  12  21  42  64  96 126 174 203 262 318 378
#     4   9  21  40  62  89 124 164 214 261 310 370
#     4  10  23  40  64  92 134 160 215 256 314 376
#
# _framework density 27.819089999999999
#
# number of rings (size 3 to 8) (size 9 to 14) (size 15 to 20)
#    1.500    0.500    0.000    3.750    0.000    0.000 
#    0.000   15.000    0.000    0.000    0.000    0.000 
#    0.000    0.000    0.000    0.000    0.000    0.000 
#
# Total GULP energy -198371.635149 kJ/mol
# GULP energy per Si atom -12398.227197 kJ/mol
# Density = 2.775577 g / cm^3
# Si number density = 27.819090 Si / 1000 Ang^3
#
#
#
# Elastic Constant Matrix: (Units=GPa)
#
#
# Indices 1 2 3 4 5 6 
#
# 1 123.2157 98.0901 102.0080 0.0000 28.0161 0.0000
# 2 98.0901 188.2424 86.1238 0.0000 46.7075 0.0000
# 3 102.0080 86.1238 239.9055 0.0000 14.6881 0.0000
# 4 0.0000 0.0000 0.0000 13.3917 0.0000 24.1044
# 5 28.0161 46.7075 14.6881 0.0000 63.2470 0.0000
# 6 0.0000 0.0000 0.0000 24.1044 0.0000 37.9748
#
#
#
# Elastic Compliance Matrix: (Units=1/GPa)
#
#
# Indices 1 2 3 4 5 6 
#
# 1 0.018110 -0.006558 -0.005226 0.000000 -0.001965 0.000000
# 2 -0.006558 0.010080 -0.000560 0.000000 -0.004409 0.000000
# 3 -0.005226 -0.000560 0.006517 0.000000 0.001215 0.000000
# 4 0.000000 0.000000 0.000000 -0.523953 0.000000 0.332578
# 5 -0.001965 -0.004409 0.001215 0.000000 0.019655 0.000000
# 6 0.000000 0.000000 0.000000 0.332578 0.000000 -0.184770
#
#
# Mechanical properties :
#
#
# Convention : Reuss Voigt Hill
#
# Bulk Modulus (GPa) = 99.81403 124.86749 112.34076
# Shear Modulus (GPa) = -7.98296 40.59881 16.30792
#
# Velocity S-wave (km/s) = -1.69583 3.82434 2.42381
# Velocity P-wave (km/s) = 5.66773 8.03018 6.95007
#
# Compressibility (1/GPa) = 0.01001863
#
# Stress axis : x y z
#
# Youngs Moduli (GPa) = 55.21851 99.20729 153.44676
#
# Poissons Ratio (x) = 0.65064 0.80186
# Poissons Ratio (y) = 0.36214 0.08594
# Poissons Ratio (z) = 0.28855 0.05556
#
# Static dielectric constant tensor:
#      x y z
#    x 5.414140 0.000000 0.670490 
#    y 0.000000 5.597540 0.000000 
#    z 0.670490 0.000000 5.342410 
# 
# 
# High freq. dielectric constant tensor:
#      x y z
#    x 2.142590 0.000000 0.042930 
#    y 0.000000 2.208160 0.000000 
#    z 0.042930 0.000000 2.138800 
# 
# From -- ./inp_files/17424.got.cif
#   From: 2010.03.12/outbox.cif.g09.slc.cpg/sg14_9_cif.got.tgz:17424.got - 2010.03.31 13:35:05.
