data_PCOD8127713
_publ_section_title
;
Structure prediction by ZEFSAII (Michael W. Deem and Ramdas Pophale) SiO2 
 PCOD8127713
Probable space group: P 21/C
;
_chemical_formula_sum "Si O2"
_cell_formula_units_Z 28
_cell_length_a 13.103759
_cell_length_b 8.145608
_cell_length_c 15.913310
_cell_angle_alpha 90.000000
_cell_angle_beta 127.566060
_cell_angle_gamma 90.000000
_cell_volume 1346.362174
_symmetry_space_group_name_H-M "P 21/C"
_symmetry_group_IT_number 14
_symmetry_cell_setting 'monoclinic'
loop_
_space_group_symop_operation_xyz
x,y,z
-x,1/2+y,1/2-z
-x,-y,-z
x,1/2-y,1/2+z
loop_
_atom_site_type_symbol
_atom_site_label
_atom_site_fract_x
_atom_site_fract_y
_atom_site_fract_z
Si Si1 0.683854 0.883344 0.096243
Si Si2 0.081214 0.584494 0.227912
Si Si3 0.119827 0.620419 0.068101
Si Si4 0.865737 0.332533 0.104506
Si Si5 0.402810 0.915759 0.676733
Si Si6 0.544645 0.421071 0.389558
Si Si7 0.378288 0.036223 0.495661
O O1 0.570905 0.872976 0.107167
O O2 0.698434 0.700094 0.067386
O O3 0.813088 0.941043 0.207272
O O4 0.658169 0.008479 0.005694
O O5 0.109226 0.694923 0.157442
O O6 0.075900 0.700173 0.304872
O O7 0.942991 0.502059 0.150324
O O8 0.259588 0.534511 0.135701
O O9 0.119010 0.737388 0.984421
O O10 0.000000 0.500000 0.000000
O O11 0.718659 0.378751 0.054819
O O12 0.409428 0.731295 0.643407
O O13 0.434560 0.046389 0.618644
O O14 0.500923 0.936245 0.803112
O O15 0.500000 0.000000 0.500000
#
# Coordination Sequence:
#
# PCOD8127713 Si02
#       7
#     4   4   4   4   4   4   4
#     4  11  22  38  60  89 122 164 203 258 314 365
#     4  11  21  42  66  87 127 164 212 263 316 369
#     4   9  20  38  61  86 117 163 205 248 308 371
#     4  10  23  39  65  94 118 168 214 255 316 383
#     4  11  21  40  59  89 125 164 206 254 312 381
#     4  11  23  36  60  90 123 163 207 249 315 372
#     4  11  22  38  61  91 127 158 210 259 308 374
#
# _framework density 20.796780999999999
#
# number of rings (size 3 to 8) (size 9 to 14) (size 15 to 20)
#    0.000    1.429    2.857    3.429    2.000    1.143 
#    0.000    0.714    0.000    0.000    0.000    0.000 
#    0.000    0.000    0.000    0.000    0.000    0.000 
#
# Total GULP energy -346872.737533 kJ/mol
# GULP energy per Si atom -12388.312055 kJ/mol
# Density = 2.074945 g / cm^3
# Si number density = 20.796781 Si / 1000 Ang^3
#
#
#
# Elastic Constant Matrix: (Units=GPa)
#
#
# Indices 1 2 3 4 5 6 
#
# 1 96.2392 11.8765 35.4109 0.0000 -2.7535 0.0000
# 2 11.8765 67.7916 18.9890 0.0000 -12.9709 0.0000
# 3 35.4109 18.9890 117.1896 0.0000 -21.1082 0.0000
# 4 0.0000 0.0000 0.0000 37.4691 0.0000 -6.0456
# 5 -2.7535 -12.9709 -21.1082 0.0000 37.0449 0.0000
# 6 0.0000 0.0000 0.0000 -6.0456 0.0000 21.5788
#
#
#
# Elastic Compliance Matrix: (Units=1/GPa)
#
#
# Indices 1 2 3 4 5 6 
#
# 1 0.011861 -0.001374 -0.003665 0.000000 -0.001688 0.000000
# 2 -0.001374 0.016296 -0.001355 0.000000 0.004832 0.000000
# 3 -0.003665 -0.001355 0.010838 0.000000 0.005429 0.000000
# 4 0.000000 0.000000 0.000000 0.027952 0.000000 0.007831
# 5 -0.001688 0.004832 0.005429 0.000000 0.031654 0.000000
# 6 0.000000 0.000000 0.000000 0.007831 0.000000 0.048536
#
#
# Mechanical properties :
#
#
# Convention : Reuss Voigt Hill
#
# Bulk Modulus (GPa) = 38.15978 45.97478 42.06728
# Shear Modulus (GPa) = 29.64532 33.54815 31.59673
#
# Velocity S-wave (km/s) = 3.77964 4.02075 3.90206
# Velocity P-wave (km/s) = 6.11852 6.61135 6.36970
#
# Compressibility (1/GPa) = 0.02620560
#
# Stress axis : x y z
#
# Youngs Moduli (GPa) = 84.31211 61.36534 92.26722
#
# Poissons Ratio (x) = 0.08433 0.33819
# Poissons Ratio (y) = 0.11586 0.12502
# Poissons Ratio (z) = 0.30903 0.08315
#
# Static dielectric constant tensor:
#      x y z
#    x 3.918240 0.000000 -0.249460 
#    y 0.000000 3.396100 0.000000 
#    z -0.249460 0.000000 4.359410 
# 
# 
# High freq. dielectric constant tensor:
#      x y z
#    x 1.824090 0.000000 -0.007320 
#    y 0.000000 1.772640 0.000000 
#    z -0.007320 0.000000 1.842850 
# 
# From -- ./inp_files/43804.got.cif
#   From: 2010.03.12/outbox.cif.g09.slc.cpg/sg14_22_cif.got.tgz:43804.got - 2010.03.31 13:35:05.
