data_PCOD8127122
_publ_section_title
;
Structure prediction by ZEFSAII (Michael W. Deem and Ramdas Pophale) SiO2 
 PCOD8127122
Probable space group: P 21/C
;
_chemical_formula_sum "Si O2"
_cell_formula_units_Z 32
_cell_length_a 11.532122
_cell_length_b 11.354486
_cell_length_c 23.495231
_cell_angle_alpha 90.000000
_cell_angle_beta 28.733901
_cell_angle_gamma 90.000000
_cell_volume 1479.002336
_symmetry_space_group_name_H-M "P 21/C"
_symmetry_group_IT_number 14
_symmetry_cell_setting 'monoclinic'
loop_
_space_group_symop_operation_xyz
x,y,z
-x,1/2+y,1/2-z
-x,-y,-z
x,1/2-y,1/2+z
loop_
_atom_site_type_symbol
_atom_site_label
_atom_site_fract_x
_atom_site_fract_y
_atom_site_fract_z
Si Si1 0.857970 0.174513 0.038760
Si Si2 0.180599 0.722427 0.062043
Si Si3 0.049480 0.459992 0.136800
Si Si4 0.356005 0.200717 0.578122
Si Si5 0.329772 0.025758 0.808535
Si Si6 0.863542 0.095335 0.597044
Si Si7 0.766990 0.539027 0.367652
Si Si8 0.836768 0.921049 0.235951
O O1 0.953358 0.280136 0.035913
O O2 0.670747 0.095575 0.155612
O O3 0.721445 0.224372 0.040684
O O4 0.096740 0.102108 0.922938
O O5 0.141939 0.583982 0.073773
O O6 0.930892 0.790284 0.179386
O O7 0.363810 0.742461 0.036970
O O8 0.916990 0.403165 0.140703
O O9 0.858846 0.474844 0.270651
O O10 0.270952 0.371738 0.058911
O O11 0.201377 0.319939 0.652036
O O12 0.335603 0.103452 0.636818
O O13 0.576043 0.090767 0.715982
O O14 0.315626 0.009585 0.746243
O O15 0.000000 0.000000 0.500000
O O16 0.500000 0.500000 0.500000
O O17 0.936458 0.502934 0.346942
#
# Coordination Sequence:
#
# PCOD8127122 Si02
#       8
#     4   4   4   4   4   4   4   4
#     4  10  24  44  70 102 134 180 237 286 351 417
#     4  11  20  42  68  90 130 175 223 272 337 408
#     4  11  26  42  62 101 135 171 230 271 338 417
#     4  11  23  40  65  93 132 174 216 281 338 401
#     4  10  25  44  71 100 135 184 238 292 344 421
#     4  12  26  45  68 102 141 184 227 286 353 413
#     4  11  23  42  67  99 127 173 227 278 345 405
#     4  10  22  39  64  97 127 170 223 284 333 400
#
# _framework density 21.636206999999999
#
# number of rings (size 3 to 8) (size 9 to 14) (size 15 to 20)
#    0.000    1.250    3.750    1.125    5.250    1.000 
#    0.000    0.000    0.000    0.000    0.000    0.000 
#    0.000    0.000    0.000    0.000    0.000    0.000 
#
# Total GULP energy -396600.056746 kJ/mol
# GULP energy per Si atom -12393.751773 kJ/mol
# Density = 2.158696 g / cm^3
# Si number density = 21.636207 Si / 1000 Ang^3
#
#
#
# Elastic Constant Matrix: (Units=GPa)
#
#
# Indices 1 2 3 4 5 6 
#
# 1 167.9890 33.4273 23.3864 0.0000 3.7062 0.0000
# 2 33.4273 89.0379 4.0060 0.0000 8.6054 0.0000
# 3 23.3864 4.0060 37.1357 0.0000 2.6703 0.0000
# 4 0.0000 0.0000 0.0000 14.9473 0.0000 3.5126
# 5 3.7062 8.6054 2.6703 0.0000 30.1865 0.0000
# 6 0.0000 0.0000 0.0000 3.5126 0.0000 41.0276
#
#
#
# Elastic Compliance Matrix: (Units=1/GPa)
#
#
# Indices 1 2 3 4 5 6 
#
# 1 0.007020 -0.002468 -0.004170 0.000000 0.000211 0.000000
# 2 -0.002468 0.012455 0.000447 0.000000 -0.003287 0.000000
# 3 -0.004170 0.000447 0.029667 0.000000 -0.002240 0.000000
# 4 0.000000 0.000000 0.000000 0.068275 0.000000 -0.005845
# 5 0.000211 -0.003287 -0.002240 0.000000 0.034237 0.000000
# 6 0.000000 0.000000 0.000000 -0.005845 0.000000 0.024874
#
#
# Mechanical properties :
#
#
# Convention : Reuss Voigt Hill
#
# Bulk Modulus (GPa) = 27.20297 46.20021 36.70159
# Shear Modulus (GPa) = 24.85542 32.78846 28.82194
#
# Velocity S-wave (km/s) = 3.39306 3.89709 3.65378
# Velocity P-wave (km/s) = 5.28683 6.45363 5.89915
#
# Compressibility (1/GPa) = 0.03676070
#
# Stress axis : x y z
#
# Youngs Moduli (GPa) = 142.45599 80.28660 33.70758
#
# Poissons Ratio (x) = 0.19816 0.14055
# Poissons Ratio (y) = 0.35160 -0.01507
# Poissons Ratio (z) = 0.59398 -0.03589
#
# Static dielectric constant tensor:
#      x y z
#    x 4.316120 0.000000 0.140130 
#    y 0.000000 4.117390 0.000000 
#    z 0.140130 0.000000 3.787200 
# 
# 
# High freq. dielectric constant tensor:
#      x y z
#    x 1.857720 0.000000 0.001250 
#    y 0.000000 1.855110 0.000000 
#    z 0.001250 0.000000 1.839480 
# 
# From -- ./inp_files/73293.got.cif
#   From: 2010.03.12/outbox.cif.g09.slc.cpg/sg14_37_cif.got.tgz:73293.got - 2010.03.31 13:35:05.
