data_PCOD8127119
_publ_section_title
;
Structure prediction by ZEFSAII (Michael W. Deem and Ramdas Pophale) SiO2 
 PCOD8127119
Probable space group: P 21/C
;
_chemical_formula_sum "Si O2"
_cell_formula_units_Z 32
_cell_length_a 24.864492
_cell_length_b 10.139897
_cell_length_c 9.042502
_cell_angle_alpha 90.000000
_cell_angle_beta 37.030520
_cell_angle_gamma 90.000000
_cell_volume 1373.003353
_symmetry_space_group_name_H-M "P 21/C"
_symmetry_group_IT_number 14
_symmetry_cell_setting 'monoclinic'
loop_
_space_group_symop_operation_xyz
x,y,z
-x,1/2+y,1/2-z
-x,-y,-z
x,1/2-y,1/2+z
loop_
_atom_site_type_symbol
_atom_site_label
_atom_site_fract_x
_atom_site_fract_y
_atom_site_fract_z
Si Si1 0.903081 0.647727 0.649226
Si Si2 0.152666 0.563957 0.766611
Si Si3 0.755389 0.556738 0.165649
Si Si4 0.724560 0.180745 0.526525
Si Si5 0.989888 0.253028 0.326864
Si Si6 0.556297 0.895787 0.074782
Si Si7 0.525169 0.179973 0.042021
Si Si8 0.149530 0.561617 0.454423
O O1 0.922129 0.748667 0.472074
O O2 0.983807 0.659374 0.588853
O O3 0.902363 0.510290 0.564336
O O4 0.808433 0.659062 0.942001
O O5 0.192678 0.459747 0.793791
O O6 0.218996 0.685970 0.588241
O O7 0.149479 0.487916 0.613638
O O8 0.052142 0.610493 0.031798
O O9 0.658488 0.619792 0.402108
O O10 0.748319 0.409338 0.115486
O O11 0.619252 0.207459 0.754102
O O12 0.750384 0.100863 0.319435
O O13 0.910111 0.307744 0.400340
O O14 0.496953 0.809672 0.315697
O O15 0.527272 0.050114 0.142633
O O16 0.547985 0.842874 0.925237
#
# Coordination Sequence:
#
# PCOD8127119 Si02
#       8
#     4   4   4   4   4   4   4   4
#     4  11  25  42  64  88 135 171 218 280 339 407
#     4  11  22  38  66  99 131 168 232 282 343 417
#     4  10  24  43  65  97 138 178 225 290 355 420
#     4   9  20  39  67 100 130 176 224 288 347 408
#     4  11  23  40  64  96 125 175 224 276 341 407
#     4  10  24  46  69 106 142 189 237 294 358 424
#     4  10  23  44  74 103 146 185 239 296 353 435
#     4  10  22  39  64  96 131 169 220 288 338 405
#
# _framework density 23.306570000000001
#
# number of rings (size 3 to 8) (size 9 to 14) (size 15 to 20)
#    0.000    1.750    1.250    1.875   10.500    3.000 
#    0.000    0.000    0.000    0.000    0.000    0.000 
#    0.000    0.000    0.000    0.000    0.000    0.000 
#
# Total GULP energy -396474.835165 kJ/mol
# GULP energy per Si atom -12389.838599 kJ/mol
# Density = 2.325352 g / cm^3
# Si number density = 23.306570 Si / 1000 Ang^3
#
#
#
# Elastic Constant Matrix: (Units=GPa)
#
#
# Indices 1 2 3 4 5 6 
#
# 1 129.4739 28.8102 73.8567 0.0000 7.3434 0.0000
# 2 28.8102 51.1563 55.7854 0.0000 -3.0896 0.0000
# 3 73.8567 55.7854 163.0503 0.0000 4.5907 0.0000
# 4 0.0000 0.0000 0.0000 30.7288 0.0000 0.9240
# 5 7.3434 -3.0896 4.5907 0.0000 34.4791 0.0000
# 6 0.0000 0.0000 0.0000 0.9240 0.0000 26.9403
#
#
#
# Elastic Compliance Matrix: (Units=1/GPa)
#
#
# Indices 1 2 3 4 5 6 
#
# 1 0.010567 -0.001430 -0.004246 0.000000 -0.001813 0.000000
# 2 -0.001430 0.032002 -0.010430 0.000000 0.004561 0.000000
# 3 -0.004246 -0.010430 0.011669 0.000000 -0.001584 0.000000
# 4 0.000000 0.000000 0.000000 0.032576 0.000000 -0.001117
# 5 -0.001813 0.004561 -0.001584 0.000000 0.030009 0.000000
# 6 0.000000 0.000000 0.000000 -0.001117 0.000000 0.037157
#
#
# Mechanical properties :
#
#
# Convention : Reuss Voigt Hill
#
# Bulk Modulus (GPa) = 45.39980 73.39835 59.39907
# Shear Modulus (GPa) = 25.83507 30.77820 28.30663
#
# Velocity S-wave (km/s) = 3.33301 3.63792 3.48880
# Velocity P-wave (km/s) = 5.85949 7.01476 6.46299
#
# Compressibility (1/GPa) = 0.02202653
#
# Stress axis : x y z
#
# Youngs Moduli (GPa) = 94.63648 31.24762 85.69431
#
# Poissons Ratio (x) = 0.04469 0.36386
# Poissons Ratio (y) = 0.13535 0.89377
# Poissons Ratio (z) = 0.40183 0.32590
#
# Static dielectric constant tensor:
#      x y z
#    x 4.100400 0.000000 0.097460 
#    y 0.000000 3.910630 0.000000 
#    z 0.097460 0.000000 4.333340 
# 
# 
# High freq. dielectric constant tensor:
#      x y z
#    x 1.921380 0.000000 0.007530 
#    y 0.000000 1.897510 0.000000 
#    z 0.007530 0.000000 1.925820 
# 
# From -- ./inp_files/19477.got.cif
#   From: 2010.03.12/outbox.cif.g09.slc.cpg/sg14_10_cif.got.tgz:19477.got - 2010.03.31 13:35:05.
