data_PCOD8127848
_publ_section_title
;
Structure prediction by ZEFSAII (Michael W. Deem and Ramdas Pophale) SiO2 
 PCOD8127848
Probable space group: P 21/C
;
_chemical_formula_sum "Si O2"
_cell_formula_units_Z 32
_cell_length_a 28.519858
_cell_length_b 10.713577
_cell_length_c 8.981991
_cell_angle_alpha 90.000000
_cell_angle_beta 32.188338
_cell_angle_gamma 90.000000
_cell_volume 1461.976704
_symmetry_space_group_name_H-M "P 21/C"
_symmetry_group_IT_number 14
_symmetry_cell_setting 'monoclinic'
loop_
_space_group_symop_operation_xyz
x,y,z
-x,1/2+y,1/2-z
-x,-y,-z
x,1/2-y,1/2+z
loop_
_atom_site_type_symbol
_atom_site_label
_atom_site_fract_x
_atom_site_fract_y
_atom_site_fract_z
Si Si1 0.955692 0.618519 0.042571
Si Si2 0.959978 0.875016 0.180640
Si Si3 0.624527 0.789721 0.546474
Si Si4 0.529444 0.888268 0.089336
Si Si5 0.761769 0.917420 0.715367
Si Si6 0.345335 0.593990 0.678392
Si Si7 0.238173 0.031719 0.960015
Si Si8 0.337400 0.663157 0.028231
O O1 0.980138 0.623744 0.802180
O O2 0.994263 0.745518 0.014447
O O3 0.851012 0.601666 0.349584
O O4 0.000000 0.500000 0.000000
O O5 0.857248 0.867391 0.419524
O O6 0.000000 0.000000 0.000000
O O7 0.580655 0.864612 0.798508
O O8 0.547827 0.721308 0.658724
O O9 0.693984 0.693611 0.429743
O O10 0.678052 0.882000 0.297212
O O11 0.561765 0.021406 0.065880
O O12 0.426582 0.906468 0.338213
O O13 0.765728 0.000358 0.854464
O O14 0.731396 0.996019 0.653888
O O15 0.348719 0.692877 0.537405
O O16 0.321537 0.660476 0.895532
O O17 0.253213 0.901103 0.833076
#
# Coordination Sequence:
#
# PCOD8127848 Si02
#       8
#     4   4   4   4   4   4   4   4
#     4  11  25  45  72 106 141 182 228 283 350 416
#     4  11  24  44  73 105 140 174 229 284 347 421
#     4  11  20  39  66  96 125 167 220 273 325 392
#     4  11  24  39  65  94 132 170 225 278 335 393
#     4  10  23  42  67  97 126 172 222 272 332 401
#     4  11  25  41  61  90 127 174 221 273 335 392
#     4  11  23  41  68  94 133 173 223 272 334 398
#     4  12  25  41  62  92 136 176 224 279 336 397
#
# _framework density 21.888173999999999
#
# number of rings (size 3 to 8) (size 9 to 14) (size 15 to 20)
#    0.000    1.000    3.750    2.625    1.750    3.000 
#    0.000    3.125    0.000    0.000    0.000    0.000 
#    0.000    0.000    0.000    0.000    0.000    0.000 
#
# Total GULP energy -396857.591754 kJ/mol
# GULP energy per Si atom -12401.799742 kJ/mol
# Density = 2.183836 g / cm^3
# Si number density = 21.888174 Si / 1000 Ang^3
#
#
#
# Elastic Constant Matrix: (Units=GPa)
#
#
# Indices 1 2 3 4 5 6 
#
# 1 95.2324 39.6562 23.1456 0.0000 10.3046 0.0000
# 2 39.6562 135.6028 31.2438 0.0000 15.7187 0.0000
# 3 23.1456 31.2438 71.6625 0.0000 7.6914 0.0000
# 4 0.0000 0.0000 0.0000 31.3767 0.0000 8.9379
# 5 10.3046 15.7187 7.6914 0.0000 22.6598 0.0000
# 6 0.0000 0.0000 0.0000 8.9379 0.0000 44.0059
#
#
#
# Elastic Compliance Matrix: (Units=1/GPa)
#
#
# Indices 1 2 3 4 5 6 
#
# 1 0.012585 -0.002751 -0.002549 0.000000 -0.002949 0.000000
# 2 -0.002751 0.009299 -0.002706 0.000000 -0.004281 0.000000
# 3 -0.002549 -0.002706 0.016222 0.000000 -0.002470 0.000000
# 4 0.000000 0.000000 0.000000 0.033828 0.000000 -0.006871
# 5 -0.002949 -0.004281 -0.002470 0.000000 0.049280 0.000000
# 6 0.000000 0.000000 0.000000 -0.006871 0.000000 0.024120
#
#
# Mechanical properties :
#
#
# Convention : Reuss Voigt Hill
#
# Bulk Modulus (GPa) = 45.26085 54.50987 49.88536
# Shear Modulus (GPa) = 29.63657 33.50529 31.57093
#
# Velocity S-wave (km/s) = 3.68366 3.91672 3.80198
# Velocity P-wave (km/s) = 6.23022 6.73885 6.48952
#
# Compressibility (1/GPa) = 0.02209415
#
# Stress axis : x y z
#
# Youngs Moduli (GPa) = 79.46060 107.54104 61.64326
#
# Poissons Ratio (x) = 0.29587 0.15710
# Poissons Ratio (y) = 0.21862 0.16681
# Poissons Ratio (z) = 0.20251 0.29101
#
# Static dielectric constant tensor:
#      x y z
#    x 4.073900 0.000000 -0.014080 
#    y 0.000000 4.042670 0.000000 
#    z -0.014080 0.000000 3.797140 
# 
# 
# High freq. dielectric constant tensor:
#      x y z
#    x 1.869780 0.000000 0.006920 
#    y 0.000000 1.871300 0.000000 
#    z 0.006920 0.000000 1.846340 
# 
# From -- ./inp_files/19992.got.cif
#   From: 2010.03.12/outbox.cif.g09.slc.cpg/sg14_10_cif.got.tgz:19992.got - 2010.03.31 13:35:05.
