data_PCOD8127457
_publ_section_title
;
Structure prediction by ZEFSAII (Michael W. Deem and Ramdas Pophale) SiO2 
 PCOD8127457
Probable space group: P 21/C
;
_chemical_formula_sum "Si O2"
_cell_formula_units_Z 24
_cell_length_a 11.702992
_cell_length_b 8.973100
_cell_length_c 12.562232
_cell_angle_alpha 90.000000
_cell_angle_beta 133.284388
_cell_angle_gamma 90.000000
_cell_volume 960.314541
_symmetry_space_group_name_H-M "P 21/C"
_symmetry_group_IT_number 14
_symmetry_cell_setting 'monoclinic'
loop_
_space_group_symop_operation_xyz
x,y,z
-x,1/2+y,1/2-z
-x,-y,-z
x,1/2-y,1/2+z
loop_
_atom_site_type_symbol
_atom_site_label
_atom_site_fract_x
_atom_site_fract_y
_atom_site_fract_z
Si Si1 0.306085 0.478605 0.449572
Si Si2 0.404230 0.322582 0.902286
Si Si3 0.301570 0.739188 0.794509
Si Si4 0.541186 0.081030 0.275393
Si Si5 0.003582 0.178441 0.821243
Si Si6 0.187522 0.031381 0.418207
O O1 0.366316 0.349597 0.407933
O O2 0.276781 0.623555 0.361080
O O3 0.439479 0.508626 0.623615
O O4 0.151655 0.431946 0.418838
O O5 0.426751 0.348041 0.791065
O O6 0.258513 0.419624 0.849623
O O7 0.567980 0.369483 0.067226
O O8 0.366307 0.782747 0.720883
O O9 0.129379 0.662656 0.670227
O O10 0.673996 0.970645 0.406423
O O11 0.056883 0.348067 0.863881
O O12 0.900209 0.128682 0.650217
#
# Coordination Sequence:
#
# PCOD8127457 Si02
#       6
#     4   4   4   4   4   4
#     4  10  24  44  67 100 137 180 227 285 336 408
#     4  10  22  42  70  98 134 177 228 278 336 405
#     4  11  23  42  69  99 140 177 226 285 342 399
#     4  11  23  42  71 100 130 184 231 274 337 416
#     4  11  23  46  68  97 143 177 219 291 345 390
#     4  11  24  46  70  98 139 181 226 284 340 405
#
# _framework density 24.991811999999999
#
# number of rings (size 3 to 8) (size 9 to 14) (size 15 to 20)
#    0.000    1.333    3.333    2.500    0.000    8.667 
#    6.000    0.833    0.000    0.000    0.000    0.000 
#    0.000    0.000    0.000    0.000    0.000    0.000 
#
# Total GULP energy -297328.989129 kJ/mol
# GULP energy per Si atom -12388.707880 kJ/mol
# Density = 2.493493 g / cm^3
# Si number density = 24.991812 Si / 1000 Ang^3
#
#
#
# Elastic Constant Matrix: (Units=GPa)
#
#
# Indices 1 2 3 4 5 6 
#
# 1 142.9356 -7.2903 44.9695 0.0000 14.6423 0.0000
# 2 -7.2903 41.5140 35.6585 0.0000 3.8288 0.0000
# 3 44.9695 35.6585 102.8341 0.0000 8.0466 0.0000
# 4 0.0000 0.0000 0.0000 29.5011 0.0000 13.0914
# 5 14.6423 3.8288 8.0466 0.0000 45.5034 0.0000
# 6 0.0000 0.0000 0.0000 13.0914 0.0000 38.9606
#
#
#
# Elastic Compliance Matrix: (Units=1/GPa)
#
#
# Indices 1 2 3 4 5 6 
#
# 1 0.009792 0.007780 -0.006776 0.000000 -0.002607 0.000000
# 2 0.007780 0.040516 -0.017227 0.000000 -0.002866 0.000000
# 3 -0.006776 -0.017227 0.018635 0.000000 0.000335 0.000000
# 4 0.000000 0.000000 0.000000 0.039837 0.000000 -0.013386
# 5 -0.002607 -0.002866 0.000335 0.000000 0.022997 0.000000
# 6 0.000000 0.000000 0.000000 -0.013386 0.000000 0.030165
#
#
# Mechanical properties :
#
#
# Convention : Reuss Voigt Hill
#
# Bulk Modulus (GPa) = 27.39944 48.21768 37.80856
# Shear Modulus (GPa) = 24.20674 37.05608 30.63141
#
# Velocity S-wave (km/s) = 3.11559 3.85480 3.50474
# Velocity P-wave (km/s) = 4.89180 6.25683 5.61594
#
# Compressibility (1/GPa) = 0.03649710
#
# Stress axis : x y z
#
# Youngs Moduli (GPa) = 102.12627 24.68145 53.66267
#
# Poissons Ratio (x) = -0.19202 0.36360
# Poissons Ratio (y) = -0.79455 0.92446
# Poissons Ratio (z) = 0.69198 0.42519
#
# Static dielectric constant tensor:
#      x y z
#    x 5.027820 0.000000 0.370140 
#    y 0.000000 4.595710 0.000000 
#    z 0.370140 0.000000 4.240550 
# 
# 
# High freq. dielectric constant tensor:
#      x y z
#    x 2.019700 0.000000 0.030260 
#    y 0.000000 2.003330 0.000000 
#    z 0.030260 0.000000 1.960730 
# 
# From -- ./inp_files/29179.got.cif
#   From: 2010.03.12/outbox.cif.g09.slc.cpg/sg14_15_cif.got.tgz:29179.got - 2010.03.31 13:35:05.
