data_PCOD8127337
_publ_section_title
;
Structure prediction by ZEFSAII (Michael W. Deem and Ramdas Pophale) SiO2 
 PCOD8127337
Probable space group: P 21/C
;
_chemical_formula_sum "Si O2"
_cell_formula_units_Z 28
_cell_length_a 26.420506
_cell_length_b 5.136904
_cell_length_c 15.047077
_cell_angle_alpha 90.000000
_cell_angle_beta 39.813906
_cell_angle_gamma 90.000000
_cell_volume 1307.602109
_symmetry_space_group_name_H-M "P 21/C"
_symmetry_group_IT_number 14
_symmetry_cell_setting 'monoclinic'
loop_
_space_group_symop_operation_xyz
x,y,z
-x,1/2+y,1/2-z
-x,-y,-z
x,1/2-y,1/2+z
loop_
_atom_site_type_symbol
_atom_site_label
_atom_site_fract_x
_atom_site_fract_y
_atom_site_fract_z
Si Si1 0.550107 0.320934 0.696780
Si Si2 0.657704 0.148433 0.214863
Si Si3 0.946433 0.250812 0.060943
Si Si4 0.758281 0.650087 0.047998
Si Si5 0.832805 0.556940 0.119261
Si Si6 0.189468 0.045098 0.707835
Si Si7 0.320455 0.766941 0.119721
O O1 0.481817 0.533827 0.780720
O O2 0.581056 0.322862 0.756313
O O3 0.617772 0.388088 0.533360
O O4 0.722339 0.359932 0.097594
O O5 0.635053 0.175101 0.349800
O O6 0.691214 0.860525 0.155894
O O7 0.896808 0.318200 0.036360
O O8 0.870687 0.200432 0.229248
O O9 0.000000 0.500000 0.000000
O O10 0.000000 0.000000 0.000000
O O11 0.828817 0.671613 0.025267
O O12 0.797540 0.703307 0.899896
O O13 0.857816 0.776815 0.156869
O O14 0.743263 0.480675 0.265730
O O15 0.274600 0.967280 0.632702
#
# Coordination Sequence:
#
# PCOD8127337 Si02
#       7
#     4   4   4   4   4   4   4
#     4  12  27  42  63  94 134 175 213 272 335 402
#     4  11  23  42  65  94 128 168 216 278 320 384
#     4  11  23  41  65  92 135 174 206 255 323 385
#     4  11  23  38  69 100 126 160 230 273 314 375
#     4  10  22  41  69  99 126 171 220 273 317 383
#     4  11  21  41  70  96 125 175 218 269 321 378
#     4  10  23  41  67  94 126 170 224 269 328 382
#
# _framework density 21.413240999999999
#
# number of rings (size 3 to 8) (size 9 to 14) (size 15 to 20)
#    0.000    1.143    4.286    1.714    4.000    1.143 
#    0.000    1.429    0.000    0.000    0.000    0.000 
#    0.000    0.000    0.000    0.000    0.000    0.000 
#
# Total GULP energy -346909.097443 kJ/mol
# GULP energy per Si atom -12389.610623 kJ/mol
# Density = 2.136450 g / cm^3
# Si number density = 21.413241 Si / 1000 Ang^3
#
#
#
# Elastic Constant Matrix: (Units=GPa)
#
#
# Indices 1 2 3 4 5 6 
#
# 1 148.9545 40.0120 68.6399 0.0000 11.1423 0.0000
# 2 40.0120 90.5960 18.2433 0.0000 -0.0770 0.0000
# 3 68.6399 18.2433 53.7054 0.0000 7.4482 0.0000
# 4 0.0000 0.0000 0.0000 33.8279 0.0000 -9.1316
# 5 11.1423 -0.0770 7.4482 0.0000 37.7118 0.0000
# 6 0.0000 0.0000 0.0000 -9.1316 0.0000 40.2352
#
#
#
# Elastic Compliance Matrix: (Units=1/GPa)
#
#
# Indices 1 2 3 4 5 6 
#
# 1 0.017301 -0.003454 -0.020799 0.000000 -0.001011 0.000000
# 2 -0.003454 0.012564 0.000001 0.000000 0.001046 0.000000
# 3 -0.020799 0.000001 0.045599 0.000000 -0.002861 0.000000
# 4 0.000000 0.000000 0.000000 0.031491 0.000000 0.007147
# 5 -0.001011 0.001046 -0.002861 0.000000 0.027383 0.000000
# 6 0.000000 0.000000 0.000000 0.007147 0.000000 0.026476
#
#
# Mechanical properties :
#
#
# Convention : Reuss Voigt Hill
#
# Bulk Modulus (GPa) = 37.08993 60.78292 48.93642
# Shear Modulus (GPa) = 22.90384 33.44571 28.17477
#
# Velocity S-wave (km/s) = 3.27404 3.95640 3.63128
# Velocity P-wave (km/s) = 5.62593 7.02268 6.36275
#
# Compressibility (1/GPa) = 0.02696150
#
# Stress axis : x y z
#
# Youngs Moduli (GPa) = 57.79938 79.59246 21.93018
#
# Poissons Ratio (x) = 0.27489 0.45613
# Poissons Ratio (y) = 0.19962 -0.00003
# Poissons Ratio (z) = 1.20217 -0.00010
#
# Static dielectric constant tensor:
#      x y z
#    x 4.387890 0.000000 0.094300 
#    y 0.000000 4.080100 0.000000 
#    z 0.094300 0.000000 3.792330 
# 
# 
# High freq. dielectric constant tensor:
#      x y z
#    x 1.854650 0.000000 -0.003490 
#    y 0.000000 1.850120 0.000000 
#    z -0.003490 0.000000 1.807890 
# 
# From -- ./inp_files/51710.got.cif
#   From: 2010.03.12/outbox.cif.g09.slc.cpg/sg14_26_cif.got.tgz:51710.got - 2010.03.31 13:35:05.
