data_PCOD8127101
_publ_section_title
;
Structure prediction by ZEFSAII (Michael W. Deem and Ramdas Pophale) SiO2 
 PCOD8127101
Probable space group: P 21/C
;
_chemical_formula_sum "Si O2"
_cell_formula_units_Z 32
_cell_length_a 13.629428
_cell_length_b 8.891263
_cell_length_c 12.412496
_cell_angle_alpha 90.000000
_cell_angle_beta 97.763209
_cell_angle_gamma 90.000000
_cell_volume 1490.395229
_symmetry_space_group_name_H-M "P 21/C"
_symmetry_group_IT_number 14
_symmetry_cell_setting 'monoclinic'
loop_
_space_group_symop_operation_xyz
x,y,z
-x,1/2+y,1/2-z
-x,-y,-z
x,1/2-y,1/2+z
loop_
_atom_site_type_symbol
_atom_site_label
_atom_site_fract_x
_atom_site_fract_y
_atom_site_fract_z
Si Si1 0.454793 0.517015 0.610375
Si Si2 0.726486 0.336033 0.341741
Si Si3 0.922904 0.517448 0.393183
Si Si4 0.922669 0.665422 0.951542
Si Si5 0.291447 0.019274 0.358898
Si Si6 0.402886 0.261076 0.244260
Si Si7 0.723637 0.500400 0.903861
Si Si8 0.941963 0.524650 0.162051
O O1 0.500000 0.500000 0.500000
O O2 0.342721 0.580864 0.580343
O O3 0.513702 0.640888 0.686959
O O4 0.454830 0.356430 0.670811
O O5 0.839805 0.388156 0.379160
O O6 0.681142 0.384688 0.218753
O O7 0.716930 0.157650 0.342782
O O8 0.871942 0.678231 0.411131
O O9 0.984763 0.534145 0.289921
O O10 0.000000 0.500000 0.500000
O O11 0.839543 0.537020 0.932164
O O12 0.013724 0.626623 0.885305
O O13 0.964802 0.663106 0.082155
O O14 0.339370 0.175002 0.325945
O O15 0.327243 0.986235 0.485622
O O16 0.174174 0.025338 0.335957
O O17 0.330329 0.371112 0.169987
#
# Coordination Sequence:
#
# PCOD8127101 Si02
#       8
#     4   4   4   4   4   4   4   4
#     4  11  24  44  68  94 132 165 217 262 325 382
#     4  10  24  44  61  96 130 167 215 265 318 391
#     4  11  25  41  65  93 130 169 222 267 318 384
#     4  10  22  39  63  90 128 173 216 263 322 383
#     4   9  21  42  64  90 135 166 210 266 322 378
#     4  11  23  42  68  99 124 171 214 267 319 392
#     4  11  22  41  68  93 132 169 212 262 328 374
#     4   9  21  39  62  87 130 167 215 263 323 375
#
# _framework density 21.470817
#
# number of rings (size 3 to 8) (size 9 to 14) (size 15 to 20)
#    0.000    1.750    0.000    3.750    7.000    5.000 
#    2.250    4.375    0.000    0.000    0.000    0.000 
#    0.000    0.000    0.000    0.000    0.000    0.000 
#
# Total GULP energy -396572.166296 kJ/mol
# GULP energy per Si atom -12392.880197 kJ/mol
# Density = 2.142195 g / cm^3
# Si number density = 21.470817 Si / 1000 Ang^3
#
#
#
# Elastic Constant Matrix: (Units=GPa)
#
#
# Indices 1 2 3 4 5 6 
#
# 1 85.7007 39.2264 46.0051 0.0000 -12.5681 0.0000
# 2 39.2264 157.1216 64.5232 0.0000 -6.6311 0.0000
# 3 46.0051 64.5232 153.2006 0.0000 -12.7115 0.0000
# 4 0.0000 0.0000 0.0000 25.1468 0.0000 3.0529
# 5 -12.5681 -6.6311 -12.7115 0.0000 34.3441 0.0000
# 6 0.0000 0.0000 0.0000 3.0529 0.0000 37.9485
#
#
#
# Elastic Compliance Matrix: (Units=1/GPa)
#
#
# Indices 1 2 3 4 5 6 
#
# 1 0.015003 -0.002254 -0.003236 0.000000 0.003857 0.000000
# 2 -0.002254 0.008037 -0.002732 0.000000 -0.000284 0.000000
# 3 -0.003236 -0.002732 0.008777 0.000000 0.001537 0.000000
# 4 0.000000 0.000000 0.000000 0.040159 0.000000 -0.003231
# 5 0.003857 -0.000284 0.001537 0.000000 0.031043 0.000000
# 6 0.000000 0.000000 0.000000 -0.003231 0.000000 0.026611
#
#
# Mechanical properties :
#
#
# Convention : Reuss Voigt Hill
#
# Bulk Modulus (GPa) = 65.04478 77.28138 71.16308
# Shear Modulus (GPa) = 33.06931 35.90576 34.48753
#
# Velocity S-wave (km/s) = 3.92879 4.09382 4.01215
# Velocity P-wave (km/s) = 7.13728 7.64314 7.39454
#
# Compressibility (1/GPa) = 0.01537402
#
# Stress axis : x y z
#
# Youngs Moduli (GPa) = 66.65362 124.42469 113.93237
#
# Poissons Ratio (x) = 0.28044 0.36868
# Poissons Ratio (y) = 0.15023 0.31122
# Poissons Ratio (z) = 0.21569 0.33989
#
# Static dielectric constant tensor:
#      x y z
#    x 3.944670 0.000000 -0.220150 
#    y 0.000000 3.955130 0.000000 
#    z -0.220150 0.000000 4.572170 
# 
# 
# High freq. dielectric constant tensor:
#      x y z
#    x 1.838440 0.000000 -0.009580 
#    y 0.000000 1.842990 0.000000 
#    z -0.009580 0.000000 1.854170 
# 
# From -- ./inp_files/31842.got.cif
#   From: 2010.03.12/outbox.cif.g09.slc.cpg/sg14_16_cif.got.tgz:31842.got - 2010.03.31 13:35:05.
