data_PCOD8127393
_publ_section_title
;
Structure prediction by ZEFSAII (Michael W. Deem and Ramdas Pophale) SiO2 
 PCOD8127393
Probable space group: P 21/C
;
_chemical_formula_sum "Si O2"
_cell_formula_units_Z 28
_cell_length_a 13.293707
_cell_length_b 5.278406
_cell_length_c 20.352406
_cell_angle_alpha 90.000000
_cell_angle_beta 56.045194
_cell_angle_gamma 90.000000
_cell_volume 1184.594554
_symmetry_space_group_name_H-M "P 21/C"
_symmetry_group_IT_number 14
_symmetry_cell_setting 'monoclinic'
loop_
_space_group_symop_operation_xyz
x,y,z
-x,1/2+y,1/2-z
-x,-y,-z
x,1/2-y,1/2+z
loop_
_atom_site_type_symbol
_atom_site_label
_atom_site_fract_x
_atom_site_fract_y
_atom_site_fract_z
Si Si1 0.129607 0.124342 0.389418
Si Si2 0.204374 0.605850 0.296918
Si Si3 0.991351 0.400185 0.289799
Si Si4 0.233374 0.379038 0.593877
Si Si5 0.375376 0.763442 0.486413
Si Si6 0.628111 0.955151 0.372845
Si Si7 0.865683 0.015346 0.465761
O O1 0.215057 0.363195 0.341277
O O2 0.114880 0.129916 0.472894
O O3 0.192165 0.865076 0.341908
O O4 0.993620 0.166873 0.406647
O O5 0.323910 0.619075 0.206292
O O6 0.085460 0.560091 0.297875
O O7 0.853133 0.369533 0.368948
O O8 0.037816 0.120808 0.254823
O O9 0.355797 0.461866 0.508870
O O10 0.275149 0.270828 0.649356
O O11 0.148301 0.181125 0.588053
O O12 0.497418 0.831334 0.402838
O O13 0.376995 0.892373 0.557400
O O14 0.259638 0.829427 0.483202
#
# Coordination Sequence:
#
# PCOD8127393 Si02
#       7
#     4   4   4   4   4   4   4
#     4  11  26  43  67  95 134 171 223 269 325 379
#     4  12  24  42  64  98 133 171 210 273 326 390
#     4  12  23  36  60  97 137 165 206 264 339 399
#     4  11  21  36  65  93 129 169 218 270 326 390
#     4  10  22  42  65  92 128 173 219 267 324 392
#     4  10  23  40  63  97 130 168 216 267 332 396
#     4  10  24  42  64  95 124 176 221 271 316 386
#
# _framework density 23.636780999999999
#
# number of rings (size 3 to 8) (size 9 to 14) (size 15 to 20)
#    0.000    1.143    2.857    3.000    6.000    1.143 
#    0.000    1.429    0.000    0.000    0.000    0.000 
#    0.000    0.000    0.000    0.000    0.000    0.000 
#
# Total GULP energy -346909.268772 kJ/mol
# GULP energy per Si atom -12389.616742 kJ/mol
# Density = 2.358298 g / cm^3
# Si number density = 23.636781 Si / 1000 Ang^3
#
#
#
# Elastic Constant Matrix: (Units=GPa)
#
#
# Indices 1 2 3 4 5 6 
#
# 1 75.4144 11.8781 24.1352 0.0000 -18.0464 0.0000
# 2 11.8781 87.4302 8.6083 0.0000 -12.4433 0.0000
# 3 24.1352 8.6083 79.1340 0.0000 -30.7589 0.0000
# 4 0.0000 0.0000 0.0000 29.0949 0.0000 -10.9359
# 5 -18.0464 -12.4433 -30.7589 0.0000 27.8245 0.0000
# 6 0.0000 0.0000 0.0000 -10.9359 0.0000 16.8237
#
#
#
# Elastic Compliance Matrix: (Units=1/GPa)
#
#
# Indices 1 2 3 4 5 6 
#
# 1 0.015849 -0.000836 -0.001565 0.000000 0.008175 0.000000
# 2 -0.000836 0.012347 0.001486 0.000000 0.006622 0.000000
# 3 -0.001565 0.001486 0.022472 0.000000 0.024492 0.000000
# 4 0.000000 0.000000 0.000000 0.045483 0.000000 0.029565
# 5 0.008175 0.006622 0.024492 0.000000 0.071278 0.000000
# 6 0.000000 0.000000 0.000000 0.029565 0.000000 0.078658
#
#
# Mechanical properties :
#
#
# Convention : Reuss Voigt Hill
#
# Bulk Modulus (GPa) = 20.47553 36.80240 28.63897
# Shear Modulus (GPa) = 18.92523 27.90575 23.41549
#
# Velocity S-wave (km/s) = 2.83268 3.43972 3.15085
# Velocity P-wave (km/s) = 4.40229 5.60173 5.03783
#
# Compressibility (1/GPa) = 0.04883878
#
# Stress axis : x y z
#
# Youngs Moduli (GPa) = 63.09573 80.98837 44.49933
#
# Poissons Ratio (x) = 0.06767 0.06965
# Poissons Ratio (y) = 0.05272 -0.06612
# Poissons Ratio (z) = 0.09875 -0.12033
#
# Static dielectric constant tensor:
#      x y z
#    x 4.240720 0.000000 -0.202550 
#    y 0.000000 4.343620 0.000000 
#    z -0.202550 0.000000 4.351710 
# 
# 
# High freq. dielectric constant tensor:
#      x y z
#    x 1.919480 0.000000 -0.013830 
#    y 0.000000 1.939800 0.000000 
#    z -0.013830 0.000000 1.931580 
# 
# From -- ./inp_files/67817.got.cif
#   From: 2010.03.12/outbox.cif.g09.slc.cpg/sg14_34_cif.got.tgz:67817.got - 2010.03.31 13:35:05.
