data_PCOD8127526
_publ_section_title
;
Structure prediction by ZEFSAII (Michael W. Deem and Ramdas Pophale) SiO2 
 PCOD8127526
Probable space group: P 21/C
;
_chemical_formula_sum "Si O2"
_cell_formula_units_Z 28
_cell_length_a 8.309854
_cell_length_b 13.972745
_cell_length_c 12.518326
_cell_angle_alpha 90.000000
_cell_angle_beta 49.519533
_cell_angle_gamma 90.000000
_cell_volume 1105.587981
_symmetry_space_group_name_H-M "P 21/C"
_symmetry_group_IT_number 14
_symmetry_cell_setting 'monoclinic'
loop_
_space_group_symop_operation_xyz
x,y,z
-x,1/2+y,1/2-z
-x,-y,-z
x,1/2-y,1/2+z
loop_
_atom_site_type_symbol
_atom_site_label
_atom_site_fract_x
_atom_site_fract_y
_atom_site_fract_z
Si Si1 0.799914 0.991685 0.282082
Si Si2 0.883700 0.145151 0.773072
Si Si3 0.441227 0.888899 0.900770
Si Si4 0.274789 0.083028 0.902451
Si Si5 0.563734 0.356572 0.989562
Si Si6 0.641480 0.211801 0.675952
Si Si7 0.225412 0.203445 0.116843
O O1 0.870503 0.965326 0.128604
O O2 0.580650 0.938951 0.399015
O O3 0.985596 0.954514 0.280230
O O4 0.741503 0.102860 0.329881
O O5 0.812385 0.169765 0.683785
O O6 0.036213 0.232234 0.743581
O O7 0.689927 0.138390 0.936546
O O8 0.369264 0.828467 0.826435
O O9 0.683605 0.861589 0.825758
O O10 0.430941 0.001171 0.880774
O O11 0.409410 0.170175 0.798323
O O12 0.144268 0.130955 0.057003
O O13 0.701430 0.315946 0.028598
O O14 0.419755 0.274566 0.994285
#
# Coordination Sequence:
#
# PCOD8127526 Si02
#       7
#     4   4   4   4   4   4   4
#     4   9  20  38  64  98 131 172 224 277 336 401
#     4  11  24  44  67 101 140 176 231 285 340 413
#     4  11  25  46  68 100 140 179 231 288 341 415
#     4  11  23  43  73  98 134 184 231 281 350 409
#     4   8  18  41  63  92 133 177 219 278 336 403
#     4  10  23  43  69  98 133 182 230 283 348 406
#     4  10  22  43  69  94 139 182 224 283 346 407
#
# _framework density 25.325890000000001
#
# number of rings (size 3 to 8) (size 9 to 14) (size 15 to 20)
#    0.000    2.000    1.429    1.286    4.000    1.143 
#    5.143    0.000    0.000    0.000    0.000    0.000 
#    0.000    0.000    0.000    0.000    0.000    0.000 
#
# Total GULP energy -346927.996809 kJ/mol
# GULP energy per Si atom -12390.285600 kJ/mol
# Density = 2.526825 g / cm^3
# Si number density = 25.325890 Si / 1000 Ang^3
#
#
#
# Elastic Constant Matrix: (Units=GPa)
#
#
# Indices 1 2 3 4 5 6 
#
# 1 85.2234 -9.7189 8.8429 0.0000 30.8266 0.0000
# 2 -9.7189 74.1748 16.5074 0.0000 11.7687 0.0000
# 3 8.8429 16.5074 56.9709 0.0000 21.4609 0.0000
# 4 0.0000 0.0000 0.0000 32.8239 0.0000 8.2065
# 5 30.8266 11.7687 21.4609 0.0000 31.1468 0.0000
# 6 0.0000 0.0000 0.0000 8.2065 0.0000 35.4974
#
#
#
# Elastic Compliance Matrix: (Units=1/GPa)
#
#
# Indices 1 2 3 4 5 6 
#
# 1 0.021823 0.006060 0.005207 0.000000 -0.027477 0.000000
# 2 0.006060 0.016377 -0.001479 0.000000 -0.011166 0.000000
# 3 0.005207 -0.001479 0.025531 0.000000 -0.022186 0.000000
# 4 0.000000 0.000000 0.000000 0.032335 0.000000 -0.007475
# 5 -0.027477 -0.011166 -0.022186 0.000000 0.078806 0.000000
# 6 0.000000 0.000000 0.000000 -0.007475 0.000000 0.029899
#
#
# Mechanical properties :
#
#
# Convention : Reuss Voigt Hill
#
# Bulk Modulus (GPa) = 12.00392 27.51465 19.75928
# Shear Modulus (GPa) = 23.47821 33.27613 28.37717
#
# Velocity S-wave (km/s) = 3.04804 3.62873 3.35099
# Velocity P-wave (km/s) = 4.13975 5.33336 4.77400
#
# Compressibility (1/GPa) = 0.08330614
#
# Stress axis : x y z
#
# Youngs Moduli (GPa) = 45.82241 61.06271 39.16870
#
# Poissons Ratio (x) = -0.37005 -0.20396
# Poissons Ratio (y) = -0.27769 0.05795
# Poissons Ratio (z) = -0.23860 0.09034
#
# Static dielectric constant tensor:
#      x y z
#    x 4.539080 0.000000 0.223520 
#    y 0.000000 5.052290 0.000000 
#    z 0.223520 0.000000 4.431550 
# 
# 
# High freq. dielectric constant tensor:
#      x y z
#    x 1.998900 0.000000 0.008880 
#    y 0.000000 2.032880 0.000000 
#    z 0.008880 0.000000 1.989290 
# 
# From -- ./inp_files/25419.got.cif
#   From: 2010.03.12/outbox.cif.g09.slc.cpg/sg14_13_cif.got.tgz:25419.got - 2010.03.31 13:35:05.
