data_PCOD8127719
_publ_section_title
;
Structure prediction by ZEFSAII (Michael W. Deem and Ramdas Pophale) SiO2 
 PCOD8127719
Probable space group: P 21/C
;
_chemical_formula_sum "Si O2"
_cell_formula_units_Z 32
_cell_length_a 28.897337
_cell_length_b 5.425235
_cell_length_c 17.726097
_cell_angle_alpha 90.000000
_cell_angle_beta 32.232758
_cell_angle_gamma 90.000000
_cell_volume 1482.210654
_symmetry_space_group_name_H-M "P 21/C"
_symmetry_group_IT_number 14
_symmetry_cell_setting 'monoclinic'
loop_
_space_group_symop_operation_xyz
x,y,z
-x,1/2+y,1/2-z
-x,-y,-z
x,1/2-y,1/2+z
loop_
_atom_site_type_symbol
_atom_site_label
_atom_site_fract_x
_atom_site_fract_y
_atom_site_fract_z
Si Si1 0.238813 0.783993 0.761661
Si Si2 0.321909 0.274125 0.709435
Si Si3 0.512499 0.787972 0.109818
Si Si4 0.243522 0.750039 0.581137
Si Si5 0.652396 0.941837 0.666190
Si Si6 0.037334 0.734858 0.538203
Si Si7 0.411041 0.060721 0.850001
Si Si8 0.044297 0.770186 0.352489
O O1 0.282649 0.527119 0.728449
O O2 0.254403 0.840492 0.652041
O O3 0.271882 0.027352 0.757231
O O4 0.137863 0.772695 0.920258
O O5 0.422223 0.231423 0.548175
O O6 0.316785 0.274744 0.807237
O O7 0.566157 0.964828 0.093280
O O8 0.489122 0.558115 0.194951
O O9 0.421003 0.872787 0.199439
O O10 0.314295 0.540758 0.468570
O O11 0.145523 0.669032 0.701835
O O12 0.261935 0.952823 0.491638
O O13 0.596627 0.830846 0.674074
O O14 0.019273 0.749304 0.474318
O O15 0.988008 0.490661 0.639469
O O16 0.001706 0.992273 0.622407
#
# Coordination Sequence:
#
# PCOD8127719 Si02
#       8
#     4   4   4   4   4   4   4   4
#     4  11  24  42  67  97 131 171 218 267 323 393
#     4  12  27  42  65  94 134 178 217 262 326 388
#     4  11  23  40  63  91 124 172 219 272 320 383
#     4  10  23  39  67  97 126 170 219 271 324 381
#     4  11  26  42  61  93 131 173 216 273 320 387
#     4   9  18  35  59  96 129 156 202 264 323 369
#     4  11  22  39  64  92 127 164 221 270 326 373
#     4   9  18  33  62  96 127 156 202 267 320 372
#
# _framework density 21.589372999999998
#
# number of rings (size 3 to 8) (size 9 to 14) (size 15 to 20)
#    0.000    1.500    2.500    1.875    8.750    2.500 
#    0.000    0.000    0.000    3.000    0.000    0.000 
#    0.000    0.000    0.000    0.000    0.000    0.000 
#
# Total GULP energy -396417.712055 kJ/mol
# GULP energy per Si atom -12388.053502 kJ/mol
# Density = 2.154023 g / cm^3
# Si number density = 21.589373 Si / 1000 Ang^3
#
#
#
# Elastic Constant Matrix: (Units=GPa)
#
#
# Indices 1 2 3 4 5 6 
#
# 1 62.3756 23.9789 43.4321 0.0000 -3.3847 0.0000
# 2 23.9789 126.9630 41.7073 0.0000 -16.6510 0.0000
# 3 43.4321 41.7073 107.9791 0.0000 -16.9945 0.0000
# 4 0.0000 0.0000 0.0000 16.4769 0.0000 -2.3302
# 5 -3.3847 -16.6510 -16.9945 0.0000 28.6093 0.0000
# 6 0.0000 0.0000 0.0000 -2.3302 0.0000 24.8408
#
#
#
# Elastic Compliance Matrix: (Units=1/GPa)
#
#
# Indices 1 2 3 4 5 6 
#
# 1 0.022850 -0.001826 -0.009076 0.000000 -0.003751 0.000000
# 2 -0.001826 0.009498 -0.002314 0.000000 0.003937 0.000000
# 3 -0.009076 -0.002314 0.014809 0.000000 0.006376 0.000000
# 4 0.000000 0.000000 0.000000 0.061507 0.000000 0.005770
# 5 -0.003751 0.003937 0.006376 0.000000 0.040589 0.000000
# 6 0.000000 0.000000 0.000000 0.005770 0.000000 0.040798
#
#
# Mechanical properties :
#
#
# Convention : Reuss Voigt Hill
#
# Bulk Modulus (GPa) = 48.25297 57.28381 52.76839
# Shear Modulus (GPa) = 22.38231 26.53203 24.45717
#
# Velocity S-wave (km/s) = 3.22332 3.50943 3.36941
# Velocity P-wave (km/s) = 6.02096 6.55838 6.29541
#
# Compressibility (1/GPa) = 0.02072411
#
# Stress axis : x y z
#
# Youngs Moduli (GPa) = 43.76392 105.28739 67.52608
#
# Poissons Ratio (x) = 0.19226 0.61286
# Poissons Ratio (y) = 0.07991 0.15629
# Poissons Ratio (z) = 0.39719 0.24368
#
# Static dielectric constant tensor:
#      x y z
#    x 3.724090 0.000000 -0.140010 
#    y 0.000000 4.034160 0.000000 
#    z -0.140010 0.000000 3.875310 
# 
# 
# High freq. dielectric constant tensor:
#      x y z
#    x 1.825530 0.000000 -0.018640 
#    y 0.000000 1.849610 0.000000 
#    z -0.018640 0.000000 1.850600 
# 
# From -- ./inp_files/62499.got.cif
#   From: 2010.03.12/outbox.cif.g09.slc.cpg/sg14_32_cif.got.tgz:62499.got - 2010.03.31 13:35:05.
