data_PCOD8127231
_publ_section_title
;
Structure prediction by ZEFSAII (Michael W. Deem and Ramdas Pophale) SiO2 
 PCOD8127231
Probable space group: P 21/C
;
_chemical_formula_sum "Si O2"
_cell_formula_units_Z 28
_cell_length_a 8.848874
_cell_length_b 15.309030
_cell_length_c 19.913647
_cell_angle_alpha 90.000000
_cell_angle_beta 149.821151
_cell_angle_gamma 90.000000
_cell_volume 1356.113749
_symmetry_space_group_name_H-M "P 21/C"
_symmetry_group_IT_number 14
_symmetry_cell_setting 'monoclinic'
loop_
_space_group_symop_operation_xyz
x,y,z
-x,1/2+y,1/2-z
-x,-y,-z
x,1/2-y,1/2+z
loop_
_atom_site_type_symbol
_atom_site_label
_atom_site_fract_x
_atom_site_fract_y
_atom_site_fract_z
Si Si1 0.644905 0.720485 0.666670
Si Si2 0.321830 0.233403 0.052163
Si Si3 0.756393 0.345730 0.062021
Si Si4 0.249274 0.556030 0.063350
Si Si5 0.665413 0.413853 0.161496
Si Si6 0.652632 0.905111 0.053134
Si Si7 0.640152 0.280510 0.811241
O O1 0.551046 0.802740 0.584219
O O2 0.566507 0.635703 0.592297
O O3 0.470909 0.716882 0.671035
O O4 0.005376 0.725349 0.817585
O O5 0.483998 0.324367 0.100084
O O6 0.403914 0.211792 0.160155
O O7 0.441925 0.158326 0.046171
O O8 0.962539 0.247072 0.908789
O O9 0.686614 0.421680 0.088939
O O10 0.914466 0.392278 0.059699
O O11 0.515294 0.497514 0.136543
O O12 0.370171 0.621340 0.165602
O O13 0.000000 0.500000 0.000000
O O14 0.991300 0.411825 0.320030
O O15 0.500000 0.000000 0.000000
#
# Coordination Sequence:
#
# PCOD8127231 Si02
#       7
#     4   4   4   4   4   4   4
#     4  10  22  42  65  99 132 176 229 275 338 410
#     4  12  23  46  69  97 137 182 225 277 348 412
#     4  10  22  40  67  94 132 175 221 279 332 401
#     4  11  23  40  64 102 134 171 223 280 339 407
#     4  11  23  44  68  99 136 177 232 277 339 414
#     4  11  26  46  69 102 138 182 232 288 338 405
#     4  11  24  41  70  98 135 178 221 282 348 406
#
# _framework density 20.647235999999999
#
# number of rings (size 3 to 8) (size 9 to 14) (size 15 to 20)
#    0.000    1.143    4.286    2.143    0.000    5.714 
#    2.571    1.429    0.000    0.000    0.000    0.000 
#    0.000    0.000    0.000    0.000    0.000    0.000 
#
# Total GULP energy -346946.546156 kJ/mol
# GULP energy per Si atom -12390.948077 kJ/mol
# Density = 2.060024 g / cm^3
# Si number density = 20.647236 Si / 1000 Ang^3
#
#
#
# Elastic Constant Matrix: (Units=GPa)
#
#
# Indices 1 2 3 4 5 6 
#
# 1 84.3463 40.8203 45.6360 0.0000 -6.4186 0.0000
# 2 40.8203 109.4902 40.6596 0.0000 -5.1514 0.0000
# 3 45.6360 40.6596 103.9025 0.0000 -9.1171 0.0000
# 4 0.0000 0.0000 0.0000 23.6877 0.0000 6.6075
# 5 -6.4186 -5.1514 -9.1171 0.0000 38.8877 0.0000
# 6 0.0000 0.0000 0.0000 6.6075 0.0000 49.6313
#
#
#
# Elastic Compliance Matrix: (Units=1/GPa)
#
#
# Indices 1 2 3 4 5 6 
#
# 1 0.017076 -0.004175 -0.005787 0.000000 0.000909 0.000000
# 2 -0.004175 0.011714 -0.002731 0.000000 0.000222 0.000000
# 3 -0.005787 -0.002731 0.013395 0.000000 0.001823 0.000000
# 4 0.000000 0.000000 0.000000 0.043844 0.000000 -0.005837
# 5 0.000909 0.000222 0.001823 0.000000 0.026322 0.000000
# 6 0.000000 0.000000 0.000000 -0.005837 0.000000 0.020926
#
#
# Mechanical properties :
#
#
# Convention : Reuss Voigt Hill
#
# Bulk Modulus (GPa) = 59.52233 61.33011 60.42622
# Shear Modulus (GPa) = 30.43904 33.81622 32.12763
#
# Velocity S-wave (km/s) = 3.84375 4.05137 3.94893
# Velocity P-wave (km/s) = 6.97066 7.18701 7.07966
#
# Compressibility (1/GPa) = 0.01680042
#
# Stress axis : x y z
#
# Youngs Moduli (GPa) = 58.56011 85.36593 74.65573
#
# Poissons Ratio (x) = 0.35638 0.43203
# Poissons Ratio (y) = 0.24447 0.20388
# Poissons Ratio (z) = 0.33888 0.23313
#
# Static dielectric constant tensor:
#      x y z
#    x 4.201400 0.000000 -0.170990 
#    y 0.000000 3.086730 0.000000 
#    z -0.170990 0.000000 3.441950 
# 
# 
# High freq. dielectric constant tensor:
#      x y z
#    x 1.827160 0.000000 -0.010390 
#    y 0.000000 1.800290 0.000000 
#    z -0.010390 0.000000 1.808680 
# 
# From -- ./inp_files/65882.got.cif
#   From: 2010.03.12/outbox.cif.g09.slc.cpg/sg14_33_cif.got.tgz:65882.got - 2010.03.31 13:35:05.
