data_PCOD8127974
_publ_section_title
;
Structure prediction by ZEFSAII (Michael W. Deem and Ramdas Pophale) SiO2 
 PCOD8127974
Probable space group: P 21/C
;
_chemical_formula_sum "Si O2"
_cell_formula_units_Z 16
_cell_length_a 7.944726
_cell_length_b 8.437088
_cell_length_c 17.659432
_cell_angle_alpha 90.000000
_cell_angle_beta 34.627852
_cell_angle_gamma 90.000000
_cell_volume 672.640400
_symmetry_space_group_name_H-M "P 21/C"
_symmetry_group_IT_number 14
_symmetry_cell_setting 'monoclinic'
loop_
_space_group_symop_operation_xyz
x,y,z
-x,1/2+y,1/2-z
-x,-y,-z
x,1/2-y,1/2+z
loop_
_atom_site_type_symbol
_atom_site_label
_atom_site_fract_x
_atom_site_fract_y
_atom_site_fract_z
Si Si1 0.420542 0.230587 0.590802
Si Si2 0.267726 0.885610 0.883280
Si Si3 0.864141 0.420306 0.826179
Si Si4 0.151460 0.940154 0.368749
O O1 0.626275 0.298392 0.579960
O O2 0.619378 0.213145 0.440689
O O3 0.139955 0.345958 0.678748
O O4 0.292778 0.058300 0.664836
O O5 0.167583 0.750986 0.860824
O O6 0.520586 0.990068 0.752589
O O7 0.000000 0.000000 0.000000
O O8 0.966125 0.503498 0.865833
O O9 0.000000 0.000000 0.500000
#
# Coordination Sequence:
#
# PCOD8127974 Si02
#       4
#     4   4   4   4
#     4  10  23  44  65  95 129 173 219 268 331 389
#     4  11  24  42  67  95 131 173 219 276 330 397
#     4  10  23  44  65  96 133 173 218 276 323 397
#     4  11  22  41  66  95 132 173 220 273 333 394
#
# _framework density 23.786857000000001
#
# number of rings (size 3 to 8) (size 9 to 14) (size 15 to 20)
#    0.000    1.500    2.500    1.500    3.500    3.000 
#   18.000    0.000    0.000    0.000    0.000    0.000 
#    0.000    0.000    0.000    0.000    0.000    0.000 
#
# Total GULP energy -198420.379372 kJ/mol
# GULP energy per Si atom -12401.273711 kJ/mol
# Density = 2.373272 g / cm^3
# Si number density = 23.786857 Si / 1000 Ang^3
#
#
#
# Elastic Constant Matrix: (Units=GPa)
#
#
# Indices 1 2 3 4 5 6 
#
# 1 63.3790 47.9656 53.5891 0.0000 -16.9071 0.0000
# 2 47.9656 160.8852 76.1955 0.0000 -16.9117 0.0000
# 3 53.5891 76.1955 139.6369 0.0000 -36.1274 0.0000
# 4 0.0000 0.0000 0.0000 59.5139 0.0000 -11.5185
# 5 -16.9071 -16.9117 -36.1274 0.0000 31.6621 0.0000
# 6 0.0000 0.0000 0.0000 -11.5185 0.0000 50.9962
#
#
#
# Elastic Compliance Matrix: (Units=1/GPa)
#
#
# Indices 1 2 3 4 5 6 
#
# 1 0.025426 -0.004084 -0.006500 0.000000 0.003979 0.000000
# 2 -0.004084 0.009062 -0.003816 0.000000 -0.001695 0.000000
# 3 -0.006500 -0.003816 0.014633 0.000000 0.011187 0.000000
# 4 0.000000 0.000000 0.000000 0.017571 0.000000 0.003969
# 5 0.003979 -0.001695 0.011187 0.000000 0.045568 0.000000
# 6 0.000000 0.000000 0.000000 0.003969 0.000000 0.020506
#
#
# Mechanical properties :
#
#
# Convention : Reuss Voigt Hill
#
# Bulk Modulus (GPa) = 49.20955 79.93350 64.57152
# Shear Modulus (GPa) = 29.70184 40.84450 35.27317
#
# Velocity S-wave (km/s) = 3.53748 4.14829 3.85500
# Velocity P-wave (km/s) = 6.11700 7.52472 6.85708
#
# Compressibility (1/GPa) = 0.02032126
#
# Stress axis : x y z
#
# Youngs Moduli (GPa) = 39.32954 110.34635 68.33987
#
# Poissons Ratio (x) = 0.45063 0.44421
# Poissons Ratio (y) = 0.16061 0.26080
# Poissons Ratio (z) = 0.25564 0.42111
#
# Static dielectric constant tensor:
#      x y z
#    x 4.368440 0.000000 -0.399890 
#    y 0.000000 4.561970 0.000000 
#    z -0.399890 0.000000 4.411580 
# 
# 
# High freq. dielectric constant tensor:
#      x y z
#    x 1.934600 0.000000 -0.026740 
#    y 0.000000 1.953380 0.000000 
#    z -0.026740 0.000000 1.951380 
# 
# From -- ./inp_files/11549.got.cif
#   From: 2010.03.12/outbox.cif.g09.slc.cpg/sg14_6_cif.got.tgz:11549.got - 2010.03.31 13:35:05.
