data_PCOD8127495
_publ_section_title
;
Structure prediction by ZEFSAII (Michael W. Deem and Ramdas Pophale) SiO2 
 PCOD8127495
Probable space group: P 21/C
;
_chemical_formula_sum "Si O2"
_cell_formula_units_Z 32
_cell_length_a 28.046756
_cell_length_b 10.690906
_cell_length_c 8.711515
_cell_angle_alpha 90.000000
_cell_angle_beta 147.337968
_cell_angle_gamma 90.000000
_cell_volume 1409.708183
_symmetry_space_group_name_H-M "P 21/C"
_symmetry_group_IT_number 14
_symmetry_cell_setting 'monoclinic'
loop_
_space_group_symop_operation_xyz
x,y,z
-x,1/2+y,1/2-z
-x,-y,-z
x,1/2-y,1/2+z
loop_
_atom_site_type_symbol
_atom_site_label
_atom_site_fract_x
_atom_site_fract_y
_atom_site_fract_z
Si Si1 0.032425 0.879376 0.800908
Si Si2 0.871788 0.312588 0.740102
Si Si3 0.850906 0.582200 0.241904
Si Si4 0.725150 0.380388 0.802462
Si Si5 0.454553 0.586280 0.169535
Si Si6 0.279632 0.970788 0.031755
Si Si7 0.447880 0.836980 0.001318
Si Si8 0.153922 0.171959 0.609558
O O1 0.073379 0.884014 0.742026
O O2 0.926450 0.883460 0.505731
O O3 0.059578 0.750064 0.956957
O O4 0.065397 0.997563 0.988024
O O5 0.806609 0.210898 0.487969
O O6 0.812144 0.408571 0.670690
O O7 0.834695 0.680945 0.332869
O O8 0.761300 0.502018 0.988141
O O9 0.870521 0.650026 0.134214
O O10 0.681561 0.412390 0.520504
O O11 0.653239 0.317363 0.718507
O O12 0.491463 0.701690 0.164013
O O13 0.513665 0.461053 0.309761
O O14 0.455768 0.642348 0.342929
O O15 0.355096 0.540739 0.863751
O O16 0.248394 0.112640 0.913995
#
# Coordination Sequence:
#
# PCOD8127495 Si02
#       8
#     4   4   4   4   4   4   4   4
#     4  11  24  40  66  91 134 173 226 278 332 394
#     4  11  22  38  65  98 123 172 221 273 323 389
#     4  10  25  41  62  91 128 178 218 282 331 401
#     4  10  22  43  66  97 129 171 221 272 332 391
#     4  11  26  44  71 105 139 174 228 274 342 410
#     4  11  24  40  66  96 131 173 220 277 328 397
#     4  11  25  45  72 104 137 179 220 281 337 416
#     4  11  25  43  61  92 136 174 227 277 339 390
#
# _framework density 22.699733999999999
#
# number of rings (size 3 to 8) (size 9 to 14) (size 15 to 20)
#    0.000    1.250    2.500    1.875    7.000    3.500 
#    0.000    5.000    0.000    0.000    0.000    0.000 
#    0.000    0.000    0.000    0.000    0.000    0.000 
#
# Total GULP energy -396819.651523 kJ/mol
# GULP energy per Si atom -12400.614110 kJ/mol
# Density = 2.264807 g / cm^3
# Si number density = 22.699734 Si / 1000 Ang^3
#
#
#
# Elastic Constant Matrix: (Units=GPa)
#
#
# Indices 1 2 3 4 5 6 
#
# 1 69.8146 11.1708 5.7063 0.0000 -2.3463 0.0000
# 2 11.1708 86.5915 25.9297 0.0000 -11.0991 0.0000
# 3 5.7063 25.9297 56.7790 0.0000 -0.6755 0.0000
# 4 0.0000 0.0000 0.0000 30.0383 0.0000 -6.8834
# 5 -2.3463 -11.0991 -0.6755 0.0000 23.2144 0.0000
# 6 0.0000 0.0000 0.0000 -6.8834 0.0000 40.0045
#
#
#
# Elastic Compliance Matrix: (Units=1/GPa)
#
#
# Indices 1 2 3 4 5 6 
#
# 1 0.014661 -0.001578 -0.000744 0.000000 0.000706 0.000000
# 2 -0.001578 0.014510 -0.006390 0.000000 0.006592 0.000000
# 3 -0.000744 -0.006390 0.020575 0.000000 -0.002531 0.000000
# 4 0.000000 0.000000 0.000000 0.034657 0.000000 0.005963
# 5 0.000706 0.006592 -0.002531 0.000000 0.046226 0.000000
# 6 0.000000 0.000000 0.000000 0.005963 0.000000 0.026023
#
#
# Mechanical properties :
#
#
# Convention : Reuss Voigt Hill
#
# Bulk Modulus (GPa) = 30.93863 33.19988 32.06926
# Shear Modulus (GPa) = 27.04888 30.00998 28.52943
#
# Velocity S-wave (km/s) = 3.45569 3.63993 3.54901
# Velocity P-wave (km/s) = 5.43889 5.68532 5.56347
#
# Compressibility (1/GPa) = 0.03232205
#
# Stress axis : x y z
#
# Youngs Moduli (GPa) = 68.20963 68.91620 48.60311
#
# Poissons Ratio (x) = 0.10875 0.03618
# Poissons Ratio (y) = 0.10763 0.31055
# Poissons Ratio (z) = 0.05077 0.44034
#
# Static dielectric constant tensor:
#      x y z
#    x 3.798320 0.000000 -0.134180 
#    y 0.000000 4.351240 0.000000 
#    z -0.134180 0.000000 3.995090 
# 
# 
# High freq. dielectric constant tensor:
#      x y z
#    x 1.883570 0.000000 -0.013200 
#    y 0.000000 1.909290 0.000000 
#    z -0.013200 0.000000 1.889990 
# 
# From -- ./inp_files/20001.got.cif
#   From: 2010.03.12/outbox.cif.g09.slc.cpg/sg14_11_cif.got.tgz:20001.got - 2010.03.31 13:35:05.
