data_PCOD8127628
_publ_section_title
;
Structure prediction by ZEFSAII (Michael W. Deem and Ramdas Pophale) SiO2 
 PCOD8127628
Probable space group: P 21/C
;
_chemical_formula_sum "Si O2"
_cell_formula_units_Z 32
_cell_length_a 21.082485
_cell_length_b 13.012484
_cell_length_c 15.259610
_cell_angle_alpha 90.000000
_cell_angle_beta 19.926196
_cell_angle_gamma 90.000000
_cell_volume 1426.714363
_symmetry_space_group_name_H-M "P 21/C"
_symmetry_group_IT_number 14
_symmetry_cell_setting 'monoclinic'
loop_
_space_group_symop_operation_xyz
x,y,z
-x,1/2+y,1/2-z
-x,-y,-z
x,1/2-y,1/2+z
loop_
_atom_site_type_symbol
_atom_site_label
_atom_site_fract_x
_atom_site_fract_y
_atom_site_fract_z
Si Si1 0.698433 0.908169 0.756896
Si Si2 0.408366 0.974636 0.261662
Si Si3 0.281143 0.118326 0.576458
Si Si4 0.968919 0.223147 0.692740
Si Si5 0.518845 0.285256 0.035784
Si Si6 0.092617 0.644270 0.537210
Si Si7 0.208140 0.079414 0.861255
Si Si8 0.420391 0.731268 0.842466
O O1 0.891532 0.857268 0.534884
O O2 0.730785 0.990524 0.635983
O O3 0.614177 0.965553 0.951255
O O4 0.556152 0.822107 0.904118
O O5 0.350931 0.866988 0.378051
O O6 0.401676 0.057372 0.347971
O O7 0.252714 0.052936 0.701620
O O8 0.411643 0.216188 0.430292
O O9 0.079454 0.153664 0.805699
O O10 0.041587 0.338535 0.582495
O O11 0.969167 0.201836 0.795453
O O12 0.768359 0.201474 0.909850
O O13 0.731472 0.297228 0.731237
O O14 0.395622 0.380742 0.163182
O O15 0.503466 0.290326 0.160299
O O16 0.139766 0.525094 0.495530
#
# Coordination Sequence:
#
# PCOD8127628 Si02
#       8
#     4   4   4   4   4   4   4   4
#     4  10  22  45  68  94 137 178 234 280 359 413
#     4  11  22  42  73  94 130 187 222 286 347 426
#     4  12  23  44  67 101 134 178 231 287 348 415
#     4  11  23  42  65 101 135 179 230 284 343 415
#     4  11  23  43  65 102 139 178 229 295 339 417
#     4  12  23  40  68  99 137 180 229 286 347 414
#     4  11  24  43  67  99 134 184 229 288 345 416
#     4  12  24  41  69 100 138 183 231 282 355 410
#
# _framework density 22.429155999999999
#
# number of rings (size 3 to 8) (size 9 to 14) (size 15 to 20)
#    0.000    0.750    2.500    6.750    0.000    1.000 
#    0.000    0.625    0.000    0.000    0.000    0.000 
#    0.000    0.000    0.000    0.000    0.000    0.000 
#
# Total GULP energy -396865.931001 kJ/mol
# GULP energy per Si atom -12402.060344 kJ/mol
# Density = 2.237811 g / cm^3
# Si number density = 22.429156 Si / 1000 Ang^3
#
#
#
# Elastic Constant Matrix: (Units=GPa)
#
#
# Indices 1 2 3 4 5 6 
#
# 1 100.5631 23.3174 42.3771 0.0000 -0.7807 0.0000
# 2 23.3174 68.9174 40.0156 0.0000 -3.9606 0.0000
# 3 42.3771 40.0156 124.2574 0.0000 -16.3056 0.0000
# 4 0.0000 0.0000 0.0000 37.8861 0.0000 13.8520
# 5 -0.7807 -3.9606 -16.3056 0.0000 52.1271 0.0000
# 6 0.0000 0.0000 0.0000 13.8520 0.0000 24.9930
#
#
#
# Elastic Compliance Matrix: (Units=1/GPa)
#
#
# Indices 1 2 3 4 5 6 
#
# 1 0.011901 -0.002029 -0.003548 0.000000 -0.001086 0.000000
# 2 -0.002029 0.018204 -0.005207 0.000000 -0.000276 0.000000
# 3 -0.003548 -0.005207 0.011341 0.000000 0.003099 0.000000
# 4 0.000000 0.000000 0.000000 0.033103 0.000000 -0.018347
# 5 -0.001086 -0.000276 0.003099 0.000000 0.020116 0.000000
# 6 0.000000 0.000000 0.000000 -0.018347 0.000000 0.050180
#
#
# Mechanical properties :
#
#
# Convention : Reuss Voigt Hill
#
# Bulk Modulus (GPa) = 50.30366 56.12866 53.21616
# Shear Modulus (GPa) = 28.89541 35.53644 32.21593
#
# Velocity S-wave (km/s) = 3.59318 3.98475 3.79402
# Velocity P-wave (km/s) = 6.30009 6.80075 6.55520
#
# Compressibility (1/GPa) = 0.01987927
#
# Stress axis : x y z
#
# Youngs Moduli (GPa) = 84.02592 54.93350 88.17464
#
# Poissons Ratio (x) = 0.11146 0.31283
# Poissons Ratio (y) = 0.17049 0.45909
# Poissons Ratio (z) = 0.29811 0.28601
#
# Static dielectric constant tensor:
#      x y z
#    x 3.949740 0.000000 0.065540 
#    y 0.000000 4.113240 0.000000 
#    z 0.065540 0.000000 4.267930 
# 
# 
# High freq. dielectric constant tensor:
#      x y z
#    x 1.877040 0.000000 0.010460 
#    y 0.000000 1.880480 0.000000 
#    z 0.010460 0.000000 1.900500 
# 
# From -- ./inp_files/50679.got.cif
#   From: 2010.03.12/outbox.cif.g09.slc.cpg/sg14_26_cif.got.tgz:50679.got - 2010.03.31 13:35:05.
