data_PCOD8127619
_publ_section_title
;
Structure prediction by ZEFSAII (Michael W. Deem and Ramdas Pophale) SiO2 
 PCOD8127619
Probable space group: P 21/C
;
_chemical_formula_sum "Si O2"
_cell_formula_units_Z 32
_cell_length_a 9.268862
_cell_length_b 22.613871
_cell_length_c 14.811270
_cell_angle_alpha 90.000000
_cell_angle_beta 30.134820
_cell_angle_gamma 90.000000
_cell_volume 1558.579097
_symmetry_space_group_name_H-M "P 21/C"
_symmetry_group_IT_number 14
_symmetry_cell_setting 'monoclinic'
loop_
_space_group_symop_operation_xyz
x,y,z
-x,1/2+y,1/2-z
-x,-y,-z
x,1/2-y,1/2+z
loop_
_atom_site_type_symbol
_atom_site_label
_atom_site_fract_x
_atom_site_fract_y
_atom_site_fract_z
Si Si1 0.467635 0.738668 0.191531
Si Si2 0.690135 0.656205 0.218713
Si Si3 0.171117 0.932402 0.999288
Si Si4 0.188198 0.654198 0.222307
Si Si5 0.666804 0.358465 0.143758
Si Si6 0.789073 0.770544 0.834280
Si Si7 0.290601 0.357980 0.170229
Si Si8 0.204393 0.065778 0.977004
O O1 0.683276 0.702126 0.138783
O O2 0.210264 0.693873 0.301470
O O3 0.333431 0.791800 0.320057
O O4 0.613957 0.764996 0.022302
O O5 0.459215 0.604718 0.331487
O O6 0.625740 0.690438 0.347393
O O7 0.001444 0.624475 0.050752
O O8 0.999744 0.931590 0.998913
O O9 0.966613 0.905355 0.187895
O O10 0.253895 0.998890 0.982891
O O11 0.090990 0.697284 0.192849
O O12 0.960794 0.601554 0.355182
O O13 0.507163 0.629714 0.026289
O O14 0.491915 0.363634 0.147133
O O15 0.515446 0.404203 0.294618
O O16 0.855875 0.706466 0.756439
#
# Coordination Sequence:
#
# PCOD8127619 Si02
#       8
#     4   4   4   4   4   4   4   4
#     4  11  23  38  62  99 135 168 210 258 333 391
#     4  12  24  40  65  98 133 171 214 268 327 387
#     4  10  24  43  64  91 125 179 223 261 314 395
#     4  11  21  41  63  96 128 166 209 275 319 382
#     4  11  22  38  65  94 127 174 207 266 329 379
#     4  11  23  38  63  97 138 162 209 268 326 391
#     4  10  23  37  63  94 128 171 211 259 328 386
#     4  10  22  45  67  87 129 174 224 264 317 389
#
# _framework density 20.531521000000001
#
# number of rings (size 3 to 8) (size 9 to 14) (size 15 to 20)
#    0.000    1.250    5.000    0.750    5.250    1.000 
#    0.000    0.625    0.000    0.000    0.000    0.000 
#    0.000    0.000    0.000    0.000    0.000    0.000 
#
# Total GULP energy -396771.244581 kJ/mol
# GULP energy per Si atom -12399.101393 kJ/mol
# Density = 2.048479 g / cm^3
# Si number density = 20.531521 Si / 1000 Ang^3
#
#
#
# Elastic Constant Matrix: (Units=GPa)
#
#
# Indices 1 2 3 4 5 6 
#
# 1 63.9823 26.5198 18.0537 0.0000 -6.9253 0.0000
# 2 26.5198 135.1746 69.7348 0.0000 -6.9352 0.0000
# 3 18.0537 69.7348 128.8217 0.0000 -9.7900 0.0000
# 4 0.0000 0.0000 0.0000 26.7015 0.0000 -0.0275
# 5 -6.9253 -6.9352 -9.7900 0.0000 20.0272 0.0000
# 6 0.0000 0.0000 0.0000 -0.0275 0.0000 21.2404
#
#
#
# Elastic Compliance Matrix: (Units=1/GPa)
#
#
# Indices 1 2 3 4 5 6 
#
# 1 0.017504 -0.002928 -0.000504 0.000000 0.004792 0.000000
# 2 -0.002928 0.010769 -0.005414 0.000000 0.000070 0.000000
# 3 -0.000504 -0.005414 0.011017 0.000000 0.003337 0.000000
# 4 0.000000 0.000000 0.000000 0.037451 0.000000 0.000049
# 5 0.004792 0.000070 0.003337 0.000000 0.053245 0.000000
# 6 0.000000 0.000000 0.000000 0.000049 0.000000 0.047080
#
#
# Mechanical properties :
#
#
# Convention : Reuss Voigt Hill
#
# Bulk Modulus (GPa) = 46.29919 61.84391 54.07155
# Shear Modulus (GPa) = 24.75772 27.83851 26.29812
#
# Velocity S-wave (km/s) = 3.47629 3.68624 3.58280
# Velocity P-wave (km/s) = 6.22190 6.95015 6.59608
#
# Compressibility (1/GPa) = 0.02159865
#
# Stress axis : x y z
#
# Youngs Moduli (GPa) = 57.12999 92.86060 90.76510
#
# Poissons Ratio (x) = 0.27193 0.04572
# Poissons Ratio (y) = 0.16730 0.49138
# Poissons Ratio (z) = 0.02877 0.50272
#
# Static dielectric constant tensor:
#      x y z
#    x 3.755360 0.000000 -0.026960 
#    y 0.000000 3.827170 0.000000 
#    z -0.026960 0.000000 3.718290 
# 
# 
# High freq. dielectric constant tensor:
#      x y z
#    x 1.796800 0.000000 -0.000100 
#    y 0.000000 1.790460 0.000000 
#    z -0.000100 0.000000 1.805240 
# 
# From -- ./inp_files/42230.got.cif
#   From: 2010.03.12/outbox.cif.g09.slc.cpg/sg14_22_cif.got.tgz:42230.got - 2010.03.31 13:35:05.
