data_PCOD8127222
_publ_section_title
;
Structure prediction by ZEFSAII (Michael W. Deem and Ramdas Pophale) SiO2 
 PCOD8127222
Probable space group: P 21/C
;
_chemical_formula_sum "Si O2"
_cell_formula_units_Z 28
_cell_length_a 11.699813
_cell_length_b 14.427676
_cell_length_c 9.723612
_cell_angle_alpha 90.000000
_cell_angle_beta 128.489020
_cell_angle_gamma 90.000000
_cell_volume 1284.734779
_symmetry_space_group_name_H-M "P 21/C"
_symmetry_group_IT_number 14
_symmetry_cell_setting 'monoclinic'
loop_
_space_group_symop_operation_xyz
x,y,z
-x,1/2+y,1/2-z
-x,-y,-z
x,1/2-y,1/2+z
loop_
_atom_site_type_symbol
_atom_site_label
_atom_site_fract_x
_atom_site_fract_y
_atom_site_fract_z
Si Si1 0.264316 0.964921 0.819181
Si Si2 0.913858 0.642545 0.824890
Si Si3 0.173980 0.719364 0.145508
Si Si4 0.511939 0.289881 0.162778
Si Si5 0.497779 0.013783 0.776543
Si Si6 0.604749 0.849030 0.710334
Si Si7 0.885561 0.787251 0.011333
O O1 0.214679 0.857393 0.792944
O O2 0.125295 0.034160 0.715364
O O3 0.355778 0.976270 0.747834
O O4 0.361113 0.991002 0.021545
O O5 0.853860 0.700960 0.649219
O O6 0.844636 0.685454 0.915032
O O7 0.090461 0.658388 0.964368
O O8 0.314692 0.772852 0.196137
O O9 0.060629 0.798619 0.115939
O O10 0.466688 0.383855 0.202377
O O11 0.428891 0.206777 0.174287
O O12 0.460105 0.292928 0.966248
O O13 0.529839 0.949458 0.667554
O O14 0.782508 0.857893 0.845600
#
# Coordination Sequence:
#
# PCOD8127222 Si02
#       7
#     4   4   4   4   4   4   4
#     4  11  21  44  68 102 129 180 229 279 326 412
#     4  10  22  40  66  95 132 175 223 273 334 398
#     4  10  25  41  70  96 134 175 227 274 337 399
#     4  12  26  43  72  98 139 177 224 282 341 399
#     4  11  25  40  70 101 137 171 231 279 341 394
#     4  12  24  46  67 104 135 180 223 279 338 407
#     4  10  23  39  67  95 134 171 223 270 336 393
#
# _framework density 21.79438
#
# number of rings (size 3 to 8) (size 9 to 14) (size 15 to 20)
#    0.857    0.286    2.857    3.429    6.000    0.000 
#    0.000    0.714    3.143    0.000    0.000    0.000 
#    0.000    0.000    0.000    0.000    0.000    0.000 
#
# Total GULP energy -346893.973130 kJ/mol
# GULP energy per Si atom -12389.070469 kJ/mol
# Density = 2.174478 g / cm^3
# Si number density = 21.794380 Si / 1000 Ang^3
#
#
#
# Elastic Constant Matrix: (Units=GPa)
#
#
# Indices 1 2 3 4 5 6 
#
# 1 74.9396 20.4568 37.4163 0.0000 17.9237 0.0000
# 2 20.4568 59.1019 7.2857 0.0000 0.3027 0.0000
# 3 37.4163 7.2857 95.5335 0.0000 10.3767 0.0000
# 4 0.0000 0.0000 0.0000 30.8937 0.0000 -0.3161
# 5 17.9237 0.3027 10.3767 0.0000 31.9108 0.0000
# 6 0.0000 0.0000 0.0000 -0.3161 0.0000 34.3858
#
#
#
# Elastic Compliance Matrix: (Units=1/GPa)
#
#
# Indices 1 2 3 4 5 6 
#
# 1 0.020568 -0.006262 -0.006561 0.000000 -0.009360 0.000000
# 2 -0.006262 0.018990 0.000666 0.000000 0.003121 0.000000
# 3 -0.006561 0.000666 0.013048 0.000000 -0.000564 0.000000
# 4 0.000000 0.000000 0.000000 0.032372 0.000000 0.000298
# 5 -0.009360 0.003121 -0.000564 0.000000 0.036748 0.000000
# 6 0.000000 0.000000 0.000000 0.000298 0.000000 0.029085
#
#
# Mechanical properties :
#
#
# Convention : Reuss Voigt Hill
#
# Bulk Modulus (GPa) = 35.34960 39.98808 37.66884
# Shear Modulus (GPa) = 27.09192 30.39914 28.74553
#
# Velocity S-wave (km/s) = 3.52954 3.73877 3.63566
# Velocity P-wave (km/s) = 5.73280 6.08487 5.91146
#
# Compressibility (1/GPa) = 0.02828887
#
# Stress axis : x y z
#
# Youngs Moduli (GPa) = 48.61859 52.66060 76.64106
#
# Poissons Ratio (x) = 0.32979 0.50288
# Poissons Ratio (y) = 0.30447 -0.05101
# Poissons Ratio (z) = 0.31901 -0.03505
#
# Static dielectric constant tensor:
#      x y z
#    x 3.859220 0.000000 0.189760 
#    y 0.000000 3.694800 0.000000 
#    z 0.189760 0.000000 3.998960 
# 
# 
# High freq. dielectric constant tensor:
#      x y z
#    x 1.842290 0.000000 0.019060 
#    y 0.000000 1.838180 0.000000 
#    z 0.019060 0.000000 1.867920 
# 
# From -- ./inp_files/13419.got.cif
#   From: 2010.03.12/outbox.cif.g09.slc.cpg/sg14_7_cif.got.tgz:13419.got - 2010.03.31 13:35:05.
