data_PCOD8127369
_publ_section_title
;
Structure prediction by ZEFSAII (Michael W. Deem and Ramdas Pophale) SiO2 
 PCOD8127369
Probable space group: P 21/C
;
_chemical_formula_sum "Si O2"
_cell_formula_units_Z 20
_cell_length_a 15.175831
_cell_length_b 7.530674
_cell_length_c 26.590710
_cell_angle_alpha 90.000000
_cell_angle_beta 18.541744
_cell_angle_gamma 90.000000
_cell_volume 966.356176
_symmetry_space_group_name_H-M "P 21/C"
_symmetry_group_IT_number 14
_symmetry_cell_setting 'monoclinic'
loop_
_space_group_symop_operation_xyz
x,y,z
-x,1/2+y,1/2-z
-x,-y,-z
x,1/2-y,1/2+z
loop_
_atom_site_type_symbol
_atom_site_label
_atom_site_fract_x
_atom_site_fract_y
_atom_site_fract_z
Si Si1 0.899201 0.948027 0.250835
Si Si2 0.355068 0.523331 0.208983
Si Si3 0.701486 0.327735 0.187069
Si Si4 0.676774 0.164534 0.458633
Si Si5 0.713520 0.771093 0.672991
O O1 0.877937 0.051240 0.208689
O O2 0.632855 0.811836 0.397729
O O3 0.192911 0.849745 0.094453
O O4 0.885040 0.082161 0.305113
O O5 0.416979 0.706151 0.204104
O O6 0.242180 0.369354 0.306695
O O7 0.643362 0.461216 0.026300
O O8 0.548362 0.290763 0.217619
O O9 0.664510 0.533032 0.222686
O O10 0.021518 0.275662 0.006738
#
# Coordination Sequence:
#
# PCOD8127369 Si02
#       5
#     4   4   4   4   4
#     4   9  21  42  62  92 124 160 205 269 309 380
#     4  10  22  42  63  87 131 164 211 250 313 371
#     4  11  24  41  61  94 130 164 215 255 309 367
#     4   9  21  42  62  91 124 161 207 262 319 364
#     4  11  24  39  64  91 128 172 205 261 306 369
#
# _framework density 20.696300999999998
#
# number of rings (size 3 to 8) (size 9 to 14) (size 15 to 20)
#    1.200    0.800    2.000    0.600    2.800    0.800 
#   10.800    0.000    0.000    0.000    0.000    0.000 
#    0.000    0.000    0.000    0.000    0.000    0.000 
#
# Total GULP energy -247884.167204 kJ/mol
# GULP energy per Si atom -12394.208360 kJ/mol
# Density = 2.064920 g / cm^3
# Si number density = 20.696301 Si / 1000 Ang^3
#
#
#
# Elastic Constant Matrix: (Units=GPa)
#
#
# Indices 1 2 3 4 5 6 
#
# 1 77.7454 24.3332 7.8974 0.0000 17.4296 0.0000
# 2 24.3332 71.8695 9.4545 0.0000 11.6211 0.0000
# 3 7.8974 9.4545 26.7844 0.0000 -5.2957 0.0001
# 4 0.0000 0.0000 0.0000 36.8483 0.0000 6.1812
# 5 17.4296 11.6211 -5.2957 0.0000 30.4836 0.0000
# 6 0.0000 0.0000 0.0001 6.1812 0.0000 17.6894
#
#
#
# Elastic Compliance Matrix: (Units=1/GPa)
#
#
# Indices 1 2 3 4 5 6 
#
# 1 0.016524 -0.003403 -0.005470 0.000000 -0.009101 0.000000
# 2 -0.003403 0.016740 -0.005988 0.000000 -0.005476 0.000000
# 3 -0.005470 -0.005988 0.043630 0.000000 0.012990 0.000000
# 4 0.000000 0.000000 0.000000 0.028828 0.000000 -0.010073
# 5 -0.009101 -0.005476 0.012990 0.000000 0.042352 0.000000
# 6 0.000000 0.000000 0.000000 -0.010073 0.000000 0.060051
#
#
# Mechanical properties :
#
#
# Convention : Reuss Voigt Hill
#
# Bulk Modulus (GPa) = 21.19970 28.86326 25.03148
# Shear Modulus (GPa) = 19.71841 25.98521 22.85181
#
# Velocity S-wave (km/s) = 3.09001 3.54722 3.32648
# Velocity P-wave (km/s) = 4.79545 5.54557 5.18410
#
# Compressibility (1/GPa) = 0.04717048
#
# Stress axis : x y z
#
# Youngs Moduli (GPa) = 60.51958 59.73872 22.92006
#
# Poissons Ratio (x) = 0.20331 0.12537
# Poissons Ratio (y) = 0.20597 0.13724
# Poissons Ratio (z) = 0.33104 0.35771
#
# Static dielectric constant tensor:
#      x y z
#    x 3.701220 0.000000 0.063920 
#    y 0.000000 3.551200 0.000000 
#    z 0.063920 0.000000 3.513550 
# 
# 
# High freq. dielectric constant tensor:
#      x y z
#    x 1.812270 0.000000 0.004390 
#    y 0.000000 1.792730 0.000000 
#    z 0.004390 0.000000 1.797220 
# 
# From -- ./inp_files/77479.got.cif
#   From: 2010.03.12/outbox.cif.g09.slc.cpg/sg14_39_cif.got.tgz:77479.got - 2010.03.31 13:35:05.
