data_PCOD8127605
_publ_section_title
;
Structure prediction by ZEFSAII (Michael W. Deem and Ramdas Pophale) SiO2 
 PCOD8127605
Probable space group: P 21/C
;
_chemical_formula_sum "Si O2"
_cell_formula_units_Z 28
_cell_length_a 8.429286
_cell_length_b 22.673861
_cell_length_c 9.101519
_cell_angle_alpha 90.000000
_cell_angle_beta 132.934820
_cell_angle_gamma 90.000000
_cell_volume 1273.555286
_symmetry_space_group_name_H-M "P 21/C"
_symmetry_group_IT_number 14
_symmetry_cell_setting 'monoclinic'
loop_
_space_group_symop_operation_xyz
x,y,z
-x,1/2+y,1/2-z
-x,-y,-z
x,1/2-y,1/2+z
loop_
_atom_site_type_symbol
_atom_site_label
_atom_site_fract_x
_atom_site_fract_y
_atom_site_fract_z
Si Si1 0.580130 0.015666 0.210963
Si Si2 0.727165 0.908777 0.472824
Si Si3 0.982694 0.802208 0.502283
Si Si4 0.409036 0.643064 0.229891
Si Si5 0.884888 0.683599 0.601670
Si Si6 0.215946 0.013425 0.221125
Si Si7 0.694945 0.113109 0.653366
O O1 0.689307 0.080514 0.273442
O O2 0.738113 0.963228 0.364599
O O3 0.386989 0.025893 0.202946
O O4 0.500000 0.000000 0.000000
O O5 0.481717 0.881704 0.326501
O O6 0.885467 0.858298 0.522337
O O7 0.800753 0.930718 0.681263
O O8 0.244191 0.806467 0.685064
O O9 0.889828 0.743499 0.513966
O O10 0.917540 0.802858 0.292007
O O11 0.651668 0.653432 0.438188
O O12 0.401745 0.645526 0.049024
O O13 0.072506 0.640679 0.656022
O O14 0.280724 0.957043 0.362295
O O15 0.000000 0.000000 0.000000
#
# Coordination Sequence:
#
# PCOD8127605 Si02
#       7
#     4   4   4   4   4   4   4
#     4  11  22  40  66 103 141 181 223 284 348 423
#     4  11  23  45  68 105 145 178 235 288 353 420
#     4  11  29  45  70 101 134 185 232 295 349 413
#     4  11  23  46  69  98 140 177 229 287 350 416
#     4  11  27  48  69  99 132 185 240 284 354 416
#     4  11  22  39  69 105 139 188 231 277 359 415
#     4  10  22  44  70  99 137 183 227 285 341 414
#
# _framework density 21.985696000000001
#
# number of rings (size 3 to 8) (size 9 to 14) (size 15 to 20)
#    0.000    1.143    2.857    2.571    6.000    2.857 
#    2.571    0.000    0.000    0.000    0.000    0.000 
#    0.000    0.000    0.000    0.000    0.000    0.000 
#
# Total GULP energy -347181.125093 kJ/mol
# GULP energy per Si atom -12399.325896 kJ/mol
# Density = 2.193566 g / cm^3
# Si number density = 21.985696 Si / 1000 Ang^3
#
#
#
# Elastic Constant Matrix: (Units=GPa)
#
#
# Indices 1 2 3 4 5 6 
#
# 1 81.2890 47.0555 45.7084 0.0000 5.1533 0.0000
# 2 47.0555 107.8328 20.9559 0.0000 -3.1772 0.0000
# 3 45.7084 20.9559 98.5614 0.0000 5.4361 0.0000
# 4 0.0000 0.0000 0.0000 30.6047 0.0000 3.6129
# 5 5.1533 -3.1772 5.4361 0.0000 41.4281 0.0000
# 6 0.0000 0.0000 0.0000 3.6129 0.0000 35.6832
#
#
#
# Elastic Compliance Matrix: (Units=1/GPa)
#
#
# Indices 1 2 3 4 5 6 
#
# 1 0.021656 -0.007915 -0.008238 0.000000 -0.002220 0.000000
# 2 -0.007915 0.012609 0.000888 0.000000 0.001835 0.000000
# 3 -0.008238 0.000888 0.013817 0.000000 -0.000720 0.000000
# 4 0.000000 0.000000 0.000000 0.033070 0.000000 -0.003348
# 5 -0.002220 0.001835 -0.000720 0.000000 0.024650 0.000000
# 6 0.000000 0.000000 0.000000 -0.003348 0.000000 0.028363
#
#
# Mechanical properties :
#
#
# Convention : Reuss Voigt Hill
#
# Bulk Modulus (GPa) = 56.96786 57.23588 57.10187
# Shear Modulus (GPa) = 29.31776 33.14073 31.22925
#
# Velocity S-wave (km/s) = 3.65566 3.88671 3.77295
# Velocity P-wave (km/s) = 6.61710 6.79939 6.70887
#
# Compressibility (1/GPa) = 0.01755376
#
# Stress axis : x y z
#
# Youngs Moduli (GPa) = 46.17599 79.30966 72.37354
#
# Poissons Ratio (x) = 0.62771 0.59621
# Poissons Ratio (y) = 0.36547 -0.06430
# Poissons Ratio (z) = 0.38040 -0.07046
#
# Static dielectric constant tensor:
#      x y z
#    x 4.039200 0.000000 0.132890 
#    y 0.000000 4.090760 0.000000 
#    z 0.132890 0.000000 3.755210 
# 
# 
# High freq. dielectric constant tensor:
#      x y z
#    x 1.866810 0.000000 0.002120 
#    y 0.000000 1.865370 0.000000 
#    z 0.002120 0.000000 1.867780 
# 
# From -- ./inp_files/10432.got.cif
#   From: 2010.03.12/outbox.cif.g09.slc.cpg/sg14_6_cif.got.tgz:10432.got - 2010.03.31 13:35:05.
