data_PCOD8127270
_publ_section_title
;
Structure prediction by ZEFSAII (Michael W. Deem and Ramdas Pophale) SiO2 
 PCOD8127270
Probable space group: P 21/C
;
_chemical_formula_sum "Si O2"
_cell_formula_units_Z 32
_cell_length_a 13.833080
_cell_length_b 8.906429
_cell_length_c 11.967300
_cell_angle_alpha 90.000000
_cell_angle_beta 93.595630
_cell_angle_gamma 90.000000
_cell_volume 1471.509032
_symmetry_space_group_name_H-M "P 21/C"
_symmetry_group_IT_number 14
_symmetry_cell_setting 'monoclinic'
loop_
_space_group_symop_operation_xyz
x,y,z
-x,1/2+y,1/2-z
-x,-y,-z
x,1/2-y,1/2+z
loop_
_atom_site_type_symbol
_atom_site_label
_atom_site_fract_x
_atom_site_fract_y
_atom_site_fract_z
Si Si1 0.959052 0.883572 0.352197
Si Si2 0.602854 0.782819 0.183050
Si Si3 0.432150 0.954772 0.263066
Si Si4 0.338525 0.465407 0.517973
Si Si5 0.134215 0.871211 0.220648
Si Si6 0.278064 0.732947 0.889602
Si Si7 0.873170 0.150582 0.460862
Si Si8 0.215140 0.324773 0.679824
O O1 0.891363 0.741235 0.331099
O O2 0.023987 0.907793 0.247173
O O3 0.031530 0.852835 0.457884
O O4 0.887488 0.023514 0.368029
O O5 0.537934 0.881496 0.262601
O O6 0.559607 0.614285 0.173199
O O7 0.710749 0.777248 0.243575
O O8 0.599885 0.857095 0.059551
O O9 0.368299 0.842931 0.334151
O O10 0.394582 0.979117 0.133151
O O11 0.307213 0.607466 0.442391
O O12 0.250864 0.360097 0.555983
O O13 0.188152 0.741822 0.297305
O O14 0.131278 0.815858 0.093439
O O15 0.203682 0.015409 0.241334
O O16 0.228890 0.625905 0.981718
#
# Coordination Sequence:
#
# PCOD8127270 Si02
#       8
#     4   4   4   4   4   4   4   4
#     4  10  24  38  68  94 139 177 233 282 335 407
#     4  11  25  45  73  97 138 177 222 287 344 400
#     4  11  24  48  68 103 136 175 229 278 342 414
#     4  11  24  44  70  98 138 178 222 282 340 407
#     4  11  21  43  65  98 137 181 227 281 338 403
#     4  11  21  42  70  93 135 180 222 282 336 406
#     4  10  22  41  63 101 129 187 228 277 345 403
#     4  11  24  45  64 105 137 175 230 285 335 409
#
# _framework density 21.746383000000002
#
# number of rings (size 3 to 8) (size 9 to 14) (size 15 to 20)
#    0.000    1.250    3.750    1.875    3.500    3.500 
#    2.250    3.125    0.000    0.000    0.000    0.000 
#    0.000    0.000    0.000    0.000    0.000    0.000 
#
# Total GULP energy -396581.123045 kJ/mol
# GULP energy per Si atom -12393.160095 kJ/mol
# Density = 2.169689 g / cm^3
# Si number density = 21.746383 Si / 1000 Ang^3
#
#
#
# Elastic Constant Matrix: (Units=GPa)
#
#
# Indices 1 2 3 4 5 6 
#
# 1 109.8551 49.2025 51.7002 0.0000 -28.8847 0.0000
# 2 49.2025 85.7186 55.6475 0.0000 -0.4557 0.0000
# 3 51.7002 55.6475 107.3566 0.0000 -33.2370 0.0000
# 4 0.0000 0.0000 0.0000 39.5460 0.0000 -11.8849
# 5 -28.8847 -0.4557 -33.2370 0.0000 33.7006 0.0000
# 6 0.0000 0.0000 0.0000 -11.8849 0.0000 42.0704
#
#
#
# Elastic Compliance Matrix: (Units=1/GPa)
#
#
# Indices 1 2 3 4 5 6 
#
# 1 0.017996 -0.012690 0.003791 0.000000 0.018991 0.000000
# 2 -0.012690 0.031241 -0.019173 0.000000 -0.029363 0.000000
# 3 0.003791 -0.019173 0.026420 0.000000 0.029046 0.000000
# 4 0.000000 0.000000 0.000000 0.027633 0.000000 0.007806
# 5 0.018991 -0.029363 0.029046 0.000000 0.074200 0.000000
# 6 0.000000 0.000000 0.000000 0.007806 0.000000 0.025975
#
#
# Mechanical properties :
#
#
# Convention : Reuss Voigt Hill
#
# Bulk Modulus (GPa) = 51.24830 68.44787 59.84808
# Shear Modulus (GPa) = 18.78906 32.82208 25.80557
#
# Velocity S-wave (km/s) = 2.94259 3.88920 3.44853
# Velocity P-wave (km/s) = 5.92981 7.19108 6.59069
#
# Compressibility (1/GPa) = 0.01951284
#
# Stress axis : x y z
#
# Youngs Moduli (GPa) = 55.56859 32.00952 37.85015
#
# Poissons Ratio (x) = 0.40619 -0.14348
# Poissons Ratio (y) = 0.70514 0.72570
# Poissons Ratio (z) = -0.21065 0.61372
#
# Static dielectric constant tensor:
#      x y z
#    x 3.994790 0.000000 -0.345770 
#    y 0.000000 3.993840 0.000000 
#    z -0.345770 0.000000 4.052100 
# 
# 
# High freq. dielectric constant tensor:
#      x y z
#    x 1.861800 0.000000 -0.024130 
#    y 0.000000 1.851710 0.000000 
#    z -0.024130 0.000000 1.852000 
# 
# From -- ./inp_files/31837.got.cif
#   From: 2010.03.12/outbox.cif.g09.slc.cpg/sg14_16_cif.got.tgz:31837.got - 2010.03.31 13:35:05.
