data_PCOD8127498
_publ_section_title
;
Structure prediction by ZEFSAII (Michael W. Deem and Ramdas Pophale) SiO2 
 PCOD8127498
Probable space group: P 21/C
;
_chemical_formula_sum "Si O2"
_cell_formula_units_Z 20
_cell_length_a 16.966959
_cell_length_b 10.770956
_cell_length_c 9.608136
_cell_angle_alpha 90.000000
_cell_angle_beta 150.696213
_cell_angle_gamma 90.000000
_cell_volume 859.403155
_symmetry_space_group_name_H-M "P 21/C"
_symmetry_group_IT_number 14
_symmetry_cell_setting 'monoclinic'
loop_
_space_group_symop_operation_xyz
x,y,z
-x,1/2+y,1/2-z
-x,-y,-z
x,1/2-y,1/2+z
loop_
_atom_site_type_symbol
_atom_site_label
_atom_site_fract_x
_atom_site_fract_y
_atom_site_fract_z
Si Si1 0.449680 0.651580 0.207159
Si Si2 0.091289 0.621923 0.687818
Si Si3 0.988678 0.158370 0.630408
Si Si4 0.575664 0.364591 0.139585
Si Si5 0.240829 0.007436 0.880078
O O1 0.517256 0.766695 0.403653
O O2 0.586203 0.545565 0.417486
O O3 0.281953 0.597509 0.010848
O O4 0.406577 0.698491 0.983718
O O5 0.008078 0.675126 0.698861
O O6 0.073462 0.716703 0.533789
O O7 0.000000 0.500000 0.500000
O O8 0.166826 0.126274 0.846662
O O9 0.874108 0.040376 0.419210
O O10 0.740892 0.394359 0.478587
O O11 0.500000 0.500000 0.000000
#
# Coordination Sequence:
#
# PCOD8127498 Si02
#       5
#     4   4   4   4   4
#     4  11  23  43  71  98 140 181 236 281 344 410
#     4  12  27  46  73 103 140 183 233 287 349 418
#     4  11  26  46  69 100 144 178 232 287 352 408
#     4  10  22  43  66  99 139 178 226 289 338 402
#     4  10  24  44  71  98 140 186 226 288 346 406
#
# _framework density 23.271965999999999
#
# number of rings (size 3 to 8) (size 9 to 14) (size 15 to 20)
#    0.000    1.200    2.000    2.400    5.600    7.200 
#    3.600    0.000    0.000    0.000    0.000    0.000 
#    0.000    0.000    0.000    0.000    0.000    0.000 
#
# Total GULP energy -247904.643157 kJ/mol
# GULP energy per Si atom -12395.232158 kJ/mol
# Density = 2.321900 g / cm^3
# Si number density = 23.271966 Si / 1000 Ang^3
#
#
#
# Elastic Constant Matrix: (Units=GPa)
#
#
# Indices 1 2 3 4 5 6 
#
# 1 113.5813 54.7572 30.9738 0.0000 -7.3956 0.0000
# 2 54.7572 103.5897 32.1168 0.0000 -6.2510 0.0000
# 3 30.9738 32.1168 55.3575 0.0000 -7.5081 0.0000
# 4 0.0000 0.0000 0.0000 45.9362 0.0000 -5.6059
# 5 -7.3956 -6.2510 -7.5081 0.0000 53.4864 0.0000
# 6 0.0000 0.0000 0.0000 -5.6059 0.0000 36.9012
#
#
#
# Elastic Compliance Matrix: (Units=1/GPa)
#
#
# Indices 1 2 3 4 5 6 
#
# 1 0.012467 -0.005386 -0.003774 0.000000 0.000565 0.000000
# 2 -0.005386 0.014107 -0.005146 0.000000 0.000182 0.000000
# 3 -0.003774 -0.005146 0.023456 0.000000 0.002169 0.000000
# 4 0.000000 0.000000 0.000000 0.022181 0.000000 0.003370
# 5 0.000565 0.000182 0.002169 0.000000 0.019100 0.000000
# 6 0.000000 0.000000 0.000000 0.003370 0.000000 0.027611
#
#
# Mechanical properties :
#
#
# Convention : Reuss Voigt Hill
#
# Bulk Modulus (GPa) = 46.69140 56.46934 51.58037
# Shear Modulus (GPa) = 32.32625 37.57680 34.95153
#
# Velocity S-wave (km/s) = 3.73106 4.02267 3.87960
# Velocity P-wave (km/s) = 6.21836 6.77447 6.50236
#
# Compressibility (1/GPa) = 0.02141722
#
# Stress axis : x y z
#
# Youngs Moduli (GPa) = 80.21409 70.88775 42.63271
#
# Poissons Ratio (x) = 0.38177 0.16091
# Poissons Ratio (y) = 0.43200 0.21940
# Poissons Ratio (z) = 0.30275 0.36481
#
# Static dielectric constant tensor:
#      x y z
#    x 4.300500 0.000000 -0.269360 
#    y 0.000000 4.021560 0.000000 
#    z -0.269360 0.000000 4.593410 
# 
# 
# High freq. dielectric constant tensor:
#      x y z
#    x 1.917860 0.000000 -0.011660 
#    y 0.000000 1.912570 0.000000 
#    z -0.011660 0.000000 1.926910 
# 
# From -- ./inp_files/17872.got.cif
#   From: 2010.03.12/outbox.cif.g09.slc.cpg/sg14_9_cif.got.tgz:17872.got - 2010.03.31 13:35:05.
