data_PCOD8127969
_publ_section_title
;
Structure prediction by ZEFSAII (Michael W. Deem and Ramdas Pophale) SiO2 
 PCOD8127969
Probable space group: P 21/C
;
_chemical_formula_sum "Si O2"
_cell_formula_units_Z 28
_cell_length_a 6.005183
_cell_length_b 11.266911
_cell_length_c 19.110672
_cell_angle_alpha 90.000000
_cell_angle_beta 108.749697
_cell_angle_gamma 90.000000
_cell_volume 1224.406943
_symmetry_space_group_name_H-M "P 21/C"
_symmetry_group_IT_number 14
_symmetry_cell_setting 'monoclinic'
loop_
_space_group_symop_operation_xyz
x,y,z
-x,1/2+y,1/2-z
-x,-y,-z
x,1/2-y,1/2+z
loop_
_atom_site_type_symbol
_atom_site_label
_atom_site_fract_x
_atom_site_fract_y
_atom_site_fract_z
Si Si1 0.778120 0.021223 0.427651
Si Si2 0.935749 0.184092 0.319125
Si Si3 0.301482 0.581428 0.329428
Si Si4 0.439436 0.222177 0.432373
Si Si5 0.330494 0.259206 0.081977
Si Si6 0.996752 0.433496 0.572499
Si Si7 0.639841 0.112140 0.845755
O O1 0.865850 0.084546 0.367326
O O2 0.571140 0.095520 0.444223
O O3 0.666868 0.895517 0.394629
O O4 0.000000 0.000000 0.500000
O O5 0.916362 0.127171 0.239765
O O6 0.743998 0.291481 0.302178
O O7 0.202989 0.223290 0.360779
O O8 0.491491 0.687032 0.351227
O O9 0.394150 0.456926 0.304482
O O10 0.237826 0.559964 0.404784
O O11 0.382823 0.256002 0.505294
O O12 0.613303 0.322238 0.418469
O O13 0.070668 0.203666 0.068242
O O14 0.185328 0.502887 0.637247
O O15 0.000000 0.500000 0.500000
#
# Coordination Sequence:
#
# PCOD8127969 Si02
#       7
#     4   4   4   4   4   4   4
#     4  11  25  43  71 103 138 180 232 288 347 420
#     4  11  25  44  68  98 143 182 226 290 351 420
#     4  11  26  43  68 103 136 186 231 291 353 412
#     4  11  23  44  71  99 137 183 229 287 356 407
#     4  11  24  41  69 104 132 173 238 281 336 421
#     4  11  23  42  69  97 135 174 230 288 343 410
#     4  10  23  44  64  95 131 177 227 280 350 408
#
# _framework density 22.868212
#
# number of rings (size 3 to 8) (size 9 to 14) (size 15 to 20)
#    0.000    1.143    1.429    3.857    6.000    6.857 
#    5.143    0.000    0.000    0.000    0.000    0.000 
#    0.000    0.000    0.000    0.000    0.000    0.000 
#
# Total GULP energy -347002.821273 kJ/mol
# GULP energy per Si atom -12392.957903 kJ/mol
# Density = 2.281616 g / cm^3
# Si number density = 22.868212 Si / 1000 Ang^3
#
#
#
# Elastic Constant Matrix: (Units=GPa)
#
#
# Indices 1 2 3 4 5 6 
#
# 1 94.9350 40.6946 16.9753 0.0000 0.3181 0.0000
# 2 40.6946 145.5247 19.1274 0.0000 1.9849 0.0000
# 3 16.9753 19.1274 83.9686 0.0000 3.8793 0.0000
# 4 0.0000 0.0000 0.0000 23.9150 0.0000 -2.0957
# 5 0.3181 1.9849 3.8793 0.0000 27.9500 0.0000
# 6 0.0000 0.0000 0.0000 -2.0957 0.0000 37.7001
#
#
#
# Elastic Compliance Matrix: (Units=1/GPa)
#
#
# Indices 1 2 3 4 5 6 
#
# 1 0.012214 -0.003189 -0.001758 0.000000 0.000331 0.000000
# 2 -0.003189 0.007919 -0.001142 0.000000 -0.000368 0.000000
# 3 -0.001758 -0.001142 0.012601 0.000000 -0.001648 0.000000
# 4 0.000000 0.000000 0.000000 0.042019 0.000000 0.002336
# 5 0.000331 -0.000368 -0.001648 0.000000 0.036029 0.000000
# 6 0.000000 0.000000 0.000000 0.002336 0.000000 0.026655
#
#
# Mechanical properties :
#
#
# Convention : Reuss Voigt Hill
#
# Bulk Modulus (GPa) = 48.64994 53.11369 50.88181
# Shear Modulus (GPa) = 31.95570 34.42176 33.18873
#
# Velocity S-wave (km/s) = 3.74222 3.88393 3.81373
# Velocity P-wave (km/s) = 6.32396 6.58708 6.45686
#
# Compressibility (1/GPa) = 0.02055501
#
# Stress axis : x y z
#
# Youngs Moduli (GPa) = 81.87518 126.28554 79.35920
#
# Poissons Ratio (x) = 0.40271 0.13952
# Poissons Ratio (y) = 0.26109 0.09064
# Poissons Ratio (z) = 0.14394 0.14424
#
# Static dielectric constant tensor:
#      x y z
#    x 4.388560 0.000000 0.142250 
#    y 0.000000 4.787110 0.000000 
#    z 0.142250 0.000000 3.799540 
# 
# 
# High freq. dielectric constant tensor:
#      x y z
#    x 1.907150 0.000000 -0.001590 
#    y 0.000000 1.922670 0.000000 
#    z -0.001590 0.000000 1.878050 
# 
# From -- ./inp_files/63367.got.cif
#   From: 2010.03.12/outbox.cif.g09.slc.cpg/sg14_32_cif.got.tgz:63367.got - 2010.03.31 13:35:05.
