data_PCOD8127547
_publ_section_title
;
Structure prediction by ZEFSAII (Michael W. Deem and Ramdas Pophale) SiO2 
 PCOD8127547
Probable space group: P 21/C
;
_chemical_formula_sum "Si O2"
_cell_formula_units_Z 28
_cell_length_a 9.046230
_cell_length_b 7.556233
_cell_length_c 26.557944
_cell_angle_alpha 90.000000
_cell_angle_beta 42.079617
_cell_angle_gamma 90.000000
_cell_volume 1216.599452
_symmetry_space_group_name_H-M "P 21/C"
_symmetry_group_IT_number 14
_symmetry_cell_setting 'monoclinic'
loop_
_space_group_symop_operation_xyz
x,y,z
-x,1/2+y,1/2-z
-x,-y,-z
x,1/2-y,1/2+z
loop_
_atom_site_type_symbol
_atom_site_label
_atom_site_fract_x
_atom_site_fract_y
_atom_site_fract_z
Si Si1 0.523450 0.712492 0.290925
Si Si2 0.075407 0.363220 0.879123
Si Si3 0.390533 0.878388 0.485976
Si Si4 0.894888 0.261244 0.167125
Si Si5 0.626364 0.944965 0.611122
Si Si6 0.333246 0.612109 0.682314
Si Si7 0.686391 0.568267 0.414775
O O1 0.760954 0.721192 0.203372
O O2 0.335759 0.680967 0.295701
O O3 0.519324 0.543538 0.329311
O O4 0.485120 0.898065 0.328126
O O5 0.032968 0.572778 0.884059
O O6 0.175337 0.347093 0.909829
O O7 0.829824 0.276347 0.936674
O O8 0.578385 0.745933 0.419014
O O9 0.500000 0.000000 0.500000
O O10 0.294411 0.984927 0.462705
O O11 0.871214 0.335735 0.230150
O O12 0.084125 0.112444 0.115197
O O13 0.455642 0.793484 0.642068
O O14 0.253267 0.557223 0.647097
O O15 0.500000 0.500000 0.500000
#
# Coordination Sequence:
#
# PCOD8127547 Si02
#       7
#     4   4   4   4   4   4   4
#     4  10  22  47  73 106 135 178 250 297 347 425
#     4  10  22  43  75 101 133 186 234 294 356 416
#     4  12  24  45  68  99 144 187 230 285 360 428
#     4  10  23  46  71 102 143 184 237 298 356 426
#     4  11  23  43  74 103 140 180 234 293 357 420
#     4  11  24  45  73 104 141 184 240 296 360 425
#     4  12  27  48  66 108 150 191 240 292 361 442
#
# _framework density 23.014970000000002
#
# number of rings (size 3 to 8) (size 9 to 14) (size 15 to 20)
#    0.000    1.143    4.286    1.286    0.000    3.429 
#    5.143    1.429    0.000    0.000    0.000    0.000 
#    0.000    0.000    0.000    0.000    0.000    0.000 
#
# Total GULP energy -347092.920371 kJ/mol
# GULP energy per Si atom -12396.175728 kJ/mol
# Density = 2.296259 g / cm^3
# Si number density = 23.014970 Si / 1000 Ang^3
#
#
#
# Elastic Constant Matrix: (Units=GPa)
#
#
# Indices 1 2 3 4 5 6 
#
# 1 91.1517 12.3325 49.4727 0.0000 -2.7857 0.0000
# 2 12.3325 68.3386 13.8622 0.0000 -8.2094 0.0000
# 3 49.4727 13.8622 99.6850 0.0000 -10.4174 0.0000
# 4 0.0000 0.0000 0.0000 41.4434 0.0000 -0.1308
# 5 -2.7857 -8.2094 -10.4174 0.0000 48.4632 0.0000
# 6 0.0000 0.0000 0.0000 -0.1308 0.0000 27.4175
#
#
#
# Elastic Compliance Matrix: (Units=1/GPa)
#
#
# Indices 1 2 3 4 5 6 
#
# 1 0.015159 -0.001342 -0.007437 0.000000 -0.000954 0.000000
# 2 -0.001342 0.015399 -0.001239 0.000000 0.002265 0.000000
# 3 -0.007437 -0.001239 0.014146 0.000000 0.002403 0.000000
# 4 0.000000 0.000000 0.000000 0.024130 0.000000 0.000115
# 5 -0.000954 0.002265 0.002403 0.000000 0.021480 0.000000
# 6 0.000000 0.000000 0.000000 0.000115 0.000000 0.036474
#
#
# Mechanical properties :
#
#
# Convention : Reuss Voigt Hill
#
# Bulk Modulus (GPa) = 40.53608 45.61222 43.07415
# Shear Modulus (GPa) = 32.24898 35.69870 33.97384
#
# Velocity S-wave (km/s) = 3.74735 3.94268 3.84625
# Velocity P-wave (km/s) = 6.03114 6.37086 6.20332
#
# Compressibility (1/GPa) = 0.02466938
#
# Stress axis : x y z
#
# Youngs Moduli (GPa) = 65.96609 64.94129 70.69287
#
# Poissons Ratio (x) = 0.08714 0.52571
# Poissons Ratio (y) = 0.08852 0.08756
# Poissons Ratio (z) = 0.49056 0.08044
#
# Static dielectric constant tensor:
#      x y z
#    x 4.228230 0.000000 -0.006950 
#    y 0.000000 4.268540 0.000000 
#    z -0.006950 0.000000 4.170460 
# 
# 
# High freq. dielectric constant tensor:
#      x y z
#    x 1.909950 0.000000 0.003980 
#    y 0.000000 1.910050 0.000000 
#    z 0.003980 0.000000 1.909270 
# 
# From -- ./inp_files/76442.got.cif
#   From: 2010.03.12/outbox.cif.g09.slc.cpg/sg14_39_cif.got.tgz:76442.got - 2010.03.31 13:35:05.
