data_PCOD8127846
_publ_section_title
;
Structure prediction by ZEFSAII (Michael W. Deem and Ramdas Pophale) SiO2 
 PCOD8127846
Probable space group: P 21/C
;
_chemical_formula_sum "Si O2"
_cell_formula_units_Z 20
_cell_length_a 19.761940
_cell_length_b 7.016475
_cell_length_c 11.371613
_cell_angle_alpha 90.000000
_cell_angle_beta 145.161657
_cell_angle_gamma 90.000000
_cell_volume 900.755033
_symmetry_space_group_name_H-M "P 21/C"
_symmetry_group_IT_number 14
_symmetry_cell_setting 'monoclinic'
loop_
_space_group_symop_operation_xyz
x,y,z
-x,1/2+y,1/2-z
-x,-y,-z
x,1/2-y,1/2+z
loop_
_atom_site_type_symbol
_atom_site_label
_atom_site_fract_x
_atom_site_fract_y
_atom_site_fract_z
Si Si1 0.666686 0.017887 0.669061
Si Si2 0.529391 0.700011 0.599325
Si Si3 0.862725 0.483758 0.628614
Si Si4 0.756711 0.655937 0.071439
Si Si5 0.042503 0.910226 0.184169
O O1 0.588943 0.200085 0.516833
O O2 0.581709 0.839385 0.575235
O O3 0.756529 0.943365 0.698186
O O4 0.744325 0.083285 0.891298
O O5 0.500000 0.500000 0.500000
O O6 0.622519 0.668595 0.836128
O O7 0.821530 0.638325 0.667194
O O8 0.924046 0.311621 0.785914
O O9 0.950160 0.577351 0.658242
O O10 0.838192 0.521394 0.105307
O O11 0.000000 0.000000 0.000000
#
# Coordination Sequence:
#
# PCOD8127846 Si02
#       5
#     4   4   4   4   4
#     4  10  23  44  64 100 138 176 237 281 346 413
#     4  10  23  42  67  96 138 182 230 291 336 406
#     4  11  24  45  66  99 141 175 234 295 342 423
#     4  11  24  42  70 101 135 186 234 279 356 411
#     4  12  24  44  69 100 136 186 230 288 354 419
#
# _framework density 22.203596999999998
#
# number of rings (size 3 to 8) (size 9 to 14) (size 15 to 20)
#    0.000    1.200    4.000    1.200    2.800    2.400 
#    7.200    0.000    0.000    0.000    0.000    0.000 
#    0.000    0.000    0.000    0.000    0.000    0.000 
#
# Total GULP energy -247965.674184 kJ/mol
# GULP energy per Si atom -12398.283709 kJ/mol
# Density = 2.215306 g / cm^3
# Si number density = 22.203597 Si / 1000 Ang^3
#
#
#
# Elastic Constant Matrix: (Units=GPa)
#
#
# Indices 1 2 3 4 5 6 
#
# 1 87.1704 44.6755 35.7142 0.0000 8.7229 0.0000
# 2 44.6755 166.0170 55.9919 0.0000 3.9267 0.0000
# 3 35.7142 55.9919 77.4313 0.0000 8.8982 0.0000
# 4 0.0000 0.0000 0.0000 44.5785 0.0000 10.1513
# 5 8.7229 3.9267 8.8982 0.0000 30.8945 0.0000
# 6 0.0000 0.0000 0.0000 10.1513 0.0000 41.0664
#
#
#
# Elastic Compliance Matrix: (Units=1/GPa)
#
#
# Indices 1 2 3 4 5 6 
#
# 1 0.014919 -0.002290 -0.004938 0.000000 -0.002499 0.000000
# 2 -0.002290 0.008331 -0.005089 0.000000 0.001053 0.000000
# 3 -0.004938 -0.005089 0.019276 0.000000 -0.003511 0.000000
# 4 0.000000 0.000000 0.000000 0.023770 0.000000 -0.005876
# 5 -0.002499 0.001053 -0.003511 0.000000 0.033951 0.000000
# 6 0.000000 0.000000 0.000000 -0.005876 0.000000 0.025803
#
#
# Mechanical properties :
#
#
# Convention : Reuss Voigt Hill
#
# Bulk Modulus (GPa) = 55.89336 67.04244 61.46790
# Shear Modulus (GPa) = 31.91859 36.25701 34.08780
#
# Velocity S-wave (km/s) = 3.79561 4.04534 3.92246
# Velocity P-wave (km/s) = 6.66608 7.21663 6.94681
#
# Compressibility (1/GPa) = 0.01789121
#
# Stress axis : x y z
#
# Youngs Moduli (GPa) = 67.03037 120.02962 51.87868
#
# Poissons Ratio (x) = 0.27489 0.25617
# Poissons Ratio (y) = 0.15351 0.26402
# Poissons Ratio (z) = 0.33098 0.61086
#
# Static dielectric constant tensor:
#      x y z
#    x 3.928870 0.000000 0.421530 
#    y 0.000000 4.077490 0.000000 
#    z 0.421530 0.000000 4.084490 
# 
# 
# High freq. dielectric constant tensor:
#      x y z
#    x 1.867110 0.000000 0.029760 
#    y 0.000000 1.881510 0.000000 
#    z 0.029760 0.000000 1.876920 
# 
# From -- ./inp_files/34628.got.cif
#   From: 2010.03.12/outbox.cif.g09.slc.cpg/sg14_18_cif.got.tgz:34628.got - 2010.03.31 13:35:05.
