data_PCOD8127147
_publ_section_title
;
Structure prediction by ZEFSAII (Michael W. Deem and Ramdas Pophale) SiO2 
 PCOD8127147
Probable space group: P 21/C
;
_chemical_formula_sum "Si O2"
_cell_formula_units_Z 28
_cell_length_a 11.162672
_cell_length_b 14.872103
_cell_length_c 8.809053
_cell_angle_alpha 90.000000
_cell_angle_beta 120.030375
_cell_angle_gamma 90.000000
_cell_volume 1266.098206
_symmetry_space_group_name_H-M "P 21/C"
_symmetry_group_IT_number 14
_symmetry_cell_setting 'monoclinic'
loop_
_space_group_symop_operation_xyz
x,y,z
-x,1/2+y,1/2-z
-x,-y,-z
x,1/2-y,1/2+z
loop_
_atom_site_type_symbol
_atom_site_label
_atom_site_fract_x
_atom_site_fract_y
_atom_site_fract_z
Si Si1 0.912606 0.644425 0.041384
Si Si2 0.294856 0.000070 0.498223
Si Si3 0.222352 0.840654 0.657856
Si Si4 0.775503 0.766978 0.181557
Si Si5 0.345308 0.789948 0.040819
Si Si6 0.589899 0.460391 0.236151
Si Si7 0.603593 0.667444 0.304411
O O1 0.844869 0.557658 0.077889
O O2 0.888608 0.729638 0.135248
O O3 0.075607 0.629574 0.131262
O O4 0.845322 0.656806 0.831587
O O5 0.295678 0.926797 0.631515
O O6 0.307596 0.950673 0.343259
O O7 0.430125 0.065359 0.594503
O O8 0.209879 0.759775 0.526595
O O9 0.326398 0.800104 0.849741
O O10 0.723729 0.687289 0.258402
O O11 0.647892 0.807432 0.004254
O O12 0.356499 0.891788 0.105459
O O13 0.472548 0.725888 0.167826
O O14 0.580946 0.561311 0.292972
#
# Coordination Sequence:
#
# PCOD8127147 Si02
#       7
#     4   4   4   4   4   4   4
#     4  11  23  44  66  96 134 185 226 267 328 406
#     4  11  24  43  67  96 134 175 221 283 341 394
#     4  12  26  44  66  95 139 178 225 271 331 407
#     4  10  22  39  70  95 130 174 224 275 335 393
#     4  12  26  43  70 102 135 178 221 283 346 397
#     4  11  24  43  71  99 136 167 224 290 346 393
#     4  11  22  42  66 103 134 164 222 288 340 398
#
# _framework density 22.115186999999999
#
# number of rings (size 3 to 8) (size 9 to 14) (size 15 to 20)
#    0.000    0.857    2.857    4.714    6.000    0.571 
#    0.000    0.714    0.000    0.000    0.000    0.000 
#    0.000    0.000    0.000    0.000    0.000    0.000 
#
# Total GULP energy -347176.493250 kJ/mol
# GULP energy per Si atom -12399.160473 kJ/mol
# Density = 2.206485 g / cm^3
# Si number density = 22.115187 Si / 1000 Ang^3
#
#
#
# Elastic Constant Matrix: (Units=GPa)
#
#
# Indices 1 2 3 4 5 6 
#
# 1 112.7218 52.8337 31.5254 0.0000 -3.0949 0.0000
# 2 52.8337 100.2157 24.8084 0.0000 -6.3921 0.0000
# 3 31.5254 24.8084 90.6360 0.0000 -10.8701 0.0000
# 4 0.0000 0.0000 0.0000 33.0175 0.0000 -5.0507
# 5 -3.0949 -6.3921 -10.8701 0.0000 31.4096 0.0000
# 6 0.0000 0.0000 0.0000 -5.0507 0.0000 32.8250
#
#
#
# Elastic Compliance Matrix: (Units=1/GPa)
#
#
# Indices 1 2 3 4 5 6 
#
# 1 0.012397 -0.005901 -0.002811 0.000000 -0.000952 0.000000
# 2 -0.005901 0.013557 -0.001458 0.000000 0.001673 0.000000
# 3 -0.002811 -0.001458 0.012876 0.000000 0.003882 0.000000
# 4 0.000000 0.000000 0.000000 0.031017 0.000000 0.004773
# 5 -0.000952 0.001673 0.003882 0.000000 0.033428 0.000000
# 6 0.000000 0.000000 0.000000 0.004773 0.000000 0.031199
#
#
# Mechanical properties :
#
#
# Convention : Reuss Voigt Hill
#
# Bulk Modulus (GPa) = 54.08140 57.98984 56.03562
# Shear Modulus (GPa) = 31.06065 32.41082 31.73573
#
# Velocity S-wave (km/s) = 3.75172 3.83240 3.79228
# Velocity P-wave (km/s) = 6.57835 6.77213 6.67594
#
# Compressibility (1/GPa) = 0.01849065
#
# Stress axis : x y z
#
# Youngs Moduli (GPa) = 80.66393 73.76351 77.66677
#
# Poissons Ratio (x) = 0.43525 0.21833
# Poissons Ratio (y) = 0.47597 0.11321
# Poissons Ratio (z) = 0.22676 0.10752
#
# Static dielectric constant tensor:
#      x y z
#    x 4.100960 0.000000 -0.255910 
#    y 0.000000 3.881900 0.000000 
#    z -0.255910 0.000000 3.945280 
# 
# 
# High freq. dielectric constant tensor:
#      x y z
#    x 1.880530 0.000000 -0.022260 
#    y 0.000000 1.868220 0.000000 
#    z -0.022260 0.000000 1.861540 
# 
# From -- ./inp_files/13421.got.cif
#   From: 2010.03.12/outbox.cif.g09.slc.cpg/sg14_7_cif.got.tgz:13421.got - 2010.03.31 13:35:05.
