data_PCOD8127317
_publ_section_title
;
Structure prediction by ZEFSAII (Michael W. Deem and Ramdas Pophale) SiO2 
 PCOD8127317
Probable space group: P 21/C
;
_chemical_formula_sum "Si O2"
_cell_formula_units_Z 32
_cell_length_a 6.494416
_cell_length_b 10.977950
_cell_length_c 21.987792
_cell_angle_alpha 90.000000
_cell_angle_beta 95.429759
_cell_angle_gamma 90.000000
_cell_volume 1560.593834
_symmetry_space_group_name_H-M "P 21/C"
_symmetry_group_IT_number 14
_symmetry_cell_setting 'monoclinic'
loop_
_space_group_symop_operation_xyz
x,y,z
-x,1/2+y,1/2-z
-x,-y,-z
x,1/2-y,1/2+z
loop_
_atom_site_type_symbol
_atom_site_label
_atom_site_fract_x
_atom_site_fract_y
_atom_site_fract_z
Si Si1 0.591967 0.652992 0.213064
Si Si2 0.441530 0.773724 0.400597
Si Si3 0.205552 0.832201 0.512257
Si Si4 0.860404 0.051303 0.669423
Si Si5 0.526636 0.470367 0.664418
Si Si6 0.111789 0.366133 0.290601
Si Si7 0.750378 0.199183 0.863868
Si Si8 0.162484 0.420608 0.071326
O O1 0.707739 0.563092 0.169946
O O2 0.526712 0.584472 0.271756
O O3 0.739654 0.765268 0.235607
O O4 0.390109 0.699757 0.172593
O O5 0.377707 0.792024 0.468611
O O6 0.270799 0.828420 0.350146
O O7 0.466395 0.631682 0.387238
O O8 0.659429 0.838916 0.394543
O O9 0.209414 0.733244 0.565384
O O10 0.977227 0.835629 0.476173
O O11 0.262118 0.967628 0.537051
O O12 0.971533 0.071242 0.736213
O O13 0.024957 0.022104 0.621507
O O14 0.751929 0.531086 0.672933
O O15 0.352222 0.566535 0.640939
O O16 0.970580 0.302304 0.337010
#
# Coordination Sequence:
#
# PCOD8127317 Si02
#       8
#     4   4   4   4   4   4   4   4
#     4  11  24  40  64  96 131 167 211 267 323 386
#     4  11  24  42  65  93 134 169 218 266 323 379
#     4  10  23  41  66  94 125 171 222 268 318 379
#     4  11  23  37  67  98 123 172 206 271 325 383
#     4  11  26  41  62  96 132 170 214 263 324 393
#     4  11  25  41  64  95 131 171 212 258 328 389
#     4  11  24  43  64  92 130 172 217 267 319 388
#     4  10  22  41  67  97 126 165 219 272 325 380
#
# _framework density 20.505013999999999
#
# number of rings (size 3 to 8) (size 9 to 14) (size 15 to 20)
#    0.000    1.250    1.250    3.375    8.750    6.500 
#    0.000    1.250    0.000    0.000    0.000    0.000 
#    0.000    0.000    0.000    0.000    0.000    0.000 
#
# Total GULP energy -397047.640469 kJ/mol
# GULP energy per Si atom -12407.738765 kJ/mol
# Density = 2.045834 g / cm^3
# Si number density = 20.505014 Si / 1000 Ang^3
#
#
#
# Elastic Constant Matrix: (Units=GPa)
#
#
# Indices 1 2 3 4 5 6 
#
# 1 110.7511 39.7399 44.5428 0.0000 -15.3667 0.0000
# 2 39.7399 91.5623 48.5577 0.0000 -15.2373 0.0000
# 3 44.5428 48.5577 105.0729 0.0000 -20.0206 0.0000
# 4 0.0000 0.0000 0.0000 43.9205 0.0000 -1.2991
# 5 -15.3667 -15.2373 -20.0206 0.0000 25.6894 0.0000
# 6 0.0000 0.0000 0.0000 -1.2991 0.0000 32.8697
#
#
#
# Elastic Compliance Matrix: (Units=1/GPa)
#
#
# Indices 1 2 3 4 5 6 
#
# 1 0.011726 -0.003001 -0.003038 0.000000 0.002867 0.000000
# 2 -0.003001 0.015586 -0.005298 0.000000 0.003321 0.000000
# 3 -0.003038 -0.005298 0.014455 0.000000 0.006306 0.000000
# 4 0.000000 0.000000 0.000000 0.022795 0.000000 0.000901
# 5 0.002867 0.003321 0.006306 0.000000 0.047525 0.000000
# 6 0.000000 0.000000 0.000000 0.000901 0.000000 0.030459
#
#
# Mechanical properties :
#
#
# Convention : Reuss Voigt Hill
#
# Bulk Modulus (GPa) = 52.37481 63.67413 58.02447
# Shear Modulus (GPa) = 29.14031 32.13230 30.63631
#
# Velocity S-wave (km/s) = 3.77388 3.96289 3.86954
# Velocity P-wave (km/s) = 6.67738 7.21524 6.95151
#
# Compressibility (1/GPa) = 0.01909315
#
# Stress axis : x y z
#
# Youngs Moduli (GPa) = 85.28371 64.15857 69.18130
#
# Poissons Ratio (x) = 0.19255 0.21015
# Poissons Ratio (y) = 0.25595 0.36652
# Poissons Ratio (z) = 0.25906 0.33991
#
# Static dielectric constant tensor:
#      x y z
#    x 3.891880 0.000000 -0.032520 
#    y 0.000000 3.723660 0.000000 
#    z -0.032520 0.000000 3.653070 
# 
# 
# High freq. dielectric constant tensor:
#      x y z
#    x 1.815410 0.000000 -0.002250 
#    y 0.000000 1.803510 0.000000 
#    z -0.002250 0.000000 1.800550 
# 
# From -- ./inp_files/63538.got.cif
#   From: 2010.03.12/outbox.cif.g09.slc.cpg/sg14_32_cif.got.tgz:63538.got - 2010.03.31 13:35:05.
