data_PCOD8127336
_publ_section_title
;
Structure prediction by ZEFSAII (Michael W. Deem and Ramdas Pophale) SiO2 
 PCOD8127336
Probable space group: P 21/C
;
_chemical_formula_sum "Si O2"
_cell_formula_units_Z 24
_cell_length_a 8.360771
_cell_length_b 9.968049
_cell_length_c 13.099761
_cell_angle_alpha 90.000000
_cell_angle_beta 99.226950
_cell_angle_gamma 90.000000
_cell_volume 1077.615518
_symmetry_space_group_name_H-M "P 21/C"
_symmetry_group_IT_number 14
_symmetry_cell_setting 'monoclinic'
loop_
_space_group_symop_operation_xyz
x,y,z
-x,1/2+y,1/2-z
-x,-y,-z
x,1/2-y,1/2+z
loop_
_atom_site_type_symbol
_atom_site_label
_atom_site_fract_x
_atom_site_fract_y
_atom_site_fract_z
Si Si1 0.749291 0.645021 0.994182
Si Si2 0.529721 0.366335 0.172491
Si Si3 0.138910 0.003057 0.310794
Si Si4 0.021994 0.261712 0.649837
Si Si5 0.418634 0.355138 0.382882
Si Si6 0.313506 0.633098 0.433015
O O1 0.860782 0.539289 0.067286
O O2 0.678514 0.734248 0.077980
O O3 0.602720 0.569885 0.919321
O O4 0.843364 0.735164 0.921611
O O5 0.677613 0.468396 0.204805
O O6 0.438201 0.327599 0.266131
O O7 0.587732 0.225225 0.134527
O O8 0.075473 0.123987 0.234780
O O9 0.021247 0.873354 0.290505
O O10 0.866975 0.312512 0.570468
O O11 0.308746 0.486283 0.384519
O O12 0.597874 0.372293 0.448771
#
# Coordination Sequence:
#
# PCOD8127336 Si02
#       6
#     4   4   4   4   4   4
#     4  11  24  43  71  99 135 177 228 282 338 401
#     4  10  23  43  69  96 133 179 230 278 334 405
#     4  11  26  46  67 102 134 183 223 280 339 405
#     4  11  26  45  67 102 140 178 224 276 348 398
#     4  10  22  41  69  98 132 180 230 279 332 404
#     4   9  23  42  62 101 136 176 229 281 336 395
#
# _framework density 22.271395999999999
#
# number of rings (size 3 to 8) (size 9 to 14) (size 15 to 20)
#    0.000    1.667    0.000    2.000   14.000    3.333 
#    0.000    0.000    0.000    0.000    0.000    0.000 
#    0.000    0.000    0.000    0.000    0.000    0.000 
#
# Total GULP energy -297623.471927 kJ/mol
# GULP energy per Si atom -12400.977997 kJ/mol
# Density = 2.222071 g / cm^3
# Si number density = 22.271396 Si / 1000 Ang^3
#
#
#
# Elastic Constant Matrix: (Units=GPa)
#
#
# Indices 1 2 3 4 5 6 
#
# 1 77.8745 34.3559 31.0014 0.0000 -1.2107 0.0000
# 2 34.3559 108.4765 47.9326 0.0000 8.8692 0.0000
# 3 31.0014 47.9326 109.7718 0.0000 -8.5350 0.0000
# 4 0.0000 0.0000 0.0000 8.0995 0.0000 -2.3475
# 5 -1.2107 8.8692 -8.5350 0.0000 30.2881 0.0000
# 6 0.0000 0.0000 0.0000 -2.3475 0.0000 23.4934
#
#
#
# Elastic Compliance Matrix: (Units=1/GPa)
#
#
# Indices 1 2 3 4 5 6 
#
# 1 0.015612 -0.003858 -0.002646 0.000000 0.001008 0.000000
# 2 -0.003858 0.013120 -0.005061 0.000000 -0.005422 0.000000
# 3 -0.002646 -0.005061 0.012447 0.000000 0.004884 0.000000
# 4 0.000000 0.000000 0.000000 0.127147 0.000000 0.012705
# 5 0.001008 -0.005422 0.004884 0.000000 0.036021 0.000000
# 6 0.000000 0.000000 0.000000 0.012705 0.000000 0.043835
#
#
# Mechanical properties :
#
#
# Convention : Reuss Voigt Hill
#
# Bulk Modulus (GPa) = 55.40479 58.07808 56.74143
# Shear Modulus (GPa) = 18.02918 24.56504 21.29711
#
# Velocity S-wave (km/s) = 2.84830 3.32473 3.09569
# Velocity P-wave (km/s) = 5.97898 6.39316 6.18953
#
# Compressibility (1/GPa) = 0.01804898
#
# Stress axis : x y z
#
# Youngs Moduli (GPa) = 64.05245 76.21932 80.34165
#
# Poissons Ratio (x) = 0.29403 0.21261
# Poissons Ratio (y) = 0.24709 0.40662
# Poissons Ratio (z) = 0.16950 0.38575
#
# Static dielectric constant tensor:
#      x y z
#    x 4.213810 0.000000 0.279520 
#    y 0.000000 4.037780 0.000000 
#    z 0.279520 0.000000 3.958170 
# 
# 
# High freq. dielectric constant tensor:
#      x y z
#    x 1.883310 0.000000 0.011280 
#    y 0.000000 1.880980 0.000000 
#    z 0.011280 0.000000 1.878600 
# 
# From -- ./inp_files/38997.got.cif
#   From: 2010.03.12/outbox.cif.g09.slc.cpg/sg14_20_cif.got.tgz:38997.got - 2010.03.31 13:35:05.
