data_PCOD8127104
_publ_section_title
;
Structure prediction by ZEFSAII (Michael W. Deem and Ramdas Pophale) SiO2 
 PCOD8127104
Probable space group: P 21/C
;
_chemical_formula_sum "Si O2"
_cell_formula_units_Z 32
_cell_length_a 12.950400
_cell_length_b 13.673164
_cell_length_c 11.243838
_cell_angle_alpha 90.000000
_cell_angle_beta 128.276341
_cell_angle_gamma 90.000000
_cell_volume 1562.983061
_symmetry_space_group_name_H-M "P 21/C"
_symmetry_group_IT_number 14
_symmetry_cell_setting 'monoclinic'
loop_
_space_group_symop_operation_xyz
x,y,z
-x,1/2+y,1/2-z
-x,-y,-z
x,1/2-y,1/2+z
loop_
_atom_site_type_symbol
_atom_site_label
_atom_site_fract_x
_atom_site_fract_y
_atom_site_fract_z
Si Si1 0.948746 0.150522 0.531066
Si Si2 0.791529 0.477654 0.300809
Si Si3 0.078433 0.964877 0.730691
Si Si4 0.653083 0.179149 0.329435
Si Si5 0.994382 0.866240 0.919241
Si Si6 0.399408 0.979700 0.533273
Si Si7 0.628456 0.437568 0.575200
Si Si8 0.434593 0.612795 0.719602
O O1 0.950940 0.109988 0.398115
O O2 0.805746 0.186140 0.474346
O O3 0.034551 0.250108 0.603523
O O4 0.002338 0.067096 0.658005
O O5 0.891016 0.388736 0.402157
O O6 0.666487 0.467098 0.298433
O O7 0.861953 0.581743 0.372694
O O8 0.745588 0.475970 0.129053
O O9 0.032912 0.911980 0.818891
O O10 0.233429 0.993360 0.849558
O O11 0.575994 0.122374 0.379733
O O12 0.648751 0.122529 0.205662
O O13 0.584651 0.279849 0.242110
O O14 0.500000 0.000000 0.500000
O O15 0.420228 0.069041 0.643868
O O16 0.500000 0.500000 0.500000
O O17 0.593983 0.369657 0.438895
#
# Coordination Sequence:
#
# PCOD8127104 Si02
#       8
#     4   4   4   4   4   4   4   4
#     4  10  22  40  65  95 127 167 214 263 327 380
#     4  10  22  39  63  94 126 159 210 265 321 374
#     4  10  22  40  63  94 132 161 216 267 311 389
#     4  11  22  39  68  90 120 173 213 260 321 386
#     4  11  21  40  67  95 125 169 209 265 324 384
#     4  10  23  40  61  91 130 163 212 268 312 378
#     4  11  22  41  64  87 127 167 208 257 318 375
#     4  11  22  42  62  95 127 163 217 264 314 386
#
# _framework density 20.473669999999998
#
# number of rings (size 3 to 8) (size 9 to 14) (size 15 to 20)
#    0.000    1.500    3.750    0.750    3.500    3.000 
#    2.250    0.000    0.000    0.000    0.000    0.000 
#    0.000    0.000    0.000    0.000    0.000    0.000 
#
# Total GULP energy -396480.724341 kJ/mol
# GULP energy per Si atom -12390.022636 kJ/mol
# Density = 2.042707 g / cm^3
# Si number density = 20.473670 Si / 1000 Ang^3
#
#
#
# Elastic Constant Matrix: (Units=GPa)
#
#
# Indices 1 2 3 4 5 6 
#
# 1 59.6436 32.1761 12.9167 0.0000 -3.5760 0.0000
# 2 32.1761 139.0869 36.5167 0.0000 5.5885 0.0000
# 3 12.9167 36.5167 114.6828 0.0000 1.8311 0.0000
# 4 0.0000 0.0000 0.0000 17.3916 0.0000 6.8219
# 5 -3.5760 5.5885 1.8311 0.0000 20.3509 0.0000
# 6 0.0000 0.0000 0.0000 6.8219 0.0000 22.4289
#
#
#
# Elastic Compliance Matrix: (Units=1/GPa)
#
#
# Indices 1 2 3 4 5 6 
#
# 1 0.019676 -0.004520 -0.000853 0.000000 0.004775 0.000000
# 2 -0.004520 0.008960 -0.002295 0.000000 -0.003048 0.000000
# 3 -0.000853 -0.002295 0.009553 0.000000 -0.000379 0.000000
# 4 0.000000 0.000000 0.000000 0.065288 0.000000 -0.019858
# 5 0.004775 -0.003048 -0.000379 0.000000 0.050848 0.000000
# 6 0.000000 0.000000 0.000000 -0.019858 0.000000 0.050625
#
#
# Mechanical properties :
#
#
# Convention : Reuss Voigt Hill
#
# Bulk Modulus (GPa) = 43.75923 52.95915 48.35919
# Shear Modulus (GPa) = 21.93903 27.48786 24.71345
#
# Velocity S-wave (km/s) = 3.27704 3.66812 3.47808
# Velocity P-wave (km/s) = 5.97817 6.62293 6.30879
#
# Compressibility (1/GPa) = 0.02285232
#
# Stress axis : x y z
#
# Youngs Moduli (GPa) = 50.82457 111.60186 104.68189
#
# Poissons Ratio (x) = 0.50439 0.08932
# Poissons Ratio (y) = 0.22970 0.24029
# Poissons Ratio (z) = 0.04336 0.25617
#
# Static dielectric constant tensor:
#      x y z
#    x 3.925440 0.000000 0.126290 
#    y 0.000000 3.791190 0.000000 
#    z 0.126290 0.000000 4.386480 
# 
# 
# High freq. dielectric constant tensor:
#      x y z
#    x 1.788380 0.000000 -0.007460 
#    y 0.000000 1.784460 0.000000 
#    z -0.007460 0.000000 1.821740 
# 
# From -- ./inp_files/32399.got.cif
#   From: 2010.03.12/outbox.cif.g09.slc.cpg/sg14_17_cif.got.tgz:32399.got - 2010.03.31 13:35:05.
