data_PCOD8127392
_publ_section_title
;
Structure prediction by ZEFSAII (Michael W. Deem and Ramdas Pophale) SiO2 
 PCOD8127392
Probable space group: P 21/C
;
_chemical_formula_sum "Si O2"
_cell_formula_units_Z 28
_cell_length_a 11.809988
_cell_length_b 9.127714
_cell_length_c 15.539979
_cell_angle_alpha 90.000000
_cell_angle_beta 53.361617
_cell_angle_gamma 90.000000
_cell_volume 1344.195707
_symmetry_space_group_name_H-M "P 21/C"
_symmetry_group_IT_number 14
_symmetry_cell_setting 'monoclinic'
loop_
_space_group_symop_operation_xyz
x,y,z
-x,1/2+y,1/2-z
-x,-y,-z
x,1/2-y,1/2+z
loop_
_atom_site_type_symbol
_atom_site_label
_atom_site_fract_x
_atom_site_fract_y
_atom_site_fract_z
Si Si1 0.499803 0.048388 0.150566
Si Si2 0.979078 0.059570 0.414697
Si Si3 0.632392 0.060374 0.392361
Si Si4 0.784730 0.660366 0.914321
Si Si5 0.539463 0.791532 0.660897
Si Si6 0.232943 0.701299 0.551490
Si Si7 0.782029 0.946852 0.821256
O O1 0.434553 0.148012 0.255645
O O2 0.386696 0.052026 0.123053
O O3 0.517369 0.882221 0.174568
O O4 0.653967 0.111425 0.057062
O O5 0.884901 0.209976 0.451682
O O6 0.133247 0.085027 0.304481
O O7 0.918072 0.923706 0.389944
O O8 0.000000 0.000000 0.500000
O O9 0.601705 0.127285 0.312163
O O10 0.682576 0.183994 0.432950
O O11 0.500000 0.000000 0.500000
O O12 0.740761 0.923964 0.345144
O O13 0.821785 0.823985 0.872586
O O14 0.667171 0.661582 0.042152
O O15 0.165178 0.592137 0.652700
#
# Coordination Sequence:
#
# PCOD8127392 Si02
#       7
#     4   4   4   4   4   4   4
#     4  12  25  37  68  99 141 167 226 282 341 385
#     4  11  26  45  69  95 135 177 221 279 341 401
#     4   9  19  36  61  88 128 168 215 260 327 388
#     4  10  22  42  65  91 131 176 223 269 330 407
#     4  11  23  38  60 102 134 172 216 283 337 387
#     4  11  23  43  68  96 128 181 223 274 329 407
#     4  12  23  44  68  97 132 180 229 273 331 404
#
# _framework density 20.830300000000001
#
# number of rings (size 3 to 8) (size 9 to 14) (size 15 to 20)
#    0.000    1.143    2.857    3.857   10.000    0.000 
#    0.000    0.714    0.000    0.000    0.000    0.000 
#    0.000    0.000    0.000    0.000    0.000    0.000 
#
# Total GULP energy -346967.356983 kJ/mol
# GULP energy per Si atom -12391.691321 kJ/mol
# Density = 2.078289 g / cm^3
# Si number density = 20.830300 Si / 1000 Ang^3
#
#
#
# Elastic Constant Matrix: (Units=GPa)
#
#
# Indices 1 2 3 4 5 6 
#
# 1 90.2448 38.2104 23.4242 0.0000 0.4452 0.0000
# 2 38.2104 126.9569 23.2148 0.0000 -3.1361 0.0000
# 3 23.4242 23.2148 95.9949 0.0000 -6.8956 0.0000
# 4 0.0000 0.0000 0.0000 30.6002 0.0000 1.8151
# 5 0.4452 -3.1361 -6.8956 0.0000 24.8188 0.0000
# 6 0.0000 0.0000 0.0000 1.8151 0.0000 21.4328
#
#
#
# Elastic Compliance Matrix: (Units=1/GPa)
#
#
# Indices 1 2 3 4 5 6 
#
# 1 0.013238 -0.003567 -0.002466 0.000000 -0.001373 0.000000
# 2 -0.003567 0.009208 -0.001294 0.000000 0.000868 0.000000
# 3 -0.002466 -0.001294 0.011554 0.000000 0.003091 0.000000
# 4 0.000000 0.000000 0.000000 0.032845 0.000000 -0.002782
# 5 -0.001373 0.000868 0.003091 0.000000 0.041285 0.000000
# 6 0.000000 0.000000 0.000000 -0.002782 0.000000 0.046893
#
#
# Mechanical properties :
#
#
# Convention : Reuss Voigt Hill
#
# Bulk Modulus (GPa) = 51.69198 53.65506 52.67352
# Shear Modulus (GPa) = 28.38855 30.59350 29.49103
#
# Velocity S-wave (km/s) = 3.69568 3.83652 3.76676
# Velocity P-wave (km/s) = 6.56357 6.74087 6.65281
#
# Compressibility (1/GPa) = 0.01934536
#
# Stress axis : x y z
#
# Youngs Moduli (GPa) = 75.53815 108.59624 86.55006
#
# Poissons Ratio (x) = 0.38740 0.21346
# Poissons Ratio (y) = 0.26947 0.11200
# Poissons Ratio (z) = 0.18630 0.14053
#
# Static dielectric constant tensor:
#      x y z
#    x 3.866240 0.000000 -0.021000 
#    y 0.000000 4.209380 0.000000 
#    z -0.021000 0.000000 3.587270 
# 
# 
# High freq. dielectric constant tensor:
#      x y z
#    x 1.809340 0.000000 0.001390 
#    y 0.000000 1.838760 0.000000 
#    z 0.001390 0.000000 1.800280 
# 
# From -- ./inp_files/43618.got.cif
#   From: 2010.03.12/outbox.cif.g09.slc.cpg/sg14_22_cif.got.tgz:43618.got - 2010.03.31 13:35:05.
