data_PCOD8127157
_publ_section_title
;
Structure prediction by ZEFSAII (Michael W. Deem and Ramdas Pophale) SiO2 
 PCOD8127157
Probable space group: P 21/C
;
_chemical_formula_sum "Si O2"
_cell_formula_units_Z 20
_cell_length_a 11.222615
_cell_length_b 9.009247
_cell_length_c 10.099347
_cell_angle_alpha 90.000000
_cell_angle_beta 103.530677
_cell_angle_gamma 90.000000
_cell_volume 992.776475
_symmetry_space_group_name_H-M "P 21/C"
_symmetry_group_IT_number 14
_symmetry_cell_setting 'monoclinic'
loop_
_space_group_symop_operation_xyz
x,y,z
-x,1/2+y,1/2-z
-x,-y,-z
x,1/2-y,1/2+z
loop_
_atom_site_type_symbol
_atom_site_label
_atom_site_fract_x
_atom_site_fract_y
_atom_site_fract_z
Si Si1 0.343986 0.626869 0.529061
Si Si2 0.638369 0.468433 0.989378
Si Si3 0.211083 0.202194 0.332567
Si Si4 0.404927 0.432762 0.307086
Si Si5 0.875121 0.910647 0.963998
O O1 0.318650 0.799382 0.504912
O O2 0.387992 0.574562 0.396338
O O3 0.450911 0.603678 0.665624
O O4 0.229027 0.535027 0.550657
O O5 0.653021 0.536469 0.848632
O O6 0.500000 0.500000 0.000000
O O7 0.744034 0.543106 0.104570
O O8 0.337321 0.290582 0.348225
O O9 0.127352 0.291832 0.416245
O O10 0.136698 0.179229 0.177059
O O11 0.000000 0.000000 0.000000
#
# Coordination Sequence:
#
# PCOD8127157 Si02
#       5
#     4   4   4   4   4
#     4  10  24  39  65  96 137 175 219 278 334 396
#     4  12  23  35  67  99 136 171 218 270 348 400
#     4  11  23  46  70  96 131 179 221 282 328 396
#     4  10  22  40  61 100 136 168 221 279 338 396
#     4  11  26  49  69  95 138 180 229 269 326 396
#
# _framework density 20.145520999999999
#
# number of rings (size 3 to 8) (size 9 to 14) (size 15 to 20)
#    0.000    1.200    4.000    1.200    5.600    1.600 
#    3.600    2.000    0.000    0.000    0.000    0.000 
#    0.000    0.000    0.000    0.000    0.000    0.000 
#
# Total GULP energy -248033.501936 kJ/mol
# GULP energy per Si atom -12401.675097 kJ/mol
# Density = 2.009967 g / cm^3
# Si number density = 20.145521 Si / 1000 Ang^3
#
#
#
# Elastic Constant Matrix: (Units=GPa)
#
#
# Indices 1 2 3 4 5 6 
#
# 1 109.7014 41.6637 40.0877 0.0000 4.9825 0.0000
# 2 41.6637 133.8388 49.0589 0.0000 -5.5630 0.0000
# 3 40.0877 49.0589 124.7174 0.0000 -2.3748 0.0000
# 4 0.0000 0.0000 0.0000 34.0507 0.0000 5.4036
# 5 4.9825 -5.5630 -2.3748 0.0000 21.2446 0.0000
# 6 0.0000 0.0000 0.0000 5.4036 0.0000 27.8853
#
#
#
# Elastic Compliance Matrix: (Units=1/GPa)
#
#
# Indices 1 2 3 4 5 6 
#
# 1 0.011266 -0.002694 -0.002631 0.000000 -0.003642 0.000000
# 2 -0.002694 0.009452 -0.002799 0.000000 0.002794 0.000000
# 3 -0.002631 -0.002799 0.009984 0.000000 0.001000 0.000000
# 4 0.000000 0.000000 0.000000 0.030300 0.000000 -0.005871
# 5 -0.003642 0.002794 0.001000 0.000000 0.048768 0.000000
# 6 0.000000 0.000000 0.000000 -0.005871 0.000000 0.036999
#
#
# Mechanical properties :
#
#
# Convention : Reuss Voigt Hill
#
# Bulk Modulus (GPa) = 69.18395 69.98647 69.58521
# Shear Modulus (GPa) = 29.79128 32.46594 31.12861
#
# Velocity S-wave (km/s) = 3.84969 4.01879 3.93515
# Velocity P-wave (km/s) = 7.36049 7.50667 7.43394
#
# Compressibility (1/GPa) = 0.01445422
#
# Stress axis : x y z
#
# Youngs Moduli (GPa) = 88.76627 105.79259 100.16229
#
# Poissons Ratio (x) = 0.28501 0.26350
# Poissons Ratio (y) = 0.23914 0.28036
# Poissons Ratio (z) = 0.23352 0.29612
#
# Static dielectric constant tensor:
#      x y z
#    x 3.388760 0.000000 -0.105710 
#    y 0.000000 3.780510 0.000000 
#    z -0.105710 0.000000 3.836600 
# 
# 
# High freq. dielectric constant tensor:
#      x y z
#    x 1.762730 0.000000 -0.004540 
#    y 0.000000 1.801190 0.000000 
#    z -0.004540 0.000000 1.799740 
# 
# From -- ./inp_files/11758.got.cif
#   From: 2010.03.12/outbox.cif.g09.slc.cpg/sg14_6_cif.got.tgz:11758.got - 2010.03.31 13:35:05.
