data_PCOD8127918
_publ_section_title
;
Structure prediction by ZEFSAII (Michael W. Deem and Ramdas Pophale) SiO2 
 PCOD8127918
Probable space group: P 21/C
;
_chemical_formula_sum "Si O2"
_cell_formula_units_Z 32
_cell_length_a 8.585506
_cell_length_b 13.738264
_cell_length_c 12.325604
_cell_angle_alpha 90.000000
_cell_angle_beta 74.077255
_cell_angle_gamma 90.000000
_cell_volume 1398.025482
_symmetry_space_group_name_H-M "P 21/C"
_symmetry_group_IT_number 14
_symmetry_cell_setting 'monoclinic'
loop_
_space_group_symop_operation_xyz
x,y,z
-x,1/2+y,1/2-z
-x,-y,-z
x,1/2-y,1/2+z
loop_
_atom_site_type_symbol
_atom_site_label
_atom_site_fract_x
_atom_site_fract_y
_atom_site_fract_z
Si Si1 0.134622 0.131946 0.766823
Si Si2 0.738916 0.437603 0.660064
Si Si3 0.206949 0.642570 0.575703
Si Si4 0.447149 0.558355 0.676524
Si Si5 0.662000 0.739477 0.623199
Si Si6 0.899976 0.630508 0.973867
Si Si7 0.248820 0.936487 0.429860
Si Si8 0.358676 0.839292 0.614935
O O1 0.264118 0.218122 0.770370
O O2 0.145413 0.104431 0.640046
O O3 0.956903 0.167166 0.831049
O O4 0.170214 0.037680 0.832966
O O5 0.823457 0.383376 0.543763
O O6 0.549173 0.458825 0.667119
O O7 0.755048 0.368621 0.762314
O O8 0.301231 0.552252 0.616900
O O9 0.312624 0.738965 0.567151
O O10 0.568421 0.641519 0.608395
O O11 0.370597 0.586050 0.808042
O O12 0.819871 0.765456 0.519623
O O13 0.539178 0.830557 0.632651
O O14 0.822276 0.545818 0.063983
O O15 0.093818 0.636808 0.954955
O O16 0.349079 0.920537 0.522368
#
# Coordination Sequence:
#
# PCOD8127918 Si02
#       8
#     4   4   4   4   4   4   4   4
#     4  11  23  46  66  99 140 183 230 288 349 416
#     4  11  24  43  69  98 135 183 231 281 355 420
#     4  11  24  42  69  98 142 179 231 285 352 415
#     4  10  23  43  67 100 137 180 227 280 346 414
#     4  10  25  39  64 102 133 176 224 282 350 398
#     4  11  23  43  70 101 133 184 235 290 343 417
#     4  11  23  43  72  98 137 178 237 288 344 414
#     4  11  25  41  67 104 131 184 230 293 343 412
#
# _framework density 22.889426
#
# number of rings (size 3 to 8) (size 9 to 14) (size 15 to 20)
#    0.000    1.250    2.500    2.250    7.000    3.000 
#    0.000    2.500    0.000    0.000    0.000    0.000 
#    0.000    0.000    0.000    0.000    0.000    0.000 
#
# Total GULP energy -396635.127802 kJ/mol
# GULP energy per Si atom -12394.847744 kJ/mol
# Density = 2.283733 g / cm^3
# Si number density = 22.889426 Si / 1000 Ang^3
#
#
#
# Elastic Constant Matrix: (Units=GPa)
#
#
# Indices 1 2 3 4 5 6 
#
# 1 95.2134 21.1257 15.3532 0.0000 2.6129 0.0000
# 2 21.1257 53.0572 32.1163 0.0000 -4.3480 0.0000
# 3 15.3532 32.1163 116.2732 0.0000 7.6182 0.0000
# 4 0.0000 0.0000 0.0000 37.5145 0.0000 1.4071
# 5 2.6129 -4.3480 7.6182 0.0000 39.0025 0.0000
# 6 0.0000 0.0000 0.0000 1.4071 0.0000 32.9855
#
#
#
# Elastic Compliance Matrix: (Units=1/GPa)
#
#
# Indices 1 2 3 4 5 6 
#
# 1 0.011589 -0.004612 -0.000174 0.000000 -0.001256 0.000000
# 2 -0.004612 0.025034 -0.006593 0.000000 0.004388 0.000000
# 3 -0.000174 -0.006593 0.010628 0.000000 -0.002799 0.000000
# 4 0.000000 0.000000 0.000000 0.026699 0.000000 -0.001139
# 5 -0.001256 0.004388 -0.002799 0.000000 0.026759 0.000000
# 6 0.000000 0.000000 0.000000 -0.001139 0.000000 0.030365
#
#
# Mechanical properties :
#
#
# Convention : Reuss Voigt Hill
#
# Bulk Modulus (GPa) = 40.82872 44.63713 42.73293
# Shear Modulus (GPa) = 30.86475 34.96375 32.91425
#
# Velocity S-wave (km/s) = 3.67608 3.91257 3.79617
# Velocity P-wave (km/s) = 5.99117 6.32096 6.15827
#
# Compressibility (1/GPa) = 0.02449256
#
# Stress axis : x y z
#
# Youngs Moduli (GPa) = 86.29232 39.94491 94.09095
#
# Poissons Ratio (x) = 0.18422 0.01637
# Poissons Ratio (y) = 0.39796 0.62038
# Poissons Ratio (z) = 0.01502 0.26337
#
# Static dielectric constant tensor:
#      x y z
#    x 4.556130 0.000000 0.150630 
#    y 0.000000 3.867310 0.000000 
#    z 0.150630 0.000000 3.915350 
# 
# 
# High freq. dielectric constant tensor:
#      x y z
#    x 1.919720 0.000000 0.005730 
#    y 0.000000 1.886190 0.000000 
#    z 0.005730 0.000000 1.892080 
# 
# From -- ./inp_files/25483.got.cif
#   From: 2010.03.12/outbox.cif.g09.slc.cpg/sg14_13_cif.got.tgz:25483.got - 2010.03.31 13:35:05.
