data_PCOD8127666
_publ_section_title
;
Structure prediction by ZEFSAII (Michael W. Deem and Ramdas Pophale) SiO2 
 PCOD8127666
Probable space group: P 21/C
;
_chemical_formula_sum "Si O2"
_cell_formula_units_Z 28
_cell_length_a 22.526223
_cell_length_b 9.181824
_cell_length_c 10.766477
_cell_angle_alpha 90.000000
_cell_angle_beta 149.042386
_cell_angle_gamma 90.000000
_cell_volume 1145.500142
_symmetry_space_group_name_H-M "P 21/C"
_symmetry_group_IT_number 14
_symmetry_cell_setting 'monoclinic'
loop_
_space_group_symop_operation_xyz
x,y,z
-x,1/2+y,1/2-z
-x,-y,-z
x,1/2-y,1/2+z
loop_
_atom_site_type_symbol
_atom_site_label
_atom_site_fract_x
_atom_site_fract_y
_atom_site_fract_z
Si Si1 0.081891 0.689101 0.404057
Si Si2 0.345131 0.315887 0.869852
Si Si3 0.751433 0.464743 0.141563
Si Si4 0.734032 0.053990 0.955439
Si Si5 0.081068 0.999590 0.526218
Si Si6 0.630956 0.501743 0.681577
Si Si7 0.598759 0.209739 0.905321
O O1 0.124777 0.609317 0.608316
O O2 0.176947 0.642584 0.471401
O O3 0.070754 0.857650 0.419040
O O4 0.956648 0.632824 0.132219
O O5 0.252781 0.373181 0.806331
O O6 0.337554 0.426469 0.740032
O O7 0.322562 0.156022 0.781141
O O8 0.463114 0.308065 0.158580
O O9 0.729059 0.462270 0.956177
O O10 0.645253 0.372759 0.016769
O O11 0.793061 0.984898 0.186306
O O12 0.643501 0.169789 0.847354
O O13 0.000000 0.000000 0.500000
O O14 0.500000 0.500000 0.500000
O O15 0.648410 0.389261 0.603116
#
# Coordination Sequence:
#
# PCOD8127666 Si02
#       7
#     4   4   4   4   4   4   4
#     4  10  23  46  74 101 139 178 232 299 363 422
#     4  11  24  42  65  98 144 186 237 286 341 419
#     4  11  25  44  68 102 140 186 239 285 357 420
#     4  10  24  42  70 101 139 183 233 287 352 422
#     4  10  22  46  73 103 138 178 235 297 364 431
#     4  12  26  41  64  97 144 187 239 289 341 407
#     4  12  23  41  70  97 140 192 235 283 348 421
#
# _framework density 24.443469
#
# number of rings (size 3 to 8) (size 9 to 14) (size 15 to 20)
#    0.000    1.143    4.286    0.429    6.000    2.286 
#    5.143    2.857    0.000    0.000    0.000    0.000 
#    0.000    0.000    0.000    0.000    0.000    0.000 
#
# Total GULP energy -346925.921105 kJ/mol
# GULP energy per Si atom -12390.211468 kJ/mol
# Density = 2.438783 g / cm^3
# Si number density = 24.443469 Si / 1000 Ang^3
#
#
#
# Elastic Constant Matrix: (Units=GPa)
#
#
# Indices 1 2 3 4 5 6 
#
# 1 61.1930 24.3946 -1.9823 0.0000 -20.5744 0.0000
# 2 24.3946 107.8635 12.4075 0.0000 -23.8953 0.0000
# 3 -1.9823 12.4075 108.2024 0.0000 -34.4559 0.0000
# 4 0.0000 0.0000 0.0000 39.4088 0.0000 -6.9787
# 5 -20.5744 -23.8953 -34.4559 0.0000 37.8857 0.0000
# 6 0.0000 0.0000 0.0000 -6.9787 0.0000 36.5342
#
#
#
# Elastic Compliance Matrix: (Units=1/GPa)
#
#
# Indices 1 2 3 4 5 6 
#
# 1 0.022945 -0.002230 0.005907 0.000000 0.016426 0.000000
# 2 -0.002230 0.011126 0.000749 0.000000 0.006488 0.000000
# 3 0.005907 0.000749 0.014691 0.000000 0.017041 0.000000
# 4 0.000000 0.000000 0.000000 0.026263 0.000000 0.005017
# 5 0.016426 0.006488 0.017041 0.000000 0.054906 0.000000
# 6 0.000000 0.000000 0.000000 0.005017 0.000000 0.028330
#
#
# Mechanical properties :
#
#
# Convention : Reuss Voigt Hill
#
# Bulk Modulus (GPa) = 17.35661 38.54428 27.95044
# Shear Modulus (GPa) = 29.65352 38.92834 34.29093
#
# Velocity S-wave (km/s) = 3.48680 3.99505 3.74955
# Velocity P-wave (km/s) = 4.82976 6.08963 5.49591
#
# Compressibility (1/GPa) = 0.05761495
#
# Stress axis : x y z
#
# Youngs Moduli (GPa) = 43.58287 89.87602 68.06967
#
# Poissons Ratio (x) = 0.20040 -0.40207
# Poissons Ratio (y) = 0.09718 -0.05101
# Poissons Ratio (z) = -0.25743 -0.06736
#
# Static dielectric constant tensor:
#      x y z
#    x 4.193280 0.000000 -0.340860 
#    y 0.000000 4.589340 0.000000 
#    z -0.340860 0.000000 5.013860 
# 
# 
# High freq. dielectric constant tensor:
#      x y z
#    x 1.950560 0.000000 -0.028810 
#    y 0.000000 1.972800 0.000000 
#    z -0.028810 0.000000 1.990530 
# 
# From -- ./inp_files/36180.got.cif
#   From: 2010.03.12/outbox.cif.g09.slc.cpg/sg14_19_cif.got.tgz:36180.got - 2010.03.31 13:35:05.
