data_PCOD8127804
_publ_section_title
;
Structure prediction by ZEFSAII (Michael W. Deem and Ramdas Pophale) SiO2 
 PCOD8127804
Probable space group: P 21/C
;
_chemical_formula_sum "Si O2"
_cell_formula_units_Z 20
_cell_length_a 11.578882
_cell_length_b 8.110914
_cell_length_c 15.580970
_cell_angle_alpha 90.000000
_cell_angle_beta 37.419667
_cell_angle_gamma 90.000000
_cell_volume 889.167006
_symmetry_space_group_name_H-M "P 21/C"
_symmetry_group_IT_number 14
_symmetry_cell_setting 'monoclinic'
loop_
_space_group_symop_operation_xyz
x,y,z
-x,1/2+y,1/2-z
-x,-y,-z
x,1/2-y,1/2+z
loop_
_atom_site_type_symbol
_atom_site_label
_atom_site_fract_x
_atom_site_fract_y
_atom_site_fract_z
Si Si1 0.165565 0.828207 0.730471
Si Si2 0.461921 0.689086 0.661438
Si Si3 0.064355 0.630235 0.630138
Si Si4 0.461280 0.679291 0.341240
Si Si5 0.647825 0.659978 0.886825
O O1 0.243937 0.746991 0.771906
O O2 0.141744 0.679271 0.678435
O O3 0.334495 0.961076 0.601887
O O4 0.969750 0.930874 0.856491
O O5 0.458348 0.494415 0.675682
O O6 0.543507 0.773962 0.699444
O O7 0.590548 0.733814 0.503461
O O8 0.230921 0.677878 0.466088
O O9 0.862610 0.719449 0.732289
O O10 0.519067 0.812234 0.378815
#
# Coordination Sequence:
#
# PCOD8127804 Si02
#       5
#     4   4   4   4   4
#     4  10  23  41  72  98 134 182 224 279 334 408
#     4  12  25  43  72  99 142 180 230 277 345 404
#     4  10  24  42  70  99 139 173 234 271 345 397
#     4  12  26  45  69 104 138 184 223 287 341 405
#     4  10  24  46  69  99 135 182 226 279 338 406
#
# _framework density 22.492964000000001
#
# number of rings (size 3 to 8) (size 9 to 14) (size 15 to 20)
#    1.200    0.000    2.000    3.600    5.600    0.800 
#    3.600    1.000    0.000    0.000    0.000    0.000 
#    0.000    0.000    0.000    0.000    0.000    0.000 
#
# Total GULP energy -247815.488254 kJ/mol
# GULP energy per Si atom -12390.774413 kJ/mol
# Density = 2.244177 g / cm^3
# Si number density = 22.492964 Si / 1000 Ang^3
#
#
#
# Elastic Constant Matrix: (Units=GPa)
#
#
# Indices 1 2 3 4 5 6 
#
# 1 120.4729 53.5517 51.8413 0.0000 4.3586 0.0000
# 2 53.5517 92.9050 15.5975 0.0000 0.3933 0.0000
# 3 51.8413 15.5975 77.1335 0.0000 8.4629 0.0000
# 4 0.0000 0.0000 0.0000 26.3466 0.0000 1.0128
# 5 4.3586 0.3933 8.4629 0.0000 37.6213 0.0000
# 6 0.0000 0.0000 0.0000 1.0128 0.0000 42.2353
#
#
#
# Elastic Compliance Matrix: (Units=1/GPa)
#
#
# Indices 1 2 3 4 5 6 
#
# 1 0.015396 -0.007384 -0.008887 0.000000 0.000293 0.000000
# 2 -0.007384 0.014689 0.001964 0.000000 0.000260 0.000000
# 3 -0.008887 0.001964 0.018896 0.000000 -0.003242 0.000000
# 4 0.000000 0.000000 0.000000 0.037991 0.000000 -0.000911
# 5 0.000293 0.000260 -0.003242 0.000000 0.027273 0.000000
# 6 0.000000 0.000000 0.000000 -0.000911 0.000000 0.023699
#
#
# Mechanical properties :
#
#
# Convention : Reuss Voigt Hill
#
# Bulk Modulus (GPa) = 49.09779 59.16582 54.13181
# Shear Modulus (GPa) = 28.84383 32.54203 30.69293
#
# Velocity S-wave (km/s) = 3.58487 3.80776 3.69800
# Velocity P-wave (km/s) = 6.24584 6.75968 6.50784
#
# Compressibility (1/GPa) = 0.02036752
#
# Stress axis : x y z
#
# Youngs Moduli (GPa) = 64.94986 68.07763 52.92138
#
# Poissons Ratio (x) = 0.50269 0.47031
# Poissons Ratio (y) = 0.47959 -0.10393
# Poissons Ratio (z) = 0.57720 -0.13370
#
# Static dielectric constant tensor:
#      x y z
#    x 4.158890 0.000000 -0.325890 
#    y 0.000000 3.954020 0.000000 
#    z -0.325890 0.000000 3.973660 
# 
# 
# High freq. dielectric constant tensor:
#      x y z
#    x 1.896760 0.000000 -0.014940 
#    y 0.000000 1.885360 0.000000 
#    z -0.014940 0.000000 1.867120 
# 
# From -- ./inp_files/42719.got.cif
#   From: 2010.03.12/outbox.cif.g09.slc.cpg/sg14_22_cif.got.tgz:42719.got - 2010.03.31 13:35:05.
