data_PCOD8127981
_publ_section_title
;
Structure prediction by ZEFSAII (Michael W. Deem and Ramdas Pophale) SiO2 
 PCOD8127981
Probable space group: P 21/C
;
_chemical_formula_sum "Si O2"
_cell_formula_units_Z 32
_cell_length_a 13.120381
_cell_length_b 16.458509
_cell_length_c 11.956792
_cell_angle_alpha 90.000000
_cell_angle_beta 143.684348
_cell_angle_gamma 90.000000
_cell_volume 1529.130137
_symmetry_space_group_name_H-M "P 21/C"
_symmetry_group_IT_number 14
_symmetry_cell_setting 'monoclinic'
loop_
_space_group_symop_operation_xyz
x,y,z
-x,1/2+y,1/2-z
-x,-y,-z
x,1/2-y,1/2+z
loop_
_atom_site_type_symbol
_atom_site_label
_atom_site_fract_x
_atom_site_fract_y
_atom_site_fract_z
Si Si1 0.754174 0.516944 0.444530
Si Si2 0.687927 0.335628 0.419737
Si Si3 0.694589 0.611212 0.921134
Si Si4 0.218511 0.821946 0.610352
Si Si5 0.027526 0.788139 0.651624
Si Si6 0.694456 0.980313 0.647896
Si Si7 0.074894 0.888477 0.256211
Si Si8 0.562037 0.468839 0.673383
O O1 0.763124 0.419879 0.439955
O O2 0.764641 0.554380 0.328139
O O3 0.587526 0.542248 0.367275
O O4 0.920607 0.551086 0.654691
O O5 0.485027 0.344043 0.268726
O O6 0.704755 0.267962 0.338528
O O7 0.800966 0.311252 0.627270
O O8 0.704049 0.530367 0.851981
O O9 0.706635 0.587363 0.062383
O O10 0.854282 0.670167 0.041704
O O11 0.056981 0.816926 0.550857
O O12 0.164782 0.861661 0.447961
O O13 0.363167 0.880687 0.788685
O O14 0.001814 0.691178 0.629480
O O15 0.500000 0.000000 0.500000
O O16 0.790080 0.063621 0.700760
O O17 0.500000 0.500000 0.500000
#
# Coordination Sequence:
#
# PCOD8127981 Si02
#       8
#     4   4   4   4   4   4   4   4
#     4  11  23  42  69  98 129 174 229 284 338 403
#     4  10  23  44  66  97 137 169 227 286 340 397
#     4  11  24  44  69  99 133 181 228 280 350 403
#     4  11  23  44  67  94 141 178 220 283 348 407
#     4  11  26  43  65 101 140 181 218 287 344 408
#     4  12  21  43  68  97 129 174 230 282 340 404
#     4  11  25  42  66 102 133 174 234 284 339 412
#     4  11  24  42  68 101 134 180 233 276 341 420
#
# _framework density 20.926929999999999
#
# number of rings (size 3 to 8) (size 9 to 14) (size 15 to 20)
#    0.000    1.000    3.750    3.375    3.500    2.500 
#    0.000    1.250    0.000    0.000    0.000    0.000 
#    0.000    0.000    0.000    0.000    0.000    0.000 
#
# Total GULP energy -396781.118352 kJ/mol
# GULP energy per Si atom -12399.409948 kJ/mol
# Density = 2.087930 g / cm^3
# Si number density = 20.926930 Si / 1000 Ang^3
#
#
#
# Elastic Constant Matrix: (Units=GPa)
#
#
# Indices 1 2 3 4 5 6 
#
# 1 133.4033 58.4671 34.3284 0.0000 9.8390 0.0000
# 2 58.4671 123.2494 43.0625 0.0000 32.3603 0.0000
# 3 34.3284 43.0625 63.5265 0.0000 15.6072 0.0000
# 4 0.0000 0.0000 0.0000 33.7309 0.0000 1.7463
# 5 9.8390 32.3603 15.6072 0.0000 39.4680 0.0000
# 6 0.0000 0.0000 0.0000 1.7463 0.0000 33.7709
#
#
#
# Elastic Compliance Matrix: (Units=1/GPa)
#
#
# Indices 1 2 3 4 5 6 
#
# 1 0.009981 -0.004244 -0.003057 0.000000 0.002201 0.000000
# 2 -0.004244 0.014190 -0.005235 0.000000 -0.008506 0.000000
# 3 -0.003057 -0.005235 0.021820 0.000000 -0.003574 0.000000
# 4 0.000000 0.000000 0.000000 0.029726 0.000000 -0.001537
# 5 0.002201 -0.008506 -0.003574 0.000000 0.033176 0.000000
# 6 0.000000 0.000000 0.000000 -0.001537 0.000000 0.029691
#
#
# Mechanical properties :
#
#
# Convention : Reuss Voigt Hill
#
# Bulk Modulus (GPa) = 47.80746 65.76614 56.78680
# Shear Modulus (GPa) = 29.30345 33.68204 31.49275
#
# Velocity S-wave (km/s) = 3.74608 4.01622 3.88350
# Velocity P-wave (km/s) = 6.45022 7.28021 6.87775
#
# Compressibility (1/GPa) = 0.02091724
#
# Stress axis : x y z
#
# Youngs Moduli (GPa) = 100.19474 70.47433 45.82903
#
# Poissons Ratio (x) = 0.29912 0.14009
# Poissons Ratio (y) = 0.42526 0.23993
# Poissons Ratio (z) = 0.30628 0.36896
#
# Static dielectric constant tensor:
#      x y z
#    x 3.747800 0.000000 -0.044500 
#    y 0.000000 4.085470 0.000000 
#    z -0.044500 0.000000 3.784370 
# 
# 
# High freq. dielectric constant tensor:
#      x y z
#    x 1.824130 0.000000 -0.004390 
#    y 0.000000 1.824580 0.000000 
#    z -0.004390 0.000000 1.823770 
# 
# From -- ./inp_files/30459.got.cif
#   From: 2010.03.12/outbox.cif.g09.slc.cpg/sg14_16_cif.got.tgz:30459.got - 2010.03.31 13:35:05.
