data_PCOD8127314
_publ_section_title
;
Structure prediction by ZEFSAII (Michael W. Deem and Ramdas Pophale) SiO2 
 PCOD8127314
Probable space group: P 21/C
;
_chemical_formula_sum "Si O2"
_cell_formula_units_Z 20
_cell_length_a 9.868075
_cell_length_b 13.242852
_cell_length_c 10.591239
_cell_angle_alpha 90.000000
_cell_angle_beta 143.328309
_cell_angle_gamma 90.000000
_cell_volume 826.611744
_symmetry_space_group_name_H-M "P 21/C"
_symmetry_group_IT_number 14
_symmetry_cell_setting 'monoclinic'
loop_
_space_group_symop_operation_xyz
x,y,z
-x,1/2+y,1/2-z
-x,-y,-z
x,1/2-y,1/2+z
loop_
_atom_site_type_symbol
_atom_site_label
_atom_site_fract_x
_atom_site_fract_y
_atom_site_fract_z
Si Si1 0.935958 0.267146 0.681049
Si Si2 0.939898 0.838916 0.475165
Si Si3 0.638816 0.482035 0.727413
Si Si4 0.430250 0.885777 0.577664
Si Si5 0.128960 0.043377 0.215587
O O1 0.673669 0.227716 0.488382
O O2 0.050280 0.253580 0.906152
O O3 0.073630 0.208590 0.674643
O O4 0.950516 0.386808 0.658776
O O5 0.161857 0.905988 0.657561
O O6 0.723059 0.908626 0.337349
O O7 0.500000 0.500000 0.500000
O O8 0.491804 0.431631 0.729496
O O9 0.650552 0.887641 0.654253
O O10 0.216699 0.951330 0.366644
O O11 0.000000 0.000000 0.000000
#
# Coordination Sequence:
#
# PCOD8127314 Si02
#       5
#     4   4   4   4   4
#     4  11  23  45  71 103 145 186 243 306 365 437
#     4  10  23  42  66 100 140 182 237 298 356 430
#     4  10  22  41  67  94 137 187 236 288 357 425
#     4  10  24  45  70 108 140 189 250 293 369 445
#     4  11  24  45  73 103 148 194 238 307 372 435
#
# _framework density 24.195156000000001
#
# number of rings (size 3 to 8) (size 9 to 14) (size 15 to 20)
#    0.000    1.600    2.000    1.200    2.800    3.200 
#    0.000   10.000    0.000    0.000    0.000    0.000 
#    0.000    0.000    0.000    0.000    0.000    0.000 
#
# Total GULP energy -247935.894797 kJ/mol
# GULP energy per Si atom -12396.794740 kJ/mol
# Density = 2.414009 g / cm^3
# Si number density = 24.195156 Si / 1000 Ang^3
#
#
#
# Elastic Constant Matrix: (Units=GPa)
#
#
# Indices 1 2 3 4 5 6 
#
# 1 96.4278 34.3985 30.8955 0.0000 -28.0494 0.0000
# 2 34.3985 86.8766 42.5708 0.0000 1.4091 0.0000
# 3 30.8955 42.5708 103.7833 0.0000 -31.0030 0.0000
# 4 0.0000 0.0000 0.0000 45.4572 0.0000 -3.3593
# 5 -28.0494 1.4091 -31.0030 0.0000 42.5980 0.0000
# 6 0.0000 0.0000 0.0000 -3.3593 0.0000 44.6508
#
#
#
# Elastic Compliance Matrix: (Units=1/GPa)
#
#
# Indices 1 2 3 4 5 6 
#
# 1 0.015949 -0.007468 0.001951 0.000000 0.012169 0.000000
# 2 -0.007468 0.019263 -0.009376 0.000000 -0.012379 0.000000
# 3 0.001951 -0.009376 0.017093 0.000000 0.014035 0.000000
# 4 0.000000 0.000000 0.000000 0.022122 0.000000 0.001664
# 5 0.012169 -0.012379 0.014035 0.000000 0.042112 0.000000
# 6 0.000000 0.000000 0.000000 0.001664 0.000000 0.022521
#
#
# Mechanical properties :
#
#
# Convention : Reuss Voigt Hill
#
# Bulk Modulus (GPa) = 44.40860 55.86860 50.13860
# Shear Modulus (GPa) = 28.35199 38.48938 33.42069
#
# Velocity S-wave (km/s) = 3.42688 3.99280 3.72061
# Velocity P-wave (km/s) = 5.83542 6.66315 6.26297
#
# Compressibility (1/GPa) = 0.02251816
#
# Stress axis : x y z
#
# Youngs Moduli (GPa) = 62.69846 51.91361 58.50194
#
# Poissons Ratio (x) = 0.38771 -0.11411
# Poissons Ratio (y) = 0.46825 0.54851
# Poissons Ratio (z) = -0.12230 0.48674
#
# Static dielectric constant tensor:
#      x y z
#    x 4.577830 0.000000 -0.177070 
#    y 0.000000 4.716690 0.000000 
#    z -0.177070 0.000000 4.246910 
# 
# 
# High freq. dielectric constant tensor:
#      x y z
#    x 1.966540 0.000000 -0.021340 
#    y 0.000000 1.959730 0.000000 
#    z -0.021340 0.000000 1.951470 
# 
# From -- ./inp_files/29921.got.cif
#   From: 2010.03.12/outbox.cif.g09.slc.cpg/sg14_15_cif.got.tgz:29921.got - 2010.03.31 13:35:05.
