data_PCOD8127673
_publ_section_title
;
Structure prediction by ZEFSAII (Michael W. Deem and Ramdas Pophale) SiO2 
 PCOD8127673
Probable space group: P 21/C
;
_chemical_formula_sum "Si O2"
_cell_formula_units_Z 16
_cell_length_a 10.873584
_cell_length_b 11.407469
_cell_length_c 10.594460
_cell_angle_alpha 90.000000
_cell_angle_beta 30.784356
_cell_angle_gamma 90.000000
_cell_volume 672.586545
_symmetry_space_group_name_H-M "P 21/C"
_symmetry_group_IT_number 14
_symmetry_cell_setting 'monoclinic'
loop_
_space_group_symop_operation_xyz
x,y,z
-x,1/2+y,1/2-z
-x,-y,-z
x,1/2-y,1/2+z
loop_
_atom_site_type_symbol
_atom_site_label
_atom_site_fract_x
_atom_site_fract_y
_atom_site_fract_z
Si Si1 0.268905 0.528544 0.624253
Si Si2 0.463569 0.951385 0.336947
Si Si3 0.167435 0.408460 0.285589
Si Si4 0.102313 0.668680 0.984510
O O1 0.500000 0.500000 0.500000
O O2 0.349859 0.534937 0.406303
O O3 0.084008 0.423960 0.799230
O O4 0.155606 0.646828 0.787150
O O5 0.603711 0.883186 0.325333
O O6 0.344906 0.850880 0.353432
O O7 0.261875 0.039141 0.570210
O O8 0.000000 0.500000 0.500000
O O9 0.009471 0.295218 0.395523
#
# Coordination Sequence:
#
# PCOD8127673 Si02
#       4
#     4   4   4   4
#     4   9  20  44  69 103 130 181 230 281 347 413
#     4  10  23  45  70 105 139 186 228 287 348 417
#     4  11  25  48  66 108 143 179 234 285 352 410
#     4  10  22  47  71 101 139 180 233 289 345 419
#
# _framework density 23.788761000000001
#
# number of rings (size 3 to 8) (size 9 to 14) (size 15 to 20)
#    0.000    2.000    0.000    1.500    0.000    8.000 
#   58.500    0.000    0.000    0.000    0.000    0.000 
#    0.000    0.000    0.000    0.000    0.000    0.000 
#
# Total GULP energy -198317.013641 kJ/mol
# GULP energy per Si atom -12394.813353 kJ/mol
# Density = 2.373462 g / cm^3
# Si number density = 23.788761 Si / 1000 Ang^3
#
#
#
# Elastic Constant Matrix: (Units=GPa)
#
#
# Indices 1 2 3 4 5 6 
#
# 1 108.8422 50.9045 27.7863 0.0000 7.8577 0.0000
# 2 50.9045 116.5304 47.1146 0.0000 2.9773 0.0000
# 3 27.7863 47.1146 151.5590 0.0000 36.3900 0.0000
# 4 0.0000 0.0000 0.0000 26.9467 0.0000 -10.0532
# 5 7.8577 2.9773 36.3900 0.0000 50.6754 0.0000
# 6 0.0000 0.0000 0.0000 -10.0532 0.0000 25.3384
#
#
#
# Elastic Compliance Matrix: (Units=1/GPa)
#
#
# Indices 1 2 3 4 5 6 
#
# 1 0.011670 -0.004949 -0.000286 0.000000 -0.001314 0.000000
# 2 -0.004949 0.012076 -0.003457 0.000000 0.002540 0.000000
# 3 -0.000286 -0.003457 0.009263 0.000000 -0.006404 0.000000
# 4 0.000000 0.000000 0.000000 0.043558 0.000000 0.017282
# 5 -0.001314 0.002540 -0.006404 0.000000 0.024387 0.000000
# 6 0.000000 0.000000 0.000000 0.017282 0.000000 0.046323
#
#
# Mechanical properties :
#
#
# Convention : Reuss Voigt Hill
#
# Bulk Modulus (GPa) = 63.99440 69.83804 66.91622
# Shear Modulus (GPa) = 29.43493 37.33385 33.38439
#
# Velocity S-wave (km/s) = 3.52141 3.96585 3.75022
# Velocity P-wave (km/s) = 6.59494 7.09873 6.85147
#
# Compressibility (1/GPa) = 0.01562637
#
# Stress axis : x y z
#
# Youngs Moduli (GPa) = 85.69088 82.80993 107.96031
#
# Poissons Ratio (x) = 0.40980 0.03085
# Poissons Ratio (y) = 0.42406 0.37317
# Poissons Ratio (z) = 0.02448 0.28624
#
# Static dielectric constant tensor:
#      x y z
#    x 4.946330 0.000000 0.512320 
#    y 0.000000 3.719290 0.000000 
#    z 0.512320 0.000000 4.956990 
# 
# 
# High freq. dielectric constant tensor:
#      x y z
#    x 1.958400 0.000000 -0.005600 
#    y 0.000000 1.902260 0.000000 
#    z -0.005600 0.000000 1.973080 
# 
# From -- ./inp_files/20257.got.cif
#   From: 2010.03.12/outbox.cif.g09.slc.cpg/sg14_11_cif.got.tgz:20257.got - 2010.03.31 13:35:05.
