data_PCOD8127380
_publ_section_title
;
Structure prediction by ZEFSAII (Michael W. Deem and Ramdas Pophale) SiO2 
 PCOD8127380
Probable space group: P 21/C
;
_chemical_formula_sum "Si O2"
_cell_formula_units_Z 24
_cell_length_a 9.672498
_cell_length_b 8.288807
_cell_length_c 14.375164
_cell_angle_alpha 90.000000
_cell_angle_beta 98.192678
_cell_angle_gamma 90.000000
_cell_volume 1140.744802
_symmetry_space_group_name_H-M "P 21/C"
_symmetry_group_IT_number 14
_symmetry_cell_setting 'monoclinic'
loop_
_space_group_symop_operation_xyz
x,y,z
-x,1/2+y,1/2-z
-x,-y,-z
x,1/2-y,1/2+z
loop_
_atom_site_type_symbol
_atom_site_label
_atom_site_fract_x
_atom_site_fract_y
_atom_site_fract_z
Si Si1 0.410777 0.010464 0.272520
Si Si2 0.646872 0.069969 0.538044
Si Si3 0.142570 0.318618 0.695917
Si Si4 0.109741 0.357875 0.003771
Si Si5 0.343423 0.768297 0.644869
Si Si6 0.043738 0.822713 0.161368
O O1 0.299029 0.155310 0.250358
O O2 0.563394 0.083909 0.307321
O O3 0.357792 0.890689 0.351723
O O4 0.415539 0.901718 0.179593
O O5 0.673601 0.220318 0.470029
O O6 0.500000 0.000000 0.500000
O O7 0.756741 0.926878 0.535976
O O8 0.155670 0.205619 0.607980
O O9 0.073757 0.488571 0.664215
O O10 0.042749 0.226284 0.756904
O O11 0.000000 0.500000 0.000000
O O12 0.046318 0.211305 0.938970
O O13 0.188726 0.778583 0.673772
#
# Coordination Sequence:
#
# PCOD8127380 Si02
#       6
#     4   4   4   4   4   4
#     4  10  23  43  66  94 129 172 220 266 328 386
#     4  10  22  42  64  91 128 170 217 260 328 379
#     4  11  25  40  66  96 129 170 220 267 329 391
#     4  12  23  41  67  89 131 175 211 271 331 382
#     4  10  23  39  67  91 130 171 214 272 317 390
#     4  11  23  42  61  98 125 170 218 273 327 392
#
# _framework density 21.038886000000002
#
# number of rings (size 3 to 8) (size 9 to 14) (size 15 to 20)
#    0.000    1.333    3.333    1.500    7.000    0.000 
#    0.000    0.833    0.000    0.000    0.000    0.000 
#    0.000    0.000    0.000    0.000    0.000    0.000 
#
# Total GULP energy -297501.491837 kJ/mol
# GULP energy per Si atom -12395.895493 kJ/mol
# Density = 2.099100 g / cm^3
# Si number density = 21.038886 Si / 1000 Ang^3
#
#
#
# Elastic Constant Matrix: (Units=GPa)
#
#
# Indices 1 2 3 4 5 6 
#
# 1 77.8436 10.4437 7.7841 0.0000 5.9193 0.0000
# 2 10.4437 59.7198 18.8464 0.0000 -1.9076 0.0000
# 3 7.7841 18.8464 91.2389 0.0000 3.2850 0.0000
# 4 0.0000 0.0000 0.0000 48.5308 0.0000 6.9060
# 5 5.9193 -1.9076 3.2850 0.0000 29.9034 0.0000
# 6 0.0000 0.0000 0.0000 6.9060 0.0000 19.5642
#
#
#
# Elastic Compliance Matrix: (Units=1/GPa)
#
#
# Indices 1 2 3 4 5 6 
#
# 1 0.013414 -0.002250 -0.000581 0.000000 -0.002735 0.000000
# 2 -0.002250 0.018362 -0.003674 0.000000 0.002020 0.000000
# 3 -0.000581 -0.003674 0.011820 0.000000 -0.001418 0.000000
# 4 0.000000 0.000000 0.000000 0.021695 0.000000 -0.007658
# 5 -0.002735 0.002020 -0.001418 0.000000 0.034267 0.000000
# 6 0.000000 0.000000 0.000000 -0.007658 0.000000 0.053817
#
#
# Mechanical properties :
#
#
# Convention : Reuss Voigt Hill
#
# Bulk Modulus (GPa) = 32.69403 33.66118 33.17760
# Shear Modulus (GPa) = 28.31574 32.38157 30.34865
#
# Velocity S-wave (km/s) = 3.67260 3.92743 3.80215
# Velocity P-wave (km/s) = 5.79289 6.04984 5.92275
#
# Compressibility (1/GPa) = 0.03058663
#
# Stress axis : x y z
#
# Youngs Moduli (GPa) = 74.54781 54.45979 84.60441
#
# Poissons Ratio (x) = 0.12252 0.04918
# Poissons Ratio (y) = 0.16772 0.31081
# Poissons Ratio (z) = 0.04333 0.20007
#
# Static dielectric constant tensor:
#      x y z
#    x 4.096990 0.000000 -0.106740 
#    y 0.000000 3.600950 0.000000 
#    z -0.106740 0.000000 4.809360 
# 
# 
# High freq. dielectric constant tensor:
#      x y z
#    x 1.843500 0.000000 0.008040 
#    y 0.000000 1.800460 0.000000 
#    z 0.008040 0.000000 1.835190 
# 
# From -- ./inp_files/38927.got.cif
#   From: 2010.03.12/outbox.cif.g09.slc.cpg/sg14_20_cif.got.tgz:38927.got - 2010.03.31 13:35:05.
