data_PCOD8127349
_publ_section_title
;
Structure prediction by ZEFSAII (Michael W. Deem and Ramdas Pophale) SiO2 
 PCOD8127349
Probable space group: P 21/C
;
_chemical_formula_sum "Si O2"
_cell_formula_units_Z 24
_cell_length_a 13.225240
_cell_length_b 14.503021
_cell_length_c 11.298921
_cell_angle_alpha 90.000000
_cell_angle_beta 150.113337
_cell_angle_gamma 90.000000
_cell_volume 1079.885322
_symmetry_space_group_name_H-M "P 21/C"
_symmetry_group_IT_number 14
_symmetry_cell_setting 'monoclinic'
loop_
_space_group_symop_operation_xyz
x,y,z
-x,1/2+y,1/2-z
-x,-y,-z
x,1/2-y,1/2+z
loop_
_atom_site_type_symbol
_atom_site_label
_atom_site_fract_x
_atom_site_fract_y
_atom_site_fract_z
Si Si1 0.813370 0.003058 0.157508
Si Si2 0.916822 0.070194 0.012724
Si Si3 0.889242 0.135469 0.430672
Si Si4 0.780935 0.781365 0.692843
Si Si5 0.491957 0.641491 0.301061
Si Si6 0.540488 0.395125 0.001035
O O1 0.806444 0.100569 0.219226
O O2 0.819662 0.015280 0.022808
O O3 0.015860 0.949906 0.401496
O O4 0.609343 0.945404 0.978717
O O5 0.745824 0.134334 0.777371
O O6 0.095483 0.135696 0.244109
O O7 0.000000 0.000000 0.000000
O O8 0.699435 0.170771 0.314405
O O9 0.057409 0.213843 0.579991
O O10 0.647437 0.728483 0.458989
O O11 0.641113 0.826006 0.652048
O O12 0.418718 0.615162 0.096420
O O13 0.500000 0.500000 0.000000
#
# Coordination Sequence:
#
# PCOD8127349 Si02
#       6
#     4   4   4   4   4   4
#     4  10  22  41  72  98 135 182 227 283 346 421
#     4  12  23  43  70 100 134 183 234 284 351 409
#     4  10  23  44  67 102 139 179 230 285 353 408
#     4  11  26  44  65 105 134 182 231 286 349 412
#     4  11  23  46  70 101 141 176 234 288 347 423
#     4  12  24  45  70 103 136 183 236 290 353 417
#
# _framework density 22.224581000000001
#
# number of rings (size 3 to 8) (size 9 to 14) (size 15 to 20)
#    0.000    1.000    3.333    2.500    2.333    1.333 
#    9.000    0.000    0.000    0.000    0.000    0.000 
#    0.000    0.000    0.000    0.000    0.000    0.000 
#
# Total GULP energy -297618.613331 kJ/mol
# GULP energy per Si atom -12400.775555 kJ/mol
# Density = 2.217400 g / cm^3
# Si number density = 22.224581 Si / 1000 Ang^3
#
#
#
# Elastic Constant Matrix: (Units=GPa)
#
#
# Indices 1 2 3 4 5 6 
#
# 1 124.2232 50.1673 54.4727 0.0000 5.2047 0.0000
# 2 50.1673 104.8207 43.1250 0.0000 5.3990 0.0000
# 3 54.4727 43.1250 115.9027 0.0000 7.1863 0.0000
# 4 0.0000 0.0000 0.0000 37.7333 0.0000 10.4423
# 5 5.2047 5.3990 7.1863 0.0000 40.8129 0.0000
# 6 0.0000 0.0000 0.0000 10.4423 0.0000 32.7285
#
#
#
# Elastic Compliance Matrix: (Units=1/GPa)
#
#
# Indices 1 2 3 4 5 6 
#
# 1 0.011295 -0.003796 -0.003880 0.000000 -0.000255 0.000000
# 2 -0.003796 0.012564 -0.002849 0.000000 -0.000676 0.000000
# 3 -0.003880 -0.002849 0.011584 0.000000 -0.001168 0.000000
# 4 0.000000 0.000000 0.000000 0.029068 0.000000 -0.009275
# 5 -0.000255 -0.000676 -0.001168 0.000000 0.024830 0.000000
# 6 0.000000 0.000000 0.000000 -0.009275 0.000000 0.033514
#
#
# Mechanical properties :
#
#
# Convention : Reuss Voigt Hill
#
# Bulk Modulus (GPa) = 69.48007 71.16407 70.32207
# Shear Modulus (GPa) = 33.62406 35.40037 34.51222
#
# Velocity S-wave (km/s) = 3.89385 3.99538 3.94494
# Velocity P-wave (km/s) = 7.17960 7.30575 7.24295
#
# Compressibility (1/GPa) = 0.01439262
#
# Stress axis : x y z
#
# Youngs Moduli (GPa) = 88.53124 79.59342 86.32661
#
# Poissons Ratio (x) = 0.30217 0.33497
# Poissons Ratio (y) = 0.33610 0.24590
# Poissons Ratio (z) = 0.34353 0.22672
#
# Static dielectric constant tensor:
#      x y z
#    x 3.761760 0.000000 0.273410 
#    y 0.000000 4.076580 0.000000 
#    z 0.273410 0.000000 4.344560 
# 
# 
# High freq. dielectric constant tensor:
#      x y z
#    x 1.860600 0.000000 0.016300 
#    y 0.000000 1.878550 0.000000 
#    z 0.016300 0.000000 1.887830 
# 
# From -- ./inp_files/32804.got.cif
#   From: 2010.03.12/outbox.cif.g09.slc.cpg/sg14_17_cif.got.tgz:32804.got - 2010.03.31 13:35:05.
