data_PCOD8127138
_publ_section_title
;
Structure prediction by ZEFSAII (Michael W. Deem and Ramdas Pophale) SiO2 
 PCOD8127138
Probable space group: P 21/C
;
_chemical_formula_sum "Si O2"
_cell_formula_units_Z 32
_cell_length_a 5.156580
_cell_length_b 21.638236
_cell_length_c 11.118383
_cell_angle_alpha 90.000000
_cell_angle_beta 101.904470
_cell_angle_gamma 90.000000
_cell_volume 1213.900023
_symmetry_space_group_name_H-M "P 21/C"
_symmetry_group_IT_number 14
_symmetry_cell_setting 'monoclinic'
loop_
_space_group_symop_operation_xyz
x,y,z
-x,1/2+y,1/2-z
-x,-y,-z
x,1/2-y,1/2+z
loop_
_atom_site_type_symbol
_atom_site_label
_atom_site_fract_x
_atom_site_fract_y
_atom_site_fract_z
Si Si1 0.113154 0.153724 0.596585
Si Si2 0.808961 0.068036 0.914967
Si Si3 0.322670 0.461101 0.773144
Si Si4 0.358963 0.099024 0.043455
Si Si5 0.289012 0.783343 0.702126
Si Si6 0.081853 0.177326 0.850078
Si Si7 0.856193 0.079893 0.387910
Si Si8 0.422878 0.728068 0.958815
O O1 0.362264 0.174791 0.541280
O O2 0.210142 0.146517 0.742813
O O3 0.000887 0.089471 0.530513
O O4 0.876566 0.203288 0.572507
O O5 0.630536 0.071854 0.017829
O O6 0.819468 0.136176 0.854987
O O7 0.115082 0.051993 0.982364
O O8 0.679394 0.022325 0.806785
O O9 0.362683 0.401203 0.688421
O O10 0.588044 0.460076 0.880967
O O11 0.054981 0.457227 0.821817
O O12 0.292656 0.167875 0.981441
O O13 0.006709 0.747540 0.674344
O O14 0.212046 0.853812 0.675467
O O15 0.462468 0.753650 0.605677
O O16 0.434711 0.777267 0.847353
#
# Coordination Sequence:
#
# PCOD8127138 Si02
#       8
#     4   4   4   4   4   4   4   4
#     4  10  22  45  60  88 130 173 207 262 335 371
#     4  10  22  41  64 101 127 173 213 276 338 382
#     4  12  23  42  66  95 136 169 219 268 337 394
#     4  10  22  39  67  99 130 166 213 282 336 384
#     4  10  23  44  62 103 128 175 218 272 328 401
#     4   9  24  40  71  92 129 168 222 270 326 391
#     4  11  25  41  63  91 133 176 212 265 330 392
#     4  10  23  39  67  89 135 170 211 268 324 391
#
# _framework density 26.361315999999999
#
# number of rings (size 3 to 8) (size 9 to 14) (size 15 to 20)
#    0.750    1.000    0.000    3.750    5.250    6.000 
#    2.250    1.250    0.000    0.000    0.000    0.000 
#    0.000    0.000    0.000    0.000    0.000    0.000 
#
# Total GULP energy -396481.439110 kJ/mol
# GULP energy per Si atom -12390.044972 kJ/mol
# Density = 2.630132 g / cm^3
# Si number density = 26.361316 Si / 1000 Ang^3
#
#
#
# Elastic Constant Matrix: (Units=GPa)
#
#
# Indices 1 2 3 4 5 6 
#
# 1 124.4829 10.7057 24.5697 0.0000 -11.7439 0.0000
# 2 10.7057 11.6967 -2.7558 0.0000 9.6078 0.0000
# 3 24.5697 -2.7558 124.2611 0.0000 -9.0346 0.0000
# 4 0.0000 0.0000 0.0000 28.3262 0.0000 2.0121
# 5 -11.7439 9.6078 -9.0346 0.0000 37.9301 0.0000
# 6 0.0000 0.0000 0.0000 2.0121 0.0000 276.2836
#
#
#
# Elastic Compliance Matrix: (Units=1/GPa)
#
#
# Indices 1 2 3 4 5 6 
#
# 1 0.010362 -0.015399 -0.001906 0.000000 0.006655 0.000000
# 2 -0.015399 0.130863 0.003247 0.000000 -0.037143 0.000000
# 3 -0.001906 0.003247 0.008542 0.000000 0.000622 0.000000
# 4 0.000000 0.000000 0.000000 0.035321 0.000000 -0.000257
# 5 0.006655 -0.037143 0.000622 0.000000 0.037981 0.000000
# 6 0.000000 0.000000 0.000000 -0.000257 0.000000 0.003621
#
#
# Mechanical properties :
#
#
# Convention : Reuss Voigt Hill
#
# Bulk Modulus (GPa) = 8.22044 36.16443 22.19243
# Shear Modulus (GPa) = 16.92861 83.70273 50.31567
#
# Velocity S-wave (km/s) = 2.53687 5.64101 4.37360
# Velocity P-wave (km/s) = 3.42141 7.49510 5.82592
#
# Compressibility (1/GPa) = 0.12164802
#
# Stress axis : x y z
#
# Youngs Moduli (GPa) = 96.50925 7.64158 117.07213
#
# Poissons Ratio (x) = 0.11767 0.22319
# Poissons Ratio (y) = 1.48617 -0.38008
# Poissons Ratio (z) = 0.18399 -0.02481
#
# Static dielectric constant tensor:
#      x y z
#    x 4.676740 0.000000 -0.012300 
#    y 0.000000 4.418140 0.000000 
#    z -0.012300 0.000000 5.586150 
# 
# 
# High freq. dielectric constant tensor:
#      x y z
#    x 2.067460 0.000000 0.002630 
#    y 0.000000 2.031650 0.000000 
#    z 0.002630 0.000000 2.067700 
# 
# From -- ./inp_files/22119.got.cif
#   From: 2010.03.12/outbox.cif.g09.slc.cpg/sg14_12_cif.got.tgz:22119.got - 2010.03.31 13:35:05.
