data_PCOD8127217
_publ_section_title
;
Structure prediction by ZEFSAII (Michael W. Deem and Ramdas Pophale) SiO2 
 PCOD8127217
Probable space group: P 21/C
;
_chemical_formula_sum "Si O2"
_cell_formula_units_Z 28
_cell_length_a 14.883671
_cell_length_b 8.089343
_cell_length_c 15.269296
_cell_angle_alpha 90.000000
_cell_angle_beta 40.274352
_cell_angle_gamma 90.000000
_cell_volume 1188.436912
_symmetry_space_group_name_H-M "P 21/C"
_symmetry_group_IT_number 14
_symmetry_cell_setting 'monoclinic'
loop_
_space_group_symop_operation_xyz
x,y,z
-x,1/2+y,1/2-z
-x,-y,-z
x,1/2-y,1/2+z
loop_
_atom_site_type_symbol
_atom_site_label
_atom_site_fract_x
_atom_site_fract_y
_atom_site_fract_z
Si Si1 0.792582 0.108257 0.647271
Si Si2 0.534307 0.891368 0.813256
Si Si3 0.944758 0.713536 0.343293
Si Si4 0.608423 0.852248 0.410350
Si Si5 0.971856 0.556148 0.151489
Si Si6 0.639284 0.810280 0.076314
Si Si7 0.125254 0.953103 0.840927
O O1 0.859731 0.964503 0.658025
O O2 0.792376 0.287899 0.691258
O O3 0.640626 0.046313 0.736206
O O4 0.881582 0.120319 0.492898
O O5 0.540805 0.784570 0.896763
O O6 0.543841 0.776817 0.720607
O O7 0.390460 0.993442 0.913273
O O8 0.918805 0.691853 0.259081
O O9 0.794394 0.702941 0.501011
O O10 0.013906 0.887942 0.306946
O O11 0.050321 0.577454 0.303692
O O12 0.627662 0.780353 0.492392
O O13 0.500000 0.000000 0.500000
O O14 0.757198 0.907068 0.258246
O O15 0.000000 0.000000 0.000000
#
# Coordination Sequence:
#
# PCOD8127217 Si02
#       7
#     4   4   4   4   4   4   4
#     4  10  23  43  69  98 141 186 233 285 367 424
#     4  12  26  49  74 102 148 193 243 305 366 438
#     4  11  23  41  64 104 138 175 235 292 347 427
#     4  12  27  49  74 107 147 192 250 302 365 449
#     4  10  22  40  66 100 136 179 225 289 353 422
#     4  12  26  45  72 105 143 194 243 300 367 436
#     4  11  26  43  73 106 145 191 236 300 365 434
#
# _framework density 23.560359999999999
#
# number of rings (size 3 to 8) (size 9 to 14) (size 15 to 20)
#    0.000    0.857    1.429    4.714    8.000    3.429 
#    0.000    0.000    0.000    0.000    0.000    0.000 
#    0.000    0.000    0.000    0.000    0.000    0.000 
#
# Total GULP energy -347233.572736 kJ/mol
# GULP energy per Si atom -12401.199026 kJ/mol
# Density = 2.350674 g / cm^3
# Si number density = 23.560360 Si / 1000 Ang^3
#
#
#
# Elastic Constant Matrix: (Units=GPa)
#
#
# Indices 1 2 3 4 5 6 
#
# 1 77.1914 36.7182 21.9767 0.0000 11.3115 0.0000
# 2 36.7182 98.2928 17.8532 0.0000 -0.0339 0.0000
# 3 21.9767 17.8532 71.0827 0.0000 5.1879 0.0000
# 4 0.0000 0.0000 0.0000 40.3871 0.0000 -0.3340
# 5 11.3115 -0.0339 5.1879 0.0000 34.2415 0.0000
# 6 0.0000 0.0000 0.0000 -0.3340 0.0000 45.1705
#
#
#
# Elastic Compliance Matrix: (Units=1/GPa)
#
#
# Indices 1 2 3 4 5 6 
#
# 1 0.017551 -0.005912 -0.003557 0.000000 -0.005265 0.000000
# 2 -0.005912 0.012658 -0.001511 0.000000 0.002195 0.000000
# 3 -0.003557 -0.001511 0.015635 0.000000 -0.001195 0.000000
# 4 0.000000 0.000000 0.000000 0.024762 0.000000 0.000183
# 5 -0.005265 0.002195 -0.001195 0.000000 0.031127 0.000000
# 6 0.000000 0.000000 0.000000 0.000183 0.000000 0.022140
#
#
# Mechanical properties :
#
#
# Convention : Reuss Voigt Hill
#
# Bulk Modulus (GPa) = 41.87238 44.40700 43.13969
# Shear Modulus (GPa) = 32.51095 35.29439 33.90267
#
# Velocity S-wave (km/s) = 3.71873 3.87465 3.79749
# Velocity P-wave (km/s) = 6.02076 6.23750 6.13009
#
# Compressibility (1/GPa) = 0.02388209
#
# Stress axis : x y z
#
# Youngs Moduli (GPa) = 56.97556 79.00446 63.96011
#
# Poissons Ratio (x) = 0.46709 0.22752
# Poissons Ratio (y) = 0.33685 0.09667
# Poissons Ratio (z) = 0.20267 0.11940
#
# Static dielectric constant tensor:
#      x y z
#    x 4.438420 0.000000 -0.048860 
#    y 0.000000 4.273160 0.000000 
#    z -0.048860 0.000000 4.311400 
# 
# 
# High freq. dielectric constant tensor:
#      x y z
#    x 1.942580 0.000000 0.003790 
#    y 0.000000 1.941690 0.000000 
#    z 0.003790 0.000000 1.932110 
# 
# From -- ./inp_files/46713.got.cif
#   From: 2010.03.12/outbox.cif.g09.slc.cpg/sg14_24_cif.got.tgz:46713.got - 2010.03.31 13:35:05.
