data_PCOD8127458
_publ_section_title
;
Structure prediction by ZEFSAII (Michael W. Deem and Ramdas Pophale) SiO2 
 PCOD8127458
Probable space group: P 21/C
;
_chemical_formula_sum "Si O2"
_cell_formula_units_Z 16
_cell_length_a 5.105964
_cell_length_b 10.131226
_cell_length_c 13.441509
_cell_angle_alpha 90.000000
_cell_angle_beta 68.819278
_cell_angle_gamma 90.000000
_cell_volume 648.352516
_symmetry_space_group_name_H-M "P 21/C"
_symmetry_group_IT_number 14
_symmetry_cell_setting 'monoclinic'
loop_
_space_group_symop_operation_xyz
x,y,z
-x,1/2+y,1/2-z
-x,-y,-z
x,1/2-y,1/2+z
loop_
_atom_site_type_symbol
_atom_site_label
_atom_site_fract_x
_atom_site_fract_y
_atom_site_fract_z
Si Si1 0.652410 0.432103 0.633090
Si Si2 0.985849 0.899696 0.733250
Si Si3 0.796615 0.569104 0.952423
Si Si4 0.071210 0.299830 0.438899
O O1 0.321572 0.408005 0.677372
O O2 0.712427 0.588116 0.625013
O O3 0.790944 0.364732 0.711594
O O4 0.780556 0.365078 0.516734
O O5 0.004523 0.790780 0.644557
O O6 0.074815 0.043667 0.675329
O O7 0.500000 0.500000 0.000000
O O8 0.784373 0.721517 0.988048
O O9 0.000000 0.500000 0.000000
#
# Coordination Sequence:
#
# PCOD8127458 Si02
#       4
#     4   4   4   4
#     4  11  27  44  71 107 140 194 233 301 363 417
#     4  11  25  44  73 103 139 191 240 287 370 433
#     4  10  22  42  70  99 136 181 230 293 356 417
#     4  10  26  47  70 105 150 178 246 302 352 434
#
# _framework density 24.677931000000001
#
# number of rings (size 3 to 8) (size 9 to 14) (size 15 to 20)
#    0.000    1.500    0.000    3.000    7.000   14.000 
#    0.000    0.000    0.000    0.000    0.000    0.000 
#    0.000    0.000    0.000    0.000    0.000    0.000 
#
# Total GULP energy -198379.357322 kJ/mol
# GULP energy per Si atom -12398.709833 kJ/mol
# Density = 2.462176 g / cm^3
# Si number density = 24.677931 Si / 1000 Ang^3
#
#
#
# Elastic Constant Matrix: (Units=GPa)
#
#
# Indices 1 2 3 4 5 6 
#
# 1 110.0515 10.5725 14.8347 0.0000 -21.9480 0.0000
# 2 10.5725 113.1946 32.6800 0.0000 0.9665 0.0000
# 3 14.8347 32.6800 94.0020 0.0000 -14.3793 0.0000
# 4 0.0000 0.0000 0.0000 55.1782 0.0000 4.3466
# 5 -21.9480 0.9665 -14.3793 0.0000 40.0173 0.0000
# 6 0.0000 0.0000 0.0000 4.3466 0.0000 15.1538
#
#
#
# Elastic Compliance Matrix: (Units=1/GPa)
#
#
# Indices 1 2 3 4 5 6 
#
# 1 0.010336 -0.000873 -0.000484 0.000000 0.005516 0.000000
# 2 -0.000873 0.009985 -0.003644 0.000000 -0.002029 0.000000
# 3 -0.000484 -0.003644 0.012649 0.000000 0.004368 0.000000
# 4 0.000000 0.000000 0.000000 0.018542 0.000000 -0.005318
# 5 0.005516 -0.002029 0.004368 0.000000 0.029633 0.000000
# 6 0.000000 0.000000 0.000000 -0.005318 0.000000 0.067515
#
#
# Mechanical properties :
#
#
# Convention : Reuss Voigt Hill
#
# Bulk Modulus (GPa) = 43.53699 48.15807 45.84753
# Shear Modulus (GPa) = 30.06275 39.34727 34.70501
#
# Velocity S-wave (km/s) = 3.49406 3.99737 3.75416
# Velocity P-wave (km/s) = 5.82738 6.39236 6.11640
#
# Compressibility (1/GPa) = 0.02296897
#
# Stress axis : x y z
#
# Youngs Moduli (GPa) = 96.75103 100.14764 79.05482
#
# Poissons Ratio (x) = 0.08740 0.03826
# Poissons Ratio (y) = 0.08444 0.28808
# Poissons Ratio (z) = 0.04682 0.36495
#
# Static dielectric constant tensor:
#      x y z
#    x 4.313480 0.000000 0.201420 
#    y 0.000000 5.258680 0.000000 
#    z 0.201420 0.000000 5.166750 
# 
# 
# High freq. dielectric constant tensor:
#      x y z
#    x 1.978650 0.000000 0.000580 
#    y 0.000000 1.984660 0.000000 
#    z 0.000580 0.000000 1.998180 
# 
# From -- ./inp_files/20360.got.cif
#   From: 2010.03.12/outbox.cif.g09.slc.cpg/sg14_11_cif.got.tgz:20360.got - 2010.03.31 13:35:05.
