data_PCOD8127716
_publ_section_title
;
Structure prediction by ZEFSAII (Michael W. Deem and Ramdas Pophale) SiO2 
 PCOD8127716
Probable space group: P 21/C
;
_chemical_formula_sum "Si O2"
_cell_formula_units_Z 16
_cell_length_a 10.953358
_cell_length_b 7.444515
_cell_length_c 21.034592
_cell_angle_alpha 90.000000
_cell_angle_beta 152.086423
_cell_angle_gamma 90.000000
_cell_volume 802.957969
_symmetry_space_group_name_H-M "P 21/C"
_symmetry_group_IT_number 14
_symmetry_cell_setting 'monoclinic'
loop_
_space_group_symop_operation_xyz
x,y,z
-x,1/2+y,1/2-z
-x,-y,-z
x,1/2-y,1/2+z
loop_
_atom_site_type_symbol
_atom_site_label
_atom_site_fract_x
_atom_site_fract_y
_atom_site_fract_z
Si Si1 0.325363 0.966390 0.727238
Si Si2 0.065859 0.226145 0.170725
Si Si3 0.492682 0.599928 0.562603
Si Si4 0.786178 0.066901 0.852520
O O1 0.100713 0.118863 0.632462
O O2 0.499392 0.963892 0.872758
O O3 0.500396 0.023590 0.747998
O O4 0.188313 0.777581 0.650596
O O5 0.251637 0.272132 0.316494
O O6 0.167678 0.035632 0.192073
O O7 0.766691 0.220536 0.053897
O O8 0.500000 0.500000 0.500000
O O9 0.000000 0.000000 0.000000
#
# Coordination Sequence:
#
# PCOD8127716 Si02
#       4
#     4   4   4   4
#     4  10  23  39  66  98 131 171 217 270 329 389
#     4  10  23  43  68  97 131 172 224 266 329 391
#     4  10  23  47  65  93 133 174 223 269 321 383
#     4  12  21  40  67  99 134 170 213 272 336 389
#
# _framework density 19.926321999999999
#
# number of rings (size 3 to 8) (size 9 to 14) (size 15 to 20)
#    1.500    0.000    5.000    0.000    0.000    5.000 
#    0.000    2.500    0.000    0.000    0.000    0.000 
#    0.000    0.000    0.000    0.000    0.000    0.000 
#
# Total GULP energy -198302.722876 kJ/mol
# GULP energy per Si atom -12393.920180 kJ/mol
# Density = 1.988097 g / cm^3
# Si number density = 19.926322 Si / 1000 Ang^3
#
#
#
# Elastic Constant Matrix: (Units=GPa)
#
#
# Indices 1 2 3 4 5 6 
#
# 1 47.2104 26.0083 38.4015 0.0000 -1.8631 0.0000
# 2 26.0083 124.6094 42.7534 0.0000 22.4171 0.0000
# 3 38.4015 42.7534 130.2420 0.0000 16.0530 0.0000
# 4 0.0000 0.0000 0.0000 38.5321 0.0000 -0.0930
# 5 -1.8631 22.4171 16.0530 0.0000 23.5431 0.0000
# 6 0.0000 0.0000 0.0000 -0.0930 0.0000 39.1916
#
#
#
# Elastic Compliance Matrix: (Units=1/GPa)
#
#
# Indices 1 2 3 4 5 6 
#
# 1 0.033022 -0.006352 -0.009519 0.000000 0.015152 0.000000
# 2 -0.006352 0.011538 -0.000544 0.000000 -0.011117 0.000000
# 3 -0.009519 -0.000544 0.011673 0.000000 -0.008195 0.000000
# 4 0.000000 0.000000 0.000000 0.025953 0.000000 0.000062
# 5 0.015152 -0.011117 -0.008195 0.000000 0.059848 0.000000
# 6 0.000000 0.000000 0.000000 0.000062 0.000000 0.025516
#
#
# Mechanical properties :
#
#
# Convention : Reuss Voigt Hill
#
# Bulk Modulus (GPa) = 42.73056 57.37646 50.05351
# Shear Modulus (GPa) = 24.01768 33.24660 28.63214
#
# Velocity S-wave (km/s) = 3.47554 4.08913 3.79476
# Velocity P-wave (km/s) = 6.13162 7.15202 6.66139
#
# Compressibility (1/GPa) = 0.02340245
#
# Stress axis : x y z
#
# Youngs Moduli (GPa) = 30.28296 86.67307 85.66592
#
# Poissons Ratio (x) = 0.55057 0.81544
# Poissons Ratio (y) = 0.19236 0.04661
# Poissons Ratio (z) = 0.28826 0.04716
#
# Static dielectric constant tensor:
#      x y z
#    x 3.579870 0.000000 0.062080 
#    y 0.000000 3.678530 0.000000 
#    z 0.062080 0.000000 3.567970 
# 
# 
# High freq. dielectric constant tensor:
#      x y z
#    x 1.766090 0.000000 0.008280 
#    y 0.000000 1.770340 0.000000 
#    z 0.008280 0.000000 1.775410 
# 
# From -- ./inp_files/34850.got.cif
#   From: 2010.03.12/outbox.cif.g09.slc.cpg/sg14_18_cif.got.tgz:34850.got - 2010.03.31 13:35:05.
