data_PCOD8127821
_publ_section_title
;
Structure prediction by ZEFSAII (Michael W. Deem and Ramdas Pophale) SiO2 
 PCOD8127821
Probable space group: P 21/C
;
_chemical_formula_sum "Si O2"
_cell_formula_units_Z 32
_cell_length_a 21.677840
_cell_length_b 11.257768
_cell_length_c 12.776213
_cell_angle_alpha 90.000000
_cell_angle_beta 151.131902
_cell_angle_gamma 90.000000
_cell_volume 1505.334715
_symmetry_space_group_name_H-M "P 21/C"
_symmetry_group_IT_number 14
_symmetry_cell_setting 'monoclinic'
loop_
_space_group_symop_operation_xyz
x,y,z
-x,1/2+y,1/2-z
-x,-y,-z
x,1/2-y,1/2+z
loop_
_atom_site_type_symbol
_atom_site_label
_atom_site_fract_x
_atom_site_fract_y
_atom_site_fract_z
Si Si1 0.514060 0.198153 0.128526
Si Si2 0.286458 0.867841 0.402381
Si Si3 0.390547 0.437464 0.903292
Si Si4 0.746929 0.911568 0.284853
Si Si5 0.063971 0.125331 0.606215
Si Si6 0.847598 0.818146 0.034244
Si Si7 0.258415 0.684783 0.182007
Si Si8 0.074026 0.813401 0.230684
O O1 0.592148 0.165215 0.347231
O O2 0.599331 0.201319 0.150976
O O3 0.449030 0.325807 0.051554
O O4 0.405503 0.100363 0.945913
O O5 0.249524 0.753858 0.277735
O O6 0.165674 0.901762 0.298614
O O7 0.324250 0.979503 0.389652
O O8 0.281004 0.395568 0.660179
O O9 0.500000 0.500000 0.000000
O O10 0.799717 0.876376 0.249075
O O11 0.813430 0.821430 0.466726
O O12 0.780618 0.046617 0.363916
O O13 0.083758 0.167425 0.753523
O O14 0.962068 0.209951 0.401253
O O15 0.000000 0.000000 0.500000
O O16 0.944859 0.868408 0.088909
O O17 0.158215 0.741280 0.950899
#
# Coordination Sequence:
#
# PCOD8127821 Si02
#       8
#     4   4   4   4   4   4   4   4
#     4  10  24  42  63  98 131 172 221 266 335 399
#     4  11  24  39  70  95 131 177 215 281 322 400
#     4  11  24  44  66  98 132 174 219 270 334 387
#     4  10  23  42  64  95 129 174 218 268 335 393
#     4  11  23  41  70  93 127 177 220 272 327 397
#     4  10  24  44  65  93 136 171 217 278 326 396
#     4  11  22  43  66  97 133 170 218 278 327 392
#     4  10  23  44  60 102 127 167 228 260 340 383
#
# _framework density 21.257731
#
# number of rings (size 3 to 8) (size 9 to 14) (size 15 to 20)
#    0.000    1.500    1.250    2.625    5.250    0.500 
#   15.750    0.000    0.000    0.000    0.000    0.000 
#    0.000    0.000    0.000    0.000    0.000    0.000 
#
# Total GULP energy -396767.736370 kJ/mol
# GULP energy per Si atom -12398.991762 kJ/mol
# Density = 2.120935 g / cm^3
# Si number density = 21.257731 Si / 1000 Ang^3
#
#
#
# Elastic Constant Matrix: (Units=GPa)
#
#
# Indices 1 2 3 4 5 6 
#
# 1 116.5566 36.4573 52.5332 0.0000 2.0478 0.0000
# 2 36.4573 103.3566 45.0847 0.0000 -10.0345 0.0000
# 3 52.5332 45.0847 126.1548 0.0000 -6.6255 0.0000
# 4 0.0000 0.0000 0.0000 23.8083 0.0000 3.7270
# 5 2.0478 -10.0345 -6.6255 0.0000 45.1262 0.0000
# 6 0.0000 0.0000 0.0000 3.7270 0.0000 31.9410
#
#
#
# Elastic Compliance Matrix: (Units=1/GPa)
#
#
# Indices 1 2 3 4 5 6 
#
# 1 0.011089 -0.002388 -0.003848 0.000000 -0.001599 0.000000
# 2 -0.002388 0.012151 -0.003225 0.000000 0.002337 0.000000
# 3 -0.003848 -0.003225 0.010736 0.000000 0.001034 0.000000
# 4 0.000000 0.000000 0.000000 0.042784 0.000000 -0.004992
# 5 -0.001599 0.002337 0.001034 0.000000 0.022904 0.000000
# 6 0.000000 0.000000 0.000000 -0.004992 0.000000 0.031890
#
#
# Mechanical properties :
#
#
# Convention : Reuss Voigt Hill
#
# Bulk Modulus (GPa) = 66.43134 68.24647 67.33890
# Shear Modulus (GPa) = 32.15519 34.30794 33.23156
#
# Velocity S-wave (km/s) = 3.89348 4.02170 3.95811
# Velocity P-wave (km/s) = 7.17848 7.33072 7.25500
#
# Compressibility (1/GPa) = 0.01505314
#
# Stress axis : x y z
#
# Youngs Moduli (GPa) = 90.17935 82.29471 93.14261
#
# Poissons Ratio (x) = 0.19653 0.35843
# Poissons Ratio (y) = 0.21536 0.30043
# Poissons Ratio (z) = 0.34703 0.26544
#
# Static dielectric constant tensor:
#      x y z
#    x 4.246780 0.000000 0.211610 
#    y 0.000000 3.714330 0.000000 
#    z 0.211610 0.000000 3.907880 
# 
# 
# High freq. dielectric constant tensor:
#      x y z
#    x 1.850990 0.000000 0.014160 
#    y 0.000000 1.819620 0.000000 
#    z 0.014160 0.000000 1.845340 
# 
# From -- ./inp_files/35296.got.cif
#   From: 2010.03.12/outbox.cif.g09.slc.cpg/sg14_18_cif.got.tgz:35296.got - 2010.03.31 13:35:05.
