data_PCOD8127078
_publ_section_title
;
Structure prediction by ZEFSAII (Michael W. Deem and Ramdas Pophale) SiO2 
 PCOD8127078
Probable space group: P 21/C
;
_chemical_formula_sum "Si O2"
_cell_formula_units_Z 24
_cell_length_a 14.707858
_cell_length_b 8.686796
_cell_length_c 9.736280
_cell_angle_alpha 90.000000
_cell_angle_beta 79.355441
_cell_angle_gamma 90.000000
_cell_volume 1222.541795
_symmetry_space_group_name_H-M "P 21/C"
_symmetry_group_IT_number 14
_symmetry_cell_setting 'monoclinic'
loop_
_space_group_symop_operation_xyz
x,y,z
-x,1/2+y,1/2-z
-x,-y,-z
x,1/2-y,1/2+z
loop_
_atom_site_type_symbol
_atom_site_label
_atom_site_fract_x
_atom_site_fract_y
_atom_site_fract_z
Si Si1 0.063240 0.070680 0.868098
Si Si2 0.030920 0.427770 0.850324
Si Si3 0.763633 0.573156 0.269021
Si Si4 0.257547 0.144218 0.915600
Si Si5 0.573022 0.423056 0.654483
Si Si6 0.595118 0.135451 0.839027
O O1 0.033956 0.245587 0.856183
O O2 0.169693 0.052867 0.880590
O O3 0.048178 0.977116 0.733303
O O4 0.000000 0.000000 0.000000
O O5 0.131907 0.489286 0.776676
O O6 0.000000 0.500000 0.000000
O O7 0.751587 0.662626 0.417265
O O8 0.736841 0.686897 0.152250
O O9 0.698528 0.424019 0.280775
O O10 0.347988 0.050224 0.849384
O O11 0.580607 0.298463 0.771803
O O12 0.475163 0.507573 0.698700
O O13 0.579622 0.338919 0.505614
#
# Coordination Sequence:
#
# PCOD8127078 Si02
#       6
#     4   4   4   4   4   4
#     4  11  22  41  60  87 123 159 203 255 300 361
#     4  11  24  39  62  89 119 164 205 250 308 357
#     4  10  22  40  60  87 118 157 199 243 296 356
#     4  10  22  39  61  86 120 157 197 244 296 352
#     4  10  22  40  61  91 120 155 195 245 295 353
#     4  10  22  40  62  89 122 153 197 243 296 354
#
# _framework density 19.631229999999999
#
# number of rings (size 3 to 8) (size 9 to 14) (size 15 to 20)
#    0.000    1.667    1.667    2.000    7.000    4.667 
#    0.000    0.000    0.000    0.000    0.000    0.000 
#    0.000    0.000    0.000    0.000    0.000    0.000 
#
# Total GULP energy -297705.023341 kJ/mol
# GULP energy per Si atom -12404.375973 kJ/mol
# Density = 1.958655 g / cm^3
# Si number density = 19.631230 Si / 1000 Ang^3
#
#
#
# Elastic Constant Matrix: (Units=GPa)
#
#
# Indices 1 2 3 4 5 6 
#
# 1 85.4641 16.4786 16.1193 0.0000 -2.8869 0.0000
# 2 16.4786 40.8983 8.7284 0.0000 1.8359 0.0000
# 3 16.1193 8.7284 81.6763 0.0000 4.4897 0.0000
# 4 0.0000 0.0000 0.0000 38.7235 0.0000 11.7685
# 5 -2.8869 1.8359 4.4897 0.0000 34.6468 0.0000
# 6 0.0000 0.0000 0.0000 11.7685 0.0000 31.3327
#
#
#
# Elastic Compliance Matrix: (Units=1/GPa)
#
#
# Indices 1 2 3 4 5 6 
#
# 1 0.013106 -0.004894 -0.002153 0.000000 0.001630 0.000000
# 2 -0.004894 0.026883 -0.001819 0.000000 -0.001597 0.000000
# 3 -0.002153 -0.001819 0.012960 0.000000 -0.001762 0.000000
# 4 0.000000 0.000000 0.000000 0.029152 0.000000 -0.010949
# 5 0.001630 -0.001597 -0.001762 0.000000 0.029311 0.000000
# 6 0.000000 0.000000 0.000000 -0.010949 0.000000 0.036028
#
#
# Mechanical properties :
#
#
# Convention : Reuss Voigt Hill
#
# Bulk Modulus (GPa) = 28.39683 32.29903 30.34793
# Shear Modulus (GPa) = 28.26285 32.05477 30.15881
#
# Velocity S-wave (km/s) = 3.79844 4.04523 3.92378
# Velocity P-wave (km/s) = 5.80810 6.18928 6.00172
#
# Compressibility (1/GPa) = 0.03521520
#
# Stress axis : x y z
#
# Youngs Moduli (GPa) = 76.30302 37.19856 77.16250
#
# Poissons Ratio (x) = 0.18206 0.16614
# Poissons Ratio (y) = 0.37344 0.14037
# Poissons Ratio (z) = 0.16429 0.06767
#
# Static dielectric constant tensor:
#      x y z
#    x 3.780310 0.000000 -0.006900 
#    y 0.000000 3.358370 0.000000 
#    z -0.006900 0.000000 3.661370 
# 
# 
# High freq. dielectric constant tensor:
#      x y z
#    x 1.782750 0.000000 0.002360 
#    y 0.000000 1.753410 0.000000 
#    z 0.002360 0.000000 1.775780 
# 
# From -- ./inp_files/15009.got.cif
#   From: 2010.03.12/outbox.cif.g09.slc.cpg/sg14_8_cif.got.tgz:15009.got - 2010.03.31 13:35:05.
