data_PCOD8127780
_publ_section_title
;
Structure prediction by ZEFSAII (Michael W. Deem and Ramdas Pophale) SiO2 
 PCOD8127780
Probable space group: P 21/C
;
_chemical_formula_sum "Si O2"
_cell_formula_units_Z 24
_cell_length_a 17.819803
_cell_length_b 5.087013
_cell_length_c 10.320635
_cell_angle_alpha 90.000000
_cell_angle_beta 67.491044
_cell_angle_gamma 90.000000
_cell_volume 864.289796
_symmetry_space_group_name_H-M "P 21/C"
_symmetry_group_IT_number 14
_symmetry_cell_setting 'monoclinic'
loop_
_space_group_symop_operation_xyz
x,y,z
-x,1/2+y,1/2-z
-x,-y,-z
x,1/2-y,1/2+z
loop_
_atom_site_type_symbol
_atom_site_label
_atom_site_fract_x
_atom_site_fract_y
_atom_site_fract_z
Si Si1 0.988017 0.854377 0.338242
Si Si2 0.155561 0.745731 0.298927
Si Si3 0.582277 0.807818 0.837115
Si Si4 0.289470 0.905506 0.398432
Si Si5 0.401530 0.515815 0.414010
Si Si6 0.179450 0.258487 0.613105
O O1 0.896912 0.760857 0.438107
O O2 0.013600 0.658492 0.203338
O O3 0.060116 0.813541 0.398024
O O4 0.210170 0.763949 0.391077
O O5 0.164557 0.453280 0.237297
O O6 0.186928 0.954299 0.170180
O O7 0.605824 0.563734 0.731974
O O8 0.638055 0.050417 0.752360
O O9 0.487014 0.845624 0.882284
O O10 0.603263 0.776466 0.976885
O O11 0.327585 0.719422 0.484837
O O12 0.261616 0.184357 0.480641
#
# Coordination Sequence:
#
# PCOD8127780 Si02
#       6
#     4   4   4   4   4   4
#     4   8  16  37  62  90 133 187 233 288 361 432
#     4  10  23  41  66  98 141 187 239 300 363 436
#     4  11  26  47  73 100 146 189 252 301 377 445
#     4  12  26  41  69 103 140 186 246 305 371 427
#     4  11  26  49  71 107 139 199 240 311 368 450
#     4  10  23  41  65  99 141 186 240 298 365 434
#
# _framework density 27.768462
#
# number of rings (size 3 to 8) (size 9 to 14) (size 15 to 20)
#    0.000    1.667    1.667    1.000    7.000    2.667 
#    0.000    0.000    0.000   12.000    0.000    0.000 
#    0.000    0.000    0.000    0.000    0.000    0.000 
#
# Total GULP energy -297406.290766 kJ/mol
# GULP energy per Si atom -12391.928782 kJ/mol
# Density = 2.770526 g / cm^3
# Si number density = 27.768462 Si / 1000 Ang^3
#
#
#
# Elastic Constant Matrix: (Units=GPa)
#
#
# Indices 1 2 3 4 5 6 
#
# 1 198.3461 14.8114 41.1670 0.0000 -10.9401 0.0000
# 2 14.8114 70.0359 4.8727 0.0000 0.8664 0.0000
# 3 41.1670 4.8727 72.1495 0.0000 -6.5753 0.0000
# 4 0.0000 0.0000 0.0000 28.2256 0.0000 -3.4974
# 5 -10.9401 0.8664 -6.5753 0.0000 23.0603 0.0000
# 6 0.0000 0.0000 0.0000 -3.4974 0.0000 33.3720
#
#
#
# Elastic Compliance Matrix: (Units=1/GPa)
#
#
# Indices 1 2 3 4 5 6 
#
# 1 0.005871 -0.001050 -0.003102 0.000000 0.001940 0.000000
# 2 -0.001050 0.014549 -0.000492 0.000000 -0.001185 0.000000
# 3 -0.003102 -0.000492 0.015945 0.000000 0.003093 0.000000
# 4 0.000000 0.000000 0.000000 0.035895 0.000000 0.003762
# 5 0.001940 -0.001185 0.003093 0.000000 0.045211 0.000000
# 6 0.000000 0.000000 0.000000 0.003762 0.000000 0.030360
#
#
# Mechanical properties :
#
#
# Convention : Reuss Voigt Hill
#
# Bulk Modulus (GPa) = 36.92976 51.35931 44.14453
# Shear Modulus (GPa) = 30.09428 35.57694 32.83561
#
# Velocity S-wave (km/s) = 3.29562 3.58327 3.44245
# Velocity P-wave (km/s) = 5.27347 5.97122 5.63316
#
# Compressibility (1/GPa) = 0.02707844
#
# Stress axis : x y z
#
# Youngs Moduli (GPa) = 170.33023 68.73204 62.71470
#
# Poissons Ratio (x) = 0.07215 0.19455
# Poissons Ratio (y) = 0.17881 0.03083
# Poissons Ratio (z) = 0.52839 0.03379
#
# Static dielectric constant tensor:
#      x y z
#    x 5.690300 0.000000 -0.202890 
#    y 0.000000 4.750350 0.000000 
#    z -0.202890 0.000000 4.672250 
# 
# 
# High freq. dielectric constant tensor:
#      x y z
#    x 2.158370 0.000000 -0.016170 
#    y 0.000000 2.113850 0.000000 
#    z -0.016170 0.000000 2.088460 
# 
# From -- ./inp_files/33339.got.cif
#   From: 2010.03.12/outbox.cif.g09.slc.cpg/sg14_17_cif.got.tgz:33339.got - 2010.03.31 13:35:05.
