data_PCOD8127514
_publ_section_title
;
Structure prediction by ZEFSAII (Michael W. Deem and Ramdas Pophale) SiO2 
 PCOD8127514
Probable space group: P 21/C
;
_chemical_formula_sum "Si O2"
_cell_formula_units_Z 24
_cell_length_a 7.840461
_cell_length_b 21.615408
_cell_length_c 8.499769
_cell_angle_alpha 90.000000
_cell_angle_beta 129.000746
_cell_angle_gamma 90.000000
_cell_volume 1119.464110
_symmetry_space_group_name_H-M "P 21/C"
_symmetry_group_IT_number 14
_symmetry_cell_setting 'monoclinic'
loop_
_space_group_symop_operation_xyz
x,y,z
-x,1/2+y,1/2-z
-x,-y,-z
x,1/2-y,1/2+z
loop_
_atom_site_type_symbol
_atom_site_label
_atom_site_fract_x
_atom_site_fract_y
_atom_site_fract_z
Si Si1 0.961658 0.392980 0.322290
Si Si2 0.664565 0.176314 0.039817
Si Si3 0.287813 0.484994 0.780512
Si Si4 0.872391 0.638421 0.258764
Si Si5 0.420469 0.808562 0.378173
Si Si6 0.603913 0.937692 0.993827
O O1 0.851150 0.453766 0.338079
O O2 0.769569 0.348836 0.141531
O O3 0.083718 0.353576 0.528782
O O4 0.146885 0.416933 0.303964
O O5 0.602713 0.236745 0.100393
O O6 0.555155 0.118126 0.059853
O O7 0.924408 0.168486 0.214117
O O8 0.591366 0.178987 0.815250
O O9 0.144479 0.434775 0.794391
O O10 0.371224 0.448928 0.676145
O O11 0.500000 0.500000 0.000000
O O12 0.654183 0.673147 0.081417
O O13 0.500000 0.000000 0.000000
#
# Coordination Sequence:
#
# PCOD8127514 Si02
#       6
#     4   4   4   4   4   4
#     4  10  22  43  70  98 133 179 218 273 339 398
#     4  11  27  43  67  98 135 176 225 279 335 403
#     4  11  21  41  74  99 133 177 224 273 343 398
#     4  10  22  43  68  91 134 173 220 274 331 396
#     4  11  25  44  66  95 133 178 230 267 341 406
#     4  11  23  43  68  98 140 170 224 283 334 395
#
# _framework density 21.438828999999998
#
# number of rings (size 3 to 8) (size 9 to 14) (size 15 to 20)
#    0.000    1.333    1.667    5.000    7.000    1.333 
#    3.000    1.667    0.000    0.000    0.000    0.000 
#    0.000    0.000    0.000    0.000    0.000    0.000 
#
# Total GULP energy -297398.480485 kJ/mol
# GULP energy per Si atom -12391.603354 kJ/mol
# Density = 2.139003 g / cm^3
# Si number density = 21.438829 Si / 1000 Ang^3
#
#
#
# Elastic Constant Matrix: (Units=GPa)
#
#
# Indices 1 2 3 4 5 6 
#
# 1 133.0720 74.5318 56.6256 0.0000 36.3157 0.0000
# 2 74.5318 178.4801 46.4759 0.0000 22.5064 0.0000
# 3 56.6256 46.4759 94.5530 0.0000 35.6696 0.0000
# 4 0.0000 0.0000 0.0000 32.2528 0.0000 8.6681
# 5 36.3157 22.5064 35.6696 0.0000 37.2340 0.0000
# 6 0.0000 0.0000 0.0000 8.6681 0.0000 35.9256
#
#
#
# Elastic Compliance Matrix: (Units=1/GPa)
#
#
# Indices 1 2 3 4 5 6 
#
# 1 0.012907 -0.003638 -0.003167 0.000000 -0.007357 0.000000
# 2 -0.003638 0.007494 -0.001777 0.000000 0.000720 0.000000
# 3 -0.003167 -0.001777 0.018439 0.000000 -0.013502 0.000000
# 4 0.000000 0.000000 0.000000 0.033155 0.000000 -0.008000
# 5 -0.007357 0.000720 -0.013502 0.000000 0.046532 0.000000
# 6 0.000000 0.000000 0.000000 -0.008000 0.000000 0.029765
#
#
# Mechanical properties :
#
#
# Convention : Reuss Voigt Hill
#
# Bulk Modulus (GPa) = 46.12858 84.59686 65.36272
# Shear Modulus (GPa) = 28.95519 36.31394 32.63456
#
# Velocity S-wave (km/s) = 3.67903 4.12009 3.90579
# Velocity P-wave (km/s) = 6.29366 7.88536 7.13404
#
# Compressibility (1/GPa) = 0.02167853
#
# Stress axis : x y z
#
# Youngs Moduli (GPa) = 77.47585 133.44467 54.23178
#
# Poissons Ratio (x) = 0.48544 0.17173
# Poissons Ratio (y) = 0.28184 0.09635
# Poissons Ratio (z) = 0.24533 0.23708
#
# Static dielectric constant tensor:
#      x y z
#    x 5.732050 0.000000 1.164350 
#    y 0.000000 4.482000 0.000000 
#    z 1.164350 0.000000 4.213900 
# 
# 
# High freq. dielectric constant tensor:
#      x y z
#    x 1.840580 0.000000 0.032830 
#    y 0.000000 1.859990 0.000000 
#    z 0.032830 0.000000 1.829840 
# 
# From -- ./inp_files/10281.got.cif
#   From: 2010.03.12/outbox.cif.g09.slc.cpg/sg14_6_cif.got.tgz:10281.got - 2010.03.31 13:35:05.
