data_PCOD8127621
_publ_section_title
;
Structure prediction by ZEFSAII (Michael W. Deem and Ramdas Pophale) SiO2 
 PCOD8127621
Probable space group: P 21/C
;
_chemical_formula_sum "Si O2"
_cell_formula_units_Z 32
_cell_length_a 9.228530
_cell_length_b 8.123075
_cell_length_c 19.516848
_cell_angle_alpha 90.000000
_cell_angle_beta 73.901812
_cell_angle_gamma 90.000000
_cell_volume 1405.692109
_symmetry_space_group_name_H-M "P 21/C"
_symmetry_group_IT_number 14
_symmetry_cell_setting 'monoclinic'
loop_
_space_group_symop_operation_xyz
x,y,z
-x,1/2+y,1/2-z
-x,-y,-z
x,1/2-y,1/2+z
loop_
_atom_site_type_symbol
_atom_site_label
_atom_site_fract_x
_atom_site_fract_y
_atom_site_fract_z
Si Si1 0.304570 0.036693 0.565684
Si Si2 0.671997 0.431031 0.333604
Si Si3 0.777204 0.889802 0.949241
Si Si4 0.353130 0.530436 0.397578
Si Si5 0.807035 0.000264 0.675988
Si Si6 0.377675 0.903410 0.422787
Si Si7 0.909473 0.127323 0.155411
Si Si8 0.902923 0.126273 0.311180
O O1 0.281622 0.207123 0.528821
O O2 0.463159 0.011290 0.582888
O O3 0.287345 0.899974 0.507370
O O4 0.178201 0.024332 0.640382
O O5 0.697396 0.561182 0.389539
O O6 0.489938 0.402842 0.362874
O O7 0.697912 0.508525 0.255837
O O8 0.785629 0.277818 0.331321
O O9 0.955807 0.908077 0.914989
O O10 0.724778 0.998843 0.019490
O O11 0.405594 0.720941 0.390855
O O12 0.231182 0.518994 0.352551
O O13 0.709125 0.977703 0.620120
O O14 0.883397 0.178584 0.660937
O O15 0.936652 0.858162 0.668998
O O16 0.943841 0.069425 0.228723
#
# Coordination Sequence:
#
# PCOD8127621 Si02
#       8
#     4   4   4   4   4   4   4   4
#     4  11  24  41  66  96 131 172 218 275 331 400
#     4  11  24  41  69  96 130 178 219 272 344 395
#     4  12  22  43  66  95 136 171 220 269 342 397
#     4  11  24  43  66  97 133 174 221 280 329 410
#     4  10  22  45  67  94 131 176 224 273 332 406
#     4  10  24  44  65  95 131 172 220 272 334 397
#     4  10  23  44  66  99 130 174 222 277 335 400
#     4  11  23  43  68  94 134 171 223 274 334 407
#
# _framework density 22.764586999999999
#
# number of rings (size 3 to 8) (size 9 to 14) (size 15 to 20)
#    0.000    1.250    3.750    1.500    5.250    0.500 
#    4.500    0.000    0.000    0.000    0.000    0.000 
#    0.000    0.000    0.000    0.000    0.000    0.000 
#
# Total GULP energy -396585.429360 kJ/mol
# GULP energy per Si atom -12393.294667 kJ/mol
# Density = 2.271277 g / cm^3
# Si number density = 22.764587 Si / 1000 Ang^3
#
#
#
# Elastic Constant Matrix: (Units=GPa)
#
#
# Indices 1 2 3 4 5 6 
#
# 1 162.0318 35.5568 73.2156 0.0000 2.6813 0.0000
# 2 35.5568 40.6299 19.6004 0.0000 3.5393 0.0000
# 3 73.2156 19.6004 135.4211 0.0000 -0.7636 0.0000
# 4 0.0000 0.0000 0.0000 14.2052 0.0000 5.0202
# 5 2.6813 3.5393 -0.7636 0.0000 46.6507 0.0000
# 6 0.0000 0.0000 0.0000 5.0202 0.0000 35.0370
#
#
#
# Elastic Compliance Matrix: (Units=1/GPa)
#
#
# Indices 1 2 3 4 5 6 
#
# 1 0.009438 -0.006220 -0.004203 0.000000 -0.000139 0.000000
# 2 -0.006220 0.030760 -0.001101 0.000000 -0.001994 0.000000
# 3 -0.004203 -0.001101 0.009819 0.000000 0.000486 0.000000
# 4 0.000000 0.000000 0.000000 0.074152 0.000000 -0.010625
# 5 -0.000139 -0.001994 0.000486 0.000000 0.021603 0.000000
# 6 0.000000 0.000000 0.000000 -0.010625 0.000000 0.030064
#
#
# Mechanical properties :
#
#
# Convention : Reuss Voigt Hill
#
# Bulk Modulus (GPa) = 37.07839 66.09203 51.58521
# Shear Modulus (GPa) = 24.05313 33.15926 28.60620
#
# Velocity S-wave (km/s) = 3.25407 3.82070 3.54871
# Velocity P-wave (km/s) = 5.51740 6.96847 6.28495
#
# Compressibility (1/GPa) = 0.02696989
#
# Stress axis : x y z
#
# Youngs Moduli (GPa) = 105.95327 32.50942 101.84414
#
# Poissons Ratio (x) = 0.20220 0.42808
# Poissons Ratio (y) = 0.65901 0.11209
# Poissons Ratio (z) = 0.44535 0.03578
#
# Static dielectric constant tensor:
#      x y z
#    x 4.347730 0.000000 -0.000440 
#    y 0.000000 3.722690 0.000000 
#    z -0.000440 0.000000 4.272220 
# 
# 
# High freq. dielectric constant tensor:
#      x y z
#    x 1.910660 0.000000 -0.001310 
#    y 0.000000 1.872970 0.000000 
#    z -0.001310 0.000000 1.908330 
# 
# From -- ./inp_files/64821.got.cif
#   From: 2010.03.12/outbox.cif.g09.slc.cpg/sg14_33_cif.got.tgz:64821.got - 2010.03.31 13:35:05.
