data_PCOD8127169
_publ_section_title
;
Structure prediction by ZEFSAII (Michael W. Deem and Ramdas Pophale) SiO2 
 PCOD8127169
Probable space group: P 21/C
;
_chemical_formula_sum "Si O2"
_cell_formula_units_Z 24
_cell_length_a 15.954547
_cell_length_b 9.225310
_cell_length_c 18.831241
_cell_angle_alpha 90.000000
_cell_angle_beta 26.460709
_cell_angle_gamma 90.000000
_cell_volume 1235.019959
_symmetry_space_group_name_H-M "P 21/C"
_symmetry_group_IT_number 14
_symmetry_cell_setting 'monoclinic'
loop_
_space_group_symop_operation_xyz
x,y,z
-x,1/2+y,1/2-z
-x,-y,-z
x,1/2-y,1/2+z
loop_
_atom_site_type_symbol
_atom_site_label
_atom_site_fract_x
_atom_site_fract_y
_atom_site_fract_z
Si Si1 0.945366 0.592749 0.233456
Si Si2 0.340492 0.144130 0.317187
Si Si3 0.000291 0.259946 0.168438
Si Si4 0.360116 0.604280 0.905227
Si Si5 0.620028 0.109436 0.454367
Si Si6 0.629450 0.615864 0.363411
O O1 0.902359 0.667958 0.342012
O O2 0.801506 0.652007 0.284165
O O3 0.931814 0.417049 0.249733
O O4 0.145162 0.649259 0.051989
O O5 0.147376 0.213674 0.493356
O O6 0.503317 0.261141 0.199330
O O7 0.301388 0.074516 0.268801
O O8 0.424670 0.015900 0.300986
O O9 0.823290 0.166559 0.271375
O O10 0.351248 0.534340 0.990900
O O11 0.489009 0.244884 0.562943
O O12 0.500000 0.000000 0.500000
O O13 0.500000 0.500000 0.500000
#
# Coordination Sequence:
#
# PCOD8127169 Si02
#       6
#     4   4   4   4   4   4
#     4  10  22  40  62  90 118 164 204 249 312 366
#     4  10  23  41  60  92 122 160 210 254 311 361
#     4  10  22  40  64  89 123 161 208 252 305 381
#     4   9  22  40  59  87 123 157 205 255 302 379
#     4  10  22  41  59  90 124 159 209 250 312 371
#     4  11  23  40  63  89 123 163 204 257 310 370
#
# _framework density 19.432884999999999
#
# number of rings (size 3 to 8) (size 9 to 14) (size 15 to 20)
#    0.000    2.000    1.667    0.000    9.333    2.667 
#    3.000    1.667    0.000    0.000    0.000    0.000 
#    0.000    0.000    0.000    0.000    0.000    0.000 
#
# Total GULP energy -297380.369882 kJ/mol
# GULP energy per Si atom -12390.848745 kJ/mol
# Density = 1.938865 g / cm^3
# Si number density = 19.432885 Si / 1000 Ang^3
#
#
#
# Elastic Constant Matrix: (Units=GPa)
#
#
# Indices 1 2 3 4 5 6 
#
# 1 138.4317 39.8669 75.2034 0.0000 -4.4105 0.0000
# 2 39.8669 58.3065 40.8496 0.0000 10.0862 0.0000
# 3 75.2034 40.8496 113.1539 0.0000 6.7196 0.0000
# 4 0.0000 0.0000 0.0000 33.3171 0.0000 -1.6981
# 5 -4.4105 10.0862 6.7196 0.0000 36.9867 0.0000
# 6 0.0000 0.0000 0.0000 -1.6981 0.0000 38.5469
#
#
#
# Elastic Compliance Matrix: (Units=1/GPa)
#
#
# Indices 1 2 3 4 5 6 
#
# 1 0.012310 -0.004277 -0.006868 0.000000 0.003882 0.000000
# 2 -0.004277 0.025321 -0.005922 0.000000 -0.006339 0.000000
# 3 -0.006868 -0.005922 0.015662 0.000000 -0.002049 0.000000
# 4 0.000000 0.000000 0.000000 0.030082 0.000000 0.001325
# 5 0.003882 -0.006339 -0.002049 0.000000 0.029601 0.000000
# 6 0.000000 0.000000 0.000000 0.001325 0.000000 0.026001
#
#
# Mechanical properties :
#
#
# Convention : Reuss Voigt Hill
#
# Bulk Modulus (GPa) = 52.19594 69.08132 60.63863
# Shear Modulus (GPa) = 27.85570 32.03494 29.94532
#
# Velocity S-wave (km/s) = 3.79018 4.06457 3.92977
# Velocity P-wave (km/s) = 6.78762 7.59299 7.20157
#
# Compressibility (1/GPa) = 0.01915858
#
# Stress axis : x y z
#
# Youngs Moduli (GPa) = 81.23304 39.49353 63.84979
#
# Poissons Ratio (x) = 0.16891 0.43853
# Poissons Ratio (y) = 0.34742 0.37812
# Poissons Ratio (z) = 0.55792 0.23388
#
# Static dielectric constant tensor:
#      x y z
#    x 4.013530 0.000000 -0.012740 
#    y 0.000000 3.435660 0.000000 
#    z -0.012740 0.000000 3.712090 
# 
# 
# High freq. dielectric constant tensor:
#      x y z
#    x 1.765740 0.000000 -0.009710 
#    y 0.000000 1.751000 0.000000 
#    z -0.009710 0.000000 1.760250 
# 
# From -- ./inp_files/54486.got.cif
#   From: 2010.03.12/outbox.cif.g09.slc.cpg/sg14_28_cif.got.tgz:54486.got - 2010.03.31 13:35:05.
