data_PCOD8127290
_publ_section_title
;
Structure prediction by ZEFSAII (Michael W. Deem and Ramdas Pophale) SiO2 
 PCOD8127290
Probable space group: P 21/C
;
_chemical_formula_sum "Si O2"
_cell_formula_units_Z 28
_cell_length_a 22.676197
_cell_length_b 7.646893
_cell_length_c 16.698206
_cell_angle_alpha 90.000000
_cell_angle_beta 154.628098
_cell_angle_gamma 90.000000
_cell_volume 1240.703056
_symmetry_space_group_name_H-M "P 21/C"
_symmetry_group_IT_number 14
_symmetry_cell_setting 'monoclinic'
loop_
_space_group_symop_operation_xyz
x,y,z
-x,1/2+y,1/2-z
-x,-y,-z
x,1/2-y,1/2+z
loop_
_atom_site_type_symbol
_atom_site_label
_atom_site_fract_x
_atom_site_fract_y
_atom_site_fract_z
Si Si1 0.183354 0.095897 0.245374
Si Si2 0.105254 0.976898 0.873767
Si Si3 0.080587 0.686468 0.505042
Si Si4 0.192012 0.042670 0.681883
Si Si5 0.395013 0.171097 0.626040
Si Si6 0.197899 0.126791 0.518254
Si Si7 0.688237 0.450718 0.505405
O O1 0.134671 0.266443 0.135329
O O2 0.337909 0.101582 0.470051
O O3 0.172253 0.917922 0.182458
O O4 0.074197 0.105580 0.185300
O O5 0.156620 0.170239 0.958635
O O6 0.177648 0.896178 0.882153
O O7 0.941640 0.986997 0.659189
O O8 0.142696 0.846938 0.993303
O O9 0.076947 0.892403 0.523949
O O10 0.267707 0.081280 0.690197
O O11 0.288112 0.967701 0.870361
O O12 0.315364 0.068051 0.599146
O O13 0.356829 0.370203 0.589374
O O14 0.559424 0.175835 0.833416
#
# Coordination Sequence:
#
# PCOD8127290 Si02
#       7
#     4   4   4   4   4   4   4
#     4  10  22  41  64  95 132 164 215 278 314 396
#     4  11  23  42  64 103 128 175 215 274 330 387
#     4  11  22  39  67  98 127 171 211 264 347 376
#     4  11  24  40  65  99 132 168 217 275 326 383
#     4  10  23  45  63  93 129 178 215 268 328 388
#     4  11  23  40  67  95 138 161 225 280 318 390
#     4  10  26  42  67  91 134 174 221 264 330 390
#
# _framework density 22.56785
#
# number of rings (size 3 to 8) (size 9 to 14) (size 15 to 20)
#    0.000    1.429    2.857    1.286    8.000    2.857 
#    0.000    2.143    0.000    0.000    0.000    0.000 
#    0.000    0.000    0.000    0.000    0.000    0.000 
#
# Total GULP energy -346919.685472 kJ/mol
# GULP energy per Si atom -12389.988767 kJ/mol
# Density = 2.251648 g / cm^3
# Si number density = 22.567850 Si / 1000 Ang^3
#
#
#
# Elastic Constant Matrix: (Units=GPa)
#
#
# Indices 1 2 3 4 5 6 
#
# 1 116.3486 26.7744 34.5118 0.0000 -14.8828 0.0000
# 2 26.7744 64.8118 13.1997 0.0000 -12.0427 0.0000
# 3 34.5118 13.1997 60.1988 0.0000 -3.6354 0.0000
# 4 0.0000 0.0000 0.0000 30.1387 0.0000 -4.7377
# 5 -14.8828 -12.0427 -3.6354 0.0000 30.9822 0.0000
# 6 0.0000 0.0000 0.0000 -4.7377 0.0000 25.5730
#
#
#
# Elastic Compliance Matrix: (Units=1/GPa)
#
#
# Indices 1 2 3 4 5 6 
#
# 1 0.011417 -0.002869 -0.005693 0.000000 0.003701 0.000000
# 2 -0.002869 0.018020 -0.001980 0.000000 0.005394 0.000000
# 3 -0.005693 -0.001980 0.020241 0.000000 -0.001129 0.000000
# 4 0.000000 0.000000 0.000000 0.034175 0.000000 0.006331
# 5 0.003701 0.005394 -0.001129 0.000000 0.036018 0.000000
# 6 0.000000 0.000000 0.000000 0.006331 0.000000 0.040277
#
#
# Mechanical properties :
#
#
# Convention : Reuss Voigt Hill
#
# Bulk Modulus (GPa) = 34.97319 43.37012 39.17165
# Shear Modulus (GPa) = 26.21018 28.46369 27.33693
#
# Velocity S-wave (km/s) = 3.41162 3.55526 3.48418
# Velocity P-wave (km/s) = 5.57220 6.00937 5.79491
#
# Compressibility (1/GPa) = 0.02859333
#
# Stress axis : x y z
#
# Youngs Moduli (GPa) = 87.58698 55.49315 49.40392
#
# Poissons Ratio (x) = 0.15924 0.28124
# Poissons Ratio (y) = 0.25133 0.09784
# Poissons Ratio (z) = 0.49861 0.10990
#
# Static dielectric constant tensor:
#      x y z
#    x 4.578700 0.000000 0.007690 
#    y 0.000000 4.057790 0.000000 
#    z 0.007690 0.000000 4.056380 
# 
# 
# High freq. dielectric constant tensor:
#      x y z
#    x 1.889400 0.000000 -0.027630 
#    y 0.000000 1.893430 0.000000 
#    z -0.027630 0.000000 1.866550 
# 
# From -- ./inp_files/50273.got.cif
#   From: 2010.03.12/outbox.cif.g09.slc.cpg/sg14_26_cif.got.tgz:50273.got - 2010.03.31 13:35:05.
