data_PCOD8127959
_publ_section_title
;
Structure prediction by ZEFSAII (Michael W. Deem and Ramdas Pophale) SiO2 
 PCOD8127959
Probable space group: P 21/C
;
_chemical_formula_sum "Si O2"
_cell_formula_units_Z 28
_cell_length_a 5.642889
_cell_length_b 20.758184
_cell_length_c 14.518131
_cell_angle_alpha 90.000000
_cell_angle_beta 47.105620
_cell_angle_gamma 90.000000
_cell_volume 1245.874278
_symmetry_space_group_name_H-M "P 21/C"
_symmetry_group_IT_number 14
_symmetry_cell_setting 'monoclinic'
loop_
_space_group_symop_operation_xyz
x,y,z
-x,1/2+y,1/2-z
-x,-y,-z
x,1/2-y,1/2+z
loop_
_atom_site_type_symbol
_atom_site_label
_atom_site_fract_x
_atom_site_fract_y
_atom_site_fract_z
Si Si1 0.206600 0.884955 0.910793
Si Si2 0.439506 0.501148 0.622260
Si Si3 0.153221 0.069280 0.477948
Si Si4 0.126917 0.911240 0.738196
Si Si5 0.868396 0.671836 0.168729
Si Si6 0.174864 0.179897 0.824655
Si Si7 0.817555 0.372580 0.235381
O O1 0.275871 0.961077 0.905240
O O2 0.999776 0.886409 0.871630
O O3 0.523203 0.842293 0.807542
O O4 0.021254 0.859450 0.047815
O O5 0.500000 0.500000 0.500000
O O6 0.425439 0.574404 0.658616
O O7 0.109520 0.465310 0.738944
O O8 0.525686 0.056107 0.357159
O O9 0.042139 0.127644 0.442009
O O10 0.080100 0.093425 0.600382
O O11 0.000000 0.000000 0.500000
O O12 0.136706 0.846826 0.673486
O O13 0.899946 0.745960 0.134998
O O14 0.563525 0.170205 0.740642
O O15 0.031399 0.161957 0.760234
#
# Coordination Sequence:
#
# PCOD8127959 Si02
#       7
#     4   4   4   4   4   4   4
#     4  10  23  44  70  99 138 184 238 294 363 432
#     4  11  22  42  69 105 140 185 237 303 365 428
#     4  11  26  46  74 106 147 195 248 312 371 443
#     4  10  23  43  74  99 141 191 241 296 379 432
#     4  10  26  45  70 101 138 198 237 299 366 440
#     4  12  29  46  71 107 145 189 244 299 363 438
#     4  12  29  45  71 111 142 189 243 303 362 438
#
# _framework density 22.474177000000001
#
# number of rings (size 3 to 8) (size 9 to 14) (size 15 to 20)
#    0.000    1.143    1.429    3.429   14.000    2.286 
#    0.000    0.000    0.000    0.000    0.000    0.000 
#    0.000    0.000    0.000    0.000    0.000    0.000 
#
# Total GULP energy -346904.286445 kJ/mol
# GULP energy per Si atom -12389.438802 kJ/mol
# Density = 2.242302 g / cm^3
# Si number density = 22.474177 Si / 1000 Ang^3
#
#
#
# Elastic Constant Matrix: (Units=GPa)
#
#
# Indices 1 2 3 4 5 6 
#
# 1 117.7147 50.9480 24.2902 0.0000 15.8780 0.0000
# 2 50.9480 140.2955 20.7685 0.0000 8.8302 0.0000
# 3 24.2902 20.7685 94.9540 0.0000 19.1039 0.0000
# 4 0.0000 0.0000 0.0000 25.8791 0.0000 1.1341
# 5 15.8780 8.8302 19.1039 0.0000 31.1607 0.0000
# 6 0.0000 0.0000 0.0000 1.1341 0.0000 32.6116
#
#
#
# Elastic Compliance Matrix: (Units=1/GPa)
#
#
# Indices 1 2 3 4 5 6 
#
# 1 0.010766 -0.003491 -0.001239 0.000000 -0.003737 0.000000
# 2 -0.003491 0.008542 -0.000965 0.000000 -0.000050 0.000000
# 3 -0.001239 -0.000965 0.012408 0.000000 -0.006702 0.000000
# 4 0.000000 0.000000 0.000000 0.038700 0.000000 -0.001346
# 5 -0.003737 -0.000050 -0.006702 0.000000 0.038119 0.000000
# 6 0.000000 0.000000 0.000000 -0.001346 0.000000 0.030711
#
#
# Mechanical properties :
#
#
# Convention : Reuss Voigt Hill
#
# Bulk Modulus (GPa) = 49.19881 60.55309 54.87595
# Shear Modulus (GPa) = 31.76423 35.06077 33.41250
#
# Velocity S-wave (km/s) = 3.76355 3.95403 3.85997
# Velocity P-wave (km/s) = 6.38941 6.91720 6.65854
#
# Compressibility (1/GPa) = 0.02032570
#
# Stress axis : x y z
#
# Youngs Moduli (GPa) = 92.88761 117.07443 80.59447
#
# Poissons Ratio (x) = 0.40870 0.09982
# Poissons Ratio (y) = 0.32427 0.07779
# Poissons Ratio (z) = 0.11505 0.11300
#
# Static dielectric constant tensor:
#      x y z
#    x 0.843290 0.000000 -6.832000 
#    y 0.000000 4.341780 0.000000 
#    z -6.832000 0.000000 -9.560970 
# 
# 
# High freq. dielectric constant tensor:
#      x y z
#    x 1.893480 0.000000 0.010190 
#    y 0.000000 1.881660 0.000000 
#    z 0.010190 0.000000 1.896980 
# 
# From -- ./inp_files/38056.got.cif
#   From: 2010.03.12/outbox.cif.g09.slc.cpg/sg14_20_cif.got.tgz:38056.got - 2010.03.31 13:35:05.
