data_PCOD8127250
_publ_section_title
;
Structure prediction by ZEFSAII (Michael W. Deem and Ramdas Pophale) SiO2 
 PCOD8127250
Probable space group: P 21/C
;
_chemical_formula_sum "Si O2"
_cell_formula_units_Z 32
_cell_length_a 8.260723
_cell_length_b 21.087870
_cell_length_c 14.377862
_cell_angle_alpha 90.000000
_cell_angle_beta 146.740855
_cell_angle_gamma 90.000000
_cell_volume 1373.610741
_symmetry_space_group_name_H-M "P 21/C"
_symmetry_group_IT_number 14
_symmetry_cell_setting 'monoclinic'
loop_
_space_group_symop_operation_xyz
x,y,z
-x,1/2+y,1/2-z
-x,-y,-z
x,1/2-y,1/2+z
loop_
_atom_site_type_symbol
_atom_site_label
_atom_site_fract_x
_atom_site_fract_y
_atom_site_fract_z
Si Si1 0.379692 0.830415 0.901952
Si Si2 0.508990 0.187956 0.248460
Si Si3 0.143695 0.816659 0.087867
Si Si4 0.227583 0.047549 0.352394
Si Si5 0.109433 0.008581 0.657471
Si Si6 0.713735 0.427888 0.481164
Si Si7 0.718292 0.123645 0.519966
Si Si8 0.987918 0.781733 0.214019
O O1 0.375254 0.889509 0.968753
O O2 0.636710 0.781818 0.056336
O O3 0.448260 0.848243 0.828790
O O4 0.073320 0.792066 0.754797
O O5 0.641163 0.257806 0.325138
O O6 0.654472 0.135243 0.381980
O O7 0.167645 0.198585 0.109555
O O8 0.263714 0.881509 0.097877
O O9 0.098710 0.822487 0.177457
O O10 0.406845 0.112763 0.423969
O O11 0.500000 0.000000 0.500000
O O12 0.006525 0.051321 0.335909
O O13 0.021949 0.036693 0.159593
O O14 0.462491 0.019906 0.835180
O O15 0.950059 0.066131 0.635070
O O16 0.000000 0.000000 0.500000
O O17 0.868615 0.186542 0.628344
#
# Coordination Sequence:
#
# PCOD8127250 Si02
#       8
#     4   4   4   4   4   4   4   4
#     4  10  23  39  65 101 136 177 213 261 330 408
#     4  10  22  41  61 101 139 173 214 263 321 413
#     4  10  23  39  65 100 137 173 215 257 332 409
#     4  10  25  47  66  94 125 172 226 288 335 387
#     4  11  27  46  67  99 126 170 234 295 337 386
#     4  12  23  44  71  97 131 181 219 280 343 402
#     4  11  22  43  68  90 133 177 217 276 335 397
#     4  10  22  41  62 100 140 173 212 262 322 412
#
# _framework density 23.296264000000001
#
# number of rings (size 3 to 8) (size 9 to 14) (size 15 to 20)
#    0.000    1.500    2.500    1.125    7.000    2.000 
#    0.000    2.500    0.000    0.000    0.000    0.000 
#    0.000    0.000    0.000    0.000    0.000    0.000 
#
# Total GULP energy -396470.625466 kJ/mol
# GULP energy per Si atom -12389.707046 kJ/mol
# Density = 2.324324 g / cm^3
# Si number density = 23.296264 Si / 1000 Ang^3
#
#
#
# Elastic Constant Matrix: (Units=GPa)
#
#
# Indices 1 2 3 4 5 6 
#
# 1 60.3744 14.3386 24.2585 0.0000 0.7177 0.0000
# 2 14.3386 24.9247 13.5016 0.0000 0.4569 0.0000
# 3 24.2585 13.5016 131.1409 0.0000 7.0697 0.0000
# 4 0.0000 0.0000 0.0000 43.1250 0.0000 -0.5512
# 5 0.7177 0.4569 7.0697 0.0000 42.8210 0.0000
# 6 0.0000 0.0000 0.0000 -0.5512 0.0000 37.0875
#
#
#
# Elastic Compliance Matrix: (Units=1/GPa)
#
#
# Indices 1 2 3 4 5 6 
#
# 1 0.020030 -0.010075 -0.002679 0.000000 0.000214 0.000000
# 2 -0.010075 0.047562 -0.003042 0.000000 0.000164 0.000000
# 3 -0.002679 -0.003042 0.008506 0.000000 -0.001327 0.000000
# 4 0.000000 0.000000 0.000000 0.023193 0.000000 0.000345
# 5 0.000214 0.000164 -0.001327 0.000000 0.023567 0.000000
# 6 0.000000 0.000000 0.000000 0.000345 0.000000 0.026968
#
#
# Mechanical properties :
#
#
# Convention : Reuss Voigt Hill
#
# Bulk Modulus (GPa) = 22.46969 35.62637 29.04803
# Shear Modulus (GPa) = 25.47726 35.56280 30.52003
#
# Velocity S-wave (km/s) = 3.31058 3.91134 3.62343
# Velocity P-wave (km/s) = 4.92741 5.97696 5.47738
#
# Compressibility (1/GPa) = 0.04450439
#
# Stress axis : x y z
#
# Youngs Moduli (GPa) = 49.92457 21.02536 117.56780
#
# Poissons Ratio (x) = 0.21184 0.31502
# Poissons Ratio (y) = 0.50301 0.35761
# Poissons Ratio (z) = 0.13377 0.06395
#
# Static dielectric constant tensor:
#      x y z
#    x 4.306110 0.000000 0.177210 
#    y 0.000000 3.848580 0.000000 
#    z 0.177210 0.000000 4.601640 
# 
# 
# High freq. dielectric constant tensor:
#      x y z
#    x 1.923370 0.000000 0.005240 
#    y 0.000000 1.895910 0.000000 
#    z 0.005240 0.000000 1.944390 
# 
# From -- ./inp_files/42249.got.cif
#   From: 2010.03.12/outbox.cif.g09.slc.cpg/sg14_22_cif.got.tgz:42249.got - 2010.03.31 13:35:05.
