data_PCOD8127561
_publ_section_title
;
Structure prediction by ZEFSAII (Michael W. Deem and Ramdas Pophale) SiO2 
 PCOD8127561
Probable space group: P 21/C
;
_chemical_formula_sum "Si O2"
_cell_formula_units_Z 20
_cell_length_a 9.738661
_cell_length_b 7.536593
_cell_length_c 28.175536
_cell_angle_alpha 90.000000
_cell_angle_beta 24.489389
_cell_angle_gamma 90.000000
_cell_volume 857.229140
_symmetry_space_group_name_H-M "P 21/C"
_symmetry_group_IT_number 14
_symmetry_cell_setting 'monoclinic'
loop_
_space_group_symop_operation_xyz
x,y,z
-x,1/2+y,1/2-z
-x,-y,-z
x,1/2-y,1/2+z
loop_
_atom_site_type_symbol
_atom_site_label
_atom_site_fract_x
_atom_site_fract_y
_atom_site_fract_z
Si Si1 0.567579 0.121357 0.774238
Si Si2 0.810048 0.675685 0.975214
Si Si3 0.388678 0.994968 0.339993
Si Si4 0.581280 0.500773 0.369835
Si Si5 0.684081 0.606927 0.843874
O O1 0.358310 0.293369 0.855427
O O2 0.530668 0.982312 0.828750
O O3 0.959431 0.172004 0.644170
O O4 0.429801 0.038141 0.768482
O O5 0.701771 0.877812 0.018212
O O6 0.498176 0.543122 0.067343
O O7 0.021324 0.594953 0.953766
O O8 0.614742 0.915306 0.309861
O O9 0.563748 0.696811 0.397783
O O10 0.926476 0.403571 0.271016
#
# Coordination Sequence:
#
# PCOD8127561 Si02
#       5
#     4   4   4   4   4
#     4  10  23  42  68 100 135 172 224 277 320 403
#     4  10  25  44  69  99 134 178 225 264 347 389
#     4  10  22  44  65 101 133 172 224 276 320 401
#     4  12  24  45  69  97 137 179 222 275 338 391
#     4  12  23  44  70  95 138 177 219 281 325 400
#
# _framework density 23.330987
#
# number of rings (size 3 to 8) (size 9 to 14) (size 15 to 20)
#    1.200    0.000    4.000    1.800    0.000    3.200 
#    0.000    2.000    0.000    0.000    0.000    0.000 
#    0.000    0.000    0.000    0.000    0.000    0.000 
#
# Total GULP energy -247958.102514 kJ/mol
# GULP energy per Si atom -12397.905126 kJ/mol
# Density = 2.327788 g / cm^3
# Si number density = 23.330987 Si / 1000 Ang^3
#
#
#
# Elastic Constant Matrix: (Units=GPa)
#
#
# Indices 1 2 3 4 5 6 
#
# 1 29.7393 5.1641 2.8705 0.0000 -8.3599 0.0000
# 2 5.1641 109.7802 -14.1921 0.0000 2.5499 0.0000
# 3 2.8705 -14.1921 48.0693 -0.0001 4.7009 0.0000
# 4 0.0000 0.0000 -0.0001 38.5623 0.0000 -1.7580
# 5 -8.3599 2.5499 4.7009 0.0000 26.0783 0.0000
# 6 0.0000 0.0000 0.0000 -1.7580 0.0000 27.6528
#
#
#
# Elastic Compliance Matrix: (Units=1/GPa)
#
#
# Indices 1 2 3 4 5 6 
#
# 1 0.038255 -0.002675 -0.004376 0.000000 0.013314 0.000000
# 2 -0.002675 0.009712 0.003261 0.000000 -0.002395 0.000000
# 3 -0.004376 0.003261 0.022594 0.000000 -0.005795 0.000000
# 4 0.000000 0.000000 0.000000 0.026007 0.000000 0.001653
# 5 0.013314 -0.002395 -0.005795 0.000000 0.043893 0.000000
# 6 0.000000 0.000000 0.000000 0.001653 0.000000 0.036268
#
#
# Mechanical properties :
#
#
# Convention : Reuss Voigt Hill
#
# Bulk Modulus (GPa) = 15.87732 19.47487 17.67609
# Shear Modulus (GPa) = 24.35436 31.37510 27.86473
#
# Velocity S-wave (km/s) = 3.23439 3.67111 3.45965
# Velocity P-wave (km/s) = 4.55724 5.13173 4.85299
#
# Compressibility (1/GPa) = 0.06298294
#
# Stress axis : x y z
#
# Youngs Moduli (GPa) = 26.14039 102.96363 44.25917
#
# Poissons Ratio (x) = 0.27538 0.19368
# Poissons Ratio (y) = 0.06991 -0.14435
# Poissons Ratio (z) = 0.11439 -0.33580
#
# Static dielectric constant tensor:
#      x y z
#    x 4.035090 0.000000 -0.056140 
#    y 0.000000 4.098230 0.000000 
#    z -0.056140 0.000000 3.925580 
# 
# 
# High freq. dielectric constant tensor:
#      x y z
#    x 1.907480 0.000000 0.000030 
#    y 0.000000 1.929860 0.000000 
#    z 0.000030 0.000000 1.913970 
# 
# From -- ./inp_files/79333.got.cif
#   From: 2010.03.12/outbox.cif.g09.slc.cpg/sg14_40_cif.got.tgz:79333.got - 2010.03.31 13:35:05.
