data_PCOD8127554
_publ_section_title
;
Structure prediction by ZEFSAII (Michael W. Deem and Ramdas Pophale) SiO2 
 PCOD8127554
Probable space group: P 21/C
;
_chemical_formula_sum "Si O2"
_cell_formula_units_Z 24
_cell_length_a 12.933388
_cell_length_b 11.213056
_cell_length_c 19.858497
_cell_angle_alpha 90.000000
_cell_angle_beta 22.754486
_cell_angle_gamma 90.000000
_cell_volume 1113.910341
_symmetry_space_group_name_H-M "P 21/C"
_symmetry_group_IT_number 14
_symmetry_cell_setting 'monoclinic'
loop_
_space_group_symop_operation_xyz
x,y,z
-x,1/2+y,1/2-z
-x,-y,-z
x,1/2-y,1/2+z
loop_
_atom_site_type_symbol
_atom_site_label
_atom_site_fract_x
_atom_site_fract_y
_atom_site_fract_z
Si Si1 0.100883 0.024057 0.075758
Si Si2 0.272839 0.681421 0.389857
Si Si3 0.659613 0.879228 0.396791
Si Si4 0.419439 0.531573 0.623539
Si Si5 0.685253 0.779483 0.757200
Si Si6 0.331864 0.781474 0.704488
O O1 0.901249 0.126799 0.174117
O O2 0.227314 0.958970 0.934040
O O3 0.323480 0.079087 0.989746
O O4 0.967645 0.915903 0.199963
O O5 0.478995 0.739274 0.319501
O O6 0.409732 0.698746 0.235291
O O7 0.986237 0.745817 0.557408
O O8 0.565212 0.801262 0.389317
O O9 0.603006 0.804880 0.498459
O O10 0.500000 0.000000 0.500000
O O11 0.500000 0.500000 0.500000
O O12 0.291300 0.417180 0.735384
O O13 0.228091 0.647834 0.746680
#
# Coordination Sequence:
#
# PCOD8127554 Si02
#       6
#     4   4   4   4   4   4
#     4   9  22  42  65  91 130 173 216 276 326 388
#     4  10  23  42  67  94 135 171 218 277 331 397
#     4   9  19  40  66  91 115 168 225 259 320 387
#     4  11  23  40  63  96 135 165 218 280 329 387
#     4  10  22  44  62  93 137 175 208 277 343 382
#     4  11  22  39  67  95 123 173 225 262 324 402
#
# _framework density 21.545718999999998
#
# number of rings (size 3 to 8) (size 9 to 14) (size 15 to 20)
#    0.000    2.000    1.667    0.500    2.333    4.667 
#    6.000    3.333    0.000    0.000    0.000    0.000 
#    0.000    0.000    0.000    0.000    0.000    0.000 
#
# Total GULP energy -297447.788921 kJ/mol
# GULP energy per Si atom -12393.657872 kJ/mol
# Density = 2.149668 g / cm^3
# Si number density = 21.545719 Si / 1000 Ang^3
#
#
#
# Elastic Constant Matrix: (Units=GPa)
#
#
# Indices 1 2 3 4 5 6 
#
# 1 141.5046 56.9514 66.3748 0.0000 19.1707 0.0000
# 2 56.9514 135.9570 29.4654 0.0000 11.2287 0.0000
# 3 66.3748 29.4654 71.6653 0.0000 17.7664 0.0000
# 4 0.0000 0.0000 0.0000 25.3618 0.0000 2.8159
# 5 19.1707 11.2287 17.7664 0.0000 45.1447 0.0000
# 6 0.0000 0.0000 0.0000 2.8159 0.0000 31.8033
#
#
#
# Elastic Compliance Matrix: (Units=1/GPa)
#
#
# Indices 1 2 3 4 5 6 
#
# 1 0.013727 -0.003269 -0.011221 0.000000 -0.000600 0.000000
# 2 -0.003269 0.008878 -0.000465 0.000000 -0.000637 0.000000
# 3 -0.011221 -0.000465 0.025850 0.000000 -0.005292 0.000000
# 4 0.000000 0.000000 0.000000 0.039821 0.000000 -0.003526
# 5 -0.000600 -0.000637 -0.005292 0.000000 0.024647 0.000000
# 6 0.000000 0.000000 0.000000 -0.003526 0.000000 0.031755
#
#
# Mechanical properties :
#
#
# Convention : Reuss Voigt Hill
#
# Bulk Modulus (GPa) = 53.92152 72.74556 63.33354
# Shear Modulus (GPa) = 27.65959 33.55097 30.60528
#
# Velocity S-wave (km/s) = 3.58685 3.95042 3.77302
# Velocity P-wave (km/s) = 6.49884 7.39218 6.95986
#
# Compressibility (1/GPa) = 0.01854547
#
# Stress axis : x y z
#
# Youngs Moduli (GPa) = 72.84793 112.63957 38.68540
#
# Poissons Ratio (x) = 0.36819 0.43409
# Poissons Ratio (y) = 0.23812 0.01798
# Poissons Ratio (z) = 0.81743 0.05235
#
# Static dielectric constant tensor:
#      x y z
#    x 3.877070 0.000000 0.294690 
#    y 0.000000 4.219190 0.000000 
#    z 0.294690 0.000000 4.186960 
# 
# 
# High freq. dielectric constant tensor:
#      x y z
#    x 1.840910 0.000000 0.016960 
#    y 0.000000 1.864010 0.000000 
#    z 0.016960 0.000000 1.837150 
# 
# From -- ./inp_files/33983.got.cif
#   From: 2010.03.12/outbox.cif.g09.slc.cpg/sg14_17_cif.got.tgz:33983.got - 2010.03.31 13:35:05.
