data_PCOD8127574
_publ_section_title
;
Structure prediction by ZEFSAII (Michael W. Deem and Ramdas Pophale) SiO2 
 PCOD8127574
Probable space group: P 21/C
;
_chemical_formula_sum "Si O2"
_cell_formula_units_Z 32
_cell_length_a 12.633202
_cell_length_b 14.485962
_cell_length_c 9.629690
_cell_angle_alpha 90.000000
_cell_angle_beta 61.698587
_cell_angle_gamma 90.000000
_cell_volume 1551.620509
_symmetry_space_group_name_H-M "P 21/C"
_symmetry_group_IT_number 14
_symmetry_cell_setting 'monoclinic'
loop_
_space_group_symop_operation_xyz
x,y,z
-x,1/2+y,1/2-z
-x,-y,-z
x,1/2-y,1/2+z
loop_
_atom_site_type_symbol
_atom_site_label
_atom_site_fract_x
_atom_site_fract_y
_atom_site_fract_z
Si Si1 0.155880 0.493064 0.536423
Si Si2 0.268003 0.355311 0.077397
Si Si3 0.526620 0.415577 0.814349
Si Si4 0.715204 0.691215 0.618840
Si Si5 0.528112 0.110353 0.770867
Si Si6 0.650936 0.132342 0.971571
Si Si7 0.700505 0.160372 0.432847
Si Si8 0.109977 0.525235 0.248093
O O1 0.219031 0.394826 0.491411
O O2 0.237634 0.565754 0.567178
O O3 0.131345 0.531565 0.398991
O O4 0.031161 0.481304 0.697524
O O5 0.270729 0.304542 0.224262
O O6 0.173194 0.437841 0.137003
O O7 0.398035 0.394040 0.957390
O O8 0.227613 0.282924 0.984413
O O9 0.533386 0.522004 0.763207
O O10 0.562760 0.354312 0.658522
O O11 0.625601 0.401255 0.870751
O O12 0.574379 0.688983 0.664158
O O13 0.571092 0.087783 0.899330
O O14 0.644541 0.147189 0.618929
O O15 0.701262 0.231949 0.892614
O O16 0.835798 0.119774 0.350062
#
# Coordination Sequence:
#
# PCOD8127574 Si02
#       8
#     4   4   4   4   4   4   4   4
#     4  10  23  43  66  88 121 167 222 260 308 375
#     4  11  23  39  66  95 125 164 209 261 319 385
#     4  12  22  41  63  91 133 169 206 253 318 396
#     4  11  23  40  64  95 126 164 207 258 320 379
#     4  12  24  38  63  97 130 167 203 260 328 376
#     4  12  25  39  63  99 133 163 208 270 321 369
#     4  12  22  41  66  94 129 168 212 256 318 391
#     4  10  22  44  67  87 117 175 219 256 310 378
#
# _framework density 20.623598999999999
#
# number of rings (size 3 to 8) (size 9 to 14) (size 15 to 20)
#    0.000    0.750    5.000    3.750    1.750    1.000 
#    0.000    0.625    0.000    0.000    0.000    0.000 
#    0.000    0.000    0.000    0.000    0.000    0.000 
#
# Total GULP energy -396937.420182 kJ/mol
# GULP energy per Si atom -12404.294381 kJ/mol
# Density = 2.057666 g / cm^3
# Si number density = 20.623599 Si / 1000 Ang^3
#
#
#
# Elastic Constant Matrix: (Units=GPa)
#
#
# Indices 1 2 3 4 5 6 
#
# 1 53.9811 13.8450 49.1781 0.0000 -14.0374 0.0000
# 2 13.8450 89.1027 44.0856 0.0000 -8.4895 0.0000
# 3 49.1781 44.0856 114.8957 0.0000 -14.9210 0.0000
# 4 0.0000 0.0000 0.0000 33.0370 0.0000 3.5292
# 5 -14.0374 -8.4895 -14.9210 0.0000 41.0329 0.0000
# 6 0.0000 0.0000 0.0000 3.5292 0.0000 14.5964
#
#
#
# Elastic Compliance Matrix: (Units=1/GPa)
#
#
# Indices 1 2 3 4 5 6 
#
# 1 0.032254 0.002494 -0.013920 0.000000 0.006488 0.000000
# 2 0.002494 0.014083 -0.006278 0.000000 0.001484 0.000000
# 3 -0.013920 -0.006278 0.017090 0.000000 0.000154 0.000000
# 4 0.000000 0.000000 0.000000 0.031072 0.000000 -0.007513
# 5 0.006488 0.001484 0.000154 0.000000 0.026953 0.000000
# 6 0.000000 0.000000 0.000000 -0.007513 0.000000 0.070326
#
#
# Mechanical properties :
#
#
# Convention : Reuss Voigt Hill
#
# Bulk Modulus (GPa) = 35.69043 52.46632 44.07837
# Shear Modulus (GPa) = 21.13924 27.79133 24.46528
#
# Velocity S-wave (km/s) = 3.20504 3.67488 3.44797
# Velocity P-wave (km/s) = 5.57132 6.59557 6.10496
#
# Compressibility (1/GPa) = 0.02801872
#
# Stress axis : x y z
#
# Youngs Moduli (GPa) = 31.00415 71.00622 58.51233
#
# Poissons Ratio (x) = -0.17706 0.81446
# Poissons Ratio (y) = -0.07731 0.36736
# Poissons Ratio (z) = 0.43156 0.44580
#
# Static dielectric constant tensor:
#      x y z
#    x 3.615830 0.000000 -0.176160 
#    y 0.000000 3.788080 0.000000 
#    z -0.176160 0.000000 3.977010 
# 
# 
# High freq. dielectric constant tensor:
#      x y z
#    x 1.782790 0.000000 -0.007480 
#    y 0.000000 1.814410 0.000000 
#    z -0.007480 0.000000 1.816110 
# 
# From -- ./inp_files/16241.got.cif
#   From: 2010.03.12/outbox.cif.g09.slc.cpg/sg14_9_cif.got.tgz:16241.got - 2010.03.31 13:35:05.
