data_PCOD8127379
_publ_section_title
;
Structure prediction by ZEFSAII (Michael W. Deem and Ramdas Pophale) SiO2 
 PCOD8127379
Probable space group: P 21/C
;
_chemical_formula_sum "Si O2"
_cell_formula_units_Z 16
_cell_length_a 6.233884
_cell_length_b 15.725661
_cell_length_c 5.187386
_cell_angle_alpha 90.000000
_cell_angle_beta 107.033633
_cell_angle_gamma 90.000000
_cell_volume 486.221864
_symmetry_space_group_name_H-M "P 21/C"
_symmetry_group_IT_number 14
_symmetry_cell_setting 'monoclinic'
loop_
_space_group_symop_operation_xyz
x,y,z
-x,1/2+y,1/2-z
-x,-y,-z
x,1/2-y,1/2+z
loop_
_atom_site_type_symbol
_atom_site_label
_atom_site_fract_x
_atom_site_fract_y
_atom_site_fract_z
Si Si1 0.804222 0.941778 0.196309
Si Si2 0.181680 0.675666 0.701503
Si Si3 0.757308 0.789072 0.547093
Si Si4 0.377479 0.886261 0.776395
O O1 0.752991 0.882363 0.428710
O O2 0.034104 0.911030 0.144101
O O3 0.812695 0.038780 0.299887
O O4 0.614036 0.932958 0.907932
O O5 0.326186 0.679939 0.490465
O O6 0.018502 0.758365 0.687248
O O7 0.364800 0.665666 0.999217
O O8 0.651886 0.779829 0.802164
#
# Coordination Sequence:
#
# PCOD8127379 Si02
#       4
#     4   4   4   4
#     4  10  24  45  69 102 138 175 224 287 336 396
#     4  11  23  44  66  98 138 177 220 277 336 406
#     4  10  22  42  64  90 134 177 214 271 333 388
#     4  11  25  42  73 103 132 177 230 276 342 404
#
# _framework density 32.906785999999997
#
# number of rings (size 3 to 8) (size 9 to 14) (size 15 to 20)
#    0.000    1.500    0.000    4.500    0.000   14.000 
#    0.000   30.000    0.000    0.000    0.000    0.000 
#    0.000    0.000    0.000    0.000    0.000    0.000 
#
# Total GULP energy -198397.651747 kJ/mol
# GULP energy per Si atom -12399.853234 kJ/mol
# Density = 3.283189 g / cm^3
# Si number density = 32.906786 Si / 1000 Ang^3
#
#
#
# Elastic Constant Matrix: (Units=GPa)
#
#
# Indices 1 2 3 4 5 6 
#
# 1 90.6943 -17.1462 77.1089 0.0000 -22.3249 0.0000
# 2 -17.1462 144.4761 30.3903 0.0000 -5.2133 0.0000
# 3 77.1089 30.3903 251.6325 0.0000 -33.7985 0.0000
# 4 0.0000 0.0000 0.0000 58.1074 0.0000 15.8264
# 5 -22.3249 -5.2133 -33.7985 0.0000 90.6091 0.0000
# 6 0.0000 0.0000 0.0000 15.8264 0.0000 36.9149
#
#
#
# Elastic Compliance Matrix: (Units=1/GPa)
#
#
# Indices 1 2 3 4 5 6 
#
# 1 0.016565 0.003131 -0.005139 0.000000 0.002344 0.000000
# 2 0.003131 0.007695 -0.001817 0.000000 0.000537 0.000000
# 3 -0.005139 -0.001817 0.005879 0.000000 0.000822 0.000000
# 4 0.000000 0.000000 0.000000 0.019485 0.000000 -0.008354
# 5 0.002344 0.000537 0.000822 0.000000 0.011952 0.000000
# 6 0.000000 0.000000 0.000000 -0.008354 0.000000 0.030671
#
#
# Mechanical properties :
#
#
# Convention : Reuss Voigt Hill
#
# Bulk Modulus (GPa) = 44.46646 74.16765 59.31706
# Shear Modulus (GPa) = 46.55900 63.55628 55.05764
#
# Velocity S-wave (km/s) = 3.76556 4.39954 4.09484
# Velocity P-wave (km/s) = 5.69633 6.95669 6.35782
#
# Compressibility (1/GPa) = 0.02248886
#
# Stress axis : x y z
#
# Youngs Moduli (GPa) = 60.36964 129.95904 170.10435
#
# Poissons Ratio (x) = -0.40697 0.87421
# Poissons Ratio (y) = -0.18905 0.30905
# Poissons Ratio (z) = 0.31026 0.23611
#
# Static dielectric constant tensor:
#      x y z
#    x 6.873390 0.000000 0.038220 
#    y 0.000000 6.487170 0.000000 
#    z 0.038220 0.000000 7.185140 
# 
# 
# High freq. dielectric constant tensor:
#      x y z
#    x 2.388530 0.000000 0.030490 
#    y 0.000000 2.371730 0.000000 
#    z 0.030490 0.000000 2.407920 
# 
# From -- ./inp_files/250.got.cif
#   From: 2010.03.12/outbox.cif.g09.slc.cpg/sg14_1_cif.got.tgz:250.got - 2010.03.31 13:35:05.
