data_PCOD8127225
_publ_section_title
;
Structure prediction by ZEFSAII (Michael W. Deem and Ramdas Pophale) SiO2 
 PCOD8127225
Probable space group: P 21/C
;
_chemical_formula_sum "Si O2"
_cell_formula_units_Z 32
_cell_length_a 11.648620
_cell_length_b 14.643521
_cell_length_c 14.773400
_cell_angle_alpha 90.000000
_cell_angle_beta 141.867889
_cell_angle_gamma 90.000000
_cell_volume 1556.041233
_symmetry_space_group_name_H-M "P 21/C"
_symmetry_group_IT_number 14
_symmetry_cell_setting 'monoclinic'
loop_
_space_group_symop_operation_xyz
x,y,z
-x,1/2+y,1/2-z
-x,-y,-z
x,1/2-y,1/2+z
loop_
_atom_site_type_symbol
_atom_site_label
_atom_site_fract_x
_atom_site_fract_y
_atom_site_fract_z
Si Si1 0.949489 0.420745 0.838642
Si Si2 0.792078 0.217981 0.099502
Si Si3 0.697512 0.478066 0.224767
Si Si4 0.517972 0.852301 0.534000
Si Si5 0.832109 0.790128 0.214450
Si Si6 0.767759 0.926027 0.337685
Si Si7 0.649485 0.066178 0.894253
Si Si8 0.053711 0.454341 0.325146
O O1 0.838312 0.337074 0.721833
O O2 0.826377 0.476279 0.834062
O O3 0.025146 0.491011 0.810336
O O4 0.122649 0.387234 0.006670
O O5 0.980201 0.231983 0.157643
O O6 0.675559 0.309924 0.048223
O O7 0.666829 0.165482 0.949398
O O8 0.626932 0.583833 0.174675
O O9 0.738865 0.446553 0.351705
O O10 0.895142 0.460799 0.301032
O O11 0.534676 0.415093 0.083378
O O12 0.656560 0.774003 0.583905
O O13 0.778483 0.848160 0.268684
O O14 0.887476 0.851469 0.162120
O O15 0.566317 0.952380 0.247458
O O16 0.751715 0.997368 0.024797
#
# Coordination Sequence:
#
# PCOD8127225 Si02
#       8
#     4   4   4   4   4   4   4   4
#     4   9  22  39  67  92 132 171 216 261 346 385
#     4  11  23  43  67  96 134 172 221 279 324 392
#     4  11  25  44  66  92 138 182 219 262 348 404
#     4  11  24  42  66  96 131 179 221 273 330 399
#     4  11  23  42  66  98 134 167 223 276 329 380
#     4  10  22  40  66  99 129 169 214 277 325 401
#     4  11  24  41  67  98 131 170 225 270 331 396
#     4  10  22  43  68  94 133 177 216 275 331 394
#
# _framework density 20.565007999999999
#
# number of rings (size 3 to 8) (size 9 to 14) (size 15 to 20)
#    0.000    1.500    2.500    1.875    7.000    3.500 
#    4.500    0.000    0.000    0.000    0.000    0.000 
#    0.000    0.000    0.000    0.000    0.000    0.000 
#
# Total GULP energy -396663.508508 kJ/mol
# GULP energy per Si atom -12395.734641 kJ/mol
# Density = 2.051820 g / cm^3
# Si number density = 20.565008 Si / 1000 Ang^3
#
#
#
# Elastic Constant Matrix: (Units=GPa)
#
#
# Indices 1 2 3 4 5 6 
#
# 1 109.7373 28.3262 40.3265 0.0000 9.8334 0.0000
# 2 28.3262 89.6209 40.3063 0.0000 0.3306 0.0000
# 3 40.3265 40.3063 90.1021 0.0000 4.6048 0.0000
# 4 0.0000 0.0000 0.0000 17.9412 0.0000 10.7847
# 5 9.8334 0.3306 4.6048 0.0000 38.9762 0.0000
# 6 0.0000 0.0000 0.0000 10.7847 0.0000 24.5365
#
#
#
# Elastic Compliance Matrix: (Units=1/GPa)
#
#
# Indices 1 2 3 4 5 6 
#
# 1 0.011293 -0.001679 -0.004184 0.000000 -0.002341 0.000000
# 2 -0.001679 0.014233 -0.005665 0.000000 0.000972 0.000000
# 3 -0.004184 -0.005665 0.015543 0.000000 -0.000733 0.000000
# 4 0.000000 0.000000 0.000000 0.075752 0.000000 -0.033296
# 5 -0.002341 0.000972 -0.000733 0.000000 0.026326 0.000000
# 6 0.000000 0.000000 0.000000 -0.033296 0.000000 0.055391
#
#
# Mechanical properties :
#
#
# Convention : Reuss Voigt Hill
#
# Bulk Modulus (GPa) = 55.51555 56.37536 55.94546
# Shear Modulus (GPa) = 21.96853 28.32421 25.14637
#
# Velocity S-wave (km/s) = 3.27195 3.71523 3.50061
# Velocity P-wave (km/s) = 6.42868 6.77323 6.60320
#
# Compressibility (1/GPa) = 0.01801297
#
# Stress axis : x y z
#
# Youngs Moduli (GPa) = 88.54815 70.25855 64.33892
#
# Poissons Ratio (x) = 0.11798 0.26917
# Poissons Ratio (y) = 0.14869 0.36449
# Poissons Ratio (z) = 0.37046 0.39803
#
# Static dielectric constant tensor:
#      x y z
#    x 3.658000 0.000000 0.015010 
#    y 0.000000 3.848190 0.000000 
#    z 0.015010 0.000000 3.795820 
# 
# 
# High freq. dielectric constant tensor:
#      x y z
#    x 1.805100 0.000000 0.011760 
#    y 0.000000 1.806350 0.000000 
#    z 0.011760 0.000000 1.807470 
# 
# From -- ./inp_files/45113.got.cif
#   From: 2010.03.12/outbox.cif.g09.slc.cpg/sg14_23_cif.got.tgz:45113.got - 2010.03.31 13:35:05.
