data_PCOD8127757
_publ_section_title
;
Structure prediction by ZEFSAII (Michael W. Deem and Ramdas Pophale) SiO2 
 PCOD8127757
Probable space group: P 21/C
;
_chemical_formula_sum "Si O2"
_cell_formula_units_Z 32
_cell_length_a 11.359750
_cell_length_b 11.813232
_cell_length_c 12.492243
_cell_angle_alpha 90.000000
_cell_angle_beta 115.096553
_cell_angle_gamma 90.000000
_cell_volume 1518.139287
_symmetry_space_group_name_H-M "P 21/C"
_symmetry_group_IT_number 14
_symmetry_cell_setting 'monoclinic'
loop_
_space_group_symop_operation_xyz
x,y,z
-x,1/2+y,1/2-z
-x,-y,-z
x,1/2-y,1/2+z
loop_
_atom_site_type_symbol
_atom_site_label
_atom_site_fract_x
_atom_site_fract_y
_atom_site_fract_z
Si Si1 0.964660 0.831812 0.444572
Si Si2 0.337938 0.139035 0.420506
Si Si3 0.938076 0.958680 0.642441
Si Si4 0.952554 0.580217 0.388116
Si Si5 0.468682 0.712629 0.824958
Si Si6 0.684683 0.670803 0.747662
Si Si7 0.341702 0.006255 0.230402
Si Si8 0.457603 0.958767 0.869495
O O1 0.000454 0.871692 0.579340
O O2 0.008511 0.703370 0.440517
O O3 0.809268 0.831484 0.371323
O O4 0.036077 0.913039 0.386649
O O5 0.215120 0.066267 0.413625
O O6 0.439245 0.155103 0.552913
O O7 0.290182 0.260460 0.352989
O O8 0.412176 0.066222 0.358081
O O9 0.002339 0.946646 0.786086
O O10 0.797781 0.566555 0.328085
O O11 0.000000 0.500000 0.500000
O O12 0.559813 0.729364 0.755886
O O13 0.347088 0.629760 0.751125
O O14 0.407783 0.829299 0.845588
O O15 0.657080 0.538587 0.715949
O O16 0.412039 0.035164 0.148538
O O17 0.500000 0.000000 0.000000
#
# Coordination Sequence:
#
# PCOD8127757 Si02
#       8
#     4   4   4   4   4   4   4   4
#     4  11  22  44  66  94 135 168 228 282 322 406
#     4  11  19  39  66  90 129 178 209 258 331 390
#     4  10  24  40  67 101 122 172 233 269 333 396
#     4  11  25  45  71  93 130 182 220 279 343 401
#     4  11  21  39  62  93 134 168 209 272 312 391
#     4  11  21  37  67  93 128 175 209 264 327 390
#     4  10  23  41  59  95 127 168 219 253 329 394
#     4  11  22  36  61  97 127 168 218 259 320 379
#
# _framework density 21.078434999999999
#
# number of rings (size 3 to 8) (size 9 to 14) (size 15 to 20)
#    0.000    1.250    6.250    0.375    1.750    1.000 
#    4.500    2.500    0.000    0.000    0.000    0.000 
#    0.000    0.000    0.000    0.000    0.000    0.000 
#
# Total GULP energy -396609.025340 kJ/mol
# GULP energy per Si atom -12394.032042 kJ/mol
# Density = 2.103046 g / cm^3
# Si number density = 21.078435 Si / 1000 Ang^3
#
#
#
# Elastic Constant Matrix: (Units=GPa)
#
#
# Indices 1 2 3 4 5 6 
#
# 1 49.0840 36.8830 16.8808 0.0000 -18.3016 0.0000
# 2 36.8830 178.5532 46.9834 0.0000 -15.4638 0.0000
# 3 16.8808 46.9834 109.1256 0.0000 -27.5273 0.0000
# 4 0.0000 0.0000 0.0000 39.0452 0.0000 0.3846
# 5 -18.3016 -15.4638 -27.5273 0.0000 31.7292 0.0000
# 6 0.0000 0.0000 0.0000 0.3846 0.0000 29.9948
#
#
#
# Elastic Compliance Matrix: (Units=1/GPa)
#
#
# Indices 1 2 3 4 5 6 
#
# 1 0.029674 -0.005184 0.001692 0.000000 0.016058 0.000000
# 2 -0.005184 0.007243 -0.002791 0.000000 -0.001882 0.000000
# 3 0.001692 -0.002791 0.012810 0.000000 0.010730 0.000000
# 4 0.000000 0.000000 0.000000 0.025615 0.000000 -0.000328
# 5 0.016058 -0.001882 0.010730 0.000000 0.049171 0.000000
# 6 0.000000 0.000000 0.000000 -0.000328 0.000000 0.033343
#
#
# Mechanical properties :
#
#
# Convention : Reuss Voigt Hill
#
# Bulk Modulus (GPa) = 26.90974 59.80635 43.35804
# Shear Modulus (GPa) = 27.35095 35.88821 31.61958
#
# Velocity S-wave (km/s) = 3.60610 4.13074 3.87730
# Velocity P-wave (km/s) = 5.48934 7.15440 6.37645
#
# Compressibility (1/GPa) = 0.03716127
#
# Stress axis : x y z
#
# Youngs Moduli (GPa) = 33.69936 138.06566 78.06231
#
# Poissons Ratio (x) = 0.71577 -0.13211
# Poissons Ratio (y) = 0.17471 0.21788
# Poissons Ratio (z) = -0.05703 0.38536
#
# Static dielectric constant tensor:
#      x y z
#    x 3.572560 0.000000 -0.329860 
#    y 0.000000 4.339670 0.000000 
#    z -0.329860 0.000000 4.639930 
# 
# 
# High freq. dielectric constant tensor:
#      x y z
#    x 1.793830 0.000000 -0.022750 
#    y 0.000000 1.841630 0.000000 
#    z -0.022750 0.000000 1.834710 
# 
# From -- ./inp_files/29166.got.cif
#   From: 2010.03.12/outbox.cif.g09.slc.cpg/sg14_15_cif.got.tgz:29166.got - 2010.03.31 13:35:05.
