data_PCOD8127980
_publ_section_title
;
Structure prediction by ZEFSAII (Michael W. Deem and Ramdas Pophale) SiO2 
 PCOD8127980
Probable space group: P 21/C
;
_chemical_formula_sum "Si O2"
_cell_formula_units_Z 32
_cell_length_a 6.374832
_cell_length_b 11.374165
_cell_length_c 22.564400
_cell_angle_alpha 90.000000
_cell_angle_beta 70.853588
_cell_angle_gamma 90.000000
_cell_volume 1545.604620
_symmetry_space_group_name_H-M "P 21/C"
_symmetry_group_IT_number 14
_symmetry_cell_setting 'monoclinic'
loop_
_space_group_symop_operation_xyz
x,y,z
-x,1/2+y,1/2-z
-x,-y,-z
x,1/2-y,1/2+z
loop_
_atom_site_type_symbol
_atom_site_label
_atom_site_fract_x
_atom_site_fract_y
_atom_site_fract_z
Si Si1 0.636440 0.413530 0.054830
Si Si2 0.890631 0.454086 0.277365
Si Si3 0.760125 0.835633 0.335506
Si Si4 0.992903 0.253703 0.577302
Si Si5 0.592352 0.653474 0.262110
Si Si6 0.185913 0.529852 0.350440
Si Si7 0.393995 0.326641 0.968299
Si Si8 0.528323 0.692575 0.656519
O O1 0.404803 0.418878 0.112318
O O2 0.822703 0.345799 0.073303
O O3 0.714698 0.547574 0.038443
O O4 0.594503 0.348079 0.996048
O O5 0.787821 0.557883 0.247526
O O6 0.714682 0.349406 0.301201
O O7 0.111740 0.411048 0.224853
O O8 0.961874 0.497117 0.336014
O O9 0.610022 0.739858 0.316363
O O10 0.936959 0.774279 0.361991
O O11 0.879560 0.382644 0.589464
O O12 0.203492 0.255314 0.514231
O O13 0.353485 0.591841 0.288599
O O14 0.623393 0.720044 0.197389
O O15 0.303370 0.416065 0.367889
O O16 0.495311 0.261192 0.902680
#
# Coordination Sequence:
#
# PCOD8127980 Si02
#       8
#     4   4   4   4   4   4   4   4
#     4  10  23  44  66  91 128 165 221 274 320 382
#     4  11  25  40  63 101 134 169 216 261 331 399
#     4  11  22  38  66  98 123 168 211 264 330 388
#     4  11  22  42  70  89 126 173 217 264 323 385
#     4  11  23  40  64  96 134 166 209 268 329 394
#     4  11  23  42  65  94 128 172 214 264 328 392
#     4  10  25  43  62  96 125 170 220 267 322 381
#     4  11  26  41  62  96 136 167 216 271 319 390
#
# _framework density 20.703870999999999
#
# number of rings (size 3 to 8) (size 9 to 14) (size 15 to 20)
#    0.000    1.250    3.750    1.125    3.500    1.500 
#    0.000    1.250    0.000    0.000    0.000    0.000 
#    0.000    0.000    0.000    0.000    0.000    0.000 
#
# Total GULP energy -396982.793302 kJ/mol
# GULP energy per Si atom -12405.712291 kJ/mol
# Density = 2.065675 g / cm^3
# Si number density = 20.703871 Si / 1000 Ang^3
#
#
#
# Elastic Constant Matrix: (Units=GPa)
#
#
# Indices 1 2 3 4 5 6 
#
# 1 73.2232 24.7237 22.0750 0.0000 7.7983 0.0000
# 2 24.7237 95.2274 45.3018 0.0000 3.5343 0.0000
# 3 22.0750 45.3018 97.6661 0.0000 11.5561 0.0000
# 4 0.0000 0.0000 0.0000 38.9644 0.0000 3.9589
# 5 7.7983 3.5343 11.5561 0.0000 21.1033 0.0000
# 6 0.0000 0.0000 0.0000 3.9589 0.0000 26.1407
#
#
#
# Elastic Compliance Matrix: (Units=1/GPa)
#
#
# Indices 1 2 3 4 5 6 
#
# 1 0.015663 -0.003165 -0.001550 0.000000 -0.004409 0.000000
# 2 -0.003165 0.014145 -0.006099 0.000000 0.002140 0.000000
# 3 -0.001550 -0.006099 0.014146 0.000000 -0.006152 0.000000
# 4 0.000000 0.000000 0.000000 0.026066 0.000000 -0.003948
# 5 -0.004409 0.002140 -0.006152 0.000000 0.052026 0.000000
# 6 0.000000 0.000000 0.000000 -0.003948 0.000000 0.038852
#
#
# Mechanical properties :
#
#
# Convention : Reuss Voigt Hill
#
# Bulk Modulus (GPa) = 44.79325 50.03529 47.41427
# Shear Modulus (GPa) = 26.32030 28.84276 27.58153
#
# Velocity S-wave (km/s) = 3.56936 3.73649 3.65388
# Velocity P-wave (km/s) = 6.21846 6.54482 6.38373
#
# Compressibility (1/GPa) = 0.02232479
#
# Stress axis : x y z
#
# Youngs Moduli (GPa) = 63.84664 70.69690 70.69033
#
# Poissons Ratio (x) = 0.22378 0.10959
# Poissons Ratio (y) = 0.20209 0.43113
# Poissons Ratio (z) = 0.09898 0.43117
#
# Static dielectric constant tensor:
#      x y z
#    x 3.735530 0.000000 0.073990 
#    y 0.000000 3.822820 0.000000 
#    z 0.073990 0.000000 3.572730 
# 
# 
# High freq. dielectric constant tensor:
#      x y z
#    x 1.817750 0.000000 0.004180 
#    y 0.000000 1.815070 0.000000 
#    z 0.004180 0.000000 1.799520 
# 
# From -- ./inp_files/71240.got.cif
#   From: 2010.03.12/outbox.cif.g09.slc.cpg/sg14_36_cif.got.tgz:71240.got - 2010.03.31 13:35:05.
