data_PCOD8127226
_publ_section_title
;
Structure prediction by ZEFSAII (Michael W. Deem and Ramdas Pophale) SiO2 
 PCOD8127226
Probable space group: P 21/C
;
_chemical_formula_sum "Si O2"
_cell_formula_units_Z 28
_cell_length_a 10.220317
_cell_length_b 17.882081
_cell_length_c 11.668803
_cell_angle_alpha 90.000000
_cell_angle_beta 144.318570
_cell_angle_gamma 90.000000
_cell_volume 1243.896689
_symmetry_space_group_name_H-M "P 21/C"
_symmetry_group_IT_number 14
_symmetry_cell_setting 'monoclinic'
loop_
_space_group_symop_operation_xyz
x,y,z
-x,1/2+y,1/2-z
-x,-y,-z
x,1/2-y,1/2+z
loop_
_atom_site_type_symbol
_atom_site_label
_atom_site_fract_x
_atom_site_fract_y
_atom_site_fract_z
Si Si1 0.502869 0.787437 0.649015
Si Si2 0.010264 0.813303 0.370523
Si Si3 0.217212 0.112945 0.004565
Si Si4 0.187399 0.990642 0.266421
Si Si5 0.544462 0.002570 0.329229
Si Si6 0.723002 0.855198 0.366220
Si Si7 0.205039 0.162172 0.321954
O O1 0.273019 0.822341 0.531450
O O2 0.727882 0.817288 0.874609
O O3 0.523355 0.697662 0.673676
O O4 0.544646 0.816334 0.548507
O O5 0.946144 0.850838 0.446136
O O6 0.968477 0.724449 0.346219
O O7 0.848869 0.855272 0.165340
O O8 0.447739 0.064652 0.173876
O O9 0.030278 0.057013 0.922892
O O10 0.371227 0.970016 0.301235
O O11 0.257757 0.965914 0.446728
O O12 0.134804 0.079657 0.229366
O O13 0.628956 0.938839 0.303434
O O14 0.793782 0.829929 0.541971
#
# Coordination Sequence:
#
# PCOD8127226 Si02
#       7
#     4   4   4   4   4   4   4
#     4  11  24  43  70  96 137 177 221 277 333 395
#     4  11  26  43  66 100 140 177 217 279 342 405
#     4  12  23  41  66 102 131 180 217 278 334 404
#     4  10  22  40  71 102 131 171 234 286 323 389
#     4  10  22  40  67 100 136 173 223 281 330 391
#     4  10  24  45  66 102 136 176 223 273 340 405
#     4  10  22  46  68 100 129 174 235 274 328 398
#
# _framework density 22.509906999999998
#
# number of rings (size 3 to 8) (size 9 to 14) (size 15 to 20)
#    0.000    1.429    2.857    1.286    6.000    2.857 
#    0.000    6.429    0.000    0.000    0.000    0.000 
#    0.000    0.000    0.000    0.000    0.000    0.000 
#
# Total GULP energy -346983.843422 kJ/mol
# GULP energy per Si atom -12392.280122 kJ/mol
# Density = 2.245867 g / cm^3
# Si number density = 22.509907 Si / 1000 Ang^3
#
#
#
# Elastic Constant Matrix: (Units=GPa)
#
#
# Indices 1 2 3 4 5 6 
#
# 1 121.9599 25.8562 34.2645 0.0000 -1.5840 0.0000
# 2 25.8562 69.7718 30.7964 0.0000 15.2527 0.0000
# 3 34.2645 30.7964 95.6400 0.0000 3.8997 0.0000
# 4 0.0000 0.0000 0.0000 16.7900 0.0000 -10.1197
# 5 -1.5840 15.2527 3.8997 0.0000 24.8979 0.0000
# 6 0.0000 0.0000 0.0000 -10.1197 0.0000 35.4866
#
#
#
# Elastic Compliance Matrix: (Units=1/GPa)
#
#
# Indices 1 2 3 4 5 6 
#
# 1 0.009608 -0.003054 -0.002576 0.000000 0.002886 0.000000
# 2 -0.003054 0.020225 -0.004937 0.000000 -0.011811 0.000000
# 3 -0.002576 -0.004937 0.012935 0.000000 0.000834 0.000000
# 4 0.000000 0.000000 0.000000 0.071921 0.000000 0.020510
# 5 0.002886 -0.011811 0.000834 0.000000 0.047453 0.000000
# 6 0.000000 0.000000 0.000000 0.020510 0.000000 0.034028
#
#
# Mechanical properties :
#
#
# Convention : Reuss Voigt Hill
#
# Bulk Modulus (GPa) = 46.22550 52.13400 49.17975
# Shear Modulus (GPa) = 22.27008 28.53187 25.40098
#
# Velocity S-wave (km/s) = 3.14880 3.56409 3.36286
# Velocity P-wave (km/s) = 5.81379 6.33623 6.08062
#
# Compressibility (1/GPa) = 0.02163308
#
# Stress axis : x y z
#
# Youngs Moduli (GPa) = 104.07669 49.44277 77.31219
#
# Poissons Ratio (x) = 0.15101 0.19919
# Poissons Ratio (y) = 0.31788 0.38167
# Poissons Ratio (z) = 0.26815 0.24409
#
# Static dielectric constant tensor:
#      x y z
#    x 4.033950 0.000000 -0.115410 
#    y 0.000000 4.238070 0.000000 
#    z -0.115410 0.000000 4.044050 
# 
# 
# High freq. dielectric constant tensor:
#      x y z
#    x 1.876410 0.000000 -0.008730 
#    y 0.000000 1.906880 0.000000 
#    z -0.008730 0.000000 1.869290 
# 
# From -- ./inp_files/26859.got.cif
#   From: 2010.03.12/outbox.cif.g09.slc.cpg/sg14_14_cif.got.tgz:26859.got - 2010.03.31 13:35:05.
