data_PCOD8127037
_publ_section_title
;
Structure prediction by ZEFSAII (Michael W. Deem and Ramdas Pophale) SiO2 
 PCOD8127037
Probable space group: P 21/C
;
_chemical_formula_sum "Si O2"
_cell_formula_units_Z 24
_cell_length_a 18.176515
_cell_length_b 12.139772
_cell_length_c 13.517801
_cell_angle_alpha 90.000000
_cell_angle_beta 156.887363
_cell_angle_gamma 90.000000
_cell_volume 1170.876513
_symmetry_space_group_name_H-M "P 21/C"
_symmetry_group_IT_number 14
_symmetry_cell_setting 'monoclinic'
loop_
_space_group_symop_operation_xyz
x,y,z
-x,1/2+y,1/2-z
-x,-y,-z
x,1/2-y,1/2+z
loop_
_atom_site_type_symbol
_atom_site_label
_atom_site_fract_x
_atom_site_fract_y
_atom_site_fract_z
Si Si1 0.091381 0.434004 0.758136
Si Si2 0.275129 0.956655 0.306436
Si Si3 0.786961 0.056567 0.406012
Si Si4 0.848493 0.814753 0.159597
Si Si5 0.628370 0.837491 0.695403
Si Si6 0.383816 0.381080 0.443445
O O1 0.189773 0.524678 0.809521
O O2 0.185173 0.314706 0.867210
O O3 0.877108 0.418697 0.461650
O O4 0.104440 0.474519 0.886445
O O5 0.428270 0.858873 0.501284
O O6 0.358307 0.073570 0.375271
O O7 0.935427 0.149590 0.555050
O O8 0.708600 0.991609 0.214504
O O9 0.606825 0.109561 0.237405
O O10 0.712011 0.870753 0.069256
O O11 0.791334 0.851249 0.978208
O O12 0.650520 0.718059 0.675054
#
# Coordination Sequence:
#
# PCOD8127037 Si02
#       6
#     4   4   4   4   4   4
#     4  11  21  40  64  90 123 163 206 255 305 370
#     4  10  22  38  64  91 122 158 206 257 306 355
#     4  11  24  42  63  91 127 163 203 257 308 370
#     4  12  23  41  65  92 122 164 208 249 312 371
#     4  11  21  40  63  90 122 160 203 256 304 365
#     4  11  24  43  62  91 126 162 204 255 311 368
#
# _framework density 20.497465999999999
#
# number of rings (size 3 to 8) (size 9 to 14) (size 15 to 20)
#    0.000    1.000    5.000    2.500    0.000    0.000 
#    0.000    0.000    0.000    0.000    0.000    0.000 
#    0.000    0.000    0.000    0.000    0.000    0.000 
#
# Total GULP energy -297662.036271 kJ/mol
# GULP energy per Si atom -12402.584845 kJ/mol
# Density = 2.045081 g / cm^3
# Si number density = 20.497466 Si / 1000 Ang^3
#
#
#
# Elastic Constant Matrix: (Units=GPa)
#
#
# Indices 1 2 3 4 5 6 
#
# 1 59.2427 22.5994 23.9089 0.0000 7.6007 0.0000
# 2 22.5994 50.0866 14.8442 0.0000 -0.4961 0.0000
# 3 23.9089 14.8442 96.8604 0.0000 8.2870 0.0000
# 4 0.0000 0.0000 0.0000 25.0534 0.0000 2.0957
# 5 7.6007 -0.4961 8.2870 0.0000 31.6225 0.0000
# 6 0.0000 0.0000 0.0000 2.0957 0.0000 28.6463
#
#
#
# Elastic Compliance Matrix: (Units=1/GPa)
#
#
# Indices 1 2 3 4 5 6 
#
# 1 0.022435 -0.009053 -0.003761 0.000000 -0.004549 0.000000
# 2 -0.009053 0.024613 -0.001797 0.000000 0.003033 0.000000
# 3 -0.003761 -0.001797 0.011716 0.000000 -0.002194 0.000000
# 4 0.000000 0.000000 0.000000 0.040160 0.000000 -0.002938
# 5 -0.004549 0.003033 -0.002194 0.000000 0.033339 0.000000
# 6 0.000000 0.000000 0.000000 -0.002938 0.000000 0.035123
#
#
# Mechanical properties :
#
#
# Convention : Reuss Voigt Hill
#
# Bulk Modulus (GPa) = 33.85124 36.54388 35.19756
# Shear Modulus (GPa) = 24.21834 26.72026 25.46930
#
# Velocity S-wave (km/s) = 3.44107 3.61444 3.52882
# Velocity P-wave (km/s) = 5.68670 5.94021 5.81484
#
# Compressibility (1/GPa) = 0.02954101
#
# Stress axis : x y z
#
# Youngs Moduli (GPa) = 44.57383 40.62934 85.35586
#
# Poissons Ratio (x) = 0.36782 0.32104
# Poissons Ratio (y) = 0.40353 0.15337
# Poissons Ratio (z) = 0.16765 0.07300
#
# Static dielectric constant tensor:
#      x y z
#    x 3.551180 0.000000 0.106550 
#    y 0.000000 3.615180 0.000000 
#    z 0.106550 0.000000 3.785440 
# 
# 
# High freq. dielectric constant tensor:
#      x y z
#    x 1.797130 0.000000 0.002270 
#    y 0.000000 1.798170 0.000000 
#    z 0.002270 0.000000 1.809870 
# 
# From -- ./inp_files/39381.got.cif
#   From: 2010.03.12/outbox.cif.g09.slc.cpg/sg14_20_cif.got.tgz:39381.got - 2010.03.31 13:35:05.
