data_PCOD8127116
_publ_section_title
;
Structure prediction by ZEFSAII (Michael W. Deem and Ramdas Pophale) SiO2 
 PCOD8127116
Probable space group: P 21/C
;
_chemical_formula_sum "Si O2"
_cell_formula_units_Z 32
_cell_length_a 14.350681
_cell_length_b 13.715303
_cell_length_c 12.588812
_cell_angle_alpha 90.000000
_cell_angle_beta 142.421683
_cell_angle_gamma 90.000000
_cell_volume 1511.062182
_symmetry_space_group_name_H-M "P 21/C"
_symmetry_group_IT_number 14
_symmetry_cell_setting 'monoclinic'
loop_
_space_group_symop_operation_xyz
x,y,z
-x,1/2+y,1/2-z
-x,-y,-z
x,1/2-y,1/2+z
loop_
_atom_site_type_symbol
_atom_site_label
_atom_site_fract_x
_atom_site_fract_y
_atom_site_fract_z
Si Si1 0.251698 0.128930 0.934004
Si Si2 0.977506 0.389503 0.444370
Si Si3 0.275756 0.590065 0.447880
Si Si4 0.752609 0.758489 0.864082
Si Si5 0.738989 0.222893 0.871658
Si Si6 0.957619 0.930480 0.561258
Si Si7 0.500777 0.189989 0.000575
Si Si8 0.089429 0.609945 0.860552
O O1 0.285672 0.212517 0.049950
O O2 0.364058 0.137247 0.937618
O O3 0.075451 0.140940 0.740478
O O4 0.274518 0.018436 0.995464
O O5 0.875558 0.331604 0.435738
O O6 0.903090 0.379668 0.259993
O O7 0.000000 0.500000 0.500000
O O8 0.144903 0.342133 0.596520
O O9 0.320831 0.657174 0.586837
O O10 0.111451 0.618028 0.248158
O O11 0.400293 0.606902 0.468257
O O12 0.585719 0.759446 0.660763
O O13 0.838459 0.654878 0.928726
O O14 0.602275 0.241925 0.667048
O O15 0.787981 0.324477 0.968636
O O16 0.000000 0.000000 0.500000
O O17 0.877857 0.997804 0.578858
#
# Coordination Sequence:
#
# PCOD8127116 Si02
#       8
#     4   4   4   4   4   4   4   4
#     4  10  22  40  61  88 121 161 205 256 308 364
#     4  11  23  42  68  93 121 159 202 257 314 369
#     4  11  23  41  62  90 123 160 210 260 307 370
#     4  11  23  41  62  92 126 161 205 253 310 373
#     4  12  23  41  63  90 125 163 203 252 310 371
#     4  11  21  39  67  96 123 159 210 266 311 362
#     4  12  24  39  60  87 125 169 204 250 307 368
#     4  10  22  39  64  94 120 156 209 258 307 367
#
# _framework density 21.177156
#
# number of rings (size 3 to 8) (size 9 to 14) (size 15 to 20)
#    0.000    1.000    0.000   10.125    0.000    2.000 
#    0.000    3.750    0.000    0.000    0.000    0.000 
#    0.000    0.000    0.000    0.000    0.000    0.000 
#
# Total GULP energy -396788.439147 kJ/mol
# GULP energy per Si atom -12399.638723 kJ/mol
# Density = 2.112896 g / cm^3
# Si number density = 21.177156 Si / 1000 Ang^3
#
#
#
# Elastic Constant Matrix: (Units=GPa)
#
#
# Indices 1 2 3 4 5 6 
#
# 1 86.6388 19.1522 5.1128 0.0000 -14.8030 0.0000
# 2 19.1522 97.5170 44.0356 0.0000 -6.8586 0.0000
# 3 5.1128 44.0356 110.3177 0.0000 -8.8866 0.0000
# 4 0.0000 0.0000 0.0000 27.5147 0.0000 -11.2463
# 5 -14.8030 -6.8586 -8.8866 0.0000 21.2103 0.0000
# 6 0.0000 0.0000 0.0000 -11.2463 0.0000 34.8956
#
#
#
# Elastic Compliance Matrix: (Units=1/GPa)
#
#
# Indices 1 2 3 4 5 6 
#
# 1 0.013597 -0.002532 0.001117 0.000000 0.009139 0.000000
# 2 -0.002532 0.013065 -0.005071 0.000000 0.000333 0.000000
# 3 0.001117 -0.005071 0.011351 0.000000 0.003895 0.000000
# 4 0.000000 0.000000 0.000000 0.041858 0.000000 0.013490
# 5 0.009139 0.000333 0.003895 0.000000 0.055265 0.000000
# 6 0.000000 0.000000 0.000000 0.013490 0.000000 0.033005
#
#
# Mechanical properties :
#
#
# Convention : Reuss Voigt Hill
#
# Bulk Modulus (GPa) = 39.93464 47.89717 43.91591
# Shear Modulus (GPa) = 26.39062 31.80232 29.09647
#
# Velocity S-wave (km/s) = 3.53396 3.87942 3.71071
# Velocity P-wave (km/s) = 5.96240 6.53705 6.25632
#
# Compressibility (1/GPa) = 0.02504091
#
# Stress axis : x y z
#
# Youngs Moduli (GPa) = 73.54311 76.53881 88.09804
#
# Poissons Ratio (x) = 0.19380 -0.09838
# Poissons Ratio (y) = 0.18621 0.44675
# Poissons Ratio (z) = -0.08213 0.38814
#
# Static dielectric constant tensor:
#      x y z
#    x 3.990290 0.000000 -0.105340 
#    y 0.000000 3.927490 0.000000 
#    z -0.105340 0.000000 3.896980 
# 
# 
# High freq. dielectric constant tensor:
#      x y z
#    x 1.837200 0.000000 -0.010350 
#    y 0.000000 1.833900 0.000000 
#    z -0.010350 0.000000 1.829910 
# 
# From -- ./inp_files/32781.got.cif
#   From: 2010.03.12/outbox.cif.g09.slc.cpg/sg14_17_cif.got.tgz:32781.got - 2010.03.31 13:35:05.
