data_PCOD8127730
_publ_section_title
;
Structure prediction by ZEFSAII (Michael W. Deem and Ramdas Pophale) SiO2 
 PCOD8127730
Probable space group: P 21/C
;
_chemical_formula_sum "Si O2"
_cell_formula_units_Z 24
_cell_length_a 13.725315
_cell_length_b 13.606424
_cell_length_c 11.319332
_cell_angle_alpha 90.000000
_cell_angle_beta 151.555603
_cell_angle_gamma 90.000000
_cell_volume 1006.868796
_symmetry_space_group_name_H-M "P 21/C"
_symmetry_group_IT_number 14
_symmetry_cell_setting 'monoclinic'
loop_
_space_group_symop_operation_xyz
x,y,z
-x,1/2+y,1/2-z
-x,-y,-z
x,1/2-y,1/2+z
loop_
_atom_site_type_symbol
_atom_site_label
_atom_site_fract_x
_atom_site_fract_y
_atom_site_fract_z
Si Si1 0.236969 0.168790 0.666636
Si Si2 0.923319 0.073338 0.180418
Si Si3 0.406970 0.817977 0.798536
Si Si4 0.475641 0.373058 0.197637
Si Si5 0.216152 0.939539 0.387749
Si Si6 0.926763 0.298112 0.459161
O O1 0.061647 0.090529 0.445289
O O2 0.372516 0.187878 0.694420
O O3 0.131139 0.267213 0.605783
O O4 0.400822 0.125649 0.936475
O O5 0.991537 0.967363 0.200706
O O6 0.686615 0.074159 0.963522
O O7 0.977168 0.160484 0.143251
O O8 0.476994 0.705710 0.851799
O O9 0.344131 0.873430 0.613866
O O10 0.212167 0.800910 0.677328
O O11 0.331308 0.457363 0.989444
O O12 0.191217 0.883156 0.238553
#
# Coordination Sequence:
#
# PCOD8127730 Si02
#       6
#     4   4   4   4   4   4
#     4  11  21  40  64  90 128 166 209 261 316 382
#     4  10  23  40  62  94 128 167 217 266 317 379
#     4  11  24  41  65  96 130 171 215 264 323 382
#     4  10  24  44  64  97 133 168 217 266 321 381
#     4  11  24  42  66  94 128 171 216 267 323 378
#     4  11  23  41  66  95 126 168 218 266 319 379
#
# _framework density 23.836274
#
# number of rings (size 3 to 8) (size 9 to 14) (size 15 to 20)
#    0.000    1.333    0.000    6.500    0.000    9.333 
#    0.000    5.000    0.000    0.000    0.000    0.000 
#    0.000    0.000    0.000    0.000    0.000    0.000 
#
# Total GULP energy -297450.680131 kJ/mol
# GULP energy per Si atom -12393.778339 kJ/mol
# Density = 2.378202 g / cm^3
# Si number density = 23.836274 Si / 1000 Ang^3
#
#
#
# Elastic Constant Matrix: (Units=GPa)
#
#
# Indices 1 2 3 4 5 6 
#
# 1 80.3290 25.3020 24.5345 0.0000 17.6479 0.0000
# 2 25.3020 56.7576 10.8854 0.0000 -0.7136 0.0000
# 3 24.5345 10.8854 127.6897 0.0000 4.9320 0.0000
# 4 0.0000 0.0000 0.0000 31.4623 0.0000 8.6660
# 5 17.6479 -0.7136 4.9320 0.0000 34.8860 0.0000
# 6 0.0000 0.0000 0.0000 8.6660 0.0000 29.7178
#
#
#
# Elastic Compliance Matrix: (Units=1/GPa)
#
#
# Indices 1 2 3 4 5 6 
#
# 1 0.017403 -0.007410 -0.002379 0.000000 -0.008619 0.000000
# 2 -0.007410 0.021079 -0.000538 0.000000 0.004256 0.000000
# 3 -0.002379 -0.000538 0.008334 0.000000 0.000014 0.000000
# 4 0.000000 0.000000 0.000000 0.034560 0.000000 -0.010078
# 5 -0.008619 0.004256 0.000014 0.000000 0.033110 0.000000
# 6 0.000000 0.000000 0.000000 -0.010078 0.000000 0.036589
#
#
# Mechanical properties :
#
#
# Convention : Reuss Voigt Hill
#
# Bulk Modulus (GPa) = 38.22357 42.91336 40.56846
# Shear Modulus (GPa) = 27.70867 32.81683 30.26275
#
# Velocity S-wave (km/s) = 3.41318 3.71450 3.56702
# Velocity P-wave (km/s) = 5.62172 6.03648 5.83279
#
# Compressibility (1/GPa) = 0.02616187
#
# Stress axis : x y z
#
# Youngs Moduli (GPa) = 57.46105 47.44107 119.99182
#
# Poissons Ratio (x) = 0.35155 0.28549
# Poissons Ratio (y) = 0.42580 0.06450
# Poissons Ratio (z) = 0.13671 0.02550
#
# Static dielectric constant tensor:
#      x y z
#    x 4.263550 0.000000 0.316060 
#    y 0.000000 3.967970 0.000000 
#    z 0.316060 0.000000 4.628580 
# 
# 
# High freq. dielectric constant tensor:
#      x y z
#    x 1.941890 0.000000 0.011900 
#    y 0.000000 1.915150 0.000000 
#    z 0.011900 0.000000 1.967200 
# 
# From -- ./inp_files/32813.got.cif
#   From: 2010.03.12/outbox.cif.g09.slc.cpg/sg14_17_cif.got.tgz:32813.got - 2010.03.31 13:35:05.
