data_PCOD8127266
_publ_section_title
;
Structure prediction by ZEFSAII (Michael W. Deem and Ramdas Pophale) SiO2 
 PCOD8127266
Probable space group: P 21/C
;
_chemical_formula_sum "Si O2"
_cell_formula_units_Z 32
_cell_length_a 8.371568
_cell_length_b 22.863818
_cell_length_c 11.464406
_cell_angle_alpha 90.000000
_cell_angle_beta 139.754357
_cell_angle_gamma 90.000000
_cell_volume 1417.698783
_symmetry_space_group_name_H-M "P 21/C"
_symmetry_group_IT_number 14
_symmetry_cell_setting 'monoclinic'
loop_
_space_group_symop_operation_xyz
x,y,z
-x,1/2+y,1/2-z
-x,-y,-z
x,1/2-y,1/2+z
loop_
_atom_site_type_symbol
_atom_site_label
_atom_site_fract_x
_atom_site_fract_y
_atom_site_fract_z
Si Si1 0.711654 0.792241 0.359826
Si Si2 0.002675 0.613889 0.409411
Si Si3 0.556244 0.601855 0.320226
Si Si4 0.660518 0.608635 0.010158
Si Si5 0.813174 0.260383 0.471222
Si Si6 0.461099 0.963675 0.199587
Si Si7 0.229711 0.644386 0.938155
Si Si8 0.308309 0.117982 0.852757
O O1 0.760193 0.837973 0.489171
O O2 0.661251 0.824366 0.208475
O O3 0.958496 0.752931 0.489817
O O4 0.458617 0.755449 0.242568
O O5 0.805116 0.626562 0.400298
O O6 0.149858 0.673514 0.462427
O O7 0.190234 0.564544 0.555675
O O8 0.868215 0.590393 0.218228
O O9 0.562382 0.532197 0.321215
O O10 0.534557 0.624527 0.440720
O O11 0.321066 0.624748 0.117533
O O12 0.605953 0.552707 0.899222
O O13 0.413827 0.629861 0.937172
O O14 0.816823 0.214456 0.580622
O O15 0.605381 0.939859 0.167281
O O16 0.978206 0.609712 0.771856
#
# Coordination Sequence:
#
# PCOD8127266 Si02
#       8
#     4   4   4   4   4   4   4   4
#     4  10  22  42  66  95 134 171 226 274 337 397
#     4  11  23  42  64  96 129 170 227 265 340 401
#     4  11  24  42  67  96 129 177 220 276 334 395
#     4  10  22  42  65  97 130 174 216 276 331 401
#     4  11  22  46  63  98 135 175 226 279 332 409
#     4  11  23  42  66  96 134 170 223 277 332 395
#     4  10  24  42  62  96 134 168 227 269 335 398
#     4  10  22  41  62  93 128 172 215 271 330 397
#
# _framework density 22.571791999999999
#
# number of rings (size 3 to 8) (size 9 to 14) (size 15 to 20)
#    0.000    1.500    2.500    3.000    0.000    7.500 
#   11.250    0.000    0.000    0.000    0.000    0.000 
#    0.000    0.000    0.000    0.000    0.000    0.000 
#
# Total GULP energy -396834.924759 kJ/mol
# GULP energy per Si atom -12401.091399 kJ/mol
# Density = 2.252042 g / cm^3
# Si number density = 22.571792 Si / 1000 Ang^3
#
#
#
# Elastic Constant Matrix: (Units=GPa)
#
#
# Indices 1 2 3 4 5 6 
#
# 1 70.7561 12.0083 38.5823 0.0000 -3.1805 0.0000
# 2 12.0083 57.7657 5.6063 0.0000 -1.5221 0.0000
# 3 38.5823 5.6063 84.3606 0.0000 -4.1984 0.0000
# 4 0.0000 0.0000 0.0000 16.7014 0.0000 6.3149
# 5 -3.1805 -1.5221 -4.1984 0.0000 50.8867 0.0000
# 6 0.0000 0.0000 0.0000 6.3149 0.0000 22.8721
#
#
#
# Elastic Compliance Matrix: (Units=1/GPa)
#
#
# Indices 1 2 3 4 5 6 
#
# 1 0.019405 -0.003184 -0.008643 0.000000 0.000404 0.000000
# 2 -0.003184 0.017956 0.000281 0.000000 0.000361 0.000000
# 3 -0.008643 0.000281 0.015827 0.000000 0.000774 0.000000
# 4 0.000000 0.000000 0.000000 0.066854 0.000000 -0.018458
# 5 0.000404 0.000361 0.000774 0.000000 0.019751 0.000000
# 6 0.000000 0.000000 0.000000 -0.018458 0.000000 0.048818
#
#
# Mechanical properties :
#
#
# Convention : Reuss Voigt Hill
#
# Bulk Modulus (GPa) = 33.22896 36.14183 34.68539
# Shear Modulus (GPa) = 22.54956 28.53774 25.54365
#
# Velocity S-wave (km/s) = 3.16415 3.55957 3.36767
# Velocity P-wave (km/s) = 5.30118 5.73940 5.52464
#
# Compressibility (1/GPa) = 0.03009423
#
# Stress axis : x y z
#
# Youngs Moduli (GPa) = 51.53438 55.69320 63.18501
#
# Poissons Ratio (x) = 0.17735 0.54610
# Poissons Ratio (y) = 0.16410 -0.01776
# Poissons Ratio (z) = 0.44541 -0.01565
#
# Static dielectric constant tensor:
#      x y z
#    x 4.262290 0.000000 0.171360 
#    y 0.000000 3.875400 0.000000 
#    z 0.171360 0.000000 4.138890 
# 
# 
# High freq. dielectric constant tensor:
#      x y z
#    x 1.897100 0.000000 0.012050 
#    y 0.000000 1.880750 0.000000 
#    z 0.012050 0.000000 1.891980 
# 
# From -- ./inp_files/27036.got.cif
#   From: 2010.03.12/outbox.cif.g09.slc.cpg/sg14_14_cif.got.tgz:27036.got - 2010.03.31 13:35:05.
