data_PCOD8127809
_publ_section_title
;
Structure prediction by ZEFSAII (Michael W. Deem and Ramdas Pophale) SiO2 
 PCOD8127809
Probable space group: P 21/C
;
_chemical_formula_sum "Si O2"
_cell_formula_units_Z 28
_cell_length_a 8.518003
_cell_length_b 16.811134
_cell_length_c 10.148520
_cell_angle_alpha 90.000000
_cell_angle_beta 107.076204
_cell_angle_gamma 90.000000
_cell_volume 1389.174527
_symmetry_space_group_name_H-M "P 21/C"
_symmetry_group_IT_number 14
_symmetry_cell_setting 'monoclinic'
loop_
_space_group_symop_operation_xyz
x,y,z
-x,1/2+y,1/2-z
-x,-y,-z
x,1/2-y,1/2+z
loop_
_atom_site_type_symbol
_atom_site_label
_atom_site_fract_x
_atom_site_fract_y
_atom_site_fract_z
Si Si1 0.951937 0.217402 0.325203
Si Si2 0.249442 0.708792 0.487812
Si Si3 0.511762 0.070814 0.900755
Si Si4 0.247108 0.195425 0.790431
Si Si5 0.522664 0.824573 0.587743
Si Si6 0.585034 0.487718 0.882507
Si Si7 0.812644 0.886233 0.484026
O O1 0.105586 0.277855 0.356205
O O2 0.026391 0.130726 0.387838
O O3 0.875877 0.202073 0.163501
O O4 0.828026 0.255628 0.398036
O O5 0.322192 0.621443 0.536673
O O6 0.391083 0.770008 0.479181
O O7 0.350932 0.124973 0.882997
O O8 0.514056 0.035442 0.753882
O O9 0.500000 0.000000 0.000000
O O10 0.369239 0.269547 0.787345
O O11 0.157752 0.167124 0.636895
O O12 0.425960 0.892733 0.648571
O O13 0.640322 0.860734 0.506342
O O14 0.775651 0.520498 0.938422
O O15 0.500000 0.500000 0.000000
#
# Coordination Sequence:
#
# PCOD8127809 Si02
#       7
#     4   4   4   4   4   4   4
#     4  11  22  40  60  88 127 158 204 248 315 364
#     4  11  25  38  63  92 120 159 205 259 300 366
#     4  10  23  42  62  91 124 156 209 257 309 359
#     4   9  19  39  62  85 119 165 200 249 306 369
#     4   9  20  33  63  88 111 155 211 248 294 353
#     4   9  19  36  61  86 115 153 206 247 296 355
#     4   9  18  38  58  85 120 161 198 244 305 366
#
# _framework density 20.155854999999999
#
# number of rings (size 3 to 8) (size 9 to 14) (size 15 to 20)
#    0.000    2.286    1.429    0.000   10.000    2.286 
#    2.571    2.857    0.000    0.000    0.000    0.000 
#    0.000    0.000    0.000    0.000    0.000    0.000 
#
# Total GULP energy -346965.665848 kJ/mol
# GULP energy per Si atom -12391.630923 kJ/mol
# Density = 2.010998 g / cm^3
# Si number density = 20.155855 Si / 1000 Ang^3
#
#
#
# Elastic Constant Matrix: (Units=GPa)
#
#
# Indices 1 2 3 4 5 6 
#
# 1 62.3814 31.4615 25.9357 0.0000 5.2455 0.0000
# 2 31.4615 118.7138 39.1997 0.0000 7.2848 0.0000
# 3 25.9357 39.1997 112.2385 0.0000 9.0608 0.0000
# 4 0.0000 0.0000 0.0000 21.7242 0.0000 -1.9870
# 5 5.2455 7.2848 9.0608 0.0000 28.0485 0.0000
# 6 0.0000 0.0000 0.0000 -1.9870 0.0000 27.6950
#
#
#
# Elastic Compliance Matrix: (Units=1/GPa)
#
#
# Indices 1 2 3 4 5 6 
#
# 1 0.019448 -0.004085 -0.002936 0.000000 -0.001628 0.000000
# 2 -0.004085 0.010436 -0.002612 0.000000 -0.001103 0.000000
# 3 -0.002936 -0.002612 0.010680 0.000000 -0.002223 0.000000
# 4 0.000000 0.000000 0.000000 0.046336 0.000000 0.003324
# 5 -0.001628 -0.001103 -0.002223 0.000000 0.036961 0.000000
# 6 0.000000 0.000000 0.000000 0.003324 0.000000 0.036346
#
#
# Mechanical properties :
#
#
# Convention : Reuss Voigt Hill
#
# Bulk Modulus (GPa) = 46.95140 54.05863 50.50501
# Shear Modulus (GPa) = 26.79927 28.60932 27.70429
#
# Velocity S-wave (km/s) = 3.65033 3.77159 3.71145
# Velocity P-wave (km/s) = 6.41181 6.77089 6.59380
#
# Compressibility (1/GPa) = 0.02129862
#
# Stress axis : x y z
#
# Youngs Moduli (GPa) = 51.41892 95.81906 93.63553
#
# Poissons Ratio (x) = 0.39140 0.27491
# Poissons Ratio (y) = 0.21004 0.24458
# Poissons Ratio (z) = 0.15096 0.25028
#
# Static dielectric constant tensor:
#      x y z
#    x 3.578460 0.000000 0.166800 
#    y 0.000000 4.479530 0.000000 
#    z 0.166800 0.000000 3.613230 
# 
# 
# High freq. dielectric constant tensor:
#      x y z
#    x 1.774560 0.000000 0.006910 
#    y 0.000000 1.793280 0.000000 
#    z 0.006910 0.000000 1.784250 
# 
# From -- ./inp_files/25318.got.cif
#   From: 2010.03.12/outbox.cif.g09.slc.cpg/sg14_13_cif.got.tgz:25318.got - 2010.03.31 13:35:05.
