data_PCOD8127611
_publ_section_title
;
Structure prediction by ZEFSAII (Michael W. Deem and Ramdas Pophale) SiO2 
 PCOD8127611
Probable space group: P 21/C
;
_chemical_formula_sum "Si O2"
_cell_formula_units_Z 28
_cell_length_a 7.603931
_cell_length_b 12.261748
_cell_length_c 14.071448
_cell_angle_alpha 90.000000
_cell_angle_beta 73.939880
_cell_angle_gamma 90.000000
_cell_volume 1260.782151
_symmetry_space_group_name_H-M "P 21/C"
_symmetry_group_IT_number 14
_symmetry_cell_setting 'monoclinic'
loop_
_space_group_symop_operation_xyz
x,y,z
-x,1/2+y,1/2-z
-x,-y,-z
x,1/2-y,1/2+z
loop_
_atom_site_type_symbol
_atom_site_label
_atom_site_fract_x
_atom_site_fract_y
_atom_site_fract_z
Si Si1 0.054349 0.246622 0.570916
Si Si2 0.436352 0.155946 0.561839
Si Si3 0.998664 0.050807 0.204713
Si Si4 0.801349 0.366142 0.244638
Si Si5 0.063870 0.328570 0.363209
Si Si6 0.628530 0.419701 0.854322
Si Si7 0.457531 0.254401 0.749443
O O1 0.240067 0.176839 0.542582
O O2 0.001711 0.288949 0.475190
O O3 0.084329 0.350284 0.634390
O O4 0.887598 0.170470 0.630582
O O5 0.585641 0.149995 0.456000
O O6 0.485401 0.250427 0.630700
O O7 0.432406 0.044189 0.622675
O O8 0.843235 0.089687 0.301121
O O9 0.911700 0.960436 0.145342
O O10 0.163204 0.995020 0.241823
O O11 0.587997 0.336783 0.279793
O O12 0.907978 0.295728 0.310002
O O13 0.249647 0.269704 0.305523
O O14 0.516478 0.372266 0.780712
#
# Coordination Sequence:
#
# PCOD8127611 Si02
#       7
#     4   4   4   4   4   4   4
#     4  12  20  43  69  93 141 183 220 287 348 399
#     4  11  24  41  68 104 129 182 233 273 352 404
#     4  10  22  45  65  96 139 177 226 291 335 407
#     4  10  24  41  63  99 136 173 234 272 340 410
#     4  10  23  44  65  97 139 176 227 286 341 409
#     4  11  22  42  71  94 141 175 225 294 329 405
#     4  12  22  43  68  96 138 179 223 280 346 404
#
# _framework density 22.208435000000001
#
# number of rings (size 3 to 8) (size 9 to 14) (size 15 to 20)
#    0.857    0.286    7.143    0.429    0.000    2.286 
#    0.000    1.429    0.000    0.000    0.000    0.000 
#    0.000    0.000    0.000    0.000    0.000    0.000 
#
# Total GULP energy -347093.778243 kJ/mol
# GULP energy per Si atom -12396.206366 kJ/mol
# Density = 2.215789 g / cm^3
# Si number density = 22.208435 Si / 1000 Ang^3
#
#
#
# Elastic Constant Matrix: (Units=GPa)
#
#
# Indices 1 2 3 4 5 6 
#
# 1 30.7437 -32.2352 4.0305 0.0000 9.1369 0.0000
# 2 -32.2352 37.9108 14.4259 0.0000 3.5192 0.0000
# 3 4.0305 14.4259 139.9187 0.0000 5.6815 0.0000
# 4 0.0000 0.0000 0.0000 39.0864 0.0000 5.4909
# 5 9.1369 3.5192 5.6815 0.0000 18.0349 0.0000
# 6 0.0000 0.0000 0.0000 5.4909 0.0000 35.3194
#
#
#
# Elastic Compliance Matrix: (Units=1/GPa)
#
#
# Indices 1 2 3 4 5 6 
#
# 1 -0.158618 -0.150626 0.015845 0.000000 0.104760 0.000000
# 2 -0.150626 -0.115212 0.012364 0.000000 0.094897 0.000000
# 3 0.015845 0.012364 0.005915 0.000000 -0.012304 0.000000
# 4 0.000000 0.000000 0.000000 0.026156 0.000000 -0.004066
# 5 0.104760 0.094897 -0.012304 0.000000 -0.012267 0.000000
# 6 0.000000 0.000000 0.000000 -0.004066 0.000000 0.028945
#
#
# Mechanical properties :
#
#
# Convention : Reuss Voigt Hill
#
# Bulk Modulus (GPa) = -1.95028 20.11283 9.08128
# Shear Modulus (GPa) = -33.07658 33.31160 0.11751
#
# Velocity S-wave (km/s) = -3.86342 3.87712 0.23028
# Velocity P-wave (km/s) = 4.55867 5.39619 2.04174
#
# Compressibility (1/GPa) = -0.51274734
#
# Stress axis : x y z
#
# Youngs Moduli (GPa) = -6.30446 -8.67963 169.05045
#
# Poissons Ratio (x) = -1.30738 -2.67863
# Poissons Ratio (y) = -0.94961 -2.09018
# Poissons Ratio (z) = 0.09990 0.10732
#
# Static dielectric constant tensor:
#      x y z
#    x 3.753230 0.000000 0.054550 
#    y 0.000000 3.992670 0.000000 
#    z 0.054550 0.000000 4.167900 
# 
# 
# High freq. dielectric constant tensor:
#      x y z
#    x 1.864250 0.000000 -0.002530 
#    y 0.000000 1.871170 0.000000 
#    z -0.002530 0.000000 1.873460 
# 
# From -- ./inp_files/40017.got.cif
#   From: 2010.03.12/outbox.cif.g09.slc.cpg/sg14_21_cif.got.tgz:40017.got - 2010.03.31 13:35:05.
