data_PCOD8127793
_publ_section_title
;
Structure prediction by ZEFSAII (Michael W. Deem and Ramdas Pophale) SiO2 
 PCOD8127793
Probable space group: P 21/C
;
_chemical_formula_sum "Si O2"
_cell_formula_units_Z 28
_cell_length_a 8.292435
_cell_length_b 13.588293
_cell_length_c 20.748336
_cell_angle_alpha 90.000000
_cell_angle_beta 26.682849
_cell_angle_gamma 90.000000
_cell_volume 1049.848075
_symmetry_space_group_name_H-M "P 21/C"
_symmetry_group_IT_number 14
_symmetry_cell_setting 'monoclinic'
loop_
_space_group_symop_operation_xyz
x,y,z
-x,1/2+y,1/2-z
-x,-y,-z
x,1/2-y,1/2+z
loop_
_atom_site_type_symbol
_atom_site_label
_atom_site_fract_x
_atom_site_fract_y
_atom_site_fract_z
Si Si1 0.091194 0.013534 0.662427
Si Si2 0.293841 0.125708 0.880344
Si Si3 0.071012 0.446748 0.907371
Si Si4 0.147232 0.009216 0.048890
Si Si5 0.742574 0.626436 0.376614
Si Si6 0.573077 0.279590 0.692887
Si Si7 0.362994 0.177144 0.643887
O O1 0.057175 0.098007 0.730508
O O2 0.500000 0.000000 0.500000
O O3 0.896932 0.030112 0.661205
O O4 0.956610 0.909049 0.737321
O O5 0.950774 0.193039 0.024474
O O6 0.412320 0.063118 0.901639
O O7 0.594528 0.198163 0.742938
O O8 0.193004 0.042942 0.862715
O O9 0.426383 0.379649 0.777619
O O10 0.747900 0.373591 0.006730
O O11 0.000000 0.500000 0.000000
O O12 0.032032 0.095513 0.139832
O O13 0.355400 0.926322 0.014219
O O14 0.669774 0.741965 0.401009
O O15 0.310313 0.230602 0.732136
#
# Coordination Sequence:
#
# PCOD8127793 Si02
#       7
#     4   4   4   4   4   4   4
#     4  10  23  41  68 101 137 181 225 290 347 413
#     4  11  24  43  70 100 139 178 235 284 355 416
#     4  11  24  43  70 101 144 183 230 294 357 415
#     4  10  23  43  69  98 134 179 232 293 336 415
#     4  11  21  45  69  98 133 181 234 284 348 416
#     4  12  22  44  70 101 135 187 229 288 352 419
#     4  11  23  43  69  98 137 185 234 285 357 422
#
# _framework density 26.670525000000001
#
# number of rings (size 3 to 8) (size 9 to 14) (size 15 to 20)
#    0.000    1.143    4.286    0.857    0.000    8.000 
#    2.571    0.000    0.000    0.000    0.000    0.000 
#    0.000    0.000    0.000    0.000    0.000    0.000 
#
# Total GULP energy -346920.174167 kJ/mol
# GULP energy per Si atom -12390.006220 kJ/mol
# Density = 2.660982 g / cm^3
# Si number density = 26.670525 Si / 1000 Ang^3
#
#
#
# Elastic Constant Matrix: (Units=GPa)
#
#
# Indices 1 2 3 4 5 6 
#
# 1 88.9326 34.4583 12.6425 0.0000 24.2457 0.0000
# 2 34.4583 147.0961 29.9425 0.0000 14.2071 0.0000
# 3 12.6425 29.9425 58.7227 0.0000 30.2279 0.0000
# 4 0.0000 0.0000 0.0000 55.2601 0.0000 14.5962
# 5 24.2457 14.2071 30.2279 0.0000 34.4990 0.0000
# 6 0.0000 0.0000 0.0000 14.5962 0.0000 58.2858
#
#
#
# Elastic Compliance Matrix: (Units=1/GPa)
#
#
# Indices 1 2 3 4 5 6 
#
# 1 0.015835 -0.003502 0.006126 0.000000 -0.015054 0.000000
# 2 -0.003502 0.008365 -0.005474 0.000000 0.003813 0.000000
# 3 0.006126 -0.005474 0.035625 0.000000 -0.033265 0.000000
# 4 0.000000 0.000000 0.000000 0.019378 0.000000 -0.004853
# 5 -0.015054 0.003813 -0.033265 0.000000 0.067143 0.000000
# 6 0.000000 0.000000 0.000000 -0.004853 0.000000 0.018372
#
#
# Mechanical properties :
#
#
# Convention : Reuss Voigt Hill
#
# Bulk Modulus (GPa) = 18.47632 49.87091 34.17361
# Shear Modulus (GPa) = 26.53090 44.12285 35.32687
#
# Velocity S-wave (km/s) = 3.15741 4.07180 3.64341
# Velocity P-wave (km/s) = 4.49833 6.39106 5.52633
#
# Compressibility (1/GPa) = 0.05412333
#
# Stress axis : x y z
#
# Youngs Moduli (GPa) = 63.15221 119.54984 28.07018
#
# Poissons Ratio (x) = 0.41871 -0.17195
# Poissons Ratio (y) = 0.22118 0.15365
# Poissons Ratio (z) = -0.38685 0.65439
#
# Static dielectric constant tensor:
#      x y z
#    x 5.058180 0.000000 0.364150 
#    y 0.000000 5.145470 0.000000 
#    z 0.364150 0.000000 4.610640 
# 
# 
# High freq. dielectric constant tensor:
#      x y z
#    x 2.074120 0.000000 0.015700 
#    y 0.000000 2.080630 0.000000 
#    z 0.015700 0.000000 2.069530 
# 
# From -- ./inp_files/65808.got.cif
#   From: 2010.03.12/outbox.cif.g09.slc.cpg/sg14_33_cif.got.tgz:65808.got - 2010.03.31 13:35:05.
