data_PCOD8127402
_publ_section_title
;
Structure prediction by ZEFSAII (Michael W. Deem and Ramdas Pophale) SiO2 
 PCOD8127402
Probable space group: P 21/C
;
_chemical_formula_sum "Si O2"
_cell_formula_units_Z 16
_cell_length_a 10.993823
_cell_length_b 11.587517
_cell_length_c 11.738833
_cell_angle_alpha 90.000000
_cell_angle_beta 154.413706
_cell_angle_gamma 90.000000
_cell_volume 645.828328
_symmetry_space_group_name_H-M "P 21/C"
_symmetry_group_IT_number 14
_symmetry_cell_setting 'monoclinic'
loop_
_space_group_symop_operation_xyz
x,y,z
-x,1/2+y,1/2-z
-x,-y,-z
x,1/2-y,1/2+z
loop_
_atom_site_type_symbol
_atom_site_label
_atom_site_fract_x
_atom_site_fract_y
_atom_site_fract_z
Si Si1 0.304420 0.948317 0.239570
Si Si2 0.600110 0.208732 0.259238
Si Si3 0.855260 0.928650 0.262608
Si Si4 0.527849 0.096595 0.857129
O O1 0.278901 0.808497 0.223174
O O2 0.443810 0.981650 0.234359
O O3 0.500000 0.000000 0.500000
O O4 0.000000 0.000000 0.000000
O O5 0.535718 0.268370 0.328186
O O6 0.820128 0.106166 0.467033
O O7 0.322598 0.160077 0.964768
O O8 0.758691 0.927138 0.313962
O O9 0.794175 0.058189 0.162121
#
# Coordination Sequence:
#
# PCOD8127402 Si02
#       4
#     4   4   4   4
#     4  10  22  42  65  96 132 168 223 273 329 392
#     4  10  25  40  68 102 131 183 220 272 340 403
#     4  11  23  46  68  97 140 178 221 287 332 407
#     4   9  26  43  69 102 135 178 229 275 346 397
#
# _framework density 24.774384999999999
#
# number of rings (size 3 to 8) (size 9 to 14) (size 15 to 20)
#    1.500    0.500    0.000    1.500    0.000   18.000 
#    0.000    0.000    0.000    0.000    0.000    0.000 
#    0.000    0.000    0.000    0.000    0.000    0.000 
#
# Total GULP energy -198242.557662 kJ/mol
# GULP energy per Si atom -12390.159854 kJ/mol
# Density = 2.471800 g / cm^3
# Si number density = 24.774385 Si / 1000 Ang^3
#
#
#
# Elastic Constant Matrix: (Units=GPa)
#
#
# Indices 1 2 3 4 5 6 
#
# 1 166.6527 16.9958 39.0354 0.0000 -14.8307 0.0000
# 2 16.9958 85.3485 18.2532 0.0000 -9.1842 0.0000
# 3 39.0354 18.2532 113.3869 0.0000 -14.4821 0.0000
# 4 0.0000 0.0000 0.0000 47.7939 0.0000 -9.3786
# 5 -14.8307 -9.1842 -14.4821 0.0000 35.9605 0.0000
# 6 0.0000 0.0000 0.0000 -9.3786 0.0000 51.3230
#
#
#
# Elastic Compliance Matrix: (Units=1/GPa)
#
#
# Indices 1 2 3 4 5 6 
#
# 1 0.006692 -0.000721 -0.001960 0.000000 0.001787 0.000000
# 2 -0.000721 0.012418 -0.001459 0.000000 0.002287 0.000000
# 3 -0.001960 -0.001459 0.010097 0.000000 0.002886 0.000000
# 4 0.000000 0.000000 0.000000 0.021701 0.000000 0.003966
# 5 0.001787 0.002287 0.002886 0.000000 0.030291 0.000000
# 6 0.000000 0.000000 0.000000 0.003966 0.000000 0.020209
#
#
# Mechanical properties :
#
#
# Convention : Reuss Voigt Hill
#
# Bulk Modulus (GPa) = 47.78157 57.10632 52.44395
# Shear Modulus (GPa) = 42.85781 46.42239 44.64010
#
# Velocity S-wave (km/s) = 4.16375 4.33344 4.24944
# Velocity P-wave (km/s) = 6.51493 6.93822 6.72990
#
# Compressibility (1/GPa) = 0.02092857
#
# Stress axis : x y z
#
# Youngs Moduli (GPa) = 149.43125 80.52610 99.03557
#
# Poissons Ratio (x) = 0.05808 0.19407
# Poissons Ratio (y) = 0.10778 0.14447
# Poissons Ratio (z) = 0.29282 0.11747
#
# Static dielectric constant tensor:
#      x y z
#    x 4.575540 0.000000 -0.335860 
#    y 0.000000 4.699170 0.000000 
#    z -0.335860 0.000000 4.125640 
# 
# 
# High freq. dielectric constant tensor:
#      x y z
#    x 1.987840 0.000000 -0.015630 
#    y 0.000000 1.996410 0.000000 
#    z -0.015630 0.000000 1.988640 
# 
# From -- ./inp_files/30105.got.cif
#   From: 2010.03.12/outbox.cif.g09.slc.cpg/sg14_16_cif.got.tgz:30105.got - 2010.03.31 13:35:05.
