data_PCOD8127688
_publ_section_title
;
Structure prediction by ZEFSAII (Michael W. Deem and Ramdas Pophale) SiO2 
 PCOD8127688
Probable space group: P 21/C
;
_chemical_formula_sum "Si O2"
_cell_formula_units_Z 28
_cell_length_a 10.970979
_cell_length_b 8.130680
_cell_length_c 14.742096
_cell_angle_alpha 90.000000
_cell_angle_beta 113.142331
_cell_angle_gamma 90.000000
_cell_volume 1209.199734
_symmetry_space_group_name_H-M "P 21/C"
_symmetry_group_IT_number 14
_symmetry_cell_setting 'monoclinic'
loop_
_space_group_symop_operation_xyz
x,y,z
-x,1/2+y,1/2-z
-x,-y,-z
x,1/2-y,1/2+z
loop_
_atom_site_type_symbol
_atom_site_label
_atom_site_fract_x
_atom_site_fract_y
_atom_site_fract_z
Si Si1 0.738433 0.077969 0.293073
Si Si2 0.489271 0.428175 0.597757
Si Si3 0.715844 0.862220 0.460072
Si Si4 0.204806 0.037094 0.330322
Si Si5 0.047927 0.342571 0.215091
Si Si6 0.078203 0.345267 0.555923
Si Si7 0.303865 0.934506 0.186529
O O1 0.632533 0.106610 0.181830
O O2 0.765748 0.256836 0.345165
O O3 0.688416 0.961213 0.359560
O O4 0.870257 0.006990 0.286146
O O5 0.500000 0.500000 0.500000
O O6 0.405566 0.262421 0.564926
O O7 0.425731 0.556353 0.652059
O O8 0.727885 0.978849 0.551321
O O9 0.862605 0.775788 0.503046
O O10 0.143661 0.221735 0.300552
O O11 0.326885 0.981281 0.299808
O O12 0.085616 0.905408 0.275191
O O13 0.996640 0.254228 0.107817
O O14 0.209407 0.413064 0.640237
O O15 0.000000 0.500000 0.500000
#
# Coordination Sequence:
#
# PCOD8127688 Si02
#       7
#     4   4   4   4   4   4   4
#     4  11  23  43  68  96 135 171 227 271 329 394
#     4  11  24  47  69  93 126 175 225 278 339 390
#     4  10  24  40  68  99 127 179 216 275 328 393
#     4  11  23  42  63 100 142 169 228 263 337 395
#     4  10  23  37  63  97 134 181 212 272 320 395
#     4   9  21  38  61  90 133 171 215 263 320 381
#     4  10  24  42  63  95 130 173 213 280 327 387
#
# _framework density 23.155809000000001
#
# number of rings (size 3 to 8) (size 9 to 14) (size 15 to 20)
#    0.000    1.714    0.000    3.429    8.000    3.429 
#    2.571    2.143    0.000    0.000    0.000    0.000 
#    0.000    0.000    0.000    0.000    0.000    0.000 
#
# Total GULP energy -346890.574516 kJ/mol
# GULP energy per Si atom -12388.949090 kJ/mol
# Density = 2.310311 g / cm^3
# Si number density = 23.155809 Si / 1000 Ang^3
#
#
#
# Elastic Constant Matrix: (Units=GPa)
#
#
# Indices 1 2 3 4 5 6 
#
# 1 87.3860 19.2019 40.5907 0.0000 -26.8494 0.0000
# 2 19.2019 81.1277 11.2843 0.0000 -12.2848 0.0000
# 3 40.5907 11.2843 110.1985 0.0000 -23.5929 0.0000
# 4 0.0000 0.0000 0.0000 32.5747 0.0000 -2.6084
# 5 -26.8494 -12.2848 -23.5929 0.0000 33.5988 0.0000
# 6 0.0000 0.0000 0.0000 -2.6084 0.0000 34.2936
#
#
#
# Elastic Compliance Matrix: (Units=1/GPa)
#
#
# Indices 1 2 3 4 5 6 
#
# 1 0.016700 -0.001913 -0.003823 0.000000 0.009962 0.000000
# 2 -0.001913 0.013281 0.000067 0.000000 0.003375 0.000000
# 3 -0.003823 0.000067 0.011566 0.000000 0.005091 0.000000
# 4 0.000000 0.000000 0.000000 0.030887 0.000000 0.002349
# 5 0.009962 0.003375 0.005091 0.000000 0.042532 0.000000
# 6 0.000000 0.000000 0.000000 0.002349 0.000000 0.029339
#
#
# Mechanical properties :
#
#
# Convention : Reuss Voigt Hill
#
# Bulk Modulus (GPa) = 33.10177 46.76292 39.93234
# Shear Modulus (GPa) = 30.17306 33.93577 32.05442
#
# Velocity S-wave (km/s) = 3.61369 3.83239 3.72464
# Velocity P-wave (km/s) = 5.63364 6.31044 5.98162
#
# Compressibility (1/GPa) = 0.03020987
#
# Stress axis : x y z
#
# Youngs Moduli (GPa) = 59.87969 75.29783 86.46240
#
# Poissons Ratio (x) = 0.14401 0.33053
# Poissons Ratio (y) = 0.11452 -0.00579
# Poissons Ratio (z) = 0.22891 -0.00505
#
# Static dielectric constant tensor:
#      x y z
#    x 4.469750 0.000000 -0.271820 
#    y 0.000000 4.339520 0.000000 
#    z -0.271820 0.000000 4.358100 
# 
# 
# High freq. dielectric constant tensor:
#      x y z
#    x 1.908640 0.000000 -0.022900 
#    y 0.000000 1.925520 0.000000 
#    z -0.022900 0.000000 1.909850 
# 
# From -- ./inp_files/43818.got.cif
#   From: 2010.03.12/outbox.cif.g09.slc.cpg/sg14_22_cif.got.tgz:43818.got - 2010.03.31 13:35:05.
