data_PCOD8127286
_publ_section_title
;
Structure prediction by ZEFSAII (Michael W. Deem and Ramdas Pophale) SiO2 
 PCOD8127286
Probable space group: P 21/C
;
_chemical_formula_sum "Si O2"
_cell_formula_units_Z 24
_cell_length_a 8.721132
_cell_length_b 8.740337
_cell_length_c 30.133177
_cell_angle_alpha 90.000000
_cell_angle_beta 29.664981
_cell_angle_gamma 90.000000
_cell_volume 1136.809505
_symmetry_space_group_name_H-M "P 21/C"
_symmetry_group_IT_number 14
_symmetry_cell_setting 'monoclinic'
loop_
_space_group_symop_operation_xyz
x,y,z
-x,1/2+y,1/2-z
-x,-y,-z
x,1/2-y,1/2+z
loop_
_atom_site_type_symbol
_atom_site_label
_atom_site_fract_x
_atom_site_fract_y
_atom_site_fract_z
Si Si1 0.109205 0.163315 0.182295
Si Si2 0.202613 0.684357 0.820872
Si Si3 0.167498 0.809843 0.163587
Si Si4 0.140384 0.326492 0.840832
Si Si5 0.823816 0.315841 0.500392
Si Si6 0.120208 0.166453 0.017192
O O1 0.884594 0.248730 0.204911
O O2 0.029035 0.213132 0.252071
O O3 0.051076 0.983499 0.192750
O O4 0.461475 0.208404 0.083012
O O5 0.197891 0.503445 0.818380
O O6 0.544156 0.736797 0.748202
O O7 0.960587 0.740674 0.918500
O O8 0.117705 0.737112 0.127842
O O9 0.528069 0.800188 0.085210
O O10 0.015967 0.300980 0.921787
O O11 0.929162 0.486940 0.460863
O O12 0.900614 0.279880 0.532259
#
# Coordination Sequence:
#
# PCOD8127286 Si02
#       6
#     4   4   4   4   4   4
#     4  11  23  40  64  93 127 164 204 251 303 362
#     4  12  25  41  63  90 123 162 207 257 308 365
#     4  11  23  40  64  93 127 164 204 251 303 362
#     4  12  25  41  63  90 123 162 207 257 308 365
#     4  10  22  41  64  91 124 161 202 251 307 364
#     4  10  22  41  64  91 124 161 202 251 307 364
#
# _framework density 21.111716000000001
#
# number of rings (size 3 to 8) (size 9 to 14) (size 15 to 20)
#    0.000    1.000    0.000    7.000    0.000   10.000 
#    0.000    0.000    0.000    0.000    0.000    0.000 
#    0.000    0.000    0.000    0.000    0.000    0.000 
#
# Total GULP energy -297841.006719 kJ/mol
# GULP energy per Si atom -12410.041947 kJ/mol
# Density = 2.106366 g / cm^3
# Si number density = 21.111716 Si / 1000 Ang^3
#
#
#
# Elastic Constant Matrix: (Units=GPa)
#
#
# Indices 1 2 3 4 5 6 
#
# 1 97.7413 28.9888 9.2472 0.0000 0.2172 0.0000
# 2 28.9888 71.8718 17.9031 0.0000 -9.2711 0.0000
# 3 9.2472 17.9031 71.1022 0.0000 8.3036 0.0000
# 4 0.0000 0.0000 0.0000 59.4973 0.0000 9.4469
# 5 0.2172 -9.2711 8.3036 0.0000 32.0188 0.0000
# 6 0.0000 0.0000 0.0000 9.4469 0.0000 35.7566
#
#
#
# Elastic Compliance Matrix: (Units=1/GPa)
#
#
# Indices 1 2 3 4 5 6 
#
# 1 0.011691 -0.004873 -0.000123 0.000000 -0.001458 0.000000
# 2 -0.004873 0.017852 -0.004608 0.000000 0.006397 0.000000
# 3 -0.000123 -0.004608 0.015877 0.000000 -0.005451 0.000000
# 4 0.000000 0.000000 0.000000 0.017543 0.000000 -0.004635
# 5 -0.001458 0.006397 -0.005451 0.000000 0.034508 0.000000
# 6 0.000000 0.000000 0.000000 -0.004635 0.000000 0.029191
#
#
# Mechanical properties :
#
#
# Convention : Reuss Voigt Hill
#
# Bulk Modulus (GPa) = 38.15115 39.22151 38.68633
# Shear Modulus (GPa) = 32.33949 37.75962 35.04956
#
# Velocity S-wave (km/s) = 3.91810 4.23373 4.07897
# Velocity P-wave (km/s) = 6.21120 6.52056 6.36776
#
# Compressibility (1/GPa) = 0.02621153
#
# Stress axis : x y z
#
# Youngs Moduli (GPa) = 85.53406 56.01509 62.98314
#
# Poissons Ratio (x) = 0.27296 0.00776
# Poissons Ratio (y) = 0.41681 0.29026
# Poissons Ratio (z) = 0.01054 0.25814
#
# Static dielectric constant tensor:
#      x y z
#    x 3.674860 0.000000 -0.075000 
#    y 0.000000 3.811770 0.000000 
#    z -0.075000 0.000000 3.691410 
# 
# 
# High freq. dielectric constant tensor:
#      x y z
#    x 1.842180 0.000000 -0.001600 
#    y 0.000000 1.829300 0.000000 
#    z -0.001600 0.000000 1.835080 
# 
# From -- ./inp_files/79426.got.cif
#   From: 2010.03.12/outbox.cif.g09.slc.cpg/sg14_40_cif.got.tgz:79426.got - 2010.03.31 13:35:05.
