data_PCOD8127790
_publ_section_title
;
Structure prediction by ZEFSAII (Michael W. Deem and Ramdas Pophale) SiO2 
 PCOD8127790
Probable space group: P 21/C
;
_chemical_formula_sum "Si O2"
_cell_formula_units_Z 32
_cell_length_a 27.959514
_cell_length_b 12.205760
_cell_length_c 22.230495
_cell_angle_alpha 90.000000
_cell_angle_beta 11.032677
_cell_angle_gamma 90.000000
_cell_volume 1451.826527
_symmetry_space_group_name_H-M "P 21/C"
_symmetry_group_IT_number 14
_symmetry_cell_setting 'monoclinic'
loop_
_space_group_symop_operation_xyz
x,y,z
-x,1/2+y,1/2-z
-x,-y,-z
x,1/2-y,1/2+z
loop_
_atom_site_type_symbol
_atom_site_label
_atom_site_fract_x
_atom_site_fract_y
_atom_site_fract_z
Si Si1 0.818839 0.642248 0.840545
Si Si2 0.341042 0.844652 0.866155
Si Si3 0.802564 0.284051 0.069897
Si Si4 0.518814 0.700040 0.321668
Si Si5 0.045238 0.761491 0.336753
Si Si6 0.591295 0.615888 0.365461
Si Si7 0.787850 0.961259 0.133709
Si Si8 0.173106 0.076751 0.052674
O O1 0.974425 0.751777 0.660582
O O2 0.012768 0.546167 0.585102
O O3 0.641886 0.662132 0.001177
O O4 0.640729 0.622943 0.119334
O O5 0.256074 0.814366 0.903941
O O6 0.218282 0.756188 0.063277
O O7 0.267993 0.970367 0.971788
O O8 0.563036 0.295583 0.406570
O O9 0.895447 0.393320 0.920350
O O10 0.223137 0.719712 0.674858
O O11 0.558381 0.636767 0.335241
O O12 0.645162 0.819318 0.165679
O O13 0.875684 0.868757 0.535233
O O14 0.863631 0.656234 0.568535
O O15 0.500000 0.500000 0.500000
O O16 0.500000 0.000000 0.500000
O O17 0.842385 0.957386 0.996559
#
# Coordination Sequence:
#
# PCOD8127790 Si02
#       8
#     4   4   4   4   4   4   4   4
#     4  10  23  41  67  95 130 169 221 264 328 408
#     4  11  22  41  68  96 123 179 217 265 336 396
#     4  11  23  41  62  93 129 169 215 271 323 399
#     4  10  24  44  66  96 133 177 219 278 331 392
#     4  11  23  44  66  93 138 171 221 281 331 394
#     4  12  26  42  65  94 129 172 221 269 329 391
#     4  12  23  40  69 101 132 174 219 276 346 396
#     4  11  22  41  68  92 132 170 217 270 335 397
#
# _framework density 22.0412
#
# number of rings (size 3 to 8) (size 9 to 14) (size 15 to 20)
#    0.000    1.000    3.750    3.000    1.750    1.500 
#    0.000    1.250    0.000    0.000    0.000    0.000 
#    0.000    0.000    0.000    0.000    0.000    0.000 
#
# Total GULP energy -396650.503295 kJ/mol
# GULP energy per Si atom -12395.328228 kJ/mol
# Density = 2.199103 g / cm^3
# Si number density = 22.041200 Si / 1000 Ang^3
#
#
#
# Elastic Constant Matrix: (Units=GPa)
#
#
# Indices 1 2 3 4 5 6 
#
# 1 45.5764 7.0795 18.0231 0.0000 -11.4039 0.0000
# 2 7.0795 87.5372 21.9778 0.0000 -9.8724 0.0000
# 3 18.0231 21.9778 121.2775 0.0000 -23.3227 0.0000
# 4 0.0000 0.0000 0.0000 39.9281 0.0000 3.6394
# 5 -11.4039 -9.8724 -23.3227 0.0000 37.3583 0.0000
# 6 0.0000 0.0000 0.0000 3.6394 0.0000 22.0801
#
#
#
# Elastic Compliance Matrix: (Units=1/GPa)
#
#
# Indices 1 2 3 4 5 6 
#
# 1 0.024445 -0.000725 -0.002390 0.000000 0.005778 0.000000
# 2 -0.000725 0.012130 -0.001724 0.000000 0.001908 0.000000
# 3 -0.002390 -0.001724 0.009870 0.000000 0.004977 0.000000
# 4 0.000000 0.000000 0.000000 0.025427 0.000000 -0.004191
# 5 0.005778 0.001908 0.004977 0.000000 0.032143 0.000000
# 6 0.000000 0.000000 0.000000 -0.004191 0.000000 0.045981
#
#
# Mechanical properties :
#
#
# Convention : Reuss Voigt Hill
#
# Bulk Modulus (GPa) = 27.19791 38.72800 32.96296
# Shear Modulus (GPa) = 29.08172 33.69401 31.38787
#
# Velocity S-wave (km/s) = 3.63633 3.91408 3.77776
# Velocity P-wave (km/s) = 5.47694 6.16730 5.83234
#
# Compressibility (1/GPa) = 0.03676752
#
# Stress axis : x y z
#
# Youngs Moduli (GPa) = 40.90857 82.43829 101.31528
#
# Poissons Ratio (x) = 0.05979 0.24216
# Poissons Ratio (y) = 0.02967 0.17462
# Poissons Ratio (z) = 0.09778 0.14208
#
# Static dielectric constant tensor:
#      x y z
#    x 3.907720 0.000000 0.003070 
#    y 0.000000 4.052380 0.000000 
#    z 0.003070 0.000000 4.387260 
# 
# 
# High freq. dielectric constant tensor:
#      x y z
#    x 1.853500 0.000000 -0.006700 
#    y 0.000000 1.864610 0.000000 
#    z -0.006700 0.000000 1.881420 
# 
# From -- ./inp_files/75320.got.cif
#   From: 2010.03.12/outbox.cif.g09.slc.cpg/sg14_38_cif.got.tgz:75320.got - 2010.03.31 13:35:05.
