data_PCOD8127783
_publ_section_title
;
Structure prediction by ZEFSAII (Michael W. Deem and Ramdas Pophale) SiO2 
 PCOD8127783
Probable space group: P 21/C
;
_chemical_formula_sum "Si O2"
_cell_formula_units_Z 24
_cell_length_a 17.272996
_cell_length_b 7.779218
_cell_length_c 23.285537
_cell_angle_alpha 90.000000
_cell_angle_beta 22.182001
_cell_angle_gamma 90.000000
_cell_volume 1181.310999
_symmetry_space_group_name_H-M "P 21/C"
_symmetry_group_IT_number 14
_symmetry_cell_setting 'monoclinic'
loop_
_space_group_symop_operation_xyz
x,y,z
-x,1/2+y,1/2-z
-x,-y,-z
x,1/2-y,1/2+z
loop_
_atom_site_type_symbol
_atom_site_label
_atom_site_fract_x
_atom_site_fract_y
_atom_site_fract_z
Si Si1 0.078647 0.615041 0.247259
Si Si2 0.711248 0.325142 0.627013
Si Si3 0.081974 0.840860 0.411026
Si Si4 0.011825 0.727126 0.167504
Si Si5 0.257750 0.192219 0.937972
Si Si6 0.713896 0.075515 0.835843
O O1 0.108160 0.410441 0.241156
O O2 0.244493 0.736996 0.164588
O O3 0.108644 0.660097 0.160227
O O4 0.848642 0.661284 0.427003
O O5 0.848362 0.297735 0.589821
O O6 0.477092 0.274229 0.798372
O O7 0.704084 0.525288 0.624895
O O8 0.808780 0.238782 0.503238
O O9 0.279197 0.893498 0.237397
O O10 0.898371 0.797455 0.493952
O O11 0.000000 0.000000 0.500000
O O12 0.868799 0.573907 0.246254
O O13 0.500000 0.000000 0.000000
#
# Coordination Sequence:
#
# PCOD8127783 Si02
#       6
#     4   4   4   4   4   4
#     4  10  23  41  66  91 127 167 213 265 308 382
#     4  11  23  40  65  93 125 170 209 263 321 376
#     4  11  22  42  63  90 132 161 209 266 312 379
#     4  11  22  42  64  92 128 165 215 260 315 379
#     4  10  24  40  64  95 124 167 216 256 323 376
#     4  11  25  42  64  95 129 167 211 264 322 373
#
# _framework density 20.316412
#
# number of rings (size 3 to 8) (size 9 to 14) (size 15 to 20)
#    0.000    1.333    3.333    1.500    4.667    2.000 
#    0.000    0.000    0.000    0.000    0.000    0.000 
#    0.000    0.000    0.000    0.000    0.000    0.000 
#
# Total GULP energy -297373.829343 kJ/mol
# GULP energy per Si atom -12390.576223 kJ/mol
# Density = 2.027017 g / cm^3
# Si number density = 20.316412 Si / 1000 Ang^3
#
#
#
# Elastic Constant Matrix: (Units=GPa)
#
#
# Indices 1 2 3 4 5 6 
#
# 1 88.2793 12.7823 19.6652 0.0000 20.9930 0.0000
# 2 12.7823 82.5218 -10.1972 0.0000 1.3720 0.0000
# 3 19.6652 -10.1972 44.2252 0.0000 2.9199 0.0000
# 4 0.0000 0.0000 0.0000 29.6749 0.0000 3.5923
# 5 20.9930 1.3720 2.9199 0.0000 35.0043 0.0000
# 6 0.0000 0.0000 0.0000 3.5923 0.0000 56.2261
#
#
#
# Elastic Compliance Matrix: (Units=1/GPa)
#
#
# Indices 1 2 3 4 5 6 
#
# 1 0.015354 -0.003099 -0.006980 0.000000 -0.008504 0.000000
# 2 -0.003099 0.013118 0.004338 0.000000 0.000983 0.000000
# 3 -0.006980 0.004338 0.026597 0.000000 0.001798 0.000000
# 4 0.000000 0.000000 0.000000 0.033961 0.000000 -0.002170
# 5 -0.008504 0.000983 0.001798 0.000000 0.033480 0.000000
# 6 0.000000 0.000000 0.000000 -0.002170 0.000000 0.017924
#
#
# Mechanical properties :
#
#
# Convention : Reuss Voigt Hill
#
# Bulk Modulus (GPa) = 22.94378 28.83633 25.89006
# Shear Modulus (GPa) = 30.03989 37.03280 33.53635
#
# Velocity S-wave (km/s) = 3.84943 4.27406 4.06729
# Velocity P-wave (km/s) = 5.57452 6.21138 5.90154
#
# Compressibility (1/GPa) = 0.04358479
#
# Stress axis : x y z
#
# Youngs Moduli (GPa) = 65.13064 76.23232 37.59829
#
# Poissons Ratio (x) = 0.23628 0.26245
# Poissons Ratio (y) = 0.20187 -0.16310
# Poissons Ratio (z) = 0.45464 -0.33069
#
# Static dielectric constant tensor:
#      x y z
#    x 3.478530 0.000000 0.584140 
#    y 0.000000 3.966820 0.000000 
#    z 0.584140 0.000000 3.588700 
# 
# 
# High freq. dielectric constant tensor:
#      x y z
#    x 1.795810 0.000000 0.022620 
#    y 0.000000 1.813950 0.000000 
#    z 0.022620 0.000000 1.791610 
# 
# From -- ./inp_files/38930.got.cif
#   From: 2010.03.12/outbox.cif.g09.slc.cpg/sg14_20_cif.got.tgz:38930.got - 2010.03.31 13:35:05.
