data_PCOD8127824
_publ_section_title
;
Structure prediction by ZEFSAII (Michael W. Deem and Ramdas Pophale) SiO2 
 PCOD8127824
Probable space group: P 21/C
;
_chemical_formula_sum "Si O2"
_cell_formula_units_Z 20
_cell_length_a 6.638135
_cell_length_b 8.009850
_cell_length_c 16.577294
_cell_angle_alpha 90.000000
_cell_angle_beta 91.205222
_cell_angle_gamma 90.000000
_cell_volume 881.227444
_symmetry_space_group_name_H-M "P 21/C"
_symmetry_group_IT_number 14
_symmetry_cell_setting 'monoclinic'
loop_
_space_group_symop_operation_xyz
x,y,z
-x,1/2+y,1/2-z
-x,-y,-z
x,1/2-y,1/2+z
loop_
_atom_site_type_symbol
_atom_site_label
_atom_site_fract_x
_atom_site_fract_y
_atom_site_fract_z
Si Si1 0.797595 0.433832 0.098206
Si Si2 0.136696 0.045733 0.856128
Si Si3 0.860100 0.752188 0.494850
Si Si4 0.158703 0.355815 0.747397
Si Si5 0.518741 0.838176 0.876619
O O1 0.759811 0.586086 0.036196
O O2 0.869151 0.504141 0.184633
O O3 0.588849 0.339403 0.111770
O O4 0.962176 0.306674 0.063505
O O5 0.044961 0.129670 0.936222
O O6 0.124748 0.174405 0.782979
O O7 0.363263 0.991298 0.880082
O O8 0.005283 0.888072 0.825087
O O9 0.689216 0.648958 0.446392
O O10 0.381266 0.354165 0.710779
#
# Coordination Sequence:
#
# PCOD8127824 Si02
#       5
#     4   4   4   4   4
#     4  10  23  44  66  92 127 166 206 254 311 371
#     4  11  24  40  62  91 126 166 210 259 309 368
#     4  10  23  42  65  92 126 165 207 255 310 370
#     4  11  24  42  63  91 126 166 210 257 310 369
#     4  12  22  38  64  94 125 160 207 259 311 368
#
# _framework density 22.695615
#
# number of rings (size 3 to 8) (size 9 to 14) (size 15 to 20)
#    0.000    1.200    0.000    6.000    0.000    4.800 
#    0.000   10.000    0.000    0.000    0.000    0.000 
#    0.000    0.000    0.000    0.000    0.000    0.000 
#
# Total GULP energy -248005.947351 kJ/mol
# GULP energy per Si atom -12400.297368 kJ/mol
# Density = 2.264396 g / cm^3
# Si number density = 22.695615 Si / 1000 Ang^3
#
#
#
# Elastic Constant Matrix: (Units=GPa)
#
#
# Indices 1 2 3 4 5 6 
#
# 1 113.2830 46.5107 69.4722 0.0000 -6.4609 0.0000
# 2 46.5107 87.8203 73.0248 0.0000 8.3151 0.0000
# 3 69.4722 73.0248 141.8084 0.0000 -12.9103 0.0000
# 4 0.0000 0.0000 0.0000 50.7919 0.0000 -0.3273
# 5 -6.4609 8.3151 -12.9103 0.0000 42.8387 0.0000
# 6 0.0000 0.0000 0.0000 -0.3273 0.0000 45.9555
#
#
#
# Elastic Compliance Matrix: (Units=1/GPa)
#
#
# Indices 1 2 3 4 5 6 
#
# 1 0.013046 -0.003137 -0.004669 0.000000 0.001169 0.000000
# 2 -0.003137 0.023055 -0.011090 0.000000 -0.008290 0.000000
# 3 -0.004669 -0.011090 0.015610 0.000000 0.006153 0.000000
# 4 0.000000 0.000000 0.000000 0.019689 0.000000 0.000140
# 5 0.001169 -0.008290 0.006153 0.000000 0.026983 0.000000
# 6 0.000000 0.000000 0.000000 0.000140 0.000000 0.021761
#
#
# Mechanical properties :
#
#
# Convention : Reuss Voigt Hill
#
# Bulk Modulus (GPa) = 71.84983 80.10301 75.97642
# Shear Modulus (GPa) = 30.75474 38.17749 34.46612
#
# Velocity S-wave (km/s) = 3.68516 4.10586 3.90118
# Velocity P-wave (km/s) = 7.05931 7.60582 7.33766
#
# Compressibility (1/GPa) = 0.01391792
#
# Stress axis : x y z
#
# Youngs Moduli (GPa) = 76.65431 43.37424 64.06108
#
# Poissons Ratio (x) = 0.13609 0.29910
# Poissons Ratio (y) = 0.24050 0.71044
# Poissons Ratio (z) = 0.35789 0.48102
#
# Static dielectric constant tensor:
#      x y z
#    x 3.833810 0.000000 -0.178950 
#    y 0.000000 4.120030 0.000000 
#    z -0.178950 0.000000 4.247970 
# 
# 
# High freq. dielectric constant tensor:
#      x y z
#    x 1.878370 0.000000 -0.007310 
#    y 0.000000 1.908670 0.000000 
#    z -0.007310 0.000000 1.920230 
# 
# From -- ./inp_files/52663.got.cif
#   From: 2010.03.12/outbox.cif.g09.slc.cpg/sg14_27_cif.got.tgz:52663.got - 2010.03.31 13:35:05.
