data_PCOD8127243
_publ_section_title
;
Structure prediction by ZEFSAII (Michael W. Deem and Ramdas Pophale) SiO2 
 PCOD8127243
Probable space group: P 21/C
;
_chemical_formula_sum "Si O2"
_cell_formula_units_Z 28
_cell_length_a 5.389400
_cell_length_b 14.315904
_cell_length_c 16.476671
_cell_angle_alpha 90.000000
_cell_angle_beta 119.213941
_cell_angle_gamma 90.000000
_cell_volume 1109.545378
_symmetry_space_group_name_H-M "P 21/C"
_symmetry_group_IT_number 14
_symmetry_cell_setting 'monoclinic'
loop_
_space_group_symop_operation_xyz
x,y,z
-x,1/2+y,1/2-z
-x,-y,-z
x,1/2-y,1/2+z
loop_
_atom_site_type_symbol
_atom_site_label
_atom_site_fract_x
_atom_site_fract_y
_atom_site_fract_z
Si Si1 0.955402 0.394574 0.425368
Si Si2 0.285631 0.259067 0.181975
Si Si3 0.476440 0.396284 0.606748
Si Si4 0.085598 0.965421 0.714846
Si Si5 0.183035 0.272242 0.850939
Si Si6 0.718248 0.264137 0.516981
Si Si7 0.598817 0.440472 0.226429
O O1 0.225588 0.446572 0.513231
O O2 0.064155 0.312610 0.384217
O O3 0.761477 0.351277 0.463786
O O4 0.761034 0.463007 0.338710
O O5 0.359391 0.151523 0.171698
O O6 0.213011 0.264766 0.264735
O O7 0.547062 0.329820 0.205688
O O8 0.011123 0.289795 0.084027
O O9 0.733375 0.465657 0.671313
O O10 0.591062 0.305426 0.578968
O O11 0.024852 0.860485 0.676317
O O12 0.285339 0.012684 0.678414
O O13 0.792909 0.021794 0.683652
O O14 0.488878 0.303749 0.937132
#
# Coordination Sequence:
#
# PCOD8127243 Si02
#       7
#     4   4   4   4   4   4   4
#     4  10  23  42  70  99 129 178 237 282 330 403
#     4  11  22  44  73  96 133 181 237 279 326 405
#     4  10  23  42  70  99 129 178 237 282 330 403
#     4  12  27  42  66 103 144 180 216 280 358 407
#     4  11  22  44  73  96 133 181 237 279 326 405
#     4  10  22  40  74 100 124 172 252 276 320 390
#     4  12  27  42  66 103 144 180 216 280 358 407
#
# _framework density 25.235561000000001
#
# number of rings (size 3 to 8) (size 9 to 14) (size 15 to 20)
#    0.000    1.143    2.857    2.571    8.000    1.143 
#    0.000    1.429    0.000    0.000    0.000    0.000 
#    0.000    0.000    0.000    0.000    0.000    0.000 
#
# Total GULP energy -347173.254614 kJ/mol
# GULP energy per Si atom -12399.044808 kJ/mol
# Density = 2.517812 g / cm^3
# Si number density = 25.235561 Si / 1000 Ang^3
#
#
#
# Elastic Constant Matrix: (Units=GPa)
#
#
# Indices 1 2 3 4 5 6 
#
# 1 118.7412 15.5388 21.2551 0.0000 22.2944 0.0000
# 2 15.5388 46.6554 0.9802 0.0000 11.1110 0.0000
# 3 21.2551 0.9802 71.7226 0.0000 20.3882 0.0000
# 4 0.0000 0.0000 0.0000 31.1230 0.0000 22.1422
# 5 22.2944 11.1110 20.3882 0.0000 39.8224 0.0000
# 6 0.0000 0.0000 0.0000 22.1422 0.0000 30.7563
#
#
#
# Elastic Compliance Matrix: (Units=1/GPa)
#
#
# Indices 1 2 3 4 5 6 
#
# 1 0.009772 -0.002279 -0.001744 0.000000 -0.003942 0.000000
# 2 -0.002279 0.023683 0.002186 0.000000 -0.006451 0.000000
# 3 -0.001744 0.002186 0.016765 0.000000 -0.008217 0.000000
# 4 0.000000 0.000000 0.000000 0.065867 0.000000 -0.047419
# 5 -0.003942 -0.006451 -0.008217 0.000000 0.033325 0.000000
# 6 0.000000 0.000000 0.000000 -0.047419 0.000000 0.066652
#
#
# Mechanical properties :
#
#
# Convention : Reuss Voigt Hill
#
# Bulk Modulus (GPa) = 21.48464 34.74081 28.11273
# Shear Modulus (GPa) = 21.25352 33.63003 27.44177
#
# Velocity S-wave (km/s) = 2.90523 3.65450 3.30119
# Velocity P-wave (km/s) = 4.44813 5.62171 5.06900
#
# Compressibility (1/GPa) = 0.04654487
#
# Stress axis : x y z
#
# Youngs Moduli (GPa) = 102.32991 42.22399 59.64663
#
# Poissons Ratio (x) = 0.09624 0.10404
# Poissons Ratio (y) = 0.23324 -0.13036
# Poissons Ratio (z) = 0.17850 -0.09228
#
# Static dielectric constant tensor:
#      x y z
#    x 4.835390 0.000000 0.436710 
#    y 0.000000 4.104230 0.000000 
#    z 0.436710 0.000000 4.836440 
# 
# 
# High freq. dielectric constant tensor:
#      x y z
#    x 2.029020 0.000000 0.014820 
#    y 0.000000 1.978930 0.000000 
#    z 0.014820 0.000000 2.000760 
# 
# From -- ./inp_files/37521.got.cif
#   From: 2010.03.12/outbox.cif.g09.slc.cpg/sg14_19_cif.got.tgz:37521.got - 2010.03.31 13:35:05.
