data_PCOD8127885
_publ_section_title
;
Structure prediction by ZEFSAII (Michael W. Deem and Ramdas Pophale) SiO2 
 PCOD8127885
Probable space group: P 21/C
;
_chemical_formula_sum "Si O2"
_cell_formula_units_Z 24
_cell_length_a 5.399733
_cell_length_b 8.420169
_cell_length_c 22.426400
_cell_angle_alpha 90.000000
_cell_angle_beta 98.962954
_cell_angle_gamma 90.000000
_cell_volume 1007.202899
_symmetry_space_group_name_H-M "P 21/C"
_symmetry_group_IT_number 14
_symmetry_cell_setting 'monoclinic'
loop_
_space_group_symop_operation_xyz
x,y,z
-x,1/2+y,1/2-z
-x,-y,-z
x,1/2-y,1/2+z
loop_
_atom_site_type_symbol
_atom_site_label
_atom_site_fract_x
_atom_site_fract_y
_atom_site_fract_z
Si Si1 0.945482 0.239110 0.086742
Si Si2 0.361650 0.467500 0.106239
Si Si3 0.419687 0.768963 0.522372
Si Si4 0.200522 0.868537 0.302120
Si Si5 0.934423 0.318094 0.816217
Si Si6 0.065000 0.127148 0.928816
O O1 0.975915 0.271249 0.158735
O O2 0.155972 0.355319 0.066134
O O3 0.999838 0.057800 0.074230
O O4 0.669558 0.291865 0.050238
O O5 0.495148 0.565662 0.057489
O O6 0.534164 0.361274 0.155191
O O7 0.258406 0.600594 0.147082
O O8 0.659888 0.652929 0.531755
O O9 0.161209 0.702617 0.542059
O O10 0.212794 0.781428 0.239468
O O11 0.112723 0.051420 0.291743
O O12 0.091453 0.194356 0.862460
#
# Coordination Sequence:
#
# PCOD8127885 Si02
#       6
#     4   4   4   4   4   4
#     4  11  25  40  67 104 130 183 230 281 349 414
#     4  10  24  43  64 100 132 183 228 286 350 412
#     4  11  24  45  70  97 146 180 230 283 342 415
#     4  11  23  43  67  92 136 172 232 280 350 407
#     4  10  23  43  63  95 129 175 227 285 342 412
#     4  11  24  44  68 101 137 182 231 284 344 405
#
# _framework density 23.828368000000001
#
# number of rings (size 3 to 8) (size 9 to 14) (size 15 to 20)
#    0.000    1.333    1.667    2.500    4.667    4.667 
#    3.000    0.000    0.000    0.000    0.000    0.000 
#    0.000    0.000    0.000    0.000    0.000    0.000 
#
# Total GULP energy -297498.014263 kJ/mol
# GULP energy per Si atom -12395.750594 kJ/mol
# Density = 2.377413 g / cm^3
# Si number density = 23.828368 Si / 1000 Ang^3
#
#
#
# Elastic Constant Matrix: (Units=GPa)
#
#
# Indices 1 2 3 4 5 6 
#
# 1 81.3728 25.9671 20.6954 0.0000 18.6309 0.0000
# 2 25.9671 123.6458 54.7718 0.0000 3.4897 0.0000
# 3 20.6954 54.7718 148.3213 0.0000 18.1450 0.0000
# 4 0.0000 0.0000 0.0000 39.7311 0.0000 15.6336
# 5 18.6309 3.4897 18.1450 0.0000 29.2111 0.0000
# 6 0.0000 0.0000 0.0000 15.6336 0.0000 29.1027
#
#
#
# Elastic Compliance Matrix: (Units=1/GPa)
#
#
# Indices 1 2 3 4 5 6 
#
# 1 0.015407 -0.003026 0.000136 0.000000 -0.009549 0.000000
# 2 -0.003026 0.010300 -0.003752 0.000000 0.003030 0.000000
# 3 0.000136 -0.003752 0.008728 0.000000 -0.005060 0.000000
# 4 0.000000 0.000000 0.000000 0.031915 0.000000 -0.017144
# 5 -0.009549 0.003030 -0.005060 0.000000 0.043105 0.000000
# 6 0.000000 0.000000 0.000000 -0.017144 0.000000 0.043571
#
#
# Mechanical properties :
#
#
# Convention : Reuss Voigt Hill
#
# Bulk Modulus (GPa) = 47.28209 61.80095 54.54152
# Shear Modulus (GPa) = 28.84182 36.40270 32.62226
#
# Velocity S-wave (km/s) = 3.48285 3.91283 3.70408
# Velocity P-wave (km/s) = 6.00496 6.81218 6.42127
#
# Compressibility (1/GPa) = 0.02114966
#
# Stress axis : x y z
#
# Youngs Moduli (GPa) = 64.90697 97.09070 114.57877
#
# Poissons Ratio (x) = 0.29383 -0.01559
# Poissons Ratio (y) = 0.19643 0.42989
# Poissons Ratio (z) = -0.00883 0.36427
#
# Static dielectric constant tensor:
#      x y z
#    x 4.076260 0.000000 0.041630 
#    y 0.000000 4.357820 0.000000 
#    z 0.041630 0.000000 4.474960 
# 
# 
# High freq. dielectric constant tensor:
#      x y z
#    x 1.935690 0.000000 0.000640 
#    y 0.000000 1.954820 0.000000 
#    z 0.000640 0.000000 1.956100 
# 
# From -- ./inp_files/70989.got.cif
#   From: 2010.03.12/outbox.cif.g09.slc.cpg/sg14_36_cif.got.tgz:70989.got - 2010.03.31 13:35:05.
