data_PCOD8127819
_publ_section_title
;
Structure prediction by ZEFSAII (Michael W. Deem and Ramdas Pophale) SiO2 
 PCOD8127819
Probable space group: P 21/C
;
_chemical_formula_sum "Si O2"
_cell_formula_units_Z 32
_cell_length_a 12.971849
_cell_length_b 12.746851
_cell_length_c 9.490091
_cell_angle_alpha 90.000000
_cell_angle_beta 89.996888
_cell_angle_gamma 90.000000
_cell_volume 1569.188693
_symmetry_space_group_name_H-M "P 21/C"
_symmetry_group_IT_number 14
_symmetry_cell_setting 'monoclinic'
loop_
_space_group_symop_operation_xyz
x,y,z
-x,1/2+y,1/2-z
-x,-y,-z
x,1/2-y,1/2+z
loop_
_atom_site_type_symbol
_atom_site_label
_atom_site_fract_x
_atom_site_fract_y
_atom_site_fract_z
Si Si1 0.117412 0.626347 0.743995
Si Si2 0.117577 0.373717 0.256229
Si Si3 0.727885 0.049880 0.141212
Si Si4 0.200300 0.744801 0.996122
Si Si5 0.727859 0.950288 0.858400
Si Si6 0.382675 0.397206 0.911409
Si Si7 0.617385 0.102765 0.411059
Si Si8 0.200484 0.255068 0.004197
O O1 0.140331 0.722828 0.637703
O O2 0.188998 0.527553 0.710867
O O3 0.999938 0.590273 0.725887
O O4 0.135469 0.660862 0.905840
O O5 0.189124 0.472550 0.289306
O O6 0.135756 0.339106 0.094449
O O7 0.140387 0.277373 0.362763
O O8 0.635675 0.073775 0.248092
O O9 0.786497 0.156023 0.104614
O O10 0.679037 0.000056 0.999835
O O11 0.311133 0.697846 0.038523
O O12 0.635674 0.926694 0.751381
O O13 0.786246 0.843988 0.894865
O O14 0.500050 0.359862 0.930922
O O15 0.357585 0.499805 0.000533
O O16 0.311286 0.301927 0.961420
#
# Coordination Sequence:
#
# PCOD8127819 Si02
#       8
#     4   4   4   4   4   4   4   4
#     4  11  23  40  66  95 131 174 217 268 324 379
#     4  11  23  40  66  95 131 174 217 268 324 379
#     4  10  23  42  64  93 134 164 210 267 313 392
#     4  11  22  42  63  95 132 167 216 268 316 385
#     4  10  23  42  64  93 134 164 210 267 313 392
#     4  11  23  42  67  94 127 166 212 270 325 372
#     4  11  23  42  67  94 127 166 212 270 325 372
#     4  11  22  42  63  95 132 167 216 268 316 385
#
# _framework density 20.392703000000001
#
# number of rings (size 3 to 8) (size 9 to 14) (size 15 to 20)
#    0.000    1.250    5.000    0.750    0.000    7.000 
#    0.000    5.000    0.000    0.000    0.000    0.000 
#    0.000    0.000    0.000    0.000    0.000    0.000 
#
# Total GULP energy -396868.391815 kJ/mol
# GULP energy per Si atom -12402.137244 kJ/mol
# Density = 2.034629 g / cm^3
# Si number density = 20.392703 Si / 1000 Ang^3
#
#
#
# Elastic Constant Matrix: (Units=GPa)
#
#
# Indices 1 2 3 4 5 6 
#
# 1 80.3902 27.6002 25.0438 0.0000 -0.0696 0.0000
# 2 27.6002 82.6939 23.4362 0.0000 0.2529 0.0000
# 3 25.0438 23.4362 95.8471 0.0000 0.2139 0.0000
# 4 0.0000 0.0000 0.0000 31.5982 0.0000 -0.0278
# 5 -0.0696 0.2529 0.2139 0.0000 20.4444 0.0000
# 6 0.0000 0.0000 0.0000 -0.0278 0.0000 16.5546
#
#
#
# Elastic Compliance Matrix: (Units=1/GPa)
#
#
# Indices 1 2 3 4 5 6 
#
# 1 0.014738 -0.004113 -0.002845 0.000000 0.000131 0.000000
# 2 -0.004113 0.014141 -0.002383 0.000000 -0.000164 0.000000
# 3 -0.002845 -0.002383 0.011760 0.000000 -0.000103 0.000000
# 4 0.000000 0.000000 0.000000 0.031647 0.000000 0.000053
# 5 0.000131 -0.000164 -0.000103 0.000000 0.048917 0.000000
# 6 0.000000 0.000000 0.000000 0.000053 0.000000 0.060406
#
#
# Mechanical properties :
#
#
# Convention : Reuss Voigt Hill
#
# Bulk Modulus (GPa) = 45.54448 45.67685 45.61066
# Shear Modulus (GPa) = 24.08357 25.90953 24.99655
#
# Velocity S-wave (km/s) = 3.44028 3.56832 3.50488
# Velocity P-wave (km/s) = 6.17761 6.27889 6.22846
#
# Compressibility (1/GPa) = 0.02195656
#
# Stress axis : x y z
#
# Youngs Moduli (GPa) = 67.85191 70.71463 85.03677
#
# Poissons Ratio (x) = 0.29085 0.24197
# Poissons Ratio (y) = 0.27907 0.20262
# Poissons Ratio (z) = 0.19307 0.16849
#
# Static dielectric constant tensor:
#      x y z
#    x 3.400530 0.000000 0.000080 
#    y 0.000000 3.708440 0.000000 
#    z 0.000080 0.000000 4.032260 
# 
# 
# High freq. dielectric constant tensor:
#      x y z
#    x 1.778650 0.000000 0.000000 
#    y 0.000000 1.802120 0.000000 
#    z 0.000000 0.000000 1.817170 
# 
# From -- ./inp_files/13341.got.cif
#   From: 2010.03.12/outbox.cif.g09.slc.cpg/sg14_7_cif.got.tgz:13341.got - 2010.03.31 13:35:05.
