data_PCOD8127112
_publ_section_title
;
Structure prediction by ZEFSAII (Michael W. Deem and Ramdas Pophale) SiO2 
 PCOD8127112
Probable space group: P 21/C
;
_chemical_formula_sum "Si O2"
_cell_formula_units_Z 28
_cell_length_a 6.290356
_cell_length_b 8.815242
_cell_length_c 31.783475
_cell_angle_alpha 90.000000
_cell_angle_beta 134.077434
_cell_angle_gamma 90.000000
_cell_volume 1266.127275
_symmetry_space_group_name_H-M "P 21/C"
_symmetry_group_IT_number 14
_symmetry_cell_setting 'monoclinic'
loop_
_space_group_symop_operation_xyz
x,y,z
-x,1/2+y,1/2-z
-x,-y,-z
x,1/2-y,1/2+z
loop_
_atom_site_type_symbol
_atom_site_label
_atom_site_fract_x
_atom_site_fract_y
_atom_site_fract_z
Si Si1 0.344353 0.622394 0.240739
Si Si2 0.141689 0.332688 0.560131
Si Si3 0.539553 0.352906 0.976445
Si Si4 0.320910 0.195011 0.775719
Si Si5 0.231249 0.397138 0.477081
Si Si6 0.358888 0.681462 0.819663
Si Si7 0.333922 0.372556 0.855436
O O1 0.529315 0.658332 0.224885
O O2 0.447702 0.468674 0.279057
O O3 0.405232 0.771005 0.277797
O O4 0.007239 0.605166 0.179878
O O5 0.247393 0.336122 0.526656
O O6 0.432776 0.285841 0.624027
O O7 0.860678 0.221580 0.529346
O O8 0.064850 0.501684 0.566984
O O9 0.256936 0.246847 0.949570
O O10 0.525273 0.380079 0.924359
O O11 0.500000 0.500000 0.000000
O O12 0.372409 0.217635 0.833362
O O13 0.980557 0.213531 0.715563
O O14 0.500000 0.500000 0.500000
O O15 0.442367 0.507837 0.839874
#
# Coordination Sequence:
#
# PCOD8127112 Si02
#       7
#     4   4   4   4   4   4   4
#     4  10  22  39  64  89 119 162 202 253 315 369
#     4  10  22  41  63  88 124 164 204 260 313 370
#     4  11  24  40  63  94 125 167 213 261 321 379
#     4  10  22  41  63  91 122 158 204 256 313 375
#     4   9  21  40  59  86 121 159 206 249 303 374
#     4  10  22  40  61  88 120 159 204 252 307 370
#     4  10  23  41  59  87 125 157 206 259 304 375
#
# _framework density 22.114681000000001
#
# number of rings (size 3 to 8) (size 9 to 14) (size 15 to 20)
#    0.000    2.000    0.000    1.714    0.000   14.857 
#    0.000    0.000    0.000    0.000    0.000    0.000 
#    0.000    0.000    0.000    0.000    0.000    0.000 
#
# Total GULP energy -346947.442629 kJ/mol
# GULP energy per Si atom -12390.980094 kJ/mol
# Density = 2.206435 g / cm^3
# Si number density = 22.114681 Si / 1000 Ang^3
#
#
#
# Elastic Constant Matrix: (Units=GPa)
#
#
# Indices 1 2 3 4 5 6 
#
# 1 85.1143 36.4064 22.2330 0.0000 -21.0175 0.0000
# 2 36.4064 99.8945 41.9770 0.0000 -10.7719 0.0000
# 3 22.2330 41.9770 93.3904 0.0000 -9.4817 0.0000
# 4 0.0000 0.0000 0.0000 31.3962 0.0000 -9.2237
# 5 -21.0175 -10.7719 -9.4817 0.0000 21.2281 0.0000
# 6 0.0000 0.0000 0.0000 -9.2237 0.0000 39.4944
#
#
#
# Elastic Compliance Matrix: (Units=1/GPa)
#
#
# Indices 1 2 3 4 5 6 
#
# 1 0.017486 -0.004516 -0.000637 0.000000 0.014736 0.000000
# 2 -0.004516 0.013835 -0.005117 0.000000 0.000264 0.000000
# 3 -0.000637 -0.005117 0.013441 0.000000 0.002777 0.000000
# 4 0.000000 0.000000 0.000000 0.034197 0.000000 0.007987
# 5 0.014736 0.000264 0.002777 0.000000 0.063072 0.000000
# 6 0.000000 0.000000 0.000000 0.007987 0.000000 0.027185
#
#
# Mechanical properties :
#
#
# Convention : Reuss Voigt Hill
#
# Bulk Modulus (GPa) = 41.28318 53.29246 47.28782
# Shear Modulus (GPa) = 25.27435 30.27593 27.77514
#
# Velocity S-wave (km/s) = 3.38431 3.70407 3.54780
# Velocity P-wave (km/s) = 5.82921 6.51491 6.18158
#
# Compressibility (1/GPa) = 0.02422294
#
# Stress axis : x y z
#
# Youngs Moduli (GPa) = 57.18936 72.28080 74.39886
#
# Poissons Ratio (x) = 0.32642 0.04737
# Poissons Ratio (y) = 0.25827 0.38067
# Poissons Ratio (z) = 0.03642 0.36983
#
# Static dielectric constant tensor:
#      x y z
#    x 4.196050 0.000000 -0.085650 
#    y 0.000000 4.377620 0.000000 
#    z -0.085650 0.000000 3.701530 
# 
# 
# High freq. dielectric constant tensor:
#      x y z
#    x 1.878900 0.000000 -0.008810 
#    y 0.000000 1.881320 0.000000 
#    z -0.008810 0.000000 1.852870 
# 
# From -- ./inp_files/78872.got.cif
#   From: 2010.03.12/outbox.cif.g09.slc.cpg/sg14_40_cif.got.tgz:78872.got - 2010.03.31 13:35:05.
