data_PCOD8127930
_publ_section_title
;
Structure prediction by ZEFSAII (Michael W. Deem and Ramdas Pophale) SiO2 
 PCOD8127930
Probable space group: P 21/C
;
_chemical_formula_sum "Si O2"
_cell_formula_units_Z 20
_cell_length_a 12.127743
_cell_length_b 9.248284
_cell_length_c 9.910363
_cell_angle_alpha 90.000000
_cell_angle_beta 49.467377
_cell_angle_gamma 90.000000
_cell_volume 844.821394
_symmetry_space_group_name_H-M "P 21/C"
_symmetry_group_IT_number 14
_symmetry_cell_setting 'monoclinic'
loop_
_space_group_symop_operation_xyz
x,y,z
-x,1/2+y,1/2-z
-x,-y,-z
x,1/2-y,1/2+z
loop_
_atom_site_type_symbol
_atom_site_label
_atom_site_fract_x
_atom_site_fract_y
_atom_site_fract_z
Si Si1 0.906133 0.079674 0.839495
Si Si2 0.375747 0.296842 0.573294
Si Si3 0.978267 0.337079 0.942942
Si Si4 0.312956 0.881492 0.189090
Si Si5 0.201246 0.315685 0.438411
O O1 0.969953 0.991002 0.658149
O O2 0.009448 0.209821 0.807930
O O3 0.755126 0.147307 0.905127
O O4 0.874637 0.972711 0.989267
O O5 0.545742 0.280394 0.402607
O O6 0.353409 0.449505 0.668134
O O7 0.277698 0.278038 0.519147
O O8 0.323039 0.177281 0.723538
O O9 0.074992 0.299544 0.998516
O O10 0.806145 0.336210 0.104949
#
# Coordination Sequence:
#
# PCOD8127930 Si02
#       5
#     4   4   4   4   4
#     4  11  25  42  73 107 138 186 241 294 353 418
#     4  10  24  43  71  99 142 189 232 292 358 420
#     4  12  24  43  74 104 144 186 242 294 350 428
#     4  10  23  43  68  99 139 190 235 283 359 421
#     4  11  22  45  68 103 143 182 234 291 352 417
#
# _framework density 23.673645
#
# number of rings (size 3 to 8) (size 9 to 14) (size 15 to 20)
#    0.000    1.200    4.000    2.400    5.600    0.000 
#    0.000    1.000    0.000    0.000    0.000    0.000 
#    0.000    0.000    0.000    0.000    0.000    0.000 
#
# Total GULP energy -247920.660046 kJ/mol
# GULP energy per Si atom -12396.033002 kJ/mol
# Density = 2.361976 g / cm^3
# Si number density = 23.673645 Si / 1000 Ang^3
#
#
#
# Elastic Constant Matrix: (Units=GPa)
#
#
# Indices 1 2 3 4 5 6 
#
# 1 136.8300 52.5158 54.8938 0.0000 -19.1890 0.0000
# 2 52.5158 69.9036 12.0446 0.0000 10.5619 0.0000
# 3 54.8938 12.0446 102.6180 0.0000 -13.6348 0.0000
# 4 0.0000 0.0000 0.0000 35.8235 0.0000 -1.6926
# 5 -19.1890 10.5619 -13.6348 0.0000 54.1819 0.0000
# 6 0.0000 0.0000 0.0000 -1.6926 0.0000 29.3519
#
#
#
# Elastic Compliance Matrix: (Units=1/GPa)
#
#
# Indices 1 2 3 4 5 6 
#
# 1 0.014610 -0.010866 -0.005764 0.000000 0.005842 0.000000
# 2 -0.010866 0.023309 0.002029 0.000000 -0.007881 0.000000
# 3 -0.005764 0.002029 0.012691 0.000000 0.000757 0.000000
# 4 0.000000 0.000000 0.000000 0.027991 0.000000 0.001614
# 5 0.005842 -0.007881 0.000757 0.000000 0.022252 0.000000
# 6 0.000000 0.000000 0.000000 0.001614 0.000000 0.034162
#
#
# Mechanical properties :
#
#
# Convention : Reuss Voigt Hill
#
# Bulk Modulus (GPa) = 46.70781 60.91778 53.81280
# Shear Modulus (GPa) = 29.17955 36.53130 32.85542
#
# Velocity S-wave (km/s) = 3.51461 3.93252 3.72942
# Velocity P-wave (km/s) = 6.02019 6.81233 6.42847
#
# Compressibility (1/GPa) = 0.02140970
#
# Stress axis : x y z
#
# Youngs Moduli (GPa) = 68.44486 42.90101 78.79865
#
# Poissons Ratio (x) = 0.46615 0.45419
# Poissons Ratio (y) = 0.74370 -0.15991
# Poissons Ratio (z) = 0.39452 -0.08706
#
# Static dielectric constant tensor:
#      x y z
#    x 4.302830 0.000000 -0.173680 
#    y 0.000000 4.140980 0.000000 
#    z -0.173680 0.000000 4.376140 
# 
# 
# High freq. dielectric constant tensor:
#      x y z
#    x 1.943070 0.000000 -0.002470 
#    y 0.000000 1.917930 0.000000 
#    z -0.002470 0.000000 1.947860 
# 
# From -- ./inp_files/12176.got.cif
#   From: 2010.03.12/outbox.cif.g09.slc.cpg/sg14_7_cif.got.tgz:12176.got - 2010.03.31 13:35:05.
