data_PCOD8127513
_publ_section_title
;
Structure prediction by ZEFSAII (Michael W. Deem and Ramdas Pophale) SiO2 
 PCOD8127513
Probable space group: P 21/C
;
_chemical_formula_sum "Si O2"
_cell_formula_units_Z 28
_cell_length_a 17.857592
_cell_length_b 6.298076
_cell_length_c 14.356793
_cell_angle_alpha 90.000000
_cell_angle_beta 52.515084
_cell_angle_gamma 90.000000
_cell_volume 1281.275715
_symmetry_space_group_name_H-M "P 21/C"
_symmetry_group_IT_number 14
_symmetry_cell_setting 'monoclinic'
loop_
_space_group_symop_operation_xyz
x,y,z
-x,1/2+y,1/2-z
-x,-y,-z
x,1/2-y,1/2+z
loop_
_atom_site_type_symbol
_atom_site_label
_atom_site_fract_x
_atom_site_fract_y
_atom_site_fract_z
Si Si1 0.394933 0.494896 0.543031
Si Si2 0.932485 0.295928 0.547347
Si Si3 0.283536 0.719174 0.263098
Si Si4 0.861945 0.870842 0.859989
Si Si5 0.291909 0.716155 0.471329
Si Si6 0.714721 0.900362 0.390092
Si Si7 0.031173 0.474200 0.121437
O O1 0.500000 0.500000 0.500000
O O2 0.320575 0.573401 0.679336
O O3 0.383984 0.637967 0.458581
O O4 0.372737 0.256503 0.526410
O O5 0.827073 0.331394 0.661478
O O6 0.000000 0.500000 0.500000
O O7 0.968199 0.116471 0.587899
O O8 0.925884 0.198414 0.447577
O O9 0.319346 0.737082 0.341986
O O10 0.318566 0.512987 0.180116
O O11 0.809592 0.748496 0.813768
O O12 0.885437 0.690034 0.918514
O O13 0.793548 0.048070 0.954889
O O14 0.961574 0.977888 0.759773
O O15 0.265800 0.941867 0.537483
#
# Coordination Sequence:
#
# PCOD8127513 Si02
#       7
#     4   4   4   4   4   4   4
#     4  10  24  47  68 101 135 169 218 278 352 424
#     4  11  23  40  58  90 132 177 230 282 330 400
#     4  11  23  40  68  97 134 176 223 280 344 407
#     4  11  24  37  60  93 130 181 229 278 335 400
#     4  10  23  43  65  99 131 176 227 273 344 414
#     4  10  22  43  68  90 139 172 216 285 344 401
#     4  11  25  35  58  89 129 177 230 276 331 393
#
# _framework density 21.85322
#
# number of rings (size 3 to 8) (size 9 to 14) (size 15 to 20)
#    0.000    1.429    0.000    5.143    8.000    8.000 
#    5.143    0.000    0.000    0.000    0.000    0.000 
#    0.000    0.000    0.000    0.000    0.000    0.000 
#
# Total GULP energy -346912.043157 kJ/mol
# GULP energy per Si atom -12389.715827 kJ/mol
# Density = 2.180348 g / cm^3
# Si number density = 21.853220 Si / 1000 Ang^3
#
#
#
# Elastic Constant Matrix: (Units=GPa)
#
#
# Indices 1 2 3 4 5 6 
#
# 1 114.6379 47.2837 33.7178 0.0000 1.7383 0.0000
# 2 47.2837 125.0160 38.1177 0.0000 5.2537 0.0000
# 3 33.7178 38.1177 81.5919 0.0000 24.0673 0.0000
# 4 0.0000 0.0000 0.0000 22.8829 0.0000 9.5312
# 5 1.7383 5.2537 24.0673 0.0000 38.6480 0.0000
# 6 0.0000 0.0000 0.0000 9.5312 0.0000 39.7667
#
#
#
# Elastic Compliance Matrix: (Units=1/GPa)
#
#
# Indices 1 2 3 4 5 6 
#
# 1 0.011099 -0.003136 -0.003797 0.000000 0.002292 0.000000
# 2 -0.003136 0.010314 -0.003859 0.000000 0.001142 0.000000
# 3 -0.003797 -0.003859 0.018894 0.000000 -0.011070 0.000000
# 4 0.000000 0.000000 0.000000 0.048547 0.000000 -0.011636
# 5 0.002292 0.001142 -0.011070 0.000000 0.032510 0.000000
# 6 0.000000 0.000000 0.000000 -0.011636 0.000000 0.027936
#
#
# Mechanical properties :
#
#
# Convention : Reuss Voigt Hill
#
# Bulk Modulus (GPa) = 53.41730 62.16492 57.79111
# Shear Modulus (GPa) = 28.22853 33.73462 30.98158
#
# Velocity S-wave (km/s) = 3.59797 3.93325 3.76934
# Velocity P-wave (km/s) = 6.46198 7.00968 6.74139
#
# Compressibility (1/GPa) = 0.01872053
#
# Stress axis : x y z
#
# Youngs Moduli (GPa) = 90.09908 96.95672 52.92738
#
# Poissons Ratio (x) = 0.30408 0.20099
# Poissons Ratio (y) = 0.28258 0.20426
# Poissons Ratio (z) = 0.34215 0.37418
#
# Static dielectric constant tensor:
#      x y z
#    x 3.969290 0.000000 0.221160 
#    y 0.000000 4.299880 0.000000 
#    z 0.221160 0.000000 3.907210 
# 
# 
# High freq. dielectric constant tensor:
#      x y z
#    x 1.862390 0.000000 0.017570 
#    y 0.000000 1.879330 0.000000 
#    z 0.017570 0.000000 1.828230 
# 
# From -- ./inp_files/48099.got.cif
#   From: 2010.03.12/outbox.cif.g09.slc.cpg/sg14_25_cif.got.tgz:48099.got - 2010.03.31 13:35:05.
