data_PCOD8127756
_publ_section_title
;
Structure prediction by ZEFSAII (Michael W. Deem and Ramdas Pophale) SiO2 
 PCOD8127756
Probable space group: P 21/C
;
_chemical_formula_sum "Si O2"
_cell_formula_units_Z 32
_cell_length_a 8.920706
_cell_length_b 28.110307
_cell_length_c 5.415887
_cell_angle_alpha 90.000000
_cell_angle_beta 94.032446
_cell_angle_gamma 90.000000
_cell_volume 1354.746170
_symmetry_space_group_name_H-M "P 21/C"
_symmetry_group_IT_number 14
_symmetry_cell_setting 'monoclinic'
loop_
_space_group_symop_operation_xyz
x,y,z
-x,1/2+y,1/2-z
-x,-y,-z
x,1/2-y,1/2+z
loop_
_atom_site_type_symbol
_atom_site_label
_atom_site_fract_x
_atom_site_fract_y
_atom_site_fract_z
Si Si1 0.750003 0.609118 0.750000
Si Si2 0.572176 0.275891 0.718008
Si Si3 0.479652 0.368934 0.913937
Si Si4 0.749998 0.395943 0.249998
Si Si5 0.020343 0.131066 0.086061
Si Si6 0.072183 0.724109 0.218015
Si Si7 0.014217 0.944137 0.525903
Si Si8 0.485790 0.555864 0.474100
O O1 0.609994 0.576262 0.670558
O O2 0.817344 0.639583 0.528903
O O3 0.682658 0.639584 0.971089
O O4 0.890017 0.576265 0.829447
O O5 0.515800 0.251260 0.459237
O O6 0.498946 0.328652 0.706997
O O7 0.749997 0.280476 0.749997
O O8 0.485274 0.421960 0.794497
O O9 0.620244 0.362435 0.119354
O O10 0.879753 0.362435 0.380639
O O11 0.679932 0.429269 0.454511
O O12 0.820059 0.429271 0.045486
O O13 0.001046 0.171348 0.293001
O O14 0.014717 0.078040 0.205499
O O15 0.015807 0.751259 0.459245
O O16 0.000000 0.000000 0.500000
O O17 0.500000 0.500000 0.500000
#
# Coordination Sequence:
#
# PCOD8127756 Si02
#       8
#     4   4   4   4   4   4   4   4
#     4  10  26  42  68  94 140 182 224 282 358 412
#     4  10  23  40  72 106 141 182 238 299 355 417
#     4  11  24  45  67 101 139 182 230 289 353 419
#     4  10  24  38  68  98 130 176 226 278 350 406
#     4  11  24  45  67 101 139 182 230 289 353 419
#     4  10  23  40  72 106 141 182 238 299 355 417
#     4  11  25  41  69  95 135 177 230 283 345 416
#     4  11  25  41  69  95 135 177 230 283 345 416
#
# _framework density 23.620660999999998
#
# number of rings (size 3 to 8) (size 9 to 14) (size 15 to 20)
#    0.000    1.500    0.000    3.000   19.250    2.000 
#    0.000    1.250    0.000    0.000    0.000    0.000 
#    0.000    0.000    0.000    0.000    0.000    0.000 
#
# Total GULP energy -396766.192989 kJ/mol
# GULP energy per Si atom -12398.943531 kJ/mol
# Density = 2.356690 g / cm^3
# Si number density = 23.620661 Si / 1000 Ang^3
#
#
#
# Elastic Constant Matrix: (Units=GPa)
#
#
# Indices 1 2 3 4 5 6 
#
# 1 94.1944 22.8499 28.8451 0.0000 -32.5350 0.0000
# 2 22.8499 123.2158 41.4438 0.0000 -19.9196 0.0000
# 3 28.8451 41.4438 128.8760 0.0000 -34.6324 0.0000
# 4 0.0000 0.0000 0.0000 32.6889 0.0000 -4.3115
# 5 -32.5350 -19.9196 -34.6324 0.0000 40.1748 0.0000
# 6 0.0000 0.0000 0.0000 -4.3115 0.0000 17.5003
#
#
#
# Elastic Compliance Matrix: (Units=1/GPa)
#
#
# Indices 1 2 3 4 5 6 
#
# 1 0.014827 -0.000901 0.000101 0.000000 0.011648 0.000000
# 2 -0.000901 0.009367 -0.002289 0.000000 0.001942 0.000000
# 3 0.000101 -0.002289 0.010659 0.000000 0.008136 0.000000
# 4 0.000000 0.000000 0.000000 0.031619 0.000000 0.007790
# 5 0.011648 0.001942 0.008136 0.000000 0.042301 0.000000
# 6 0.000000 0.000000 0.000000 0.007790 0.000000 0.059061
#
#
# Mechanical properties :
#
#
# Convention : Reuss Voigt Hill
#
# Bulk Modulus (GPa) = 34.87159 59.17374 47.02267
# Shear Modulus (GPa) = 27.23780 34.94928 31.09354
#
# Velocity S-wave (km/s) = 3.39947 3.85074 3.63212
# Velocity P-wave (km/s) = 5.49579 6.69903 6.12702
#
# Compressibility (1/GPa) = 0.02867664
#
# Stress axis : x y z
#
# Youngs Moduli (GPa) = 67.44373 106.76242 93.81737
#
# Poissons Ratio (x) = 0.09615 -0.00949
# Poissons Ratio (y) = 0.06074 0.21472
# Poissons Ratio (z) = -0.00682 0.24435
#
# Static dielectric constant tensor:
#      x y z
#    x 4.382220 0.000000 -0.393360 
#    y 0.000000 4.002010 0.000000 
#    z -0.393360 0.000000 4.601440 
# 
# 
# High freq. dielectric constant tensor:
#      x y z
#    x 1.937160 0.000000 -0.013320 
#    y 0.000000 1.912310 0.000000 
#    z -0.013320 0.000000 1.947130 
# 
# From -- ./inp_files/2240.got.cif
#   From: 2010.03.12/outbox.cif.g09.slc.cpg/sg14_2_cif.got.tgz:2240.got - 2010.03.31 13:35:05.
