data_PCOD8127207
_publ_section_title
;
Structure prediction by ZEFSAII (Michael W. Deem and Ramdas Pophale) SiO2 
 PCOD8127207
Probable space group: P 21/C
;
_chemical_formula_sum "Si O2"
_cell_formula_units_Z 32
_cell_length_a 12.177849
_cell_length_b 22.820797
_cell_length_c 12.393929
_cell_angle_alpha 90.000000
_cell_angle_beta 24.751956
_cell_angle_gamma 90.000000
_cell_volume 1442.127812
_symmetry_space_group_name_H-M "P 21/C"
_symmetry_group_IT_number 14
_symmetry_cell_setting 'monoclinic'
loop_
_space_group_symop_operation_xyz
x,y,z
-x,1/2+y,1/2-z
-x,-y,-z
x,1/2-y,1/2+z
loop_
_atom_site_type_symbol
_atom_site_label
_atom_site_fract_x
_atom_site_fract_y
_atom_site_fract_z
Si Si1 0.049498 0.630214 0.939856
Si Si2 0.530518 0.671554 0.015527
Si Si3 0.830118 0.577118 0.468681
Si Si4 0.297632 0.301901 0.372343
Si Si5 0.390254 0.943747 0.539266
Si Si6 0.587919 0.937232 0.961095
Si Si7 0.931841 0.811947 0.332688
Si Si8 0.756956 0.232840 0.603470
O O1 0.327300 0.600101 0.716654
O O2 0.034008 0.688964 0.027900
O O3 0.056562 0.641989 0.804549
O O4 0.789787 0.592372 0.196310
O O5 0.686453 0.688394 0.769136
O O6 0.367213 0.612124 0.140348
O O7 0.718640 0.656065 0.948113
O O8 0.367054 0.729986 0.187827
O O9 0.891452 0.647264 0.409733
O O10 0.586251 0.569469 0.766864
O O11 0.748979 0.552397 0.426183
O O12 0.094105 0.542653 0.265363
O O13 0.188718 0.237573 0.484042
O O14 0.563606 0.307133 0.204606
O O15 0.500000 0.000000 0.500000
O O16 0.500000 0.000000 0.000000
O O17 0.136457 0.782316 0.070861
#
# Coordination Sequence:
#
# PCOD8127207 Si02
#       8
#     4   4   4   4   4   4   4   4
#     4  12  27  45  73 106 143 188 242 294 364 429
#     4  10  25  40  66 101 142 185 232 285 361 422
#     4  11  24  45  73 100 133 186 235 293 347 422
#     4  10  22  40  65 100 138 185 231 284 351 440
#     4  11  26  46  72 103 139 185 241 290 348 418
#     4  12  28  50  73 103 138 190 247 300 353 422
#     4  11  25  39  67 104 148 184 225 298 364 426
#     4  11  23  41  69 102 147 182 236 291 367 438
#
# _framework density 22.189435
#
# number of rings (size 3 to 8) (size 9 to 14) (size 15 to 20)
#    0.000    1.000    1.250    3.750   17.500    2.000 
#    0.000    0.000    0.000    0.000    0.000    0.000 
#    0.000    0.000    0.000    0.000    0.000    0.000 
#
# Total GULP energy -396738.656107 kJ/mol
# GULP energy per Si atom -12398.083003 kJ/mol
# Density = 2.213893 g / cm^3
# Si number density = 22.189435 Si / 1000 Ang^3
#
#
#
# Elastic Constant Matrix: (Units=GPa)
#
#
# Indices 1 2 3 4 5 6 
#
# 1 136.6565 63.5692 36.2667 0.0000 -0.5237 0.0000
# 2 63.5692 90.5328 27.6250 0.0000 -5.5476 0.0000
# 3 36.2667 27.6250 101.8462 0.0000 -11.0118 0.0000
# 4 0.0000 0.0000 0.0000 23.3828 0.0000 -4.3697
# 5 -0.5237 -5.5476 -11.0118 0.0000 32.9602 0.0000
# 6 0.0000 0.0000 0.0000 -4.3697 0.0000 32.2510
#
#
#
# Elastic Compliance Matrix: (Units=1/GPa)
#
#
# Indices 1 2 3 4 5 6 
#
# 1 0.011342 -0.007395 -0.002229 0.000000 -0.001809 0.000000
# 2 -0.007395 0.016894 -0.001716 0.000000 0.002153 0.000000
# 3 -0.002229 -0.001716 0.011457 0.000000 0.003503 0.000000
# 4 0.000000 0.000000 0.000000 0.043877 0.000000 0.005945
# 5 -0.001809 0.002153 0.003503 0.000000 0.031844 0.000000
# 6 0.000000 0.000000 0.000000 0.005945 0.000000 0.031812
#
#
# Mechanical properties :
#
#
# Convention : Reuss Voigt Hill
#
# Bulk Modulus (GPa) = 58.77894 64.88415 61.83155
# Shear Modulus (GPa) = 28.47769 31.15712 29.81740
#
# Velocity S-wave (km/s) = 3.58633 3.75125 3.66972
# Velocity P-wave (km/s) = 6.61030 6.93304 6.77359
#
# Compressibility (1/GPa) = 0.01701290
#
# Stress axis : x y z
#
# Youngs Moduli (GPa) = 88.16784 59.19360 87.28557
#
# Poissons Ratio (x) = 0.43772 0.19453
# Poissons Ratio (y) = 0.65198 0.14981
# Poissons Ratio (z) = 0.19649 0.10160
#
# Static dielectric constant tensor:
#      x y z
#    x 4.288780 0.000000 0.000700 
#    y 0.000000 4.088490 0.000000 
#    z 0.000700 0.000000 4.017460 
# 
# 
# High freq. dielectric constant tensor:
#      x y z
#    x 1.894190 0.000000 0.001210 
#    y 0.000000 1.866200 0.000000 
#    z 0.001210 0.000000 1.869840 
# 
# From -- ./inp_files/30816.got.cif
#   From: 2010.03.12/outbox.cif.g09.slc.cpg/sg14_16_cif.got.tgz:30816.got - 2010.03.31 13:35:05.
