data_PCOD8127759
_publ_section_title
;
Structure prediction by ZEFSAII (Michael W. Deem and Ramdas Pophale) SiO2 
 PCOD8127759
Probable space group: P 21/C
;
_chemical_formula_sum "Si O2"
_cell_formula_units_Z 28
_cell_length_a 6.326233
_cell_length_b 25.137404
_cell_length_c 8.694568
_cell_angle_alpha 90.000000
_cell_angle_beta 87.009266
_cell_angle_gamma 90.000000
_cell_volume 1380.771131
_symmetry_space_group_name_H-M "P 21/C"
_symmetry_group_IT_number 14
_symmetry_cell_setting 'monoclinic'
loop_
_space_group_symop_operation_xyz
x,y,z
-x,1/2+y,1/2-z
-x,-y,-z
x,1/2-y,1/2+z
loop_
_atom_site_type_symbol
_atom_site_label
_atom_site_fract_x
_atom_site_fract_y
_atom_site_fract_z
Si Si1 0.321795 0.287861 0.192124
Si Si2 0.712594 0.293222 0.722029
Si Si3 0.727911 0.093090 0.326230
Si Si4 0.449957 0.403860 0.115907
Si Si5 0.985633 0.744862 0.543421
Si Si6 0.483407 0.000291 0.182296
Si Si7 0.126130 0.455909 0.900046
O O1 0.503497 0.242928 0.208035
O O2 0.434574 0.344178 0.178312
O O3 0.156333 0.290803 0.338592
O O4 0.183496 0.279745 0.044195
O O5 0.641002 0.354285 0.744014
O O6 0.845258 0.279975 0.870094
O O7 0.872104 0.291497 0.572430
O O8 0.661661 0.091507 0.507539
O O9 0.651794 0.041653 0.238960
O O10 0.980606 0.087798 0.320586
O O11 0.459190 0.441257 0.263761
O O12 0.262879 0.421403 0.011431
O O13 0.255457 0.016010 0.258391
O O14 0.500000 0.000000 0.000000
O O15 0.000000 0.500000 0.000000
#
# Coordination Sequence:
#
# PCOD8127759 Si02
#       7
#     4   4   4   4   4   4   4
#     4  11  23  41  65  90 133 167 206 274 315 368
#     4  11  23  41  64  93 125 170 213 258 324 378
#     4  11  22  41  66  88 122 167 212 256 310 385
#     4  11  22  40  65  91 122 167 213 252 316 383
#     4  10  23  41  60  95 126 162 221 254 316 394
#     4  11  25  40  59  97 128 157 209 262 321 377
#     4  11  20  43  67  87 120 166 214 256 306 377
#
# _framework density 20.278523
#
# number of rings (size 3 to 8) (size 9 to 14) (size 15 to 20)
#    0.000    1.143    2.857    4.286    0.000    8.571 
#    2.571    0.000    0.000    0.000    0.000    0.000 
#    0.000    0.000    0.000    0.000    0.000    0.000 
#
# Total GULP energy -347149.731750 kJ/mol
# GULP energy per Si atom -12398.204705 kJ/mol
# Density = 2.023237 g / cm^3
# Si number density = 20.278523 Si / 1000 Ang^3
#
#
#
# Elastic Constant Matrix: (Units=GPa)
#
#
# Indices 1 2 3 4 5 6 
#
# 1 99.2195 14.1629 21.4297 0.0000 -8.3621 0.0000
# 2 14.1629 81.1269 14.2599 0.0000 -10.6495 0.0000
# 3 21.4297 14.2599 112.8948 0.0000 -17.1478 0.0000
# 4 0.0000 0.0000 0.0000 28.1730 0.0000 -1.5861
# 5 -8.3621 -10.6495 -17.1478 0.0000 14.9964 0.0000
# 6 0.0000 0.0000 0.0000 -1.5861 0.0000 25.7665
#
#
#
# Elastic Compliance Matrix: (Units=1/GPa)
#
#
# Indices 1 2 3 4 5 6 
#
# 1 0.010848 -0.001174 -0.001354 0.000000 0.003667 0.000000
# 2 -0.001174 0.013729 -0.000157 0.000000 0.008915 0.000000
# 3 -0.001354 -0.000157 0.010895 0.000000 0.011592 0.000000
# 4 0.000000 0.000000 0.000000 0.035618 0.000000 0.002193
# 5 0.003667 0.008915 0.011592 0.000000 0.088313 0.000000
# 6 0.000000 0.000000 0.000000 0.002193 0.000000 0.038945
#
#
# Mechanical properties :
#
#
# Convention : Reuss Voigt Hill
#
# Bulk Modulus (GPa) = 33.22077 43.66069 38.44073
# Shear Modulus (GPa) = 23.39138 30.01309 26.70224
#
# Velocity S-wave (km/s) = 3.40001 3.85131 3.63268
# Velocity P-wave (km/s) = 5.64192 6.43071 6.04918
#
# Compressibility (1/GPa) = 0.03010165
#
# Stress axis : x y z
#
# Youngs Moduli (GPa) = 92.18513 72.83692 91.78214
#
# Poissons Ratio (x) = 0.08554 0.12426
# Poissons Ratio (y) = 0.10827 0.01442
# Poissons Ratio (z) = 0.12480 0.01144
#
# Static dielectric constant tensor:
#      x y z
#    x 3.903690 0.000000 -0.132020 
#    y 0.000000 3.598470 0.000000 
#    z -0.132020 0.000000 3.767400 
# 
# 
# High freq. dielectric constant tensor:
#      x y z
#    x 1.806990 0.000000 -0.005300 
#    y 0.000000 1.792000 0.000000 
#    z -0.005300 0.000000 1.794090 
# 
# From -- ./inp_files/6543.got.cif
#   From: 2010.03.12/outbox.cif.g09.slc.cpg/sg14_4_cif.got.tgz:6543.got - 2010.03.31 13:35:05.
