data_PCOD8127041
_publ_section_title
;
Structure prediction by ZEFSAII (Michael W. Deem and Ramdas Pophale) SiO2 
 PCOD8127041
Probable space group: P 21/C
;
_chemical_formula_sum "Si O2"
_cell_formula_units_Z 28
_cell_length_a 21.200536
_cell_length_b 7.912764
_cell_length_c 16.264057
_cell_angle_alpha 90.000000
_cell_angle_beta 27.192206
_cell_angle_gamma 90.000000
_cell_volume 1246.804100
_symmetry_space_group_name_H-M "P 21/C"
_symmetry_group_IT_number 14
_symmetry_cell_setting 'monoclinic'
loop_
_space_group_symop_operation_xyz
x,y,z
-x,1/2+y,1/2-z
-x,-y,-z
x,1/2-y,1/2+z
loop_
_atom_site_type_symbol
_atom_site_label
_atom_site_fract_x
_atom_site_fract_y
_atom_site_fract_z
Si Si1 0.403709 0.610559 0.553200
Si Si2 0.020476 0.840714 0.672112
Si Si3 0.742754 0.133611 0.167906
Si Si4 0.741500 0.858384 0.905569
Si Si5 0.865555 0.613278 0.643960
Si Si6 0.610352 0.851288 0.227855
Si Si7 0.125064 0.185363 0.515354
O O1 0.500000 0.500000 0.500000
O O2 0.308538 0.694976 0.732234
O O3 0.312529 0.491436 0.599254
O O4 0.469099 0.762731 0.422242
O O5 0.103097 0.674016 0.545519
O O6 0.888485 0.909868 0.774159
O O7 0.978777 0.804894 0.813646
O O8 0.125308 0.994669 0.545895
O O9 0.753336 0.991623 0.224606
O O10 0.636224 0.049592 0.224459
O O11 0.781192 0.674502 0.821802
O O12 0.625115 0.838754 0.111421
O O13 0.908688 0.781611 0.541615
O O14 0.000000 0.500000 0.500000
O O15 0.720403 0.735955 0.145105
#
# Coordination Sequence:
#
# PCOD8127041 Si02
#       7
#     4   4   4   4   4   4   4
#     4  12  26  45  66  94 132 181 229 272 330 400
#     4  11  21  40  65 100 130 169 219 274 346 399
#     4  11  23  43  69  92 131 178 214 279 339 398
#     4  11  25  41  67  98 133 170 225 284 331 399
#     4  11  22  39  60  99 132 162 210 267 335 400
#     4  10  24  45  65  95 133 178 229 270 331 402
#     4  10  22  38  65  93 133 170 211 272 339 400
#
# _framework density 22.457415000000001
#
# number of rings (size 3 to 8) (size 9 to 14) (size 15 to 20)
#    0.000    1.143    1.429    6.429    4.000    3.429 
#    0.000    1.429    0.000    0.000    0.000    0.000 
#    0.000    0.000    0.000    0.000    0.000    0.000 
#
# Total GULP energy -346865.872405 kJ/mol
# GULP energy per Si atom -12388.066872 kJ/mol
# Density = 2.240630 g / cm^3
# Si number density = 22.457415 Si / 1000 Ang^3
#
#
#
# Elastic Constant Matrix: (Units=GPa)
#
#
# Indices 1 2 3 4 5 6 
#
# 1 87.1235 31.0945 34.4946 0.0000 19.1343 0.0000
# 2 31.0945 80.9774 22.6514 0.0000 1.3158 0.0000
# 3 34.4946 22.6514 93.1052 0.0000 6.2162 0.0000
# 4 0.0000 0.0000 0.0000 43.8704 0.0000 -1.4410
# 5 19.1343 1.3158 6.2162 0.0000 26.9689 0.0000
# 6 0.0000 0.0000 0.0000 -1.4410 0.0000 38.0289
#
#
#
# Elastic Compliance Matrix: (Units=1/GPa)
#
#
# Indices 1 2 3 4 5 6 
#
# 1 0.017615 -0.005328 -0.004482 0.000000 -0.011205 0.000000
# 2 -0.005328 0.014863 -0.001875 0.000000 0.003487 0.000000
# 3 -0.004482 -0.001875 0.012836 0.000000 0.000313 0.000000
# 4 0.000000 0.000000 0.000000 0.022823 0.000000 0.000865
# 5 -0.011205 0.003487 0.000313 0.000000 0.044787 0.000000
# 6 0.000000 0.000000 0.000000 0.000865 0.000000 0.026329
#
#
# Mechanical properties :
#
#
# Convention : Reuss Voigt Hill
#
# Bulk Modulus (GPa) = 45.56949 48.63191 47.10070
# Shear Modulus (GPa) = 29.42273 33.30470 31.36372
#
# Velocity S-wave (km/s) = 3.62354 3.85517 3.74115
# Velocity P-wave (km/s) = 6.15160 6.44350 6.29924
#
# Compressibility (1/GPa) = 0.02194451
#
# Stress axis : x y z
#
# Youngs Moduli (GPa) = 56.77031 67.28186 77.90457
#
# Poissons Ratio (x) = 0.35849 0.34915
# Poissons Ratio (y) = 0.30248 0.14605
# Poissons Ratio (z) = 0.25443 0.12614
#
# Static dielectric constant tensor:
#      x y z
#    x 4.131120 0.000000 0.324350 
#    y 0.000000 4.289970 0.000000 
#    z 0.324350 0.000000 4.319550 
# 
# 
# High freq. dielectric constant tensor:
#      x y z
#    x 1.870720 0.000000 0.016310 
#    y 0.000000 1.892190 0.000000 
#    z 0.016310 0.000000 1.892920 
# 
# From -- ./inp_files/50220.got.cif
#   From: 2010.03.12/outbox.cif.g09.slc.cpg/sg14_26_cif.got.tgz:50220.got - 2010.03.31 13:35:05.
