data_PCOD8127475
_publ_section_title
;
Structure prediction by ZEFSAII (Michael W. Deem and Ramdas Pophale) SiO2 
 PCOD8127475
Probable space group: P 21/C
;
_chemical_formula_sum "Si O2"
_cell_formula_units_Z 20
_cell_length_a 10.952273
_cell_length_b 7.622095
_cell_length_c 18.511865
_cell_angle_alpha 90.000000
_cell_angle_beta 38.457232
_cell_angle_gamma 90.000000
_cell_volume 961.104260
_symmetry_space_group_name_H-M "P 21/C"
_symmetry_group_IT_number 14
_symmetry_cell_setting 'monoclinic'
loop_
_space_group_symop_operation_xyz
x,y,z
-x,1/2+y,1/2-z
-x,-y,-z
x,1/2-y,1/2+z
loop_
_atom_site_type_symbol
_atom_site_label
_atom_site_fract_x
_atom_site_fract_y
_atom_site_fract_z
Si Si1 0.089963 0.951191 0.772013
Si Si2 0.932625 0.851084 0.695714
Si Si3 0.780572 0.898607 0.030962
Si Si4 0.106332 0.767340 0.469100
Si Si5 0.671750 0.148994 0.767632
O O1 0.075655 0.906606 0.694413
O O2 0.253846 0.831935 0.733521
O O3 0.880049 0.912281 0.906105
O O4 0.149313 0.154037 0.756692
O O5 0.065911 0.870657 0.562033
O O6 0.748085 0.983330 0.778811
O O7 0.896733 0.760780 0.027008
O O8 0.560367 0.836322 0.122442
O O9 0.783133 0.085122 0.069096
O O10 0.749991 0.122381 0.649433
#
# Coordination Sequence:
#
# PCOD8127475 Si02
#       5
#     4   4   4   4   4
#     4  10  22  43  62  89 129 159 203 256 304 356
#     4  11  21  41  64  88 127 165 198 254 307 355
#     4   9  21  41  63  91 127 158 199 259 307 353
#     4   9  21  41  61  92 128 154 201 261 301 357
#     4  11  22  40  68  90 117 170 206 243 310 372
#
# _framework density 20.809398000000002
#
# number of rings (size 3 to 8) (size 9 to 14) (size 15 to 20)
#    0.000    2.000    2.000    1.800    2.800    0.800 
#    0.000    5.000    0.000    0.000    0.000    0.000 
#    0.000    0.000    0.000    0.000    0.000    0.000 
#
# Total GULP energy -248047.485942 kJ/mol
# GULP energy per Si atom -12402.374297 kJ/mol
# Density = 2.076204 g / cm^3
# Si number density = 20.809398 Si / 1000 Ang^3
#
#
#
# Elastic Constant Matrix: (Units=GPa)
#
#
# Indices 1 2 3 4 5 6 
#
# 1 85.5478 15.9122 52.7512 0.0000 -0.7109 0.0000
# 2 15.9122 91.9091 23.9866 0.0000 -10.5076 0.0000
# 3 52.7512 23.9866 81.9453 0.0000 -14.5142 0.0000
# 4 0.0000 0.0000 0.0000 19.3970 0.0000 9.2455
# 5 -0.7109 -10.5076 -14.5142 0.0000 47.0068 0.0000
# 6 0.0000 0.0000 0.0000 9.2455 0.0000 28.7312
#
#
#
# Elastic Compliance Matrix: (Units=1/GPa)
#
#
# Indices 1 2 3 4 5 6 
#
# 1 0.020049 -0.000403 -0.013488 0.000000 -0.003951 0.000000
# 2 -0.000403 0.011912 -0.002917 0.000000 0.001756 0.000000
# 3 -0.013488 -0.002917 0.022837 0.000000 0.006195 0.000000
# 4 0.000000 0.000000 0.000000 0.060894 0.000000 -0.019595
# 5 -0.003951 0.001756 0.006195 0.000000 0.023519 0.000000
# 6 0.000000 0.000000 0.000000 -0.019595 0.000000 0.041111
#
#
# Mechanical properties :
#
#
# Convention : Reuss Voigt Hill
#
# Bulk Modulus (GPa) = 47.20743 49.41136 48.30939
# Shear Modulus (GPa) = 22.62468 30.14382 26.38425
#
# Velocity S-wave (km/s) = 3.30090 3.81013 3.56462
# Velocity P-wave (km/s) = 6.10433 6.56905 6.34095
#
# Compressibility (1/GPa) = 0.02118311
#
# Stress axis : x y z
#
# Youngs Moduli (GPa) = 49.87894 83.94926 43.78842
#
# Poissons Ratio (x) = 0.03380 0.59062
# Poissons Ratio (y) = 0.02008 0.12771
# Poissons Ratio (z) = 0.67277 0.24485
#
# Static dielectric constant tensor:
#      x y z
#    x 3.733110 0.000000 0.339990 
#    y 0.000000 3.859110 0.000000 
#    z 0.339990 0.000000 3.602600 
# 
# 
# High freq. dielectric constant tensor:
#      x y z
#    x 1.812470 0.000000 0.022740 
#    y 0.000000 1.826090 0.000000 
#    z 0.022740 0.000000 1.795640 
# 
# From -- ./inp_files/31259.got.cif
#   From: 2010.03.12/outbox.cif.g09.slc.cpg/sg14_16_cif.got.tgz:31259.got - 2010.03.31 13:35:05.
