data_PCOD8127728
_publ_section_title
;
Structure prediction by ZEFSAII (Michael W. Deem and Ramdas Pophale) SiO2 
 PCOD8127728
Probable space group: P 21/C
;
_chemical_formula_sum "Si O2"
_cell_formula_units_Z 28
_cell_length_a 12.698827
_cell_length_b 11.036019
_cell_length_c 11.408133
_cell_angle_alpha 90.000000
_cell_angle_beta 119.161047
_cell_angle_gamma 90.000000
_cell_volume 1396.146469
_symmetry_space_group_name_H-M "P 21/C"
_symmetry_group_IT_number 14
_symmetry_cell_setting 'monoclinic'
loop_
_space_group_symop_operation_xyz
x,y,z
-x,1/2+y,1/2-z
-x,-y,-z
x,1/2-y,1/2+z
loop_
_atom_site_type_symbol
_atom_site_label
_atom_site_fract_x
_atom_site_fract_y
_atom_site_fract_z
Si Si1 0.092660 0.814877 0.602355
Si Si2 0.778800 0.506040 0.685208
Si Si3 0.183255 0.180092 0.592289
Si Si4 0.256678 0.555458 0.016538
Si Si5 0.422460 0.632102 0.302159
Si Si6 0.714502 0.368442 0.232182
Si Si7 0.309419 0.420941 0.602139
O O1 0.137798 0.881905 0.508484
O O2 0.159766 0.686467 0.652657
O O3 0.951876 0.791932 0.522021
O O4 0.126471 0.899060 0.732893
O O5 0.815345 0.626661 0.775766
O O6 0.644764 0.463348 0.649931
O O7 0.781112 0.533901 0.548809
O O8 0.255488 0.304551 0.636501
O O9 0.246520 0.088300 0.535099
O O10 0.264440 0.577864 0.884281
O O11 0.374991 0.611449 0.143451
O O12 0.390749 0.768139 0.326552
O O13 0.564017 0.613321 0.388196
O O14 0.671099 0.475175 0.292572
#
# Coordination Sequence:
#
# PCOD8127728 Si02
#       7
#     4   4   4   4   4   4   4
#     4   9  21  42  66  85 121 164 205 250 313 360
#     4   9  21  42  61  86 121 168 199 249 311 358
#     4  10  23  40  61  91 120 165 203 254 310 357
#     4   9  20  43  63  87 120 167 204 244 309 369
#     4   9  23  40  65  85 127 163 198 254 309 366
#     4  10  24  39  64  94 119 164 205 252 306 360
#     4  12  25  38  62  99 123 153 212 255 300 371
#
# _framework density 20.055202999999999
#
# number of rings (size 3 to 8) (size 9 to 14) (size 15 to 20)
#    0.000    2.857    0.000    2.143   14.000    4.571 
#    0.000    0.000    0.000    0.000    0.000    0.000 
#    0.000    0.000    0.000    0.000    0.000    0.000 
#
# Total GULP energy -347206.695186 kJ/mol
# GULP energy per Si atom -12400.239114 kJ/mol
# Density = 2.000956 g / cm^3
# Si number density = 20.055203 Si / 1000 Ang^3
#
#
#
# Elastic Constant Matrix: (Units=GPa)
#
#
# Indices 1 2 3 4 5 6 
#
# 1 42.1908 18.1858 17.1053 0.0000 11.4317 0.0000
# 2 18.1858 88.9911 17.0434 0.0000 -4.2822 0.0000
# 3 17.1053 17.0434 69.9905 0.0000 -18.6071 0.0000
# 4 0.0000 0.0000 0.0000 18.9352 0.0000 -0.2199
# 5 11.4317 -4.2822 -18.6071 0.0000 33.5666 0.0000
# 6 0.0000 0.0000 0.0000 -0.2199 0.0000 18.6453
#
#
#
# Elastic Compliance Matrix: (Units=1/GPa)
#
#
# Indices 1 2 3 4 5 6 
#
# 1 0.037289 -0.006101 -0.013148 0.000000 -0.020767 0.000000
# 2 -0.006101 0.012785 -0.000746 0.000000 0.003295 0.000000
# 3 -0.013148 -0.000746 0.022106 0.000000 0.016637 0.000000
# 4 0.000000 0.000000 0.000000 0.052819 0.000000 0.000623
# 5 -0.020767 0.003295 0.016637 0.000000 0.046507 0.000000
# 6 0.000000 0.000000 0.000000 0.000623 0.000000 0.053640
#
#
# Mechanical properties :
#
#
# Convention : Reuss Voigt Hill
#
# Bulk Modulus (GPa) = 31.06701 33.98237 32.52469
# Shear Modulus (GPa) = 18.12466 24.15195 21.13830
#
# Velocity S-wave (km/s) = 3.00949 3.47403 3.25007
# Velocity P-wave (km/s) = 5.25361 5.75092 5.50788
#
# Compressibility (1/GPa) = 0.03218849
#
# Stress axis : x y z
#
# Youngs Moduli (GPa) = 26.81740 78.21425 45.23737
#
# Poissons Ratio (x) = 0.47721 0.59480
# Poissons Ratio (y) = 0.16362 0.03375
# Poissons Ratio (z) = 0.35261 0.05836
#
# Static dielectric constant tensor:
#      x y z
#    x 3.394410 0.000000 0.067410 
#    y 0.000000 3.666330 0.000000 
#    z 0.067410 0.000000 3.507930 
# 
# 
# High freq. dielectric constant tensor:
#      x y z
#    x 1.765160 0.000000 0.004970 
#    y 0.000000 1.787820 0.000000 
#    z 0.004970 0.000000 1.776940 
# 
# From -- ./inp_files/28678.got.cif
#   From: 2010.03.12/outbox.cif.g09.slc.cpg/sg14_15_cif.got.tgz:28678.got - 2010.03.31 13:35:05.
