data_PCOD8127338
_publ_section_title
;
Structure prediction by ZEFSAII (Michael W. Deem and Ramdas Pophale) SiO2 
 PCOD8127338
Probable space group: P 21/C
;
_chemical_formula_sum "Si O2"
_cell_formula_units_Z 20
_cell_length_a 5.038505
_cell_length_b 10.698491
_cell_length_c 18.077236
_cell_angle_alpha 90.000000
_cell_angle_beta 125.822113
_cell_angle_gamma 90.000000
_cell_volume 790.115060
_symmetry_space_group_name_H-M "P 21/C"
_symmetry_group_IT_number 14
_symmetry_cell_setting 'monoclinic'
loop_
_space_group_symop_operation_xyz
x,y,z
-x,1/2+y,1/2-z
-x,-y,-z
x,1/2-y,1/2+z
loop_
_atom_site_type_symbol
_atom_site_label
_atom_site_fract_x
_atom_site_fract_y
_atom_site_fract_z
Si Si1 0.344826 0.704868 0.999337
Si Si2 0.127934 0.535908 0.442743
Si Si3 0.870668 0.060461 0.665709
Si Si4 0.340873 0.900279 0.647477
Si Si5 0.973494 0.313958 0.327565
O O1 0.170639 0.636024 0.040824
O O2 0.695355 0.754026 0.085560
O O3 0.102434 0.814420 0.930218
O O4 0.392162 0.614411 0.936409
O O5 0.500000 0.500000 0.500000
O O6 0.921222 0.455758 0.349717
O O7 0.000000 0.500000 0.500000
O O8 0.987262 0.169631 0.741007
O O9 0.706504 0.946438 0.684955
O O10 0.172115 0.012167 0.665369
O O11 0.329113 0.775291 0.697166
#
# Coordination Sequence:
#
# PCOD8127338 Si02
#       5
#     4   4   4   4   4
#     4  11  25  49  77 109 147 196 245 307 371 445
#     4  10  22  41  70 100 137 187 237 290 361 425
#     4  12  30  44  77 111 147 198 247 305 374 436
#     4  12  26  48  73 106 150 189 251 302 372 444
#     4  11  27  50  72 110 150 195 248 306 366 441
#
# _framework density 25.312767999999998
#
# number of rings (size 3 to 8) (size 9 to 14) (size 15 to 20)
#    0.000    0.800    4.000    1.200    8.400    0.000 
#    3.600    0.000    0.000    0.000    0.000    0.000 
#    0.000    0.000    0.000    0.000    0.000    0.000 
#
# Total GULP energy -247784.568309 kJ/mol
# GULP energy per Si atom -12389.228415 kJ/mol
# Density = 2.525515 g / cm^3
# Si number density = 25.312768 Si / 1000 Ang^3
#
#
#
# Elastic Constant Matrix: (Units=GPa)
#
#
# Indices 1 2 3 4 5 6 
#
# 1 82.5625 5.4056 21.0169 0.0000 -33.9163 0.0000
# 2 5.4056 67.7881 38.1616 0.0000 -13.4267 0.0000
# 3 21.0169 38.1616 154.2627 0.0000 -30.3022 0.0000
# 4 0.0000 0.0000 0.0000 55.6261 0.0000 -19.4219
# 5 -33.9163 -13.4267 -30.3022 0.0000 36.4643 0.0000
# 6 0.0000 0.0000 0.0000 -19.4219 0.0000 42.6238
#
#
#
# Elastic Compliance Matrix: (Units=1/GPa)
#
#
# Indices 1 2 3 4 5 6 
#
# 1 0.019971 0.001950 0.000701 0.000000 0.019876 0.000000
# 2 0.001950 0.017674 -0.003589 0.000000 0.005339 0.000000
# 3 0.000701 -0.003589 0.008537 0.000000 0.006425 0.000000
# 4 0.000000 0.000000 0.000000 0.021378 0.000000 0.009741
# 5 0.019876 0.005339 0.006425 0.000000 0.053216 0.000000
# 6 0.000000 0.000000 0.000000 0.009741 0.000000 0.027900
#
#
# Mechanical properties :
#
#
# Convention : Reuss Voigt Hill
#
# Bulk Modulus (GPa) = 22.57084 48.19794 35.38439
# Shear Modulus (GPa) = 30.24413 42.94477 36.59445
#
# Velocity S-wave (km/s) = 3.46036 4.12341 3.80635
# Velocity P-wave (km/s) = 4.99015 6.46160 5.77295
#
# Compressibility (1/GPa) = 0.04430495
#
# Stress axis : x y z
#
# Youngs Moduli (GPa) = 50.07314 56.57905 117.13903
#
# Poissons Ratio (x) = -0.11030 -0.08213
# Poissons Ratio (y) = -0.09762 0.42044
# Poissons Ratio (z) = -0.03511 0.20308
#
# Static dielectric constant tensor:
#      x y z
#    x 4.164190 0.000000 -0.388610 
#    y 0.000000 5.502900 0.000000 
#    z -0.388610 0.000000 4.758650 
# 
# 
# High freq. dielectric constant tensor:
#      x y z
#    x 1.988070 0.000000 -0.033670 
#    y 0.000000 2.031990 0.000000 
#    z -0.033670 0.000000 2.008400 
# 
# From -- ./inp_files/37048.got.cif
#   From: 2010.03.12/outbox.cif.g09.slc.cpg/sg14_19_cif.got.tgz:37048.got - 2010.03.31 13:35:05.
