data_PCOD8127106
_publ_section_title
;
Structure prediction by ZEFSAII (Michael W. Deem and Ramdas Pophale) SiO2 
 PCOD8127106
Probable space group: P 21/C
;
_chemical_formula_sum "Si O2"
_cell_formula_units_Z 24
_cell_length_a 30.458083
_cell_length_b 8.697106
_cell_length_c 9.087082
_cell_angle_alpha 90.000000
_cell_angle_beta 152.712552
_cell_angle_gamma 90.000000
_cell_volume 1103.566141
_symmetry_space_group_name_H-M "P 21/C"
_symmetry_group_IT_number 14
_symmetry_cell_setting 'monoclinic'
loop_
_space_group_symop_operation_xyz
x,y,z
-x,1/2+y,1/2-z
-x,-y,-z
x,1/2-y,1/2+z
loop_
_atom_site_type_symbol
_atom_site_label
_atom_site_fract_x
_atom_site_fract_y
_atom_site_fract_z
Si Si1 0.442645 0.644174 0.265071
Si Si2 0.688245 0.112497 0.021811
Si Si3 0.104515 0.568975 0.310829
Si Si4 0.629240 0.781737 0.746953
Si Si5 0.190052 0.784789 0.346401
Si Si6 0.710913 0.582593 0.226008
O O1 0.500000 0.500000 0.500000
O O2 0.515788 0.746789 0.384375
O O3 0.397454 0.761474 0.250290
O O4 0.350254 0.570723 0.904801
O O5 0.764689 0.148894 0.120611
O O6 0.733286 0.127584 0.321060
O O7 0.646424 0.941286 0.884251
O O8 0.109570 0.716851 0.218474
O O9 0.137792 0.599707 0.577534
O O10 0.176864 0.447875 0.450595
O O11 0.000000 0.500000 0.000000
O O12 0.685664 0.781733 0.762008
O O13 0.674726 0.634937 0.960173
#
# Coordination Sequence:
#
# PCOD8127106 Si02
#       6
#     4   4   4   4   4   4
#     4  10  22  39  63  95 136 180 226 266 327 394
#     4  11  20  41  67  92 141 176 220 267 337 388
#     4  11  24  47  73  96 132 172 223 279 342 399
#     4  11  25  38  63  98 130 182 226 270 328 392
#     4  10  22  43  71  98 130 177 212 282 339 389
#     4  11  24  44  62  95 140 168 228 284 326 389
#
# _framework density 21.747675999999998
#
# number of rings (size 3 to 8) (size 9 to 14) (size 15 to 20)
#    0.000    1.333    5.000    0.500    2.333    8.000 
#    0.000    1.667    0.000    0.000    0.000    0.000 
#    0.000    0.000    0.000    0.000    0.000    0.000 
#
# Total GULP energy -297316.466265 kJ/mol
# GULP energy per Si atom -12388.186094 kJ/mol
# Density = 2.169818 g / cm^3
# Si number density = 21.747676 Si / 1000 Ang^3
#
#
#
# Elastic Constant Matrix: (Units=GPa)
#
#
# Indices 1 2 3 4 5 6 
#
# 1 121.5685 21.7774 65.5086 0.0000 15.3167 0.0000
# 2 21.7774 62.3659 42.2625 0.0000 19.9540 0.0000
# 3 65.5086 42.2625 126.5754 0.0000 23.3483 0.0000
# 4 0.0000 0.0000 0.0000 40.9538 0.0000 5.7056
# 5 15.3167 19.9540 23.3483 0.0000 45.1127 0.0000
# 6 0.0000 0.0000 0.0000 5.7056 0.0000 32.5928
#
#
#
# Elastic Compliance Matrix: (Units=1/GPa)
#
#
# Indices 1 2 3 4 5 6 
#
# 1 0.011444 0.000271 -0.005831 0.000000 -0.000988 0.000000
# 2 0.000271 0.022412 -0.006388 0.000000 -0.006699 0.000000
# 3 -0.005831 -0.006388 0.013449 0.000000 -0.002155 0.000000
# 4 0.000000 0.000000 0.000000 0.025028 0.000000 -0.004381
# 5 -0.000988 -0.006699 -0.002155 0.000000 0.026581 0.000000
# 6 0.000000 0.000000 0.000000 -0.004381 0.000000 0.031449
#
#
# Mechanical properties :
#
#
# Convention : Reuss Voigt Hill
#
# Bulk Modulus (GPa) = 42.71836 63.28963 53.00399
# Shear Modulus (GPa) = 30.85280 35.79595 33.32438
#
# Velocity S-wave (km/s) = 3.77061 4.06145 3.91873
# Velocity P-wave (km/s) = 6.21627 7.15254 6.70078
#
# Compressibility (1/GPa) = 0.02340914
#
# Stress axis : x y z
#
# Youngs Moduli (GPa) = 87.38358 44.61942 74.35645
#
# Poissons Ratio (x) = -0.01211 0.43358
# Poissons Ratio (y) = -0.02372 0.47498
# Poissons Ratio (z) = 0.50955 0.28502
#
# Static dielectric constant tensor:
#      x y z
#    x 4.075240 0.000000 -0.058650 
#    y 0.000000 3.923490 0.000000 
#    z -0.058650 0.000000 3.942570 
# 
# 
# High freq. dielectric constant tensor:
#      x y z
#    x 1.859400 0.000000 -0.009630 
#    y 0.000000 1.853200 0.000000 
#    z -0.009630 0.000000 1.841220 
# 
# From -- ./inp_files/19973.got.cif
#   From: 2010.03.12/outbox.cif.g09.slc.cpg/sg14_10_cif.got.tgz:19973.got - 2010.03.31 13:35:05.
