data_PCOD8127906
_publ_section_title
;
Structure prediction by ZEFSAII (Michael W. Deem and Ramdas Pophale) SiO2 
 PCOD8127906
Probable space group: P 21/C
;
_chemical_formula_sum "Si O2"
_cell_formula_units_Z 12
_cell_length_a 8.221308
_cell_length_b 4.758738
_cell_length_c 20.534985
_cell_angle_alpha 90.000000
_cell_angle_beta 36.832578
_cell_angle_gamma 90.000000
_cell_volume 481.616023
_symmetry_space_group_name_H-M "P 21/C"
_symmetry_group_IT_number 14
_symmetry_cell_setting 'monoclinic'
loop_
_space_group_symop_operation_xyz
x,y,z
-x,1/2+y,1/2-z
-x,-y,-z
x,1/2-y,1/2+z
loop_
_atom_site_type_symbol
_atom_site_label
_atom_site_fract_x
_atom_site_fract_y
_atom_site_fract_z
Si Si1 0.646575 0.755963 0.096682
Si Si2 0.935058 0.023371 0.230210
Si Si3 0.110796 0.738679 0.045591
O O1 0.338005 0.668832 0.208624
O O2 0.808939 0.718653 0.111993
O O3 0.770433 0.575666 0.996553
O O4 0.680283 0.078796 0.064973
O O5 0.118895 0.280333 0.198583
O O6 0.099983 0.861774 0.121247
#
# Coordination Sequence:
#
# PCOD8127906 Si02
#       3
#     4   4   4
#     4  10  23  43  66  91 124 170 218 261 309 375
#     4  12  26  40  64 100 134 168 206 264 330 380
#     4  10  23  43  66  91 124 170 218 261 309 375
#
# _framework density 24.916114
#
# number of rings (size 3 to 8) (size 9 to 14) (size 15 to 20)
#    0.000    1.333    0.000    4.000    0.000   18.667 
#    0.000    0.000    0.000    0.000    0.000    0.000 
#    0.000    0.000    0.000    0.000    0.000    0.000 
#
# Total GULP energy -148787.628138 kJ/mol
# GULP energy per Si atom -12398.969011 kJ/mol
# Density = 2.485940 g / cm^3
# Si number density = 24.916114 Si / 1000 Ang^3
#
#
#
# Elastic Constant Matrix: (Units=GPa)
#
#
# Indices 1 2 3 4 5 6 
#
# 1 51.9212 23.7410 2.5551 0.0000 -2.2653 0.0000
# 2 23.7410 103.7001 -9.4811 0.0000 -0.4984 0.0000
# 3 2.5551 -9.4811 33.3716 0.0000 -1.7843 0.0000
# 4 0.0000 0.0000 0.0000 29.4701 0.0000 -0.5629
# 5 -2.2653 -0.4984 -1.7843 0.0000 24.8905 0.0000
# 6 0.0000 0.0000 0.0000 -0.5629 0.0000 48.1719
#
#
#
# Elastic Compliance Matrix: (Units=1/GPa)
#
#
# Indices 1 2 3 4 5 6 
#
# 1 0.021903 -0.005289 -0.003091 0.000000 0.001666 0.000000
# 2 -0.005289 0.011182 0.003582 0.000000 -0.000001 0.000000
# 3 -0.003091 0.003582 0.031329 0.000000 0.002036 0.000000
# 4 0.000000 0.000000 0.000000 0.033940 0.000000 0.000397
# 5 0.001666 -0.000001 0.002036 0.000000 0.040474 0.000000
# 6 0.000000 0.000000 0.000000 0.000397 0.000000 0.020764
#
#
# Mechanical properties :
#
#
# Convention : Reuss Voigt Hill
#
# Bulk Modulus (GPa) = 18.24241 24.73590 21.48916
# Shear Modulus (GPa) = 26.67247 31.98502 29.32875
#
# Velocity S-wave (km/s) = 3.27539 3.58677 3.43461
# Velocity P-wave (km/s) = 4.65206 5.20601 4.93681
#
# Compressibility (1/GPa) = 0.05481732
#
# Stress axis : x y z
#
# Youngs Moduli (GPa) = 45.65555 89.43330 31.91967
#
# Poissons Ratio (x) = 0.47302 0.09865
# Poissons Ratio (y) = 0.24147 -0.11432
# Poissons Ratio (z) = 0.14110 -0.32032
#
# Static dielectric constant tensor:
#      x y z
#    x 4.443570 0.000000 -0.082590 
#    y 0.000000 4.888750 0.000000 
#    z -0.082590 0.000000 3.771420 
# 
# 
# High freq. dielectric constant tensor:
#      x y z
#    x 1.990130 0.000000 -0.005710 
#    y 0.000000 2.021620 0.000000 
#    z -0.005710 0.000000 1.957670 
# 
# From -- ./inp_files/22409.got.cif
#   From: 2010.03.12/outbox.cif.g09.slc.cpg/sg14_12_cif.got.tgz:22409.got - 2010.03.31 13:35:05.
