data_PCOD8127287
_publ_section_title
;
Structure prediction by ZEFSAII (Michael W. Deem and Ramdas Pophale) SiO2 
 PCOD8127287
Probable space group: P 21/C
;
_chemical_formula_sum "Si O2"
_cell_formula_units_Z 32
_cell_length_a 12.596168
_cell_length_b 19.351076
_cell_length_c 11.744814
_cell_angle_alpha 90.000000
_cell_angle_beta 31.354625
_cell_angle_gamma 90.000000
_cell_volume 1489.606291
_symmetry_space_group_name_H-M "P 21/C"
_symmetry_group_IT_number 14
_symmetry_cell_setting 'monoclinic'
loop_
_space_group_symop_operation_xyz
x,y,z
-x,1/2+y,1/2-z
-x,-y,-z
x,1/2-y,1/2+z
loop_
_atom_site_type_symbol
_atom_site_label
_atom_site_fract_x
_atom_site_fract_y
_atom_site_fract_z
Si Si1 0.329322 0.112427 0.503763
Si Si2 0.782829 0.874225 0.968924
Si Si3 0.019504 0.162744 0.425533
Si Si4 0.342687 0.423887 0.752222
Si Si5 0.754298 0.424405 0.708632
Si Si6 0.915516 0.685133 0.588473
Si Si7 0.611620 0.082431 0.787880
Si Si8 0.964554 0.007227 0.205974
O O1 0.403219 0.125494 0.305908
O O2 0.514866 0.081069 0.405523
O O3 0.237490 0.174890 0.662951
O O4 0.144526 0.059455 0.643778
O O5 0.810728 0.847517 0.071988
O O6 0.548099 0.892022 0.160974
O O7 0.869140 0.820440 0.796977
O O8 0.919457 0.942723 0.812370
O O9 0.132344 0.102975 0.392498
O O10 0.033979 0.235058 0.480028
O O11 0.789223 0.138749 0.619247
O O12 0.316748 0.504835 0.810198
O O13 0.524467 0.415807 0.495585
O O14 0.851406 0.485887 0.546288
O O15 0.870797 0.352233 0.578919
O O16 0.788405 0.446935 0.807400
#
# Coordination Sequence:
#
# PCOD8127287 Si02
#       8
#     4   4   4   4   4   4   4   4
#     4  11  21  36  63  93 128 167 203 257 317 368
#     4  10  22  41  64  91 125 163 212 259 312 380
#     4  11  24  43  63  86 125 171 207 261 318 366
#     4  10  23  39  65  98 126 158 214 268 309 373
#     4   9  19  35  57  90 125 164 204 249 306 373
#     4  10  25  41  59  91 129 166 211 260 310 383
#     4  10  22  43  68  95 121 167 215 262 318 378
#     4   9  18  34  58  92 128 156 202 259 306 365
#
# _framework density 21.482185999999999
#
# number of rings (size 3 to 8) (size 9 to 14) (size 15 to 20)
#    0.000    2.000    0.000    3.000    1.750    9.000 
#    0.000    0.000    0.000    0.000    0.000    0.000 
#    0.000    0.000    0.000    0.000    0.000    0.000 
#
# Total GULP energy -396593.224878 kJ/mol
# GULP energy per Si atom -12393.538277 kJ/mol
# Density = 2.143329 g / cm^3
# Si number density = 21.482186 Si / 1000 Ang^3
#
#
#
# Elastic Constant Matrix: (Units=GPa)
#
#
# Indices 1 2 3 4 5 6 
#
# 1 107.6551 42.8668 41.0227 0.0000 -10.1070 0.0000
# 2 42.8668 106.3653 38.1200 0.0000 -11.2428 0.0000
# 3 41.0227 38.1200 65.9744 0.0000 -16.4234 0.0000
# 4 0.0000 0.0000 0.0000 22.4131 0.0000 2.8642
# 5 -10.1070 -11.2428 -16.4234 0.0000 38.2897 0.0000
# 6 0.0000 0.0000 0.0000 2.8642 0.0000 22.9786
#
#
#
# Elastic Compliance Matrix: (Units=1/GPa)
#
#
# Indices 1 2 3 4 5 6 
#
# 1 0.012856 -0.002925 -0.006351 0.000000 -0.000189 0.000000
# 2 -0.002925 0.012535 -0.005262 0.000000 0.000652 0.000000
# 3 -0.006351 -0.005262 0.023896 0.000000 0.007028 0.000000
# 4 0.000000 0.000000 0.000000 0.045339 0.000000 -0.005651
# 5 -0.000189 0.000652 0.007028 0.000000 0.029273 0.000000
# 6 0.000000 0.000000 0.000000 -0.005651 0.000000 0.044223
#
#
# Mechanical properties :
#
#
# Convention : Reuss Voigt Hill
#
# Bulk Modulus (GPa) = 49.47599 58.22377 53.84988
# Shear Modulus (GPa) = 24.51770 27.26863 25.89316
#
# Velocity S-wave (km/s) = 3.38198 3.56667 3.47556
# Velocity P-wave (km/s) = 6.19125 6.64256 6.42087
#
# Compressibility (1/GPa) = 0.02021183
#
# Stress axis : x y z
#
# Youngs Moduli (GPa) = 77.78533 79.77643 41.84774
#
# Poissons Ratio (x) = 0.23335 0.26577
# Poissons Ratio (y) = 0.22753 0.22019
# Poissons Ratio (z) = 0.49400 0.41976
#
# Static dielectric constant tensor:
#      x y z
#    x 3.912630 0.000000 0.067100 
#    y 0.000000 3.708840 0.000000 
#    z 0.067100 0.000000 3.816810 
# 
# 
# High freq. dielectric constant tensor:
#      x y z
#    x 1.848690 0.000000 0.001940 
#    y 0.000000 1.822190 0.000000 
#    z 0.001940 0.000000 1.844250 
# 
# From -- ./inp_files/30717.got.cif
#   From: 2010.03.12/outbox.cif.g09.slc.cpg/sg14_16_cif.got.tgz:30717.got - 2010.03.31 13:35:05.
