data_PCOD8127963
_publ_section_title
;
Structure prediction by ZEFSAII (Michael W. Deem and Ramdas Pophale) SiO2 
 PCOD8127963
Probable space group: P 21/C
;
_chemical_formula_sum "Si O2"
_cell_formula_units_Z 20
_cell_length_a 7.445015
_cell_length_b 12.045246
_cell_length_c 11.723016
_cell_angle_alpha 90.000000
_cell_angle_beta 54.961508
_cell_angle_gamma 90.000000
_cell_volume 860.757244
_symmetry_space_group_name_H-M "P 21/C"
_symmetry_group_IT_number 14
_symmetry_cell_setting 'monoclinic'
loop_
_space_group_symop_operation_xyz
x,y,z
-x,1/2+y,1/2-z
-x,-y,-z
x,1/2-y,1/2+z
loop_
_atom_site_type_symbol
_atom_site_label
_atom_site_fract_x
_atom_site_fract_y
_atom_site_fract_z
Si Si1 0.235225 0.901408 0.773341
Si Si2 0.639490 0.636925 0.270574
Si Si3 0.060746 0.942418 0.245791
Si Si4 0.325453 0.750895 0.535913
Si Si5 0.015593 0.213632 0.521931
O O1 0.423343 0.923863 0.798366
O O2 0.355679 0.831572 0.630835
O O3 0.031151 0.832285 0.901428
O O4 0.142010 0.016339 0.758398
O O5 0.801242 0.547723 0.264087
O O6 0.564719 0.719734 0.399270
O O7 0.760287 0.713432 0.132314
O O8 0.966087 0.882754 0.391455
O O9 0.204655 0.862050 0.116252
O O10 0.186755 0.813879 0.488880
#
# Coordination Sequence:
#
# PCOD8127963 Si02
#       5
#     4   4   4   4   4
#     4  10  24  42  65  96 127 171 210 261 321 374
#     4  11  23  40  66  95 124 171 212 259 313 381
#     4  11  23  45  65  92 133 167 212 264 315 376
#     4  10  23  44  64  95 131 166 213 263 319 372
#     4  10  23  44  63  95 133 161 215 269 306 381
#
# _framework density 23.235355999999999
#
# number of rings (size 3 to 8) (size 9 to 14) (size 15 to 20)
#    0.000    1.600    2.000    1.200    2.800    4.000 
#   14.400    0.000    0.000    0.000    0.000    0.000 
#    0.000    0.000    0.000    0.000    0.000    0.000 
#
# Total GULP energy -248065.382295 kJ/mol
# GULP energy per Si atom -12403.269115 kJ/mol
# Density = 2.318247 g / cm^3
# Si number density = 23.235356 Si / 1000 Ang^3
#
#
#
# Elastic Constant Matrix: (Units=GPa)
#
#
# Indices 1 2 3 4 5 6 
#
# 1 38.8081 -4.4023 -4.8824 0.0000 4.2394 0.0000
# 2 -4.4023 28.9529 10.4431 0.0000 -3.9215 0.0000
# 3 -4.8824 10.4431 141.2213 0.0000 -14.9485 0.0000
# 4 0.0000 0.0000 0.0000 6.4316 0.0000 15.9362
# 5 4.2394 -3.9215 -14.9485 0.0000 35.5721 0.0000
# 6 0.0000 0.0000 0.0000 15.9362 0.0000 35.7586
#
#
#
# Elastic Compliance Matrix: (Units=1/GPa)
#
#
# Indices 1 2 3 4 5 6 
#
# 1 0.026502 0.003540 0.000378 0.000000 -0.002609 0.000000
# 2 0.003540 0.036254 -0.002282 0.000000 0.002616 0.000000
# 3 0.000378 -0.002282 0.007568 0.000000 0.002884 0.000000
# 4 0.000000 0.000000 0.000000 -1.491290 0.000000 0.664608
# 5 -0.002609 0.002616 0.002884 0.000000 0.029923 0.000000
# 6 0.000000 0.000000 0.000000 0.664608 0.000000 -0.268224
#
#
# Mechanical properties :
#
#
# Convention : Reuss Voigt Hill
#
# Bulk Modulus (GPa) = 13.58745 23.47767 18.53256
# Shear Modulus (GPa) = -3.05249 29.40737 13.17744
#
# Velocity S-wave (km/s) = -1.14742 3.56143 2.38403
# Velocity P-wave (km/s) = 2.02608 5.19980 3.94607
#
# Compressibility (1/GPa) = 0.07359733
#
# Stress axis : x y z
#
# Youngs Moduli (GPa) = 37.73305 27.58284 132.13287
#
# Poissons Ratio (x) = -0.09764 -0.04998
# Poissons Ratio (y) = -0.13357 0.30148
# Poissons Ratio (z) = -0.01427 0.06293
#
# Static dielectric constant tensor:
#      x y z
#    x 4.103700 0.000000 0.203080 
#    y 0.000000 3.925630 0.000000 
#    z 0.203080 0.000000 4.571290 
# 
# 
# High freq. dielectric constant tensor:
#      x y z
#    x 1.919440 0.000000 0.013830 
#    y 0.000000 1.897870 0.000000 
#    z 0.013830 0.000000 1.939270 
# 
# From -- ./inp_files/23764.got.cif
#   From: 2010.03.12/outbox.cif.g09.slc.cpg/sg14_12_cif.got.tgz:23764.got - 2010.03.31 13:35:05.
