data_PCOD8127154
_publ_section_title
;
Structure prediction by ZEFSAII (Michael W. Deem and Ramdas Pophale) SiO2 
 PCOD8127154
Probable space group: P 21/C
;
_chemical_formula_sum "Si O2"
_cell_formula_units_Z 16
_cell_length_a 6.475940
_cell_length_b 8.823016
_cell_length_c 19.789240
_cell_angle_alpha 90.000000
_cell_angle_beta 138.903537
_cell_angle_gamma 90.000000
_cell_volume 743.244339
_symmetry_space_group_name_H-M "P 21/C"
_symmetry_group_IT_number 14
_symmetry_cell_setting 'monoclinic'
loop_
_space_group_symop_operation_xyz
x,y,z
-x,1/2+y,1/2-z
-x,-y,-z
x,1/2-y,1/2+z
loop_
_atom_site_type_symbol
_atom_site_label
_atom_site_fract_x
_atom_site_fract_y
_atom_site_fract_z
Si Si1 0.154247 0.294862 0.977481
Si Si2 0.151072 0.103628 0.622450
Si Si3 0.133285 0.603748 0.704347
Si Si4 0.140724 0.711487 0.336625
O O1 0.079265 0.460484 0.928942
O O2 0.949742 0.166036 0.890329
O O3 0.071507 0.294896 0.036685
O O4 0.516666 0.258397 0.052855
O O5 0.509165 0.044611 0.707025
O O6 0.113524 0.208391 0.678264
O O7 0.084927 0.739880 0.745641
O O8 0.903997 0.468282 0.669562
#
# Coordination Sequence:
#
# PCOD8127154 Si02
#       4
#     4   4   4   4
#     4  10  22  40  60  89 121 154 197 241 295 352
#     4  10  22  40  62  88 120 157 195 242 296 349
#     4  11  23  39  61  90 120 156 199 242 292 350
#     4  11  23  39  62  88 120 157 196 244 293 349
#
# _framework density 21.527239999999999
#
# number of rings (size 3 to 8) (size 9 to 14) (size 15 to 20)
#    0.000    1.500    0.000    4.500    0.000    9.000 
#    0.000    0.000    0.000    0.000    0.000    0.000 
#    0.000    0.000    0.000    0.000    0.000    0.000 
#
# Total GULP energy -198500.337591 kJ/mol
# GULP energy per Si atom -12406.271099 kJ/mol
# Density = 2.147824 g / cm^3
# Si number density = 21.527240 Si / 1000 Ang^3
#
#
#
# Elastic Constant Matrix: (Units=GPa)
#
#
# Indices 1 2 3 4 5 6 
#
# 1 73.2359 30.1602 47.6882 0.0000 5.0719 0.0000
# 2 30.1602 103.1665 65.2863 0.0000 12.8961 0.0000
# 3 47.6882 65.2863 116.4870 0.0000 4.4847 0.0000
# 4 0.0000 0.0000 0.0000 36.2856 0.0000 -2.2080
# 5 5.0719 12.8961 4.4847 0.0000 16.2066 0.0000
# 6 0.0000 0.0000 0.0000 -2.2080 0.0000 41.5055
#
#
#
# Elastic Compliance Matrix: (Units=1/GPa)
#
#
# Indices 1 2 3 4 5 6 
#
# 1 0.018857 -0.000421 -0.007348 0.000000 -0.003533 0.000000
# 2 -0.000421 0.016717 -0.008783 0.000000 -0.010740 0.000000
# 3 -0.007348 -0.008783 0.016332 0.000000 0.004769 0.000000
# 4 0.000000 0.000000 0.000000 0.027649 0.000000 0.001471
# 5 -0.003533 -0.010740 0.004769 0.000000 0.070035 0.000000
# 6 0.000000 0.000000 0.000000 0.001471 0.000000 0.024171
#
#
# Mechanical properties :
#
#
# Convention : Reuss Voigt Hill
#
# Bulk Modulus (GPa) = 53.18774 64.35099 58.76937
# Shear Modulus (GPa) = 23.45954 28.78319 26.12136
#
# Velocity S-wave (km/s) = 3.30473 3.66055 3.48718
# Velocity P-wave (km/s) = 6.27077 6.91548 6.60100
#
# Compressibility (1/GPa) = 0.01880132
#
# Stress axis : x y z
#
# Youngs Moduli (GPa) = 53.03007 59.81927 61.23045
#
# Poissons Ratio (x) = 0.02521 0.44990
# Poissons Ratio (y) = 0.02235 0.53780
# Poissons Ratio (z) = 0.38965 0.52541
#
# Static dielectric constant tensor:
#      x y z
#    x 3.788820 0.000000 -0.078650 
#    y 0.000000 3.660850 0.000000 
#    z -0.078650 0.000000 3.930900 
# 
# 
# High freq. dielectric constant tensor:
#      x y z
#    x 1.845660 0.000000 -0.003890 
#    y 0.000000 1.839250 0.000000 
#    z -0.003890 0.000000 1.854120 
# 
# From -- ./inp_files/20145.got.cif
#   From: 2010.03.12/outbox.cif.g09.slc.cpg/sg14_11_cif.got.tgz:20145.got - 2010.03.31 13:35:05.
