data_PCOD8127695
_publ_section_title
;
Structure prediction by ZEFSAII (Michael W. Deem and Ramdas Pophale) SiO2 
 PCOD8127695
Probable space group: P 21/C
;
_chemical_formula_sum "Si O2"
_cell_formula_units_Z 28
_cell_length_a 19.422040
_cell_length_b 7.894501
_cell_length_c 23.167362
_cell_angle_alpha 90.000000
_cell_angle_beta 158.742026
_cell_angle_gamma 90.000000
_cell_volume 1287.909297
_symmetry_space_group_name_H-M "P 21/C"
_symmetry_group_IT_number 14
_symmetry_cell_setting 'monoclinic'
loop_
_space_group_symop_operation_xyz
x,y,z
-x,1/2+y,1/2-z
-x,-y,-z
x,1/2-y,1/2+z
loop_
_atom_site_type_symbol
_atom_site_label
_atom_site_fract_x
_atom_site_fract_y
_atom_site_fract_z
Si Si1 0.175387 0.766820 0.925974
Si Si2 0.732576 0.114076 0.382824
Si Si3 0.931814 0.766143 0.424494
Si Si4 0.140512 0.978030 0.306294
Si Si5 0.582112 0.706957 0.716705
Si Si6 0.537357 0.415245 0.163232
Si Si7 0.154551 0.913283 0.189426
O O1 0.060772 0.657518 0.789710
O O2 0.246588 0.651449 0.033953
O O3 0.359359 0.835701 0.033871
O O4 0.038639 0.904527 0.846217
O O5 0.589238 0.253393 0.243076
O O6 0.932347 0.103221 0.503304
O O7 0.648960 0.923651 0.318295
O O8 0.714197 0.832470 0.262994
O O9 0.941319 0.596959 0.393651
O O10 0.011497 0.727267 0.551437
O O11 0.194302 0.885655 0.288330
O O12 0.316521 0.078643 0.472722
O O13 0.600949 0.909169 0.745429
O O14 0.646364 0.401065 0.187890
#
# Coordination Sequence:
#
# PCOD8127695 Si02
#       7
#     4   4   4   4   4   4   4
#     4  11  27  40  61  95 128 179 210 257 327 382
#     4  11  22  42  67  94 125 166 217 263 313 379
#     4   9  18  37  65  99 116 163 211 272 311 369
#     4  11  23  42  59  91 135 166 208 261 325 384
#     4  10  23  38  63  95 126 156 218 261 311 376
#     4   9  22  41  67  95 118 169 210 268 322 367
#     4   9  17  36  69  90 123 161 216 258 322 378
#
# _framework density 21.740660999999999
#
# number of rings (size 3 to 8) (size 9 to 14) (size 15 to 20)
#    0.000    2.000    1.429    1.714    6.000    1.143 
#    0.000    0.000    0.000    7.714    0.000    0.000 
#    0.000    0.000    0.000    0.000    0.000    0.000 
#
# Total GULP energy -346935.160950 kJ/mol
# GULP energy per Si atom -12390.541462 kJ/mol
# Density = 2.169118 g / cm^3
# Si number density = 21.740661 Si / 1000 Ang^3
#
#
#
# Elastic Constant Matrix: (Units=GPa)
#
#
# Indices 1 2 3 4 5 6 
#
# 1 111.4531 37.7749 49.4374 0.0000 -11.3721 0.0000
# 2 37.7749 73.6608 23.6492 0.0000 0.7549 0.0000
# 3 49.4374 23.6492 75.2604 0.0000 10.2091 0.0000
# 4 0.0000 0.0000 0.0000 26.3503 0.0000 -3.0544
# 5 -11.3721 0.7549 10.2091 0.0000 46.2312 0.0000
# 6 0.0000 0.0000 0.0000 -3.0544 0.0000 23.5310
#
#
#
# Elastic Compliance Matrix: (Units=1/GPa)
#
#
# Indices 1 2 3 4 5 6 
#
# 1 0.015418 -0.004957 -0.009377 0.000000 0.005944 0.000000
# 2 -0.004957 0.016724 -0.001852 0.000000 -0.001084 0.000000
# 3 -0.009377 -0.001852 0.020965 0.000000 -0.006906 0.000000
# 4 0.000000 0.000000 0.000000 0.038530 0.000000 0.005001
# 5 0.005944 -0.001084 -0.006906 0.000000 0.024635 0.000000
# 6 0.000000 0.000000 0.000000 0.005001 0.000000 0.043146
#
#
# Mechanical properties :
#
#
# Convention : Reuss Voigt Hill
#
# Bulk Modulus (GPa) = 48.22580 53.56636 50.89608
# Shear Modulus (GPa) = 25.16334 29.19003 27.17669
#
# Velocity S-wave (km/s) = 3.40580 3.66819 3.53943
# Velocity P-wave (km/s) = 6.13974 6.52940 6.33757
#
# Compressibility (1/GPa) = 0.02073579
#
# Stress axis : x y z
#
# Youngs Moduli (GPa) = 64.85800 59.79583 47.69809
#
# Poissons Ratio (x) = 0.29643 0.44725
# Poissons Ratio (y) = 0.32152 0.08832
# Poissons Ratio (z) = 0.60815 0.11072
#
# Static dielectric constant tensor:
#      x y z
#    x 3.910000 0.000000 0.300570 
#    y 0.000000 3.800620 0.000000 
#    z 0.300570 0.000000 3.874070 
# 
# 
# High freq. dielectric constant tensor:
#      x y z
#    x 1.858310 0.000000 0.024900 
#    y 0.000000 1.837560 0.000000 
#    z 0.024900 0.000000 1.841030 
# 
# From -- ./inp_files/74672.got.cif
#   From: 2010.03.12/outbox.cif.g09.slc.cpg/sg14_38_cif.got.tgz:74672.got - 2010.03.31 13:35:05.
