data_PCOD8127583
_publ_section_title
;
Structure prediction by ZEFSAII (Michael W. Deem and Ramdas Pophale) SiO2 
 PCOD8127583
Probable space group: P 21/C
;
_chemical_formula_sum "Si O2"
_cell_formula_units_Z 28
_cell_length_a 7.693501
_cell_length_b 27.584217
_cell_length_c 7.572000
_cell_angle_alpha 90.000000
_cell_angle_beta 128.288023
_cell_angle_gamma 90.000000
_cell_volume 1261.283981
_symmetry_space_group_name_H-M "P 21/C"
_symmetry_group_IT_number 14
_symmetry_cell_setting 'monoclinic'
loop_
_space_group_symop_operation_xyz
x,y,z
-x,1/2+y,1/2-z
-x,-y,-z
x,1/2-y,1/2+z
loop_
_atom_site_type_symbol
_atom_site_label
_atom_site_fract_x
_atom_site_fract_y
_atom_site_fract_z
Si Si1 0.839095 0.310272 0.580141
Si Si2 0.400109 0.552461 0.943088
Si Si3 0.418125 0.416412 0.583665
Si Si4 0.636583 0.808973 0.035716
Si Si5 0.229691 0.581406 0.481455
Si Si6 0.046069 0.011799 0.733070
Si Si7 0.100728 0.244621 0.521964
O O1 0.599564 0.301796 0.518007
O O2 0.885950 0.366620 0.567282
O O3 0.885461 0.278649 0.432160
O O4 0.035320 0.292415 0.828364
O O5 0.409538 0.576587 0.754520
O O6 0.140796 0.548520 0.820613
O O7 0.500000 0.500000 0.000000
O O8 0.533731 0.582079 0.175795
O O9 0.311564 0.364567 0.476609
O O10 0.651256 0.421099 0.632209
O O11 0.274075 0.460314 0.415053
O O12 0.838792 0.791485 0.283074
O O13 0.676993 0.776140 0.886016
O O14 0.049481 0.537724 0.354811
O O15 0.000000 0.000000 0.500000
#
# Coordination Sequence:
#
# PCOD8127583 Si02
#       7
#     4   4   4   4   4   4   4
#     4  10  23  43  67  98 130 171 219 278 333 400
#     4  12  25  43  65  95 136 178 221 270 320 400
#     4  11  25  45  64  98 134 175 219 272 333 393
#     4  10  23  42  66  98 127 172 220 272 338 397
#     4  11  24  45  66 100 131 174 225 267 333 394
#     4  12  24  41  69  94 137 177 215 272 327 391
#     4  10  22  44  68  92 133 168 221 276 338 399
#
# _framework density 22.199598000000002
#
# number of rings (size 3 to 8) (size 9 to 14) (size 15 to 20)
#    0.000    1.143    2.857    2.571    4.000    0.000 
#   18.000    0.000    0.000    0.000    0.000    0.000 
#    0.000    0.000    0.000    0.000    0.000    0.000 
#
# Total GULP energy -347055.150616 kJ/mol
# GULP energy per Si atom -12394.826808 kJ/mol
# Density = 2.214907 g / cm^3
# Si number density = 22.199598 Si / 1000 Ang^3
#
#
#
# Elastic Constant Matrix: (Units=GPa)
#
#
# Indices 1 2 3 4 5 6 
#
# 1 65.6062 26.5887 14.1275 0.0000 -3.6009 0.0000
# 2 26.5887 166.0563 59.0098 0.0000 -3.7182 0.0000
# 3 14.1275 59.0098 101.6871 0.0000 -20.2824 0.0000
# 4 0.0000 0.0000 0.0000 36.8009 0.0000 0.8963
# 5 -3.6009 -3.7182 -20.2824 0.0000 36.9420 0.0000
# 6 0.0000 0.0000 0.0000 0.8963 0.0000 24.9067
#
#
#
# Elastic Compliance Matrix: (Units=1/GPa)
#
#
# Indices 1 2 3 4 5 6 
#
# 1 0.016403 -0.002347 -0.000724 0.000000 0.000965 0.000000
# 2 -0.002347 0.008038 -0.004742 0.000000 -0.002023 0.000000
# 3 -0.000724 -0.004742 0.014124 0.000000 0.007207 0.000000
# 4 0.000000 0.000000 0.000000 0.027197 0.000000 -0.000979
# 5 0.000965 -0.002023 0.007207 0.000000 0.030917 0.000000
# 6 0.000000 0.000000 0.000000 -0.000979 0.000000 0.040185
#
#
# Mechanical properties :
#
#
# Convention : Reuss Voigt Hill
#
# Bulk Modulus (GPa) = 43.59666 59.20020 51.39843
# Shear Modulus (GPa) = 31.22363 35.30484 33.26424
#
# Velocity S-wave (km/s) = 3.75440 3.99223 3.87514
# Velocity P-wave (km/s) = 6.20283 6.92645 6.57460
#
# Compressibility (1/GPa) = 0.02293753
#
# Stress axis : x y z
#
# Youngs Moduli (GPa) = 60.96549 124.41478 70.80278
#
# Poissons Ratio (x) = 0.29206 0.05127
# Poissons Ratio (y) = 0.14311 0.33573
# Poissons Ratio (z) = 0.04415 0.58994
#
# Static dielectric constant tensor:
#      x y z
#    x 4.216900 0.000000 -0.197860 
#    y 0.000000 4.119680 0.000000 
#    z -0.197860 0.000000 3.962030 
# 
# 
# High freq. dielectric constant tensor:
#      x y z
#    x 1.878290 0.000000 -0.013900 
#    y 0.000000 1.881240 0.000000 
#    z -0.013900 0.000000 1.867440 
# 
# From -- ./inp_files/11201.got.cif
#   From: 2010.03.12/outbox.cif.g09.slc.cpg/sg14_6_cif.got.tgz:11201.got - 2010.03.31 13:35:05.
