data_PCOD8127347
_publ_section_title
;
Structure prediction by ZEFSAII (Michael W. Deem and Ramdas Pophale) SiO2 
 PCOD8127347
Probable space group: P 21/C
;
_chemical_formula_sum "Si O2"
_cell_formula_units_Z 20
_cell_length_a 9.200739
_cell_length_b 7.597915
_cell_length_c 24.541493
_cell_angle_alpha 90.000000
_cell_angle_beta 148.647782
_cell_angle_gamma 90.000000
_cell_volume 892.626896
_symmetry_space_group_name_H-M "P 21/C"
_symmetry_group_IT_number 14
_symmetry_cell_setting 'monoclinic'
loop_
_space_group_symop_operation_xyz
x,y,z
-x,1/2+y,1/2-z
-x,-y,-z
x,1/2-y,1/2+z
loop_
_atom_site_type_symbol
_atom_site_label
_atom_site_fract_x
_atom_site_fract_y
_atom_site_fract_z
Si Si1 0.221933 0.105726 0.422228
Si Si2 0.751322 0.675097 0.790531
Si Si3 0.570349 0.236138 0.119197
Si Si4 0.878454 0.892894 0.727604
Si Si5 0.265529 0.063413 0.118751
O O1 0.293019 0.245361 0.492706
O O2 0.144238 0.197934 0.340123
O O3 0.500000 0.000000 0.500000
O O4 0.977864 0.979096 0.365348
O O5 0.742192 0.768709 0.729020
O O6 0.833133 0.811138 0.864047
O O7 0.438933 0.599519 0.699908
O O8 0.730971 0.419897 0.180223
O O9 0.479828 0.165862 0.148581
O O10 0.783336 0.101940 0.156521
O O11 0.000000 0.000000 0.000000
#
# Coordination Sequence:
#
# PCOD8127347 Si02
#       5
#     4   4   4   4   4
#     4  10  22  41  72 101 137 177 233 292 367 393
#     4  12  26  49  69 105 149 186 245 301 346 441
#     4  11  23  44  73 103 140 184 237 296 358 430
#     4  11  21  44  75 103 138 183 239 305 354 410
#     4  12  30  47  70 107 144 200 239 285 374 427
#
# _framework density 22.405774999999998
#
# number of rings (size 3 to 8) (size 9 to 14) (size 15 to 20)
#    0.000    0.800    6.000    1.200    8.400    2.400 
#    0.000    3.000    0.000    0.000    0.000    0.000 
#    0.000    0.000    0.000    0.000    0.000    0.000 
#
# Total GULP energy -247927.263137 kJ/mol
# GULP energy per Si atom -12396.363157 kJ/mol
# Density = 2.235478 g / cm^3
# Si number density = 22.405775 Si / 1000 Ang^3
#
#
#
# Elastic Constant Matrix: (Units=GPa)
#
#
# Indices 1 2 3 4 5 6 
#
# 1 103.0425 43.4578 41.2843 0.0000 -10.7770 0.0000
# 2 43.4578 74.9389 59.6310 0.0000 -11.0647 0.0000
# 3 41.2843 59.6310 144.2975 0.0000 -0.0459 0.0000
# 4 0.0000 0.0000 0.0000 45.3388 0.0000 0.3929
# 5 -10.7770 -11.0647 -0.0459 0.0000 40.4902 0.0000
# 6 0.0000 0.0000 0.0000 0.3929 0.0000 46.3757
#
#
#
# Elastic Compliance Matrix: (Units=1/GPa)
#
#
# Indices 1 2 3 4 5 6 
#
# 1 0.013033 -0.006467 -0.001056 0.000000 0.001701 0.000000
# 2 -0.006467 0.024358 -0.008214 0.000000 0.004926 0.000000
# 3 -0.001056 -0.008214 0.010626 0.000000 -0.002514 0.000000
# 4 0.000000 0.000000 0.000000 0.022058 0.000000 -0.000187
# 5 0.001701 0.004926 -0.002514 0.000000 0.026493 0.000000
# 6 0.000000 0.000000 0.000000 -0.000187 0.000000 0.021565
#
#
# Mechanical properties :
#
#
# Convention : Reuss Voigt Hill
#
# Bulk Modulus (GPa) = 60.44758 67.89167 64.16963
# Shear Modulus (GPa) = 32.23315 38.30135 35.26725
#
# Velocity S-wave (km/s) = 3.79701 4.13902 3.97170
# Velocity P-wave (km/s) = 6.80149 7.29443 7.05227
#
# Compressibility (1/GPa) = 0.01654326
#
# Stress axis : x y z
#
# Youngs Moduli (GPa) = 76.72886 41.05470 94.10937
#
# Poissons Ratio (x) = 0.26548 0.09937
# Poissons Ratio (y) = 0.49617 0.77303
# Poissons Ratio (z) = 0.08102 0.33723
#
# Static dielectric constant tensor:
#      x y z
#    x 4.234420 0.000000 -0.296600 
#    y 0.000000 4.012950 0.000000 
#    z -0.296600 0.000000 4.710150 
# 
# 
# High freq. dielectric constant tensor:
#      x y z
#    x 1.888620 0.000000 -0.001260 
#    y 0.000000 1.870220 0.000000 
#    z -0.001260 0.000000 1.900540 
# 
# From -- ./inp_files/23137.got.cif
#   From: 2010.03.12/outbox.cif.g09.slc.cpg/sg14_12_cif.got.tgz:23137.got - 2010.03.31 13:35:05.
