data_PCOD8127205
_publ_section_title
;
Structure prediction by ZEFSAII (Michael W. Deem and Ramdas Pophale) SiO2 
 PCOD8127205
Probable space group: P 21/C
;
_chemical_formula_sum "Si O2"
_cell_formula_units_Z 28
_cell_length_a 20.014875
_cell_length_b 9.059460
_cell_length_c 7.698872
_cell_angle_alpha 90.000000
_cell_angle_beta 56.753452
_cell_angle_gamma 90.000000
_cell_volume 1167.493186
_symmetry_space_group_name_H-M "P 21/C"
_symmetry_group_IT_number 14
_symmetry_cell_setting 'monoclinic'
loop_
_space_group_symop_operation_xyz
x,y,z
-x,1/2+y,1/2-z
-x,-y,-z
x,1/2-y,1/2+z
loop_
_atom_site_type_symbol
_atom_site_label
_atom_site_fract_x
_atom_site_fract_y
_atom_site_fract_z
Si Si1 0.936710 0.339212 0.758525
Si Si2 0.398038 0.098804 0.536340
Si Si3 0.632316 0.405605 0.258809
Si Si4 0.798736 0.528320 0.065497
Si Si5 0.778921 0.831311 0.221378
Si Si6 0.433388 0.624091 0.282812
Si Si7 0.086487 0.975699 0.084656
O O1 0.925376 0.398132 0.582494
O O2 0.926109 0.160982 0.764676
O O3 0.022875 0.392311 0.706480
O O4 0.870941 0.413620 0.977719
O O5 0.315490 0.184847 0.691864
O O6 0.477761 0.194591 0.381186
O O7 0.389612 0.003786 0.374332
O O8 0.418194 0.016857 0.685733
O O9 0.718755 0.437663 0.216846
O O10 0.633130 0.241392 0.179309
O O11 0.571824 0.420531 0.507123
O O12 0.813115 0.664523 0.176555
O O13 0.792191 0.607176 0.891080
O O14 0.826503 0.944740 0.025021
#
# Coordination Sequence:
#
# PCOD8127205 Si02
#       7
#     4   4   4   4   4   4   4
#     4  10  22  40  64  96 127 167 207 259 312 383
#     4  10  24  42  61  92 124 172 217 266 327 383
#     4  11  23  42  65  93 127 170 220 269 323 394
#     4  10  24  40  63  93 127 166 214 261 320 383
#     4  10  23  42  60  91 128 164 212 265 312 388
#     4  11  23  40  65  89 129 167 217 273 324 384
#     4  10  22  40  65  93 130 163 211 257 315 380
#
# _framework density 23.983008999999999
#
# number of rings (size 3 to 8) (size 9 to 14) (size 15 to 20)
#    0.000    1.714    1.429    1.286    4.000    6.286 
#    0.000    0.000    0.000    0.000    0.000    0.000 
#    0.000    0.000    0.000    0.000    0.000    0.000 
#
# Total GULP energy -346982.170653 kJ/mol
# GULP energy per Si atom -12392.220380 kJ/mol
# Density = 2.392842 g / cm^3
# Si number density = 23.983009 Si / 1000 Ang^3
#
#
#
# Elastic Constant Matrix: (Units=GPa)
#
#
# Indices 1 2 3 4 5 6 
#
# 1 84.4208 29.3275 38.1938 0.0000 -19.0799 0.0000
# 2 29.3275 97.1806 33.2750 0.0000 -14.5609 0.0000
# 3 38.1938 33.2750 99.2846 0.0000 -13.8652 0.0000
# 4 0.0000 0.0000 0.0000 28.2075 0.0000 -7.7202
# 5 -19.0799 -14.5609 -13.8652 0.0000 40.6071 0.0000
# 6 0.0000 0.0000 0.0000 -7.7202 0.0000 28.4582
#
#
#
# Elastic Compliance Matrix: (Units=1/GPa)
#
#
# Indices 1 2 3 4 5 6 
#
# 1 0.015919 -0.002479 -0.004592 0.000000 0.005023 0.000000
# 2 -0.002479 0.012364 -0.002870 0.000000 0.002288 0.000000
# 3 -0.004592 -0.002870 0.012974 0.000000 0.001243 0.000000
# 4 0.000000 0.000000 0.000000 0.038295 0.000000 0.010389
# 5 0.005023 0.002288 0.001243 0.000000 0.028232 0.000000
# 6 0.000000 0.000000 0.000000 0.010389 0.000000 0.037957
#
#
# Mechanical properties :
#
#
# Convention : Reuss Voigt Hill
#
# Bulk Modulus (GPa) = 46.78426 53.60875 50.19651
# Shear Modulus (GPa) = 28.94373 31.46054 30.20214
#
# Velocity S-wave (km/s) = 3.47773 3.62579 3.55253
# Velocity P-wave (km/s) = 5.97292 6.31900 6.14840
#
# Compressibility (1/GPa) = 0.02137471
#
# Stress axis : x y z
#
# Youngs Moduli (GPa) = 62.81658 80.87941 77.07704
#
# Poissons Ratio (x) = 0.20053 0.35390
# Poissons Ratio (y) = 0.15575 0.22124
# Poissons Ratio (z) = 0.28843 0.23216
#
# Static dielectric constant tensor:
#      x y z
#    x 4.321830 0.000000 -0.375740 
#    y 0.000000 4.418950 0.000000 
#    z -0.375740 0.000000 4.743770 
# 
# 
# High freq. dielectric constant tensor:
#      x y z
#    x 1.944440 0.000000 -0.004540 
#    y 0.000000 1.940920 0.000000 
#    z -0.004540 0.000000 1.965940 
# 
# From -- ./inp_files/18700.got.cif
#   From: 2010.03.12/outbox.cif.g09.slc.cpg/sg14_10_cif.got.tgz:18700.got - 2010.03.31 13:35:05.
