data_PCOD8127647
_publ_section_title
;
Structure prediction by ZEFSAII (Michael W. Deem and Ramdas Pophale) SiO2 
 PCOD8127647
Probable space group: P 21/C
;
_chemical_formula_sum "Si O2"
_cell_formula_units_Z 20
_cell_length_a 19.156337
_cell_length_b 7.247209
_cell_length_c 14.034261
_cell_angle_alpha 90.000000
_cell_angle_beta 159.507142
_cell_angle_gamma 90.000000
_cell_volume 682.108214
_symmetry_space_group_name_H-M "P 21/C"
_symmetry_group_IT_number 14
_symmetry_cell_setting 'monoclinic'
loop_
_space_group_symop_operation_xyz
x,y,z
-x,1/2+y,1/2-z
-x,-y,-z
x,1/2-y,1/2+z
loop_
_atom_site_type_symbol
_atom_site_label
_atom_site_fract_x
_atom_site_fract_y
_atom_site_fract_z
Si Si1 0.482306 0.148372 0.838988
Si Si2 0.586870 0.271118 0.268453
Si Si3 0.149220 0.637587 0.088953
Si Si4 0.138128 0.078307 0.942041
Si Si5 0.848645 0.730681 0.339464
O O1 0.621903 0.181831 0.924624
O O2 0.296423 0.285191 0.596665
O O3 0.392886 0.943638 0.729317
O O4 0.615846 0.200194 0.104388
O O5 0.763105 0.372589 0.432143
O O6 0.367017 0.352274 0.963645
O O7 0.170378 0.450838 0.177803
O O8 0.063915 0.579890 0.877269
O O9 0.012417 0.795859 0.964814
O O10 0.073958 0.134836 0.965568
#
# Coordination Sequence:
#
# PCOD8127647 Si02
#       5
#     4   4   4   4   4
#     4  11  23  45  79 102 149 201 238 306 371 427
#     4  11  21  43  72 105 145 188 244 296 364 440
#     4  10  23  49  70 107 155 186 242 314 360 427
#     4  12  24  48  74 110 145 197 247 300 369 443
#     4  10  22  45  74 103 147 192 239 306 366 429
#
# _framework density 29.320862999999999
#
# number of rings (size 3 to 8) (size 9 to 14) (size 15 to 20)
#    0.000    1.200    4.000    3.000    0.000    3.200 
#   18.000    4.000    0.000    0.000    0.000    0.000 
#    0.000    0.000    0.000    0.000    0.000    0.000 
#
# Total GULP energy -248063.125527 kJ/mol
# GULP energy per Si atom -12403.156276 kJ/mol
# Density = 2.925413 g / cm^3
# Si number density = 29.320863 Si / 1000 Ang^3
#
#
#
# Elastic Constant Matrix: (Units=GPa)
#
#
# Indices 1 2 3 4 5 6 
#
# 1 70.7924 16.7909 36.4368 0.0000 0.9353 0.0000
# 2 16.7909 114.3672 40.7506 0.0000 2.5354 0.0000
# 3 36.4368 40.7506 177.8759 0.0000 -30.6385 0.0000
# 4 0.0000 0.0000 0.0000 39.9713 0.0000 6.9067
# 5 0.9353 2.5354 -30.6385 0.0000 52.6551 0.0000
# 6 0.0000 0.0000 0.0000 6.9067 0.0000 50.1255
#
#
#
# Elastic Compliance Matrix: (Units=1/GPa)
#
#
# Indices 1 2 3 4 5 6 
#
# 1 0.016192 -0.001098 -0.003452 0.000000 -0.002243 0.000000
# 2 -0.001098 0.009773 -0.002325 0.000000 -0.001804 0.000000
# 3 -0.003452 -0.002325 0.007659 0.000000 0.004630 0.000000
# 4 0.000000 0.000000 0.000000 0.025628 0.000000 -0.003531
# 5 -0.002243 -0.001804 0.004630 0.000000 0.021812 0.000000
# 6 0.000000 0.000000 0.000000 -0.003531 0.000000 0.020436
#
#
# Mechanical properties :
#
#
# Convention : Reuss Voigt Hill
#
# Bulk Modulus (GPa) = 50.31173 61.22134 55.76654
# Shear Modulus (GPa) = 41.02538 46.48753 43.75646
#
# Velocity S-wave (km/s) = 3.74463 3.98612 3.86726
# Velocity P-wave (km/s) = 5.99104 6.48928 6.24513
#
# Compressibility (1/GPa) = 0.01987608
#
# Stress axis : x y z
#
# Youngs Moduli (GPa) = 61.75715 102.31961 130.56380
#
# Poissons Ratio (x) = 0.11231 0.45069
# Poissons Ratio (y) = 0.06779 0.30355
# Poissons Ratio (z) = 0.21318 0.23788
#
# Static dielectric constant tensor:
#      x y z
#    x 5.283760 0.000000 -0.003620 
#    y 0.000000 5.435590 0.000000 
#    z -0.003620 0.000000 5.545860 
# 
# 
# High freq. dielectric constant tensor:
#      x y z
#    x 2.200660 0.000000 -0.000680 
#    y 0.000000 2.194490 0.000000 
#    z -0.000680 0.000000 2.212470 
# 
# From -- ./inp_files/50176.got.cif
#   From: 2010.03.12/outbox.cif.g09.slc.cpg/sg14_26_cif.got.tgz:50176.got - 2010.03.31 13:35:05.
