data_PCOD8127995
_publ_section_title
;
Structure prediction by ZEFSAII (Michael W. Deem and Ramdas Pophale) SiO2 
 PCOD8127995
Probable space group: P 21/C
;
_chemical_formula_sum "Si O2"
_cell_formula_units_Z 20
_cell_length_a 13.786306
_cell_length_b 10.789379
_cell_length_c 10.612226
_cell_angle_alpha 90.000000
_cell_angle_beta 33.382678
_cell_angle_gamma 90.000000
_cell_volume 868.547934
_symmetry_space_group_name_H-M "P 21/C"
_symmetry_group_IT_number 14
_symmetry_cell_setting 'monoclinic'
loop_
_space_group_symop_operation_xyz
x,y,z
-x,1/2+y,1/2-z
-x,-y,-z
x,1/2-y,1/2+z
loop_
_atom_site_type_symbol
_atom_site_label
_atom_site_fract_x
_atom_site_fract_y
_atom_site_fract_z
Si Si1 0.986158 0.524323 0.203252
Si Si2 0.268003 0.578521 0.099188
Si Si3 0.069781 0.698359 0.897208
Si Si4 0.710675 0.673612 0.810302
Si Si5 0.620171 0.661384 0.632950
O O1 0.975791 0.378621 0.180511
O O2 0.787126 0.573261 0.428193
O O3 0.090119 0.538544 0.220047
O O4 0.100181 0.599025 0.975193
O O5 0.239833 0.713960 0.193150
O O6 0.304565 0.475705 0.166357
O O7 0.437377 0.584899 0.823284
O O8 0.912575 0.789081 0.103481
O O9 0.631860 0.718524 0.761941
O O10 0.607194 0.732580 0.041048
#
# Coordination Sequence:
#
# PCOD8127995 Si02
#       5
#     4   4   4   4   4
#     4  10  24  45  65 101 138 179 232 285 341 408
#     4  12  25  40  76  96 135 189 225 284 343 408
#     4  10  23  44  69  95 140 185 224 284 350 403
#     4  11  24  48  65 105 139 178 232 288 335 414
#     4  11  26  43  70 102 143 176 231 285 336 416
#
# _framework density 23.026937
#
# number of rings (size 3 to 8) (size 9 to 14) (size 15 to 20)
#    0.000    1.200    2.000    2.400    8.400    0.000 
#    0.000    4.000    0.000    0.000    0.000    0.000 
#    0.000    0.000    0.000    0.000    0.000    0.000 
#
# Total GULP energy -248017.786613 kJ/mol
# GULP energy per Si atom -12400.889331 kJ/mol
# Density = 2.297453 g / cm^3
# Si number density = 23.026937 Si / 1000 Ang^3
#
#
#
# Elastic Constant Matrix: (Units=GPa)
#
#
# Indices 1 2 3 4 5 6 
#
# 1 72.1114 30.2461 18.7609 0.0000 25.0924 0.0000
# 2 30.2461 125.6006 53.1636 0.0000 15.7841 0.0000
# 3 18.7609 53.1636 113.8427 0.0000 2.0156 0.0000
# 4 0.0000 0.0000 0.0000 31.1924 0.0000 10.7399
# 5 25.0924 15.7841 2.0156 0.0000 39.9434 0.0000
# 6 0.0000 0.0000 0.0000 10.7399 0.0000 17.5262
#
#
#
# Elastic Compliance Matrix: (Units=1/GPa)
#
#
# Indices 1 2 3 4 5 6 
#
# 1 0.019203 -0.002475 -0.001814 0.000000 -0.010994 0.000000
# 2 -0.002475 0.010817 -0.004600 0.000000 -0.002488 0.000000
# 3 -0.001814 -0.004600 0.011189 0.000000 0.002393 0.000000
# 4 0.000000 0.000000 0.000000 0.040632 0.000000 -0.024899
# 5 -0.010994 -0.002488 0.002393 0.000000 0.032804 0.000000
# 6 0.000000 0.000000 0.000000 -0.024899 0.000000 0.072315
#
#
# Mechanical properties :
#
#
# Convention : Reuss Voigt Hill
#
# Bulk Modulus (GPa) = 42.67769 57.32177 49.99973
# Shear Modulus (GPa) = 23.52411 31.69134 27.60772
#
# Velocity S-wave (km/s) = 3.19970 3.71384 3.46632
# Velocity P-wave (km/s) = 5.67669 6.58312 6.14664
#
# Compressibility (1/GPa) = 0.02343144
#
# Stress axis : x y z
#
# Youngs Moduli (GPa) = 52.07545 92.44461 89.37596
#
# Poissons Ratio (x) = 0.22878 0.16215
# Poissons Ratio (y) = 0.12888 0.41110
# Poissons Ratio (z) = 0.09448 0.42522
#
# Static dielectric constant tensor:
#      x y z
#    x 3.999500 0.000000 0.182890 
#    y 0.000000 4.169120 0.000000 
#    z 0.182890 0.000000 4.251360 
# 
# 
# High freq. dielectric constant tensor:
#      x y z
#    x 1.897620 0.000000 0.007520 
#    y 0.000000 1.906240 0.000000 
#    z 0.007520 0.000000 1.917970 
# 
# From -- ./inp_files/23467.got.cif
#   From: 2010.03.12/outbox.cif.g09.slc.cpg/sg14_12_cif.got.tgz:23467.got - 2010.03.31 13:35:05.
