data_PCOD8127602
_publ_section_title
;
Structure prediction by ZEFSAII (Michael W. Deem and Ramdas Pophale) SiO2 
 PCOD8127602
Probable space group: P 21/C
;
_chemical_formula_sum "Si O2"
_cell_formula_units_Z 24
_cell_length_a 7.318519
_cell_length_b 27.962666
_cell_length_c 7.876412
_cell_angle_alpha 90.000000
_cell_angle_beta 143.284557
_cell_angle_gamma 90.000000
_cell_volume 963.642769
_symmetry_space_group_name_H-M "P 21/C"
_symmetry_group_IT_number 14
_symmetry_cell_setting 'monoclinic'
loop_
_space_group_symop_operation_xyz
x,y,z
-x,1/2+y,1/2-z
-x,-y,-z
x,1/2-y,1/2+z
loop_
_atom_site_type_symbol
_atom_site_label
_atom_site_fract_x
_atom_site_fract_y
_atom_site_fract_z
Si Si1 0.258806 0.464748 0.246200
Si Si2 0.294198 0.658062 0.931001
Si Si3 0.391386 0.376754 0.155814
Si Si4 0.506334 0.256521 0.739317
Si Si5 0.099226 0.699671 0.256288
Si Si6 0.652613 0.626799 0.506947
O O1 0.500000 0.500000 0.500000
O O2 0.349641 0.434096 0.145077
O O3 0.192555 0.425452 0.345609
O O4 0.000000 0.500000 0.000000
O O5 0.363867 0.631893 0.807103
O O6 0.458466 0.710861 0.059211
O O7 0.927395 0.663739 0.670513
O O8 0.415269 0.624581 0.175855
O O9 0.064895 0.351931 0.869272
O O10 0.507493 0.357185 0.430224
O O11 0.723063 0.209809 0.931463
O O12 0.648296 0.293886 0.708072
O O13 0.159869 0.241065 0.453428
#
# Coordination Sequence:
#
# PCOD8127602 Si02
#       6
#     4   4   4   4   4   4
#     4  10  22  44  70  98 135 174 221 286 347 405
#     4  12  23  46  67 102 133 185 225 273 345 403
#     4  10  26  44  73  95 139 179 226 282 350 405
#     4  12  25  41  66  96 140 172 235 279 323 411
#     4  12  25  43  63 100 132 183 222 285 337 391
#     4  10  25  42  72  95 139 174 224 282 336 409
#
# _framework density 24.905494999999998
#
# number of rings (size 3 to 8) (size 9 to 14) (size 15 to 20)
#    1.000    0.000    1.667    5.000    2.333    5.333 
#    0.000    5.000    0.000    0.000    0.000    0.000 
#    0.000    0.000    0.000    0.000    0.000    0.000 
#
# Total GULP energy -297464.955166 kJ/mol
# GULP energy per Si atom -12394.373132 kJ/mol
# Density = 2.484881 g / cm^3
# Si number density = 24.905495 Si / 1000 Ang^3
#
#
#
# Elastic Constant Matrix: (Units=GPa)
#
#
# Indices 1 2 3 4 5 6 
#
# 1 111.7352 -4.3548 23.1074 0.0000 1.7981 0.0000
# 2 -4.3548 106.4523 -8.5530 0.0000 -12.5873 0.0000
# 3 23.1074 -8.5530 93.6328 0.0000 -3.0653 0.0000
# 4 0.0000 0.0000 0.0000 47.6454 0.0000 -0.2390
# 5 1.7981 -12.5873 -3.0653 0.0000 35.3837 0.0000
# 6 0.0000 0.0000 0.0000 -0.2390 0.0000 31.8156
#
#
#
# Elastic Compliance Matrix: (Units=1/GPa)
#
#
# Indices 1 2 3 4 5 6 
#
# 1 0.009449 0.000123 -0.002342 0.000000 -0.000639 0.000000
# 2 0.000123 0.009905 0.000992 0.000000 0.003603 0.000000
# 3 -0.002342 0.000992 0.011396 0.000000 0.001459 0.000000
# 4 0.000000 0.000000 0.000000 0.020989 0.000000 0.000158
# 5 -0.000639 0.003603 0.001459 0.000000 0.029702 0.000000
# 6 0.000000 0.000000 0.000000 0.000158 0.000000 0.031432
#
#
# Mechanical properties :
#
#
# Convention : Reuss Voigt Hill
#
# Bulk Modulus (GPa) = 35.33909 36.91329 36.12619
# Shear Modulus (GPa) = 40.07723 43.07699 41.57711
#
# Velocity S-wave (km/s) = 4.01580 4.16338 4.09026
# Velocity P-wave (km/s) = 5.97681 6.16159 6.06990
#
# Compressibility (1/GPa) = 0.02829727
#
# Stress axis : x y z
#
# Youngs Moduli (GPa) = 105.83061 100.96219 87.74760
#
# Poissons Ratio (x) = -0.01240 0.20547
# Poissons Ratio (y) = -0.01300 -0.08708
# Poissons Ratio (z) = 0.24782 -0.10020
#
# Static dielectric constant tensor:
#      x y z
#    x 4.295300 0.000000 -0.167560 
#    y 0.000000 4.605070 0.000000 
#    z -0.167560 0.000000 4.616560 
# 
# 
# High freq. dielectric constant tensor:
#      x y z
#    x 1.974130 0.000000 -0.003300 
#    y 0.000000 1.997870 0.000000 
#    z -0.003300 0.000000 2.021400 
# 
# From -- ./inp_files/11352.got.cif
#   From: 2010.03.12/outbox.cif.g09.slc.cpg/sg14_6_cif.got.tgz:11352.got - 2010.03.31 13:35:05.
