data_PCOD8127623
_publ_section_title
;
Structure prediction by ZEFSAII (Michael W. Deem and Ramdas Pophale) SiO2 
 PCOD8127623
Probable space group: P 21/C
;
_chemical_formula_sum "Si O2"
_cell_formula_units_Z 24
_cell_length_a 9.022476
_cell_length_b 8.817782
_cell_length_c 14.019731
_cell_angle_alpha 90.000000
_cell_angle_beta 70.184385
_cell_angle_gamma 90.000000
_cell_volume 1049.341226
_symmetry_space_group_name_H-M "P 21/C"
_symmetry_group_IT_number 14
_symmetry_cell_setting 'monoclinic'
loop_
_space_group_symop_operation_xyz
x,y,z
-x,1/2+y,1/2-z
-x,-y,-z
x,1/2-y,1/2+z
loop_
_atom_site_type_symbol
_atom_site_label
_atom_site_fract_x
_atom_site_fract_y
_atom_site_fract_z
Si Si1 0.041637 0.495224 0.342307
Si Si2 0.684126 0.316595 0.993779
Si Si3 0.331523 0.504014 0.815412
Si Si4 0.257874 0.003740 0.967591
Si Si5 0.989379 0.650612 0.162166
Si Si6 0.492423 0.760112 0.146753
O O1 0.175568 0.544182 0.386778
O O2 0.072531 0.320341 0.309812
O O3 0.870293 0.534012 0.422219
O O4 0.065113 0.594654 0.243827
O O5 0.596664 0.344014 0.912238
O O6 0.871940 0.343922 0.945859
O O7 0.628399 0.425514 0.090182
O O8 0.639572 0.142097 0.026842
O O9 0.148452 0.461135 0.843075
O O10 0.438959 0.352791 0.787308
O O11 0.375910 0.618369 0.720763
O O12 0.362867 0.153277 0.935552
#
# Coordination Sequence:
#
# PCOD8127623 Si02
#       6
#     4   4   4   4   4   4
#     4  10  23  41  71  99 138 181 233 280 345 402
#     4  11  26  43  71  99 137 182 231 282 342 412
#     4  12  26  45  69 100 142 178 231 289 342 410
#     4  10  22  45  67  98 138 183 225 284 341 411
#     4  11  24  44  68 105 133 184 230 284 338 411
#     4  12  26  46  69 104 137 182 228 282 355 402
#
# _framework density 22.871493000000001
#
# number of rings (size 3 to 8) (size 9 to 14) (size 15 to 20)
#    0.000    1.000    1.667    4.500    7.000    2.667 
#    0.000    0.000    0.000    0.000    0.000    0.000 
#    0.000    0.000    0.000    0.000    0.000    0.000 
#
# Total GULP energy -297683.313922 kJ/mol
# GULP energy per Si atom -12403.471413 kJ/mol
# Density = 2.281944 g / cm^3
# Si number density = 22.871493 Si / 1000 Ang^3
#
#
#
# Elastic Constant Matrix: (Units=GPa)
#
#
# Indices 1 2 3 4 5 6 
#
# 1 75.2832 20.5870 17.4860 0.0000 0.9527 0.0000
# 2 20.5870 49.2347 38.7081 0.0000 -8.8851 0.0000
# 3 17.4860 38.7081 88.1526 0.0000 8.0464 0.0000
# 4 0.0000 0.0000 0.0000 40.0438 0.0000 6.5859
# 5 0.9527 -8.8851 8.0464 0.0000 30.9940 0.0000
# 6 0.0000 0.0000 0.0000 6.5859 0.0000 40.7900
#
#
#
# Elastic Compliance Matrix: (Units=1/GPa)
#
#
# Indices 1 2 3 4 5 6 
#
# 1 0.015172 -0.007069 0.000330 0.000000 -0.002578 0.000000
# 2 -0.007069 0.040137 -0.017712 0.000000 0.016322 0.000000
# 3 0.000330 -0.017712 0.019994 0.000000 -0.010278 0.000000
# 4 0.000000 0.000000 0.000000 0.025654 0.000000 -0.004142
# 5 -0.002578 0.016322 -0.010278 0.000000 0.039691 0.000000
# 6 0.000000 0.000000 0.000000 -0.004142 0.000000 0.025185
#
#
# Mechanical properties :
#
#
# Convention : Reuss Voigt Hill
#
# Bulk Modulus (GPa) = 37.87650 40.69252 39.28451
# Shear Modulus (GPa) = 22.36779 31.42485 26.89632
#
# Velocity S-wave (km/s) = 3.13065 3.71074 3.43297
# Velocity P-wave (km/s) = 5.44651 6.01580 5.73822
#
# Compressibility (1/GPa) = 0.02640159
#
# Stress axis : x y z
#
# Youngs Moduli (GPa) = 65.90996 24.91453 50.01438
#
# Poissons Ratio (x) = 0.17611 -0.01648
# Poissons Ratio (y) = 0.46588 0.88586
# Poissons Ratio (z) = -0.02172 0.44129
#
# Static dielectric constant tensor:
#      x y z
#    x 4.042250 0.000000 0.060750 
#    y 0.000000 4.076620 0.000000 
#    z 0.060750 0.000000 3.988060 
# 
# 
# High freq. dielectric constant tensor:
#      x y z
#    x 1.906840 0.000000 0.007320 
#    y 0.000000 1.905970 0.000000 
#    z 0.007320 0.000000 1.899830 
# 
# From -- ./inp_files/38918.got.cif
#   From: 2010.03.12/outbox.cif.g09.slc.cpg/sg14_20_cif.got.tgz:38918.got - 2010.03.31 13:35:05.
