data_PCOD8127045
_publ_section_title
;
Structure prediction by ZEFSAII (Michael W. Deem and Ramdas Pophale) SiO2 
 PCOD8127045
Probable space group: P 21/C
;
_chemical_formula_sum "Si O2"
_cell_formula_units_Z 32
_cell_length_a 28.781112
_cell_length_b 8.672546
_cell_length_c 22.679335
_cell_angle_alpha 90.000000
_cell_angle_beta 15.750891
_cell_angle_gamma 90.000000
_cell_volume 1536.678482
_symmetry_space_group_name_H-M "P 21/C"
_symmetry_group_IT_number 14
_symmetry_cell_setting 'monoclinic'
loop_
_space_group_symop_operation_xyz
x,y,z
-x,1/2+y,1/2-z
-x,-y,-z
x,1/2-y,1/2+z
loop_
_atom_site_type_symbol
_atom_site_label
_atom_site_fract_x
_atom_site_fract_y
_atom_site_fract_z
Si Si1 0.284762 0.681237 0.982156
Si Si2 0.943121 0.854079 0.403160
Si Si3 0.187650 0.354748 0.063562
Si Si4 0.431954 0.652294 0.201077
Si Si5 0.483202 0.828027 0.354507
Si Si6 0.876289 0.214953 0.498062
Si Si7 0.338832 0.313086 0.666899
Si Si8 0.646601 0.152109 0.879618
O O1 0.199981 0.538981 0.051249
O O2 0.142333 0.813580 0.167760
O O3 0.436584 0.754069 0.756949
O O4 0.362473 0.619289 0.948390
O O5 0.880114 0.794257 0.416669
O O6 0.839873 0.769642 0.582755
O O7 0.903419 0.035190 0.451991
O O8 0.056851 0.300992 0.274078
O O9 0.370684 0.279023 0.851640
O O10 0.434152 0.471237 0.211814
O O11 0.255530 0.703904 0.385841
O O12 0.597121 0.686009 0.958168
O O13 0.366147 0.728473 0.541263
O O14 0.801747 0.233227 0.654935
O O15 0.318808 0.470721 0.654569
O O16 0.470442 0.329983 0.559690
#
# Coordination Sequence:
#
# PCOD8127045 Si02
#       8
#     4   4   4   4   4   4   4   4
#     4  12  26  42  62  93 133 169 209 260 323 386
#     4  11  20  41  67  95 118 161 218 266 309 365
#     4  12  22  40  65  93 122 167 214 263 311 371
#     4  11  22  39  62  94 129 162 214 264 313 373
#     4  12  26  41  61  94 136 173 200 255 330 393
#     4  10  22  38  66  96 119 155 216 269 309 356
#     4   9  19  37  67  93 118 162 217 267 304 368
#     4   9  19  39  62  92 125 160 210 260 318 374
#
# _framework density 20.824134000000001
#
# number of rings (size 3 to 8) (size 9 to 14) (size 15 to 20)
#    0.000    1.250    3.750    3.000    1.750    3.000 
#    0.000    7.500    0.000    0.000    0.000    0.000 
#    0.000    0.000    0.000    0.000    0.000    0.000 
#
# Total GULP energy -396823.873090 kJ/mol
# GULP energy per Si atom -12400.746034 kJ/mol
# Density = 2.077674 g / cm^3
# Si number density = 20.824134 Si / 1000 Ang^3
#
#
#
# Elastic Constant Matrix: (Units=GPa)
#
#
# Indices 1 2 3 4 5 6 
#
# 1 76.3822 23.6405 38.1025 0.0000 7.2396 0.0000
# 2 23.6405 65.1575 32.5486 0.0000 4.3012 0.0000
# 3 38.1025 32.5486 110.4897 0.0000 17.9021 0.0000
# 4 0.0000 0.0000 0.0000 32.2085 0.0000 5.4566
# 5 7.2396 4.3012 17.9021 0.0000 25.0548 0.0000
# 6 0.0000 0.0000 0.0000 5.4566 0.0000 23.0600
#
#
#
# Elastic Compliance Matrix: (Units=1/GPa)
#
#
# Indices 1 2 3 4 5 6 
#
# 1 0.016558 -0.003716 -0.004460 0.000000 -0.000960 0.000000
# 2 -0.003716 0.018844 -0.004432 0.000000 0.001006 0.000000
# 3 -0.004460 -0.004432 0.013076 0.000000 -0.007293 0.000000
# 4 0.000000 0.000000 0.000000 0.032344 0.000000 -0.007654
# 5 -0.000960 0.001006 -0.007293 0.000000 0.045228 0.000000
# 6 0.000000 0.000000 0.000000 -0.007654 0.000000 0.045176
#
#
# Mechanical properties :
#
#
# Convention : Reuss Voigt Hill
#
# Bulk Modulus (GPa) = 42.99144 48.95695 45.97420
# Shear Modulus (GPa) = 24.48615 26.58051 25.53333
#
# Velocity S-wave (km/s) = 3.43279 3.57659 3.50543
# Velocity P-wave (km/s) = 6.03340 6.37313 6.20559
#
# Compressibility (1/GPa) = 0.02326044
#
# Stress axis : x y z
#
# Youngs Moduli (GPa) = 60.39393 53.06853 76.47598
#
# Poissons Ratio (x) = 0.19722 0.34106
# Poissons Ratio (y) = 0.22445 0.33897
# Poissons Ratio (z) = 0.26934 0.23522
#
# Static dielectric constant tensor:
#      x y z
#    x 3.468020 0.000000 0.339510 
#    y 0.000000 3.635310 0.000000 
#    z 0.339510 0.000000 3.963800 
# 
# 
# High freq. dielectric constant tensor:
#      x y z
#    x 1.789730 0.000000 0.027230 
#    y 0.000000 1.811170 0.000000 
#    z 0.027230 0.000000 1.823480 
# 
# From -- ./inp_files/70504.got.cif
#   From: 2010.03.12/outbox.cif.g09.slc.cpg/sg14_36_cif.got.tgz:70504.got - 2010.03.31 13:35:05.
