data_PCOD8127923
_publ_section_title
;
Structure prediction by ZEFSAII (Michael W. Deem and Ramdas Pophale) SiO2 
 PCOD8127923
Probable space group: P 21/C
;
_chemical_formula_sum "Si O2"
_cell_formula_units_Z 28
_cell_length_a 8.714177
_cell_length_b 9.227277
_cell_length_c 20.537141
_cell_angle_alpha 90.000000
_cell_angle_beta 133.551383
_cell_angle_gamma 90.000000
_cell_volume 1196.829253
_symmetry_space_group_name_H-M "P 21/C"
_symmetry_group_IT_number 14
_symmetry_cell_setting 'monoclinic'
loop_
_space_group_symop_operation_xyz
x,y,z
-x,1/2+y,1/2-z
-x,-y,-z
x,1/2-y,1/2+z
loop_
_atom_site_type_symbol
_atom_site_label
_atom_site_fract_x
_atom_site_fract_y
_atom_site_fract_z
Si Si1 0.724714 0.427455 0.796429
Si Si2 0.173484 0.580252 0.510245
Si Si3 0.865066 0.911579 0.514003
Si Si4 0.464303 0.328961 0.606765
Si Si5 0.604283 0.353699 0.899527
Si Si6 0.154833 0.616905 0.355607
Si Si7 0.791811 0.836301 0.216908
O O1 0.610947 0.313220 0.714271
O O2 0.587900 0.428236 0.823158
O O3 0.730944 0.590174 0.768526
O O4 0.972812 0.378974 0.879489
O O5 0.395641 0.497311 0.583812
O O6 0.199842 0.740331 0.547463
O O7 0.104789 0.586315 0.415452
O O8 0.000000 0.500000 0.500000
O O9 0.749097 0.765905 0.455287
O O10 0.668739 0.022753 0.471611
O O11 0.000000 0.000000 0.500000
O O12 0.614575 0.306498 0.587512
O O13 0.395963 0.270376 0.862019
O O14 0.149968 0.463727 0.316416
O O15 0.988855 0.730128 0.279321
#
# Coordination Sequence:
#
# PCOD8127923 Si02
#       7
#     4   4   4   4   4   4   4
#     4  10  23  45  71 105 153 190 259 307 373 452
#     4  12  25  46  76 108 140 203 251 319 379 456
#     4  10  23  43  68 110 148 193 251 316 370 454
#     4  11  25  46  74 104 152 201 247 311 388 448
#     4  11  24  42  74 107 151 188 253 320 376 445
#     4  11  27  49  75 108 158 193 263 308 390 467
#     4  11  26  47  74 115 148 211 250 317 385 461
#
# _framework density 23.395149
#
# number of rings (size 3 to 8) (size 9 to 14) (size 15 to 20)
#    0.000    1.143    2.857    3.000    8.000    4.571 
#    0.000    1.429    0.000    0.000    0.000    0.000 
#    0.000    0.000    0.000    0.000    0.000    0.000 
#
# Total GULP energy -346981.509422 kJ/mol
# GULP energy per Si atom -12392.196765 kJ/mol
# Density = 2.334190 g / cm^3
# Si number density = 23.395149 Si / 1000 Ang^3
#
#
#
# Elastic Constant Matrix: (Units=GPa)
#
#
# Indices 1 2 3 4 5 6 
#
# 1 70.1904 8.7832 17.1038 0.0000 2.2886 0.0000
# 2 8.7832 92.7575 35.4470 0.0000 9.8660 0.0000
# 3 17.1038 35.4470 129.3615 0.0000 17.1061 0.0000
# 4 0.0000 0.0000 0.0000 48.4205 0.0000 14.2365
# 5 2.2886 9.8660 17.1061 0.0000 35.3823 0.0000
# 6 0.0000 0.0000 0.0000 14.2365 0.0000 46.6723
#
#
#
# Elastic Compliance Matrix: (Units=1/GPa)
#
#
# Indices 1 2 3 4 5 6 
#
# 1 0.014766 -0.000735 -0.001765 0.000000 0.000103 0.000000
# 2 -0.000735 0.012197 -0.002993 0.000000 -0.001906 0.000000
# 3 -0.001765 -0.002993 0.009250 0.000000 -0.003523 0.000000
# 4 0.000000 0.000000 0.000000 0.022687 0.000000 -0.006920
# 5 0.000103 -0.001906 -0.003523 0.000000 0.030491 0.000000
# 6 0.000000 0.000000 0.000000 -0.006920 0.000000 0.023537
#
#
# Mechanical properties :
#
#
# Convention : Reuss Voigt Hill
#
# Bulk Modulus (GPa) = 39.63912 46.10861 42.87387
# Shear Modulus (GPa) = 37.78705 41.49339 39.64022
#
# Velocity S-wave (km/s) = 4.02327 4.21597 4.12075
# Velocity P-wave (km/s) = 6.20986 6.59171 6.40363
#
# Compressibility (1/GPa) = 0.02522760
#
# Stress axis : x y z
#
# Youngs Moduli (GPa) = 67.72528 81.98822 108.11324
#
# Poissons Ratio (x) = 0.06024 0.19077
# Poissons Ratio (y) = 0.04976 0.32357
# Poissons Ratio (z) = 0.11950 0.24538
#
# Static dielectric constant tensor:
#      x y z
#    x 4.087620 0.000000 0.346440 
#    y 0.000000 4.523650 0.000000 
#    z 0.346440 0.000000 4.649620 
# 
# 
# High freq. dielectric constant tensor:
#      x y z
#    x 1.911650 0.000000 0.021160 
#    y 0.000000 1.935570 0.000000 
#    z 0.021160 0.000000 1.932540 
# 
# From -- ./inp_files/65021.got.cif
#   From: 2010.03.12/outbox.cif.g09.slc.cpg/sg14_33_cif.got.tgz:65021.got - 2010.03.31 13:35:05.
