data_PCOD8127714
_publ_section_title
;
Structure prediction by ZEFSAII (Michael W. Deem and Ramdas Pophale) SiO2 
 PCOD8127714
Probable space group: P 21/C
;
_chemical_formula_sum "Si O2"
_cell_formula_units_Z 32
_cell_length_a 11.075775
_cell_length_b 9.373799
_cell_length_c 27.694255
_cell_angle_alpha 90.000000
_cell_angle_beta 148.384452
_cell_angle_gamma 90.000000
_cell_volume 1507.268284
_symmetry_space_group_name_H-M "P 21/C"
_symmetry_group_IT_number 14
_symmetry_cell_setting 'monoclinic'
loop_
_space_group_symop_operation_xyz
x,y,z
-x,1/2+y,1/2-z
-x,-y,-z
x,1/2-y,1/2+z
loop_
_atom_site_type_symbol
_atom_site_label
_atom_site_fract_x
_atom_site_fract_y
_atom_site_fract_z
Si Si1 0.476215 0.407304 0.303908
Si Si2 0.671393 0.921472 0.613725
Si Si3 0.747342 0.532680 0.479551
Si Si4 0.107552 0.863431 0.704597
Si Si5 0.204016 0.346504 0.740498
Si Si6 0.401753 0.751182 0.890202
Si Si7 0.297380 0.699757 0.458278
Si Si8 0.785207 0.397403 0.322296
O O1 0.686695 0.468249 0.406907
O O2 0.246238 0.496723 0.236090
O O3 0.425596 0.245873 0.301914
O O4 0.548888 0.399869 0.272393
O O5 0.809135 0.856871 0.706168
O O6 0.432488 0.839562 0.522707
O O7 0.841580 0.905718 0.625279
O O8 0.598661 0.084009 0.598171
O O9 0.640148 0.691706 0.448327
O O10 0.644807 0.430545 0.486522
O O11 0.020822 0.541005 0.576038
O O12 0.200054 0.790332 0.784633
O O13 0.133556 0.756892 0.668363
O O14 0.247462 0.505168 0.735675
O O15 0.978125 0.274200 0.639578
O O16 0.374281 0.840279 0.930379
#
# Coordination Sequence:
#
# PCOD8127714 Si02
#       8
#     4   4   4   4   4   4   4   4
#     4  11  23  43  65  92 127 173 221 269 318 385
#     4  12  23  41  65  94 139 165 208 271 330 383
#     4  10  23  39  65  94 125 169 220 261 325 383
#     4  11  24  38  66  96 127 174 213 264 330 384
#     4  11  23  41  65  94 130 169 218 264 329 386
#     4  11  22  38  60  95 132 162 206 260 324 395
#     4  11  22  39  64  95 129 172 203 265 330 386
#     4  11  23  43  65  91 127 172 225 270 317 376
#
# _framework density 21.230461999999999
#
# number of rings (size 3 to 8) (size 9 to 14) (size 15 to 20)
#    0.000    1.000    3.750    3.375    0.000    2.000 
#    0.000    0.000    0.000    1.500    0.000    0.000 
#    0.000    0.000    0.000    0.000    0.000    0.000 
#
# Total GULP energy -396728.221050 kJ/mol
# GULP energy per Si atom -12397.756908 kJ/mol
# Density = 2.118214 g / cm^3
# Si number density = 21.230462 Si / 1000 Ang^3
#
#
#
# Elastic Constant Matrix: (Units=GPa)
#
#
# Indices 1 2 3 4 5 6 
#
# 1 109.9638 31.2961 33.5323 0.0000 1.6615 0.0000
# 2 31.2961 85.8494 26.9990 0.0000 12.5802 0.0000
# 3 33.5323 26.9990 60.2749 0.0000 -6.5667 0.0000
# 4 0.0000 0.0000 0.0000 20.0363 0.0000 -11.2050
# 5 1.6615 12.5802 -6.5667 0.0000 23.9467 0.0000
# 6 0.0000 0.0000 0.0000 -11.2050 0.0000 9.0969
#
#
#
# Elastic Compliance Matrix: (Units=1/GPa)
#
#
# Indices 1 2 3 4 5 6 
#
# 1 0.011424 -0.002293 -0.005446 0.000000 -0.001081 0.000000
# 2 -0.002293 0.016237 -0.007122 0.000000 -0.010324 0.000000
# 3 -0.005446 -0.007122 0.023975 0.000000 0.010694 0.000000
# 4 0.000000 0.000000 0.000000 0.160393 0.000000 0.197561
# 5 -0.001081 -0.010324 0.010694 0.000000 0.050191 0.000000
# 6 0.000000 0.000000 0.000000 0.197561 0.000000 0.353271
#
#
# Mechanical properties :
#
#
# Convention : Reuss Voigt Hill
#
# Bulk Modulus (GPa) = 45.63305 48.86034 47.24669
# Shear Modulus (GPa) = 7.66264 21.56667 14.61466
#
# Velocity S-wave (km/s) = 1.90187 3.19068 2.62655
# Velocity P-wave (km/s) = 5.13455 6.05294 5.61256
#
# Compressibility (1/GPa) = 0.02191394
#
# Stress axis : x y z
#
# Youngs Moduli (GPa) = 87.53847 61.58792 41.70940
#
# Poissons Ratio (x) = 0.14124 0.22714
# Poissons Ratio (y) = 0.20076 0.29705
# Poissons Ratio (z) = 0.47671 0.43862
#
# Static dielectric constant tensor:
#      x y z
#    x 3.700230 0.000000 -0.137210 
#    y 0.000000 3.727410 0.000000 
#    z -0.137210 0.000000 3.816490 
# 
# 
# High freq. dielectric constant tensor:
#      x y z
#    x 1.825440 0.000000 -0.007190 
#    y 0.000000 1.832810 0.000000 
#    z -0.007190 0.000000 1.833540 
# 
# From -- ./inp_files/79990.got.cif
#   From: 2010.03.12/outbox.cif.g09.slc.cpg/sg14_40_cif.got.tgz:79990.got - 2010.03.31 13:35:05.
