data_PCOD8127057
_publ_section_title
;
Structure prediction by ZEFSAII (Michael W. Deem and Ramdas Pophale) SiO2 
 PCOD8127057
Probable space group: P 21/C
;
_chemical_formula_sum "Si O2"
_cell_formula_units_Z 20
_cell_length_a 4.924645
_cell_length_b 13.629758
_cell_length_c 12.813825
_cell_angle_alpha 90.000000
_cell_angle_beta 96.639585
_cell_angle_gamma 90.000000
_cell_volume 854.317475
_symmetry_space_group_name_H-M "P 21/C"
_symmetry_group_IT_number 14
_symmetry_cell_setting 'monoclinic'
loop_
_space_group_symop_operation_xyz
x,y,z
-x,1/2+y,1/2-z
-x,-y,-z
x,1/2-y,1/2+z
loop_
_atom_site_type_symbol
_atom_site_label
_atom_site_fract_x
_atom_site_fract_y
_atom_site_fract_z
Si Si1 0.531413 0.563968 0.386604
Si Si2 0.545227 0.802259 0.708717
Si Si3 0.922782 0.195823 0.710409
Si Si4 0.258442 0.729416 0.503745
Si Si5 0.969321 0.936187 0.114982
O O1 0.488569 0.592852 0.262824
O O2 0.470996 0.659769 0.452064
O O3 0.846133 0.528529 0.415349
O O4 0.345437 0.470632 0.412784
O O5 0.865226 0.776348 0.733648
O O6 0.438932 0.801684 0.584671
O O7 0.380675 0.717571 0.761612
O O8 0.914652 0.202393 0.584145
O O9 0.994455 0.087603 0.759340
O O10 0.038340 0.664746 0.558260
#
# Coordination Sequence:
#
# PCOD8127057 Si02
#       5
#     4   4   4   4   4
#     4  11  22  38  60  91 119 148 195 253 292 334
#     4  10  22  39  58  86 121 156 193 238 293 355
#     4  10  22  39  58  86 121 156 193 238 293 355
#     4  10  22  40  64  86 116 164 200 232 292 362
#     4  11  22  38  60  91 119 148 195 253 292 334
#
# _framework density 23.410499999999999
#
# number of rings (size 3 to 8) (size 9 to 14) (size 15 to 20)
#    0.000    1.600    0.000    6.000    0.000   12.800 
#    0.000    2.000    0.000    0.000    0.000    0.000 
#    0.000    0.000    0.000    0.000    0.000    0.000 
#
# Total GULP energy -247907.014240 kJ/mol
# GULP energy per Si atom -12395.350712 kJ/mol
# Density = 2.335722 g / cm^3
# Si number density = 23.410500 Si / 1000 Ang^3
#
#
#
# Elastic Constant Matrix: (Units=GPa)
#
#
# Indices 1 2 3 4 5 6 
#
# 1 104.5201 23.2969 34.4208 0.0000 10.8902 0.0000
# 2 23.2969 39.8585 32.6205 0.0000 -7.2746 0.0000
# 3 34.4208 32.6205 163.9612 0.0000 17.9050 0.0000
# 4 0.0000 0.0000 0.0000 59.3674 0.0000 10.0111
# 5 10.8902 -7.2746 17.9050 0.0000 34.3532 0.0000
# 6 0.0000 0.0000 0.0000 10.0111 0.0000 22.4111
#
#
#
# Elastic Compliance Matrix: (Units=1/GPa)
#
#
# Indices 1 2 3 4 5 6 
#
# 1 0.011933 -0.007556 -0.000439 0.000000 -0.005154 0.000000
# 2 -0.007556 0.038405 -0.007639 0.000000 0.014510 0.000000
# 3 -0.000439 -0.007639 0.008348 0.000000 -0.005829 0.000000
# 4 0.000000 0.000000 0.000000 0.018216 0.000000 -0.008137
# 5 -0.005154 0.014510 -0.005829 0.000000 0.036854 0.000000
# 6 0.000000 0.000000 0.000000 -0.008137 0.000000 0.048256
#
#
# Mechanical properties :
#
#
# Convention : Reuss Voigt Hill
#
# Bulk Modulus (GPa) = 36.47306 54.33514 45.40410
# Shear Modulus (GPa) = 24.70108 37.75978 31.23043
#
# Velocity S-wave (km/s) = 3.25180 4.02050 3.65641
# Velocity P-wave (km/s) = 5.45092 6.69423 6.10431
#
# Compressibility (1/GPa) = 0.02741749
#
# Stress axis : x y z
#
# Youngs Moduli (GPa) = 83.79830 26.03808 119.79600
#
# Poissons Ratio (x) = 0.19675 0.05259
# Poissons Ratio (y) = 0.63321 0.91512
# Poissons Ratio (z) = 0.03679 0.19890
#
# Static dielectric constant tensor:
#      x y z
#    x 4.172670 0.000000 -0.020970 
#    y 0.000000 3.931910 0.000000 
#    z -0.020970 0.000000 5.046500 
# 
# 
# High freq. dielectric constant tensor:
#      x y z
#    x 1.941910 0.000000 0.007410 
#    y 0.000000 1.871630 0.000000 
#    z 0.007410 0.000000 1.945170 
# 
# From -- ./inp_files/20715.got.cif
#   From: 2010.03.12/outbox.cif.g09.slc.cpg/sg14_11_cif.got.tgz:20715.got - 2010.03.31 13:35:05.
