data_PCOD8127916
_publ_section_title
;
Structure prediction by ZEFSAII (Michael W. Deem and Ramdas Pophale) SiO2 
 PCOD8127916
Probable space group: P 21/C
;
_chemical_formula_sum "Si O2"
_cell_formula_units_Z 24
_cell_length_a 7.646226
_cell_length_b 19.526539
_cell_length_c 9.469073
_cell_angle_alpha 90.000000
_cell_angle_beta 127.670460
_cell_angle_gamma 90.000000
_cell_volume 1119.056537
_symmetry_space_group_name_H-M "P 21/C"
_symmetry_group_IT_number 14
_symmetry_cell_setting 'monoclinic'
loop_
_space_group_symop_operation_xyz
x,y,z
-x,1/2+y,1/2-z
-x,-y,-z
x,1/2-y,1/2+z
loop_
_atom_site_type_symbol
_atom_site_label
_atom_site_fract_x
_atom_site_fract_y
_atom_site_fract_z
Si Si1 0.073541 0.902127 0.310632
Si Si2 0.227846 0.324280 0.762284
Si Si3 0.187003 0.474313 0.696886
Si Si4 0.594607 0.562558 0.464148
Si Si5 0.011160 0.768083 0.126434
Si Si6 0.328122 0.841703 0.667169
O O1 0.130786 0.830323 0.264985
O O2 0.139945 0.892265 0.507299
O O3 0.814544 0.915749 0.156154
O O4 0.224489 0.965255 0.328352
O O5 0.134165 0.401466 0.746341
O O6 0.492707 0.325456 0.868693
O O7 0.140518 0.298171 0.569943
O O8 0.148814 0.276322 0.850646
O O9 0.390524 0.461102 0.692636
O O10 0.000000 0.500000 0.500000
O O11 0.500000 0.500000 0.500000
O O12 0.427497 0.626286 0.362541
O O13 0.212194 0.727348 0.158105
#
# Coordination Sequence:
#
# PCOD8127916 Si02
#       6
#     4   4   4   4   4   4
#     4  11  23  44  67  99 133 179 233 277 347 416
#     4  11  25  45  67 101 137 180 232 282 349 417
#     4   9  19  42  67  88 136 175 215 281 340 396
#     4  10  23  43  67 100 135 175 229 282 344 419
#     4  12  24  44  68 101 140 178 232 290 344 418
#     4  11  26  44  70 100 138 180 231 285 348 416
#
# _framework density 21.446636999999999
#
# number of rings (size 3 to 8) (size 9 to 14) (size 15 to 20)
#    0.000    1.333    6.667    0.000    7.000    3.333 
#    6.000    0.000    0.000    0.000    0.000    0.000 
#    0.000    0.000    0.000    0.000    0.000    0.000 
#
# Total GULP energy -297383.017671 kJ/mol
# GULP energy per Si atom -12390.959070 kJ/mol
# Density = 2.139782 g / cm^3
# Si number density = 21.446637 Si / 1000 Ang^3
#
#
#
# Elastic Constant Matrix: (Units=GPa)
#
#
# Indices 1 2 3 4 5 6 
#
# 1 66.5970 54.4696 28.7757 0.0000 5.4433 0.0000
# 2 54.4696 167.2697 35.2221 0.0000 -4.3621 0.0000
# 3 28.7757 35.2221 81.5277 0.0000 13.9936 0.0000
# 4 0.0000 0.0000 0.0000 36.2278 0.0000 -19.5060
# 5 5.4433 -4.3621 13.9936 0.0000 26.9622 0.0000
# 6 0.0000 0.0000 0.0000 -19.5060 0.0000 32.1674
#
#
#
# Elastic Compliance Matrix: (Units=1/GPa)
#
#
# Indices 1 2 3 4 5 6 
#
# 1 0.022554 -0.006454 -0.004623 0.000000 -0.003198 0.000000
# 2 -0.006454 0.008620 -0.002096 0.000000 0.003785 0.000000
# 3 -0.004623 -0.002096 0.016139 0.000000 -0.007782 0.000000
# 4 0.000000 0.000000 0.000000 0.040984 0.000000 0.024852
# 5 -0.003198 0.003785 -0.007782 0.000000 0.042386 0.000000
# 6 0.000000 0.000000 0.000000 0.024852 0.000000 0.046158
#
#
# Mechanical properties :
#
#
# Convention : Reuss Voigt Hill
#
# Bulk Modulus (GPa) = 47.69605 61.36991 54.53298
# Shear Modulus (GPa) = 23.78969 32.19995 27.99482
#
# Velocity S-wave (km/s) = 3.33415 3.87899 3.61685
# Velocity P-wave (km/s) = 6.09178 6.98136 6.55169
#
# Compressibility (1/GPa) = 0.02096610
#
# Stress axis : x y z
#
# Youngs Moduli (GPa) = 44.33886 116.00722 61.96300
#
# Poissons Ratio (x) = 0.74874 0.28646
# Poissons Ratio (y) = 0.28617 0.12986
# Poissons Ratio (z) = 0.20498 0.24313
#
# Static dielectric constant tensor:
#      x y z
#    x 4.104030 0.000000 0.090830 
#    y 0.000000 6.330760 0.000000 
#    z 0.090830 0.000000 4.036490 
# 
# 
# High freq. dielectric constant tensor:
#      x y z
#    x 1.820190 0.000000 0.007630 
#    y 0.000000 1.861220 0.000000 
#    z 0.007630 0.000000 1.845080 
# 
# From -- ./inp_files/10291.got.cif
#   From: 2010.03.12/outbox.cif.g09.slc.cpg/sg14_6_cif.got.tgz:10291.got - 2010.03.31 13:35:05.
