data_PCOD8127027
_publ_section_title
;
Structure prediction by ZEFSAII (Michael W. Deem and Ramdas Pophale) SiO2 
 PCOD8127027
Probable space group: P 21/C
;
_chemical_formula_sum "Si O2"
_cell_formula_units_Z 28
_cell_length_a 16.013312
_cell_length_b 8.375494
_cell_length_c 10.640838
_cell_angle_alpha 90.000000
_cell_angle_beta 65.063047
_cell_angle_gamma 90.000000
_cell_volume 1294.093521
_symmetry_space_group_name_H-M "P 21/C"
_symmetry_group_IT_number 14
_symmetry_cell_setting 'monoclinic'
loop_
_space_group_symop_operation_xyz
x,y,z
-x,1/2+y,1/2-z
-x,-y,-z
x,1/2-y,1/2+z
loop_
_atom_site_type_symbol
_atom_site_label
_atom_site_fract_x
_atom_site_fract_y
_atom_site_fract_z
Si Si1 0.234878 0.099497 0.798087
Si Si2 0.097310 0.660376 0.820877
Si Si3 0.474242 0.683535 0.163132
Si Si4 0.272640 0.730432 0.358923
Si Si5 0.436020 0.184349 0.650268
Si Si6 0.910850 0.643472 0.053065
Si Si7 0.839026 0.408467 0.888504
O O1 0.326101 0.196187 0.702269
O O2 0.163631 0.219083 0.906891
O O3 0.260229 0.961334 0.882774
O O4 0.187756 0.025945 0.705725
O O5 0.196908 0.710890 0.808858
O O6 0.093452 0.464827 0.815388
O O7 0.092176 0.761043 0.694504
O O8 0.011721 0.717404 0.963513
O O9 0.374919 0.767448 0.244132
O O10 0.536183 0.711959 0.246656
O O11 0.467854 0.494969 0.153396
O O12 0.518873 0.754089 0.006719
O O13 0.255095 0.825996 0.499437
O O14 0.892188 0.511041 0.957541
#
# Coordination Sequence:
#
# PCOD8127027 Si02
#       7
#     4   4   4   4   4   4   4
#     4  10  23  40  61  94 124 162 214 266 319 373
#     4   9  21  40  60  89 122 165 207 250 323 384
#     4  10  23  41  67  93 132 166 217 261 327 382
#     4   9  21  39  61  88 124 167 206 261 319 388
#     4  10  24  42  65  96 128 170 211 271 318 387
#     4  10  22  39  63  93 125 159 212 267 310 379
#     4  10  22  38  63  85 129 169 204 258 326 382
#
# _framework density 21.636765
#
# number of rings (size 3 to 8) (size 9 to 14) (size 15 to 20)
#    0.000    2.286    0.000    0.000   10.000    9.714 
#    2.571    0.000    0.000    0.000    0.000    0.000 
#    0.000    0.000    0.000    0.000    0.000    0.000 
#
# Total GULP energy -346947.784885 kJ/mol
# GULP energy per Si atom -12390.992317 kJ/mol
# Density = 2.158752 g / cm^3
# Si number density = 21.636765 Si / 1000 Ang^3
#
#
#
# Elastic Constant Matrix: (Units=GPa)
#
#
# Indices 1 2 3 4 5 6 
#
# 1 46.6263 7.1197 22.6594 0.0000 -9.6382 0.0000
# 2 7.1197 43.0260 28.7406 0.0000 -1.8293 0.0000
# 3 22.6594 28.7406 107.4457 0.0000 -2.4778 0.0000
# 4 0.0000 0.0000 0.0000 43.1674 0.0000 2.0544
# 5 -9.6382 -1.8293 -2.4778 0.0000 39.3168 0.0000
# 6 0.0000 0.0000 0.0000 2.0544 0.0000 33.6230
#
#
#
# Elastic Compliance Matrix: (Units=1/GPa)
#
#
# Indices 1 2 3 4 5 6 
#
# 1 0.025180 -0.000562 -0.005026 0.000000 0.005830 0.000000
# 2 -0.000562 0.028338 -0.007445 0.000000 0.000712 0.000000
# 3 -0.005026 -0.007445 0.012340 0.000000 -0.000801 0.000000
# 4 0.000000 0.000000 0.000000 0.023233 0.000000 -0.001420
# 5 0.005830 0.000712 -0.000801 0.000000 0.026846 0.000000
# 6 0.000000 0.000000 0.000000 -0.001420 0.000000 0.029828
#
#
# Mechanical properties :
#
#
# Convention : Reuss Voigt Hill
#
# Bulk Modulus (GPa) = 25.12993 34.90416 30.01704
# Shear Modulus (GPa) = 27.01298 32.45999 29.73649
#
# Velocity S-wave (km/s) = 3.53721 3.87747 3.71124
# Velocity P-wave (km/s) = 5.32186 6.01775 5.68047
#
# Compressibility (1/GPa) = 0.03979319
#
# Stress axis : x y z
#
# Youngs Moduli (GPa) = 39.71345 35.28794 81.03745
#
# Poissons Ratio (x) = 0.01982 0.40726
# Poissons Ratio (y) = 0.02231 0.60335
# Poissons Ratio (z) = 0.19958 0.26273
#
# Static dielectric constant tensor:
#      x y z
#    x 3.819530 0.000000 -0.076210 
#    y 0.000000 4.032830 0.000000 
#    z -0.076210 0.000000 4.300320 
# 
# 
# High freq. dielectric constant tensor:
#      x y z
#    x 1.850380 0.000000 -0.014030 
#    y 0.000000 1.842600 0.000000 
#    z -0.014030 0.000000 1.847000 
# 
# From -- ./inp_files/31705.got.cif
#   From: 2010.03.12/outbox.cif.g09.slc.cpg/sg14_16_cif.got.tgz:31705.got - 2010.03.31 13:35:05.
