data_PCOD8127477
_publ_section_title
;
Structure prediction by ZEFSAII (Michael W. Deem and Ramdas Pophale) SiO2 
 PCOD8127477
Probable space group: P 21/C
;
_chemical_formula_sum "Si O2"
_cell_formula_units_Z 28
_cell_length_a 11.590398
_cell_length_b 11.020844
_cell_length_c 17.306280
_cell_angle_alpha 90.000000
_cell_angle_beta 139.742831
_cell_angle_gamma 90.000000
_cell_volume 1428.555016
_symmetry_space_group_name_H-M "P 21/C"
_symmetry_group_IT_number 14
_symmetry_cell_setting 'monoclinic'
loop_
_space_group_symop_operation_xyz
x,y,z
-x,1/2+y,1/2-z
-x,-y,-z
x,1/2-y,1/2+z
loop_
_atom_site_type_symbol
_atom_site_label
_atom_site_fract_x
_atom_site_fract_y
_atom_site_fract_z
Si Si1 0.466801 0.771389 0.650904
Si Si2 0.496419 0.641578 0.511365
Si Si3 0.209036 0.359930 0.592095
Si Si4 0.342322 0.523595 0.979163
Si Si5 0.792079 0.762417 0.570041
Si Si6 0.800811 0.364701 0.381648
Si Si7 0.811415 0.201390 0.711935
O O1 0.464080 0.666947 0.584943
O O2 0.665119 0.783469 0.786711
O O3 0.326680 0.735371 0.645555
O O4 0.410215 0.900418 0.586878
O O5 0.500000 0.500000 0.500000
O O6 0.683402 0.703747 0.584866
O O7 0.340246 0.698616 0.379538
O O8 0.246632 0.317777 0.524573
O O9 0.255831 0.502011 0.619598
O O10 0.003948 0.335941 0.511373
O O11 0.265890 0.400178 0.974696
O O12 0.191711 0.596957 0.854899
O O13 0.500000 0.500000 0.000000
O O14 0.999106 0.766582 0.697785
O O15 0.780240 0.359351 0.279027
#
# Coordination Sequence:
#
# PCOD8127477 Si02
#       7
#     4   4   4   4   4   4   4
#     4  11  23  37  67  91 122 165 203 257 306 368
#     4  11  24  41  59  94 124 158 210 258 309 356
#     4  10  23  40  65  91 121 168 201 253 311 369
#     4  11  22  43  64  92 123 167 210 249 307 371
#     4  11  23  42  65  91 125 161 209 254 305 369
#     4  10  22  43  62  92 126 159 211 247 310 376
#     4  10  23  41  66  91 123 168 202 258 307 366
#
# _framework density 19.600224999999998
#
# number of rings (size 3 to 8) (size 9 to 14) (size 15 to 20)
#    0.000    1.429    2.857    2.571    4.000    2.286 
#    2.571    1.429    0.000    0.000    0.000    0.000 
#    0.000    0.000    0.000    0.000    0.000    0.000 
#
# Total GULP energy -347338.379943 kJ/mol
# GULP energy per Si atom -12404.942141 kJ/mol
# Density = 1.955561 g / cm^3
# Si number density = 19.600225 Si / 1000 Ang^3
#
#
#
# Elastic Constant Matrix: (Units=GPa)
#
#
# Indices 1 2 3 4 5 6 
#
# 1 77.7338 26.6205 34.4514 0.0000 11.6262 0.0000
# 2 26.6205 106.5759 31.0938 0.0000 13.5847 0.0000
# 3 34.4514 31.0938 118.9924 0.0000 7.8649 0.0000
# 4 0.0000 0.0000 0.0000 20.5429 0.0000 3.9337
# 5 11.6262 13.5847 7.8649 0.0000 24.7659 0.0000
# 6 0.0000 0.0000 0.0000 3.9337 0.0000 38.7444
#
#
#
# Elastic Compliance Matrix: (Units=1/GPa)
#
#
# Indices 1 2 3 4 5 6 
#
# 1 0.016054 -0.002275 -0.003716 0.000000 -0.005109 0.000000
# 2 -0.002275 0.011079 -0.001946 0.000000 -0.004391 0.000000
# 3 -0.003716 -0.001946 0.010013 0.000000 -0.000368 0.000000
# 4 0.000000 0.000000 0.000000 0.049644 0.000000 -0.005040
# 5 -0.005109 -0.004391 -0.000368 0.000000 0.045302 0.000000
# 6 0.000000 0.000000 0.000000 -0.005040 0.000000 0.026322
#
#
# Mechanical properties :
#
#
# Convention : Reuss Voigt Hill
#
# Bulk Modulus (GPa) = 47.01044 54.18149 50.59596
# Shear Modulus (GPa) = 27.56677 30.88640 29.22659
#
# Velocity S-wave (km/s) = 3.75434 3.97396 3.86571
# Velocity P-wave (km/s) = 6.54447 6.98282 6.76720
#
# Compressibility (1/GPa) = 0.02127187
#
# Stress axis : x y z
#
# Youngs Moduli (GPa) = 62.28792 90.26365 99.87359
#
# Poissons Ratio (x) = 0.20532 0.37114
# Poissons Ratio (y) = 0.14169 0.19437
# Poissons Ratio (z) = 0.23147 0.17567
#
# Static dielectric constant tensor:
#      x y z
#    x 3.561980 0.000000 0.023670 
#    y 0.000000 3.723880 0.000000 
#    z 0.023670 0.000000 3.751700 
# 
# 
# High freq. dielectric constant tensor:
#      x y z
#    x 1.763100 0.000000 0.001360 
#    y 0.000000 1.767280 0.000000 
#    z 0.001360 0.000000 1.776100 
# 
# From -- ./inp_files/57608.got.cif
#   From: 2010.03.12/outbox.cif.g09.slc.cpg/sg14_29_cif.got.tgz:57608.got - 2010.03.31 13:35:05.
