data_PCOD8127627
_publ_section_title
;
Structure prediction by ZEFSAII (Michael W. Deem and Ramdas Pophale) SiO2 
 PCOD8127627
Probable space group: P 21/C
;
_chemical_formula_sum "Si O2"
_cell_formula_units_Z 24
_cell_length_a 11.013880
_cell_length_b 10.985282
_cell_length_c 11.660218
_cell_angle_alpha 90.000000
_cell_angle_beta 52.048110
_cell_angle_gamma 90.000000
_cell_volume 1112.435982
_symmetry_space_group_name_H-M "P 21/C"
_symmetry_group_IT_number 14
_symmetry_cell_setting 'monoclinic'
loop_
_space_group_symop_operation_xyz
x,y,z
-x,1/2+y,1/2-z
-x,-y,-z
x,1/2-y,1/2+z
loop_
_atom_site_type_symbol
_atom_site_label
_atom_site_fract_x
_atom_site_fract_y
_atom_site_fract_z
Si Si1 0.914380 0.097465 0.628935
Si Si2 0.508697 0.899580 0.592298
Si Si3 0.833874 0.362011 0.633851
Si Si4 0.413225 0.002099 0.214209
Si Si5 0.927882 0.498526 0.360835
Si Si6 0.650540 0.652529 0.459202
O O1 0.933210 0.236692 0.575733
O O2 0.733448 0.077245 0.731483
O O3 0.973935 0.084100 0.724908
O O4 0.000000 0.000000 0.500000
O O5 0.341155 0.845460 0.721594
O O6 0.593183 0.955721 0.652243
O O7 0.625498 0.795873 0.482233
O O8 0.500000 0.000000 0.500000
O O9 0.832342 0.415522 0.506069
O O10 0.915331 0.456257 0.672482
O O11 0.560754 0.917046 0.112259
O O12 0.417107 0.116862 0.125977
O O13 0.828476 0.614176 0.373134
#
# Coordination Sequence:
#
# PCOD8127627 Si02
#       6
#     4   4   4   4   4   4
#     4  11  26  44  69  99 132 180 227 275 333 400
#     4  12  27  40  72 104 132 172 229 278 334 404
#     4  11  25  45  69  97 138 175 220 284 332 404
#     4  10  23  44  67  95 129 175 220 271 343 384
#     4  10  25  46  67  97 136 178 218 274 346 384
#     4  10  22  45  68  92 134 176 217 279 330 403
#
# _framework density 21.574276000000001
#
# number of rings (size 3 to 8) (size 9 to 14) (size 15 to 20)
#    0.000    1.333    3.333    0.000    9.333    0.000 
#    6.000    0.000    0.000    0.000    0.000    0.000 
#    0.000    0.000    0.000    0.000    0.000    0.000 
#
# Total GULP energy -297662.666081 kJ/mol
# GULP energy per Si atom -12402.611087 kJ/mol
# Density = 2.152517 g / cm^3
# Si number density = 21.574276 Si / 1000 Ang^3
#
#
#
# Elastic Constant Matrix: (Units=GPa)
#
#
# Indices 1 2 3 4 5 6 
#
# 1 71.0411 22.9691 22.5363 0.0000 26.6209 0.0000
# 2 22.9691 117.5169 31.5991 0.0000 32.8896 0.0000
# 3 22.5363 31.5991 79.3615 0.0000 27.8159 0.0000
# 4 0.0000 0.0000 0.0000 30.6927 0.0000 -2.0976
# 5 26.6209 32.8896 27.8159 0.0000 41.8812 0.0000
# 6 0.0000 0.0000 0.0000 -2.0976 0.0000 27.6236
#
#
#
# Elastic Compliance Matrix: (Units=1/GPa)
#
#
# Indices 1 2 3 4 5 6 
#
# 1 0.018617 -0.000266 -0.001442 0.000000 -0.010667 0.000000
# 2 -0.000266 0.011099 -0.001757 0.000000 -0.007381 0.000000
# 3 -0.001442 -0.001757 0.016820 0.000000 -0.008875 0.000000
# 4 0.000000 0.000000 0.000000 0.032751 0.000000 0.002487
# 5 -0.010667 -0.007381 -0.008875 0.000000 0.042348 0.000000
# 6 0.000000 0.000000 0.000000 0.002487 0.000000 0.036390
#
#
# Mechanical properties :
#
#
# Convention : Reuss Voigt Hill
#
# Bulk Modulus (GPa) = 25.24801 46.90317 36.07559
# Shear Modulus (GPa) = 28.06508 32.76050 30.41279
#
# Velocity S-wave (km/s) = 3.61065 3.90102 3.75864
# Velocity P-wave (km/s) = 5.39543 6.48676 5.96610
#
# Compressibility (1/GPa) = 0.03960709
#
# Stress axis : x y z
#
# Youngs Moduli (GPa) = 53.71448 90.09477 59.45190
#
# Poissons Ratio (x) = 0.02392 0.08574
# Poissons Ratio (y) = 0.01426 0.10446
# Poissons Ratio (z) = 0.07746 0.15831
#
# Static dielectric constant tensor:
#      x y z
#    x 3.917170 0.000000 0.074350 
#    y 0.000000 3.864630 0.000000 
#    z 0.074350 0.000000 3.884460 
# 
# 
# High freq. dielectric constant tensor:
#      x y z
#    x 1.855510 0.000000 0.005560 
#    y 0.000000 1.844030 0.000000 
#    z 0.005560 0.000000 1.844890 
# 
# From -- ./inp_files/28972.got.cif
#   From: 2010.03.12/outbox.cif.g09.slc.cpg/sg14_15_cif.got.tgz:28972.got - 2010.03.31 13:35:05.
