data_PCOD8127720
_publ_section_title
;
Structure prediction by ZEFSAII (Michael W. Deem and Ramdas Pophale) SiO2 
 PCOD8127720
Probable space group: P 21/C
;
_chemical_formula_sum "Si O2"
_cell_formula_units_Z 24
_cell_length_a 13.136053
_cell_length_b 7.633613
_cell_length_c 18.390369
_cell_angle_alpha 90.000000
_cell_angle_beta 36.911122
_cell_angle_gamma 90.000000
_cell_volume 1107.523745
_symmetry_space_group_name_H-M "P 21/C"
_symmetry_group_IT_number 14
_symmetry_cell_setting 'monoclinic'
loop_
_space_group_symop_operation_xyz
x,y,z
-x,1/2+y,1/2-z
-x,-y,-z
x,1/2-y,1/2+z
loop_
_atom_site_type_symbol
_atom_site_label
_atom_site_fract_x
_atom_site_fract_y
_atom_site_fract_z
Si Si1 0.493393 0.171042 0.956264
Si Si2 0.843988 0.833218 0.398844
Si Si3 0.281990 0.152035 0.368076
Si Si4 0.847755 0.963603 0.140239
Si Si5 0.383482 0.786535 0.267499
Si Si6 0.174905 0.878241 0.696057
O O1 0.535539 0.123569 0.849489
O O2 0.633083 0.309072 0.905335
O O3 0.300578 0.240941 0.068172
O O4 0.500000 0.000000 0.000000
O O5 0.810365 0.808663 0.503266
O O6 0.035427 0.773513 0.274740
O O7 0.836377 0.033402 0.376669
O O8 0.201900 0.261512 0.347292
O O9 0.473691 0.222904 0.258492
O O10 0.267270 0.941829 0.366449
O O11 0.711150 0.109206 0.197529
O O12 0.879314 0.985078 0.208493
O O13 0.000000 0.000000 0.000000
#
# Coordination Sequence:
#
# PCOD8127720 Si02
#       6
#     4   4   4   4   4   4
#     4  10  23  42  62  94 127 165 217 263 319 387
#     4  11  24  42  64  94 128 169 213 260 328 383
#     4  11  22  42  66  95 127 169 219 263 321 386
#     4  11  23  43  65  95 133 164 217 273 315 383
#     4  10  23  39  68  94 124 172 217 262 325 383
#     4  11  24  43  65  95 131 168 215 266 322 384
#
# _framework density 21.669965000000001
#
# number of rings (size 3 to 8) (size 9 to 14) (size 15 to 20)
#    0.000    1.333    3.333    1.500    2.333    3.333 
#    0.000    0.000    0.000    0.000    0.000    0.000 
#    0.000    0.000    0.000    0.000    0.000    0.000 
#
# Total GULP energy -297448.546136 kJ/mol
# GULP energy per Si atom -12393.689422 kJ/mol
# Density = 2.162064 g / cm^3
# Si number density = 21.669965 Si / 1000 Ang^3
#
#
#
# Elastic Constant Matrix: (Units=GPa)
#
#
# Indices 1 2 3 4 5 6 
#
# 1 65.3444 7.6109 5.1702 0.0000 -1.5048 0.0000
# 2 7.6109 75.4794 3.6049 0.0000 12.2867 0.0000
# 3 5.1702 3.6049 51.2167 0.0000 -1.8750 0.0000
# 4 0.0000 0.0000 0.0000 37.3066 0.0000 7.3418
# 5 -1.5048 12.2867 -1.8750 0.0000 29.2435 0.0000
# 6 0.0000 0.0000 0.0000 7.3418 0.0000 42.2382
#
#
#
# Elastic Compliance Matrix: (Units=1/GPa)
#
#
# Indices 1 2 3 4 5 6 
#
# 1 0.015651 -0.001747 -0.001404 0.000000 0.001449 0.000000
# 2 -0.001747 0.014493 -0.001072 0.000000 -0.006248 0.000000
# 3 -0.001404 -0.001072 0.019802 0.000000 0.001648 0.000000
# 4 0.000000 0.000000 0.000000 0.027754 0.000000 -0.004824
# 5 0.001449 -0.006248 0.001648 0.000000 0.037001 0.000000
# 6 0.000000 0.000000 0.000000 -0.004824 0.000000 0.024514
#
#
# Mechanical properties :
#
#
# Convention : Reuss Voigt Hill
#
# Bulk Modulus (GPa) = 24.09641 24.97918 24.53780
# Shear Modulus (GPa) = 30.96044 33.46795 32.21419
#
# Velocity S-wave (km/s) = 3.78395 3.93420 3.85981
# Velocity P-wave (km/s) = 5.49863 5.67357 5.58678
#
# Compressibility (1/GPa) = 0.04149996
#
# Stress axis : x y z
#
# Youngs Moduli (GPa) = 63.89170 68.99843 50.49884
#
# Poissons Ratio (x) = 0.12055 0.07090
# Poissons Ratio (y) = 0.11162 0.05416
# Poissons Ratio (z) = 0.08970 0.07400
#
# Static dielectric constant tensor:
#      x y z
#    x 4.052170 0.000000 -0.112870 
#    y 0.000000 3.761240 0.000000 
#    z -0.112870 0.000000 3.682040 
# 
# 
# High freq. dielectric constant tensor:
#      x y z
#    x 1.854900 0.000000 -0.004510 
#    y 0.000000 1.847600 0.000000 
#    z -0.004510 0.000000 1.853530 
# 
# From -- ./inp_files/67804.got.cif
#   From: 2010.03.12/outbox.cif.g09.slc.cpg/sg14_34_cif.got.tgz:67804.got - 2010.03.31 13:35:05.
