data_PCOD8127653
_publ_section_title
;
Structure prediction by ZEFSAII (Michael W. Deem and Ramdas Pophale) SiO2 
 PCOD8127653
Probable space group: P 21/C
;
_chemical_formula_sum "Si O2"
_cell_formula_units_Z 32
_cell_length_a 12.543369
_cell_length_b 8.817923
_cell_length_c 29.319974
_cell_angle_alpha 90.000000
_cell_angle_beta 150.681073
_cell_angle_gamma 90.000000
_cell_volume 1587.990958
_symmetry_space_group_name_H-M "P 21/C"
_symmetry_group_IT_number 14
_symmetry_cell_setting 'monoclinic'
loop_
_space_group_symop_operation_xyz
x,y,z
-x,1/2+y,1/2-z
-x,-y,-z
x,1/2-y,1/2+z
loop_
_atom_site_type_symbol
_atom_site_label
_atom_site_fract_x
_atom_site_fract_y
_atom_site_fract_z
Si Si1 0.431581 0.296850 0.583332
Si Si2 0.283644 0.567049 0.647106
Si Si3 0.152316 0.586729 0.497425
Si Si4 0.301012 0.714561 0.975482
Si Si5 0.124283 0.389127 0.911085
Si Si6 0.209959 0.233665 0.850219
Si Si7 0.197618 0.876504 0.846313
Si Si8 0.360766 0.832329 0.745417
O O1 0.318143 0.460063 0.541248
O O2 0.257088 0.167739 0.504921
O O3 0.626748 0.294597 0.620098
O O4 0.522931 0.257258 0.667362
O O5 0.198510 0.629981 0.566974
O O6 0.339874 0.707902 0.699136
O O7 0.499852 0.469396 0.722518
O O8 0.095584 0.467888 0.600778
O O9 0.185940 0.735864 0.479528
O O10 0.206809 0.552626 0.925406
O O11 0.252499 0.839737 0.918939
O O12 0.558507 0.700267 0.078772
O O13 0.161716 0.268512 0.884912
O O14 0.870669 0.401833 0.827348
O O15 0.039685 0.314029 0.753591
O O16 0.201900 0.054770 0.839690
#
# Coordination Sequence:
#
# PCOD8127653 Si02
#       8
#     4   4   4   4   4   4   4   4
#     4  11  22  43  69  93 132 179 210 267 341 392
#     4  10  24  44  68  95 127 173 226 278 340 387
#     4  10  22  46  67  90 129 179 219 274 336 392
#     4  12  26  41  68  99 138 176 221 274 326 400
#     4  12  25  42  66 100 136 173 224 271 329 400
#     4  12  25  43  65  98 140 179 218 268 327 404
#     4  12  25  40  68 100 137 179 222 262 334 404
#     4  11  25  44  70  95 131 168 222 284 333 395
#
# _framework density 20.151246
#
# number of rings (size 3 to 8) (size 9 to 14) (size 15 to 20)
#    0.000    0.750    5.000    2.250    3.500    1.000 
#    0.000    1.250    0.000    0.000    0.000    0.000 
#    0.000    0.000    0.000    0.000    0.000    0.000 
#
# Total GULP energy -397071.823263 kJ/mol
# GULP energy per Si atom -12408.494477 kJ/mol
# Density = 2.010538 g / cm^3
# Si number density = 20.151246 Si / 1000 Ang^3
#
#
#
# Elastic Constant Matrix: (Units=GPa)
#
#
# Indices 1 2 3 4 5 6 
#
# 1 78.0097 9.6020 17.2821 0.0000 5.6912 0.0000
# 2 9.6020 60.3991 15.4989 0.0000 -1.2719 0.0000
# 3 17.2821 15.4989 85.1984 0.0000 14.8032 0.0000
# 4 0.0000 0.0000 0.0000 33.0562 0.0000 -1.9573
# 5 5.6912 -1.2719 14.8032 0.0000 33.5750 0.0000
# 6 0.0000 0.0000 0.0000 -1.9573 0.0000 28.7702
#
#
#
# Elastic Compliance Matrix: (Units=1/GPa)
#
#
# Indices 1 2 3 4 5 6 
#
# 1 0.013613 -0.001622 -0.002225 0.000000 -0.001388 0.000000
# 2 -0.001622 0.017715 -0.003312 0.000000 0.002406 0.000000
# 3 -0.002225 -0.003312 0.013805 0.000000 -0.005835 0.000000
# 4 0.000000 0.000000 0.000000 0.030374 0.000000 0.002066
# 5 -0.001388 0.002406 -0.005835 0.000000 0.032683 0.000000
# 6 0.000000 0.000000 0.000000 0.002066 0.000000 0.034899
#
#
# Mechanical properties :
#
#
# Convention : Reuss Voigt Hill
#
# Bulk Modulus (GPa) = 32.45213 34.26370 33.35791
# Shear Modulus (GPa) = 29.81911 31.16190 30.49050
#
# Velocity S-wave (km/s) = 3.85094 3.93670 3.89406
# Velocity P-wave (km/s) = 5.99268 6.14033 6.06695
#
# Compressibility (1/GPa) = 0.03081462
#
# Stress axis : x y z
#
# Youngs Moduli (GPa) = 73.46034 56.44966 72.43811
#
# Poissons Ratio (x) = 0.09158 0.16118
# Poissons Ratio (y) = 0.11918 0.23989
# Poissons Ratio (z) = 0.16345 0.18694
#
# Static dielectric constant tensor:
#      x y z
#    x 3.728540 0.000000 0.090990 
#    y 0.000000 3.436800 0.000000 
#    z 0.090990 0.000000 3.975310 
# 
# 
# High freq. dielectric constant tensor:
#      x y z
#    x 1.794040 0.000000 0.005510 
#    y 0.000000 1.777260 0.000000 
#    z 0.005510 0.000000 1.806540 
# 
# From -- ./inp_files/80016.got.cif
#   From: 2010.03.12/outbox.cif.g09.slc.cpg/sg14_41_cif.got.tgz:80016.got - 2010.03.31 13:35:05.
