data_PCOD8127009
_publ_section_title
;
Structure prediction by ZEFSAII (Michael W. Deem and Ramdas Pophale) SiO2 
 PCOD8127009
Probable space group: P 21/C
;
_chemical_formula_sum "Si O2"
_cell_formula_units_Z 28
_cell_length_a 8.527213
_cell_length_b 9.274414
_cell_length_c 27.735368
_cell_angle_alpha 90.000000
_cell_angle_beta 37.801958
_cell_angle_gamma 90.000000
_cell_volume 1344.439534
_symmetry_space_group_name_H-M "P 21/C"
_symmetry_group_IT_number 14
_symmetry_cell_setting 'monoclinic'
loop_
_space_group_symop_operation_xyz
x,y,z
-x,1/2+y,1/2-z
-x,-y,-z
x,1/2-y,1/2+z
loop_
_atom_site_type_symbol
_atom_site_label
_atom_site_fract_x
_atom_site_fract_y
_atom_site_fract_z
Si Si1 0.129460 0.292901 0.176298
Si Si2 0.239069 0.438482 0.728183
Si Si3 0.225695 0.446252 0.387743
Si Si4 0.885074 0.802836 0.518443
Si Si5 0.005603 0.195147 0.105699
Si Si6 0.435645 0.216927 0.745785
Si Si7 0.578776 0.440387 0.115567
O O1 0.105171 0.160360 0.219812
O O2 0.374934 0.392429 0.125236
O O3 0.890504 0.404609 0.235783
O O4 0.162345 0.213744 0.116819
O O5 0.544518 0.458184 0.644458
O O6 0.236401 0.343962 0.778280
O O7 0.109239 0.355028 0.459627
O O8 0.995744 0.538285 0.419451
O O9 0.332801 0.347749 0.319402
O O10 0.869187 0.801460 0.464065
O O11 0.157409 0.869498 0.465621
O O12 0.637591 0.888440 0.599179
O O13 0.712331 0.222028 0.190478
O O14 0.468080 0.099387 0.694982
#
# Coordination Sequence:
#
# PCOD8127009 Si02
#       7
#     4   4   4   4   4   4   4
#     4  11  23  41  62  93 137 160 209 267 322 370
#     4  10  24  37  62  97 129 163 206 268 321 365
#     4  11  22  39  67  92 124 166 220 260 307 375
#     4  10  22  41  64  89 123 176 212 253 314 380
#     4  10  22  38  59  90 128 163 210 256 308 382
#     4   9  20  38  60  92 117 165 216 260 298 373
#     4   9  22  40  63  89 130 164 213 262 312 375
#
# _framework density 20.826523999999999
#
# number of rings (size 3 to 8) (size 9 to 14) (size 15 to 20)
#    0.000    2.000    1.429    1.286   10.000    1.714 
#    0.000    2.857    0.000    0.000    0.000    0.000 
#    0.000    0.000    0.000    0.000    0.000    0.000 
#
# Total GULP energy -346968.956686 kJ/mol
# GULP energy per Si atom -12391.748453 kJ/mol
# Density = 2.077912 g / cm^3
# Si number density = 20.826524 Si / 1000 Ang^3
#
#
#
# Elastic Constant Matrix: (Units=GPa)
#
#
# Indices 1 2 3 4 5 6 
#
# 1 105.0685 24.1095 15.5940 0.0000 9.2047 0.0000
# 2 24.1095 85.0581 5.1680 0.0000 3.8293 0.0000
# 3 15.5940 5.1680 39.1755 0.0000 5.9081 0.0000
# 4 0.0000 0.0000 0.0000 22.9316 0.0000 -2.2465
# 5 9.2047 3.8293 5.9081 0.0000 18.3390 0.0000
# 6 0.0000 0.0000 0.0000 -2.2465 0.0000 42.9362
#
#
#
# Elastic Compliance Matrix: (Units=1/GPa)
#
#
# Indices 1 2 3 4 5 6 
#
# 1 0.010991 -0.002734 -0.003435 0.000000 -0.003839 0.000000
# 2 -0.002734 0.012607 -0.000404 0.000000 -0.001130 0.000000
# 3 -0.003435 -0.000404 0.028036 0.000000 -0.007223 0.000000
# 4 0.000000 0.000000 0.000000 0.043833 0.000000 0.002293
# 5 -0.003839 -0.001130 -0.007223 0.000000 0.059019 0.000000
# 6 0.000000 0.000000 0.000000 0.002293 0.000000 0.023410
#
#
# Mechanical properties :
#
#
# Convention : Reuss Voigt Hill
#
# Bulk Modulus (GPa) = 25.98282 35.44947 30.71614
# Shear Modulus (GPa) = 24.52510 29.13672 26.83091
#
# Velocity S-wave (km/s) = 3.43533 3.74441 3.59319
# Velocity P-wave (km/s) = 5.31396 5.97933 5.65644
#
# Compressibility (1/GPa) = 0.03848697
#
# Stress axis : x y z
#
# Youngs Moduli (GPa) = 90.98249 79.32088 35.66794
#
# Poissons Ratio (x) = 0.21685 0.12254
# Poissons Ratio (y) = 0.24873 0.01443
# Poissons Ratio (z) = 0.31257 0.03208
#
# Static dielectric constant tensor:
#      x y z
#    x 3.836110 0.000000 0.041040 
#    y 0.000000 4.114100 0.000000 
#    z 0.041040 0.000000 3.498500 
# 
# 
# High freq. dielectric constant tensor:
#      x y z
#    x 1.811720 0.000000 0.009720 
#    y 0.000000 1.827650 0.000000 
#    z 0.009720 0.000000 1.794360 
# 
# From -- ./inp_files/64532.got.cif
#   From: 2010.03.12/outbox.cif.g09.slc.cpg/sg14_33_cif.got.tgz:64532.got - 2010.03.31 13:35:05.
