data_PCOD8127485
_publ_section_title
;
Structure prediction by ZEFSAII (Michael W. Deem and Ramdas Pophale) SiO2 
 PCOD8127485
Probable space group: P 21/C
;
_chemical_formula_sum "Si O2"
_cell_formula_units_Z 28
_cell_length_a 12.265569
_cell_length_b 8.742989
_cell_length_c 14.217634
_cell_angle_alpha 90.000000
_cell_angle_beta 58.448025
_cell_angle_gamma 90.000000
_cell_volume 1299.269015
_symmetry_space_group_name_H-M "P 21/C"
_symmetry_group_IT_number 14
_symmetry_cell_setting 'monoclinic'
loop_
_space_group_symop_operation_xyz
x,y,z
-x,1/2+y,1/2-z
-x,-y,-z
x,1/2-y,1/2+z
loop_
_atom_site_type_symbol
_atom_site_label
_atom_site_fract_x
_atom_site_fract_y
_atom_site_fract_z
Si Si1 0.128542 0.128078 0.341900
Si Si2 0.374041 0.207781 0.799813
Si Si3 0.108610 0.169408 0.135740
Si Si4 0.085171 0.707374 0.916331
Si Si5 0.360571 0.358257 0.993668
Si Si6 0.436300 0.695193 0.950314
Si Si7 0.252618 0.571345 0.455040
O O1 0.256963 0.227256 0.291020
O O2 0.081782 0.129235 0.255716
O O3 0.020864 0.204922 0.454401
O O4 0.151436 0.955969 0.368259
O O5 0.406899 0.327986 0.866819
O O6 0.497881 0.182751 0.680842
O O7 0.343153 0.046013 0.860420
O O8 0.977210 0.233766 0.152236
O O9 0.217149 0.298491 0.074159
O O10 0.144780 0.015546 0.063558
O O11 0.194588 0.821563 0.900645
O O12 0.362380 0.539536 0.011169
O O13 0.456768 0.269122 0.019709
O O14 0.334550 0.832050 0.993644
#
# Coordination Sequence:
#
# PCOD8127485 Si02
#       7
#     4   4   4   4   4   4   4
#     4  11  24  43  68  94 130 178 212 268 331 384
#     4  11  22  43  66  95 131 170 215 269 319 384
#     4  11  24  44  66 100 130 173 217 275 322 389
#     4  11  25  45  66  96 134 170 218 269 327 397
#     4  10  22  43  65  93 131 169 214 263 323 381
#     4  11  23  43  65  95 131 171 213 266 323 389
#     4  11  25  42  66 100 131 169 218 273 322 388
#
# _framework density 21.55058
#
# number of rings (size 3 to 8) (size 9 to 14) (size 15 to 20)
#    0.000    1.143    4.286    2.143    4.000    2.286 
#   10.286    0.000    0.000    0.000    0.000    0.000 
#    0.000    0.000    0.000    0.000    0.000    0.000 
#
# Total GULP energy -347371.795747 kJ/mol
# GULP energy per Si atom -12406.135562 kJ/mol
# Density = 2.150153 g / cm^3
# Si number density = 21.550580 Si / 1000 Ang^3
#
#
#
# Elastic Constant Matrix: (Units=GPa)
#
#
# Indices 1 2 3 4 5 6 
#
# 1 92.1087 25.2416 -4.8253 0.0000 14.3795 0.0000
# 2 25.2416 87.0931 -5.3606 0.0000 -4.2736 0.0000
# 3 -4.8253 -5.3606 63.3635 0.0000 19.3795 0.0000
# 4 0.0000 0.0000 0.0000 19.1228 0.0000 7.3486
# 5 14.3795 -4.2736 19.3795 0.0000 34.1157 0.0000
# 6 0.0000 0.0000 0.0000 7.3486 0.0000 38.6154
#
#
#
# Elastic Compliance Matrix: (Units=1/GPa)
#
#
# Indices 1 2 3 4 5 6 
#
# 1 0.013368 -0.004072 0.003089 0.000000 -0.007899 0.000000
# 2 -0.004072 0.012815 -0.000293 0.000000 0.003488 0.000000
# 3 0.003089 -0.000293 0.019851 0.000000 -0.012615 0.000000
# 4 0.000000 0.000000 0.000000 0.056419 0.000000 -0.010737
# 5 -0.007899 0.003488 -0.012615 0.000000 0.040244 0.000000
# 6 0.000000 0.000000 0.000000 -0.010737 0.000000 0.027940
#
#
# Mechanical properties :
#
#
# Convention : Reuss Voigt Hill
#
# Bulk Modulus (GPa) = 22.99703 30.29742 26.64722
# Shear Modulus (GPa) = 26.64091 33.53810 30.08951
#
# Velocity S-wave (km/s) = 3.51978 3.94921 3.74067
# Velocity P-wave (km/s) = 5.21659 5.90629 5.57213
#
# Compressibility (1/GPa) = 0.04348388
#
# Stress axis : x y z
#
# Youngs Moduli (GPa) = 74.80771 78.03254 50.37594
#
# Poissons Ratio (x) = 0.31772 -0.15564
# Poissons Ratio (y) = 0.30459 0.01474
# Poissons Ratio (z) = -0.23112 0.02283
#
# Static dielectric constant tensor:
#      x y z
#    x 3.927490 0.000000 0.210290 
#    y 0.000000 3.943860 0.000000 
#    z 0.210290 0.000000 3.762010 
# 
# 
# High freq. dielectric constant tensor:
#      x y z
#    x 1.852180 0.000000 0.014440 
#    y 0.000000 1.854920 0.000000 
#    z 0.014440 0.000000 1.837680 
# 
# From -- ./inp_files/43598.got.cif
#   From: 2010.03.12/outbox.cif.g09.slc.cpg/sg14_22_cif.got.tgz:43598.got - 2010.03.31 13:35:05.
