data_PCOD8127039
_publ_section_title
;
Structure prediction by ZEFSAII (Michael W. Deem and Ramdas Pophale) SiO2 
 PCOD8127039
Probable space group: P 21/C
;
_chemical_formula_sum "Si O2"
_cell_formula_units_Z 32
_cell_length_a 18.528121
_cell_length_b 11.250205
_cell_length_c 23.719516
_cell_angle_alpha 90.000000
_cell_angle_beta 19.332249
_cell_angle_gamma 90.000000
_cell_volume 1636.761514
_symmetry_space_group_name_H-M "P 21/C"
_symmetry_group_IT_number 14
_symmetry_cell_setting 'monoclinic'
loop_
_space_group_symop_operation_xyz
x,y,z
-x,1/2+y,1/2-z
-x,-y,-z
x,1/2-y,1/2+z
loop_
_atom_site_type_symbol
_atom_site_label
_atom_site_fract_x
_atom_site_fract_y
_atom_site_fract_z
Si Si1 0.487233 0.780427 0.205331
Si Si2 0.182513 0.584364 0.071768
Si Si3 0.143999 0.175753 0.407548
Si Si4 0.011083 0.918114 0.921554
Si Si5 0.122296 0.062606 0.099314
Si Si6 0.903320 0.056944 0.490866
Si Si7 0.609506 0.322708 0.603639
Si Si8 0.638968 0.047652 0.252126
O O1 0.341384 0.898558 0.316395
O O2 0.495580 0.712319 0.258771
O O3 0.400474 0.688580 0.222960
O O4 0.725233 0.821336 0.010361
O O5 0.015408 0.547911 0.242983
O O6 0.067641 0.546456 0.097797
O O7 0.217527 0.725611 0.045099
O O8 0.413158 0.521731 0.913392
O O9 0.044088 0.296488 0.505414
O O10 0.405936 0.175265 0.210943
O O11 0.065777 0.152102 0.400731
O O12 0.055827 0.071956 0.513194
O O13 0.042017 0.911546 0.831631
O O14 0.234611 0.974000 0.781756
O O15 0.803243 0.004982 0.082217
O O16 0.266598 0.946075 0.984318
#
# Coordination Sequence:
#
# PCOD8127039 Si02
#       8
#     4   4   4   4   4   4   4   4
#     4  11  20  37  63  89 118 161 215 254 295 366
#     4  11  26  41  58  89 135 167 198 249 328 377
#     4  11  19  38  67  92 118 152 223 264 304 350
#     4  11  22  38  66  95 117 159 213 262 304 360
#     4  12  25  40  63  94 126 169 205 252 319 382
#     4  10  22  38  64  92 119 163 207 268 303 362
#     4  11  22  41  63  90 121 167 209 259 302 370
#     4  11  22  39  62  92 120 159 207 263 302 361
#
# _framework density 19.550802999999998
#
# number of rings (size 3 to 8) (size 9 to 14) (size 15 to 20)
#    0.000    1.000    6.250    1.500    1.750    0.500 
#    0.000    1.875    0.000    0.000    0.000    0.000 
#    0.000    0.000    0.000    0.000    0.000    0.000 
#
# Total GULP energy -396772.390234 kJ/mol
# GULP energy per Si atom -12399.137195 kJ/mol
# Density = 1.950630 g / cm^3
# Si number density = 19.550803 Si / 1000 Ang^3
#
#
#
# Elastic Constant Matrix: (Units=GPa)
#
#
# Indices 1 2 3 4 5 6 
#
# 1 144.5285 32.0836 66.6241 0.0000 -9.2342 0.0000
# 2 32.0836 85.0269 20.3102 0.0000 -0.5001 0.0000
# 3 66.6241 20.3102 75.9980 0.0000 -6.0069 0.0000
# 4 0.0000 0.0000 0.0000 23.3436 0.0000 -8.8348
# 5 -9.2342 -0.5001 -6.0069 0.0000 25.4887 0.0000
# 6 0.0000 0.0000 0.0000 -8.8348 0.0000 27.5068
#
#
#
# Elastic Compliance Matrix: (Units=1/GPa)
#
#
# Indices 1 2 3 4 5 6 
#
# 1 0.012068 -0.002193 -0.009834 0.000000 0.002011 0.000000
# 2 -0.002193 0.012969 -0.001617 0.000000 -0.000921 0.000000
# 3 -0.009834 -0.001617 0.022344 0.000000 0.001671 0.000000
# 4 0.000000 0.000000 0.000000 0.048766 0.000000 0.015663
# 5 0.002011 -0.000921 0.001671 0.000000 0.040337 0.000000
# 6 0.000000 0.000000 0.000000 0.015663 0.000000 0.041385
#
#
# Mechanical properties :
#
#
# Convention : Reuss Voigt Hill
#
# Bulk Modulus (GPa) = 49.76733 60.39878 55.08305
# Shear Modulus (GPa) = 23.60117 27.70353 25.65235
#
# Velocity S-wave (km/s) = 3.47821 3.76839 3.62620
# Velocity P-wave (km/s) = 6.45300 7.06362 6.76520
#
# Compressibility (1/GPa) = 0.02009350
#
# Stress axis : x y z
#
# Youngs Moduli (GPa) = 82.86636 77.10653 44.75563
#
# Poissons Ratio (x) = 0.16907 0.44014
# Poissons Ratio (y) = 0.18170 0.07235
# Poissons Ratio (z) = 0.81492 0.12465
#
# Static dielectric constant tensor:
#      x y z
#    x 3.708880 0.000000 -0.295890 
#    y 0.000000 3.732570 0.000000 
#    z -0.295890 0.000000 3.291170 
# 
# 
# High freq. dielectric constant tensor:
#      x y z
#    x 1.764920 0.000000 -0.030180 
#    y 0.000000 1.778580 0.000000 
#    z -0.030180 0.000000 1.730860 
# 
# From -- ./inp_files/74398.got.cif
#   From: 2010.03.12/outbox.cif.g09.slc.cpg/sg14_38_cif.got.tgz:74398.got - 2010.03.31 13:35:05.
