data_PCOD8127298
_publ_section_title
;
Structure prediction by ZEFSAII (Michael W. Deem and Ramdas Pophale) SiO2 
 PCOD8127298
Probable space group: P 21/C
;
_chemical_formula_sum "Si O2"
_cell_formula_units_Z 28
_cell_length_a 17.978490
_cell_length_b 6.394734
_cell_length_c 13.659410
_cell_angle_alpha 90.000000
_cell_angle_beta 62.478168
_cell_angle_gamma 90.000000
_cell_volume 1392.676913
_symmetry_space_group_name_H-M "P 21/C"
_symmetry_group_IT_number 14
_symmetry_cell_setting 'monoclinic'
loop_
_space_group_symop_operation_xyz
x,y,z
-x,1/2+y,1/2-z
-x,-y,-z
x,1/2-y,1/2+z
loop_
_atom_site_type_symbol
_atom_site_label
_atom_site_fract_x
_atom_site_fract_y
_atom_site_fract_z
Si Si1 0.814770 0.240904 0.952648
Si Si2 0.602667 0.541416 0.340217
Si Si3 0.740428 0.856288 0.903771
Si Si4 0.907697 0.875642 0.315310
Si Si5 0.961710 0.980377 0.917342
Si Si6 0.449030 0.693496 0.993194
Si Si7 0.672473 0.517284 0.084861
O O1 0.877250 0.390323 0.854579
O O2 0.756450 0.100290 0.916911
O O3 0.756445 0.384323 0.056838
O O4 0.870665 0.086826 0.983626
O O5 0.675357 0.666457 0.353856
O O6 0.596365 0.306845 0.387428
O O7 0.511854 0.646201 0.402997
O O8 0.622305 0.547731 0.214218
O O9 0.828892 0.753020 0.819582
O O10 0.698873 0.740104 0.022650
O O11 0.946439 0.756430 0.387228
O O12 0.980238 0.886615 0.190882
O O13 0.000000 0.000000 0.000000
O O14 0.381065 0.618300 0.957619
O O15 0.500000 0.500000 0.000000
#
# Coordination Sequence:
#
# PCOD8127298 Si02
#       7
#     4   4   4   4   4   4   4
#     4  10  22  43  63  93 136 166 213 268 318 384
#     4  11  25  41  68  93 125 173 210 266 323 378
#     4  10  22  42  63  94 131 164 216 260 318 385
#     4  10  22  41  65  93 133 166 208 270 312 377
#     4  11  23  41  67  95 125 171 217 262 322 386
#     4  11  24  43  62  95 129 165 218 264 317 383
#     4  11  24  42  66  94 130 170 215 267 320 387
#
# _framework density 20.105166000000001
#
# number of rings (size 3 to 8) (size 9 to 14) (size 15 to 20)
#    0.000    1.429    4.286    0.000    2.000    6.286 
#    0.000    0.000    0.000    0.000    0.000    0.000 
#    0.000    0.000    0.000    0.000    0.000    0.000 
#
# Total GULP energy -347155.708429 kJ/mol
# GULP energy per Si atom -12398.418158 kJ/mol
# Density = 2.005941 g / cm^3
# Si number density = 20.105166 Si / 1000 Ang^3
#
#
#
# Elastic Constant Matrix: (Units=GPa)
#
#
# Indices 1 2 3 4 5 6 
#
# 1 91.4298 38.3678 33.8572 0.0000 1.3001 0.0000
# 2 38.3678 112.5575 46.6864 0.0000 5.9646 0.0000
# 3 33.8572 46.6864 100.4985 0.0000 2.3570 0.0000
# 4 0.0000 0.0000 0.0000 27.2944 0.0000 -8.4531
# 5 1.3001 5.9646 2.3570 0.0000 27.9684 0.0000
# 6 0.0000 0.0000 0.0000 -8.4531 0.0000 43.5739
#
#
#
# Elastic Compliance Matrix: (Units=1/GPa)
#
#
# Indices 1 2 3 4 5 6 
#
# 1 0.013447 -0.003369 -0.002973 0.000000 0.000344 0.000000
# 2 -0.003369 0.011953 -0.004370 0.000000 -0.002024 0.000000
# 3 -0.002973 -0.004370 0.012983 0.000000 -0.000024 0.000000
# 4 0.000000 0.000000 0.000000 0.038979 0.000000 0.007562
# 5 0.000344 -0.002024 -0.000024 0.000000 0.036172 0.000000
# 6 0.000000 0.000000 0.000000 0.007562 0.000000 0.024416
#
#
# Mechanical properties :
#
#
# Convention : Reuss Voigt Hill
#
# Bulk Modulus (GPa) = 58.96916 60.25652 59.61284
# Shear Modulus (GPa) = 30.29786 32.13896 31.21841
#
# Velocity S-wave (km/s) = 3.88618 4.00251 3.94478
# Velocity P-wave (km/s) = 7.03780 7.16909 7.10375
#
# Compressibility (1/GPa) = 0.01695802
#
# Stress axis : x y z
#
# Youngs Moduli (GPa) = 74.36495 83.66399 77.02479
#
# Poissons Ratio (x) = 0.28184 0.22903
# Poissons Ratio (y) = 0.25051 0.33661
# Poissons Ratio (z) = 0.22112 0.36563
#
# Static dielectric constant tensor:
#      x y z
#    x 3.460860 0.000000 -0.191320 
#    y 0.000000 3.908250 0.000000 
#    z -0.191320 0.000000 3.376050 
# 
# 
# High freq. dielectric constant tensor:
#      x y z
#    x 1.800710 0.000000 -0.026590 
#    y 0.000000 1.797570 0.000000 
#    z -0.026590 0.000000 1.762800 
# 
# From -- ./inp_files/48094.got.cif
#   From: 2010.03.12/outbox.cif.g09.slc.cpg/sg14_25_cif.got.tgz:48094.got - 2010.03.31 13:35:05.
