data_PCOD8127152
_publ_section_title
;
Structure prediction by ZEFSAII (Michael W. Deem and Ramdas Pophale) SiO2 
 PCOD8127152
Probable space group: P 21/C
;
_chemical_formula_sum "Si O2"
_cell_formula_units_Z 28
_cell_length_a 11.577452
_cell_length_b 9.477355
_cell_length_c 14.148410
_cell_angle_alpha 90.000000
_cell_angle_beta 120.362309
_cell_angle_gamma 90.000000
_cell_volume 1339.495471
_symmetry_space_group_name_H-M "P 21/C"
_symmetry_group_IT_number 14
_symmetry_cell_setting 'monoclinic'
loop_
_space_group_symop_operation_xyz
x,y,z
-x,1/2+y,1/2-z
-x,-y,-z
x,1/2-y,1/2+z
loop_
_atom_site_type_symbol
_atom_site_label
_atom_site_fract_x
_atom_site_fract_y
_atom_site_fract_z
Si Si1 0.300980 0.344523 0.796177
Si Si2 0.956317 0.315622 0.896882
Si Si3 0.860017 0.886377 0.373553
Si Si4 0.703891 0.359312 0.296596
Si Si5 0.513469 0.342157 0.603731
Si Si6 0.540961 0.148171 0.901989
Si Si7 0.246030 0.184888 0.479273
O O1 0.189745 0.227226 0.723461
O O2 0.293841 0.476348 0.724869
O O3 0.444384 0.276230 0.835736
O O4 0.287419 0.397040 0.899917
O O5 0.885972 0.462861 0.834195
O O6 0.851270 0.193560 0.834619
O O7 0.091011 0.268847 0.896042
O O8 0.997030 0.333018 0.024655
O O9 0.756373 0.902171 0.421872
O O10 0.588018 0.278850 0.191913
O O11 0.674940 0.337369 0.395529
O O12 0.531825 0.498721 0.654365
O O13 0.579962 0.345634 0.527611
O O14 0.353024 0.311977 0.533253
#
# Coordination Sequence:
#
# PCOD8127152 Si02
#       7
#     4   4   4   4   4   4   4
#     4  11  23  37  63  90 119 151 199 244 297 331
#     4   9  22  40  62  84 118 158 199 228 305 346
#     4   9  19  42  59  82 116 163 186 236 293 354
#     4  12  23  37  60  97 115 150 197 253 284 349
#     4  10  22  41  62  84 121 157 200 233 300 343
#     4  10  22  40  60  88 118 161 191 239 294 359
#     4   9  20  40  61  89 115 155 195 244 283 356
#
# _framework density 20.903392
#
# number of rings (size 3 to 8) (size 9 to 14) (size 15 to 20)
#    0.857    1.143    0.000    3.429    0.000    6.286 
#    2.571    0.000    0.000    0.000    0.000    0.000 
#    0.000    0.000    0.000    0.000    0.000    0.000 
#
# Total GULP energy -346877.977882 kJ/mol
# GULP energy per Si atom -12388.499210 kJ/mol
# Density = 2.085582 g / cm^3
# Si number density = 20.903392 Si / 1000 Ang^3
#
#
#
# Elastic Constant Matrix: (Units=GPa)
#
#
# Indices 1 2 3 4 5 6 
#
# 1 126.1610 37.9806 27.0112 0.0000 -3.8102 0.0000
# 2 37.9806 80.5713 13.0830 0.0000 -2.7797 0.0000
# 3 27.0112 13.0830 40.6375 0.0000 -13.2584 0.0000
# 4 0.0000 0.0000 0.0000 31.2846 0.0000 3.0575
# 5 -3.8102 -2.7797 -13.2584 0.0000 21.3239 0.0000
# 6 0.0000 0.0000 0.0000 3.0575 0.0000 24.5117
#
#
#
# Elastic Compliance Matrix: (Units=1/GPa)
#
#
# Indices 1 2 3 4 5 6 
#
# 1 0.010436 -0.003949 -0.006555 0.000000 -0.002725 0.000000
# 2 -0.003949 0.014613 -0.002118 0.000000 -0.000118 0.000000
# 3 -0.006555 -0.002118 0.036598 0.000000 0.021308 0.000000
# 4 0.000000 0.000000 0.000000 0.032359 0.000000 -0.004036
# 5 -0.002725 -0.000118 0.021308 0.000000 0.059642 0.000000
# 6 0.000000 0.000000 0.000000 -0.004036 0.000000 0.041300
#
#
# Mechanical properties :
#
#
# Convention : Reuss Voigt Hill
#
# Bulk Modulus (GPa) = 27.46944 44.83550 36.15247
# Shear Modulus (GPa) = 21.52133 26.71037 24.11585
#
# Velocity S-wave (km/s) = 3.21216 3.57851 3.40027
# Velocity P-wave (km/s) = 5.18912 6.21046 5.72262
#
# Compressibility (1/GPa) = 0.03640409
#
# Stress axis : x y z
#
# Youngs Moduli (GPa) = 95.81883 68.43282 27.32354
#
# Poissons Ratio (x) = 0.27026 0.17910
# Poissons Ratio (y) = 0.37842 0.05787
# Poissons Ratio (z) = 0.62806 0.14493
#
# Static dielectric constant tensor:
#      x y z
#    x 3.748230 0.000000 -0.062450 
#    y 0.000000 3.575550 0.000000 
#    z -0.062450 0.000000 3.667750 
# 
# 
# High freq. dielectric constant tensor:
#      x y z
#    x 1.814520 0.000000 -0.003870 
#    y 0.000000 1.804680 0.000000 
#    z -0.003870 0.000000 1.809810 
# 
# From -- ./inp_files/43810.got.cif
#   From: 2010.03.12/outbox.cif.g09.slc.cpg/sg14_22_cif.got.tgz:43810.got - 2010.03.31 13:35:05.
