data_PCOD8127786
_publ_section_title
;
Structure prediction by ZEFSAII (Michael W. Deem and Ramdas Pophale) SiO2 
 PCOD8127786
Probable space group: P 21/C
;
_chemical_formula_sum "Si O2"
_cell_formula_units_Z 28
_cell_length_a 19.601505
_cell_length_b 8.736469
_cell_length_c 12.282842
_cell_angle_alpha 90.000000
_cell_angle_beta 143.235291
_cell_angle_gamma 90.000000
_cell_volume 1258.955412
_symmetry_space_group_name_H-M "P 21/C"
_symmetry_group_IT_number 14
_symmetry_cell_setting 'monoclinic'
loop_
_space_group_symop_operation_xyz
x,y,z
-x,1/2+y,1/2-z
-x,-y,-z
x,1/2-y,1/2+z
loop_
_atom_site_type_symbol
_atom_site_label
_atom_site_fract_x
_atom_site_fract_y
_atom_site_fract_z
Si Si1 0.696003 0.867615 0.816064
Si Si2 0.466283 0.365441 0.608029
Si Si3 0.672980 0.966503 0.268066
Si Si4 0.226327 0.529115 0.771529
Si Si5 0.477051 0.002872 0.601340
Si Si6 0.879276 0.414229 0.574957
Si Si7 0.884253 0.079723 0.643175
O O1 0.679616 0.697434 0.840383
O O2 0.757248 0.866235 0.773362
O O3 0.571020 0.948523 0.627729
O O4 0.777504 0.977133 0.994343
O O5 0.367348 0.437906 0.406333
O O6 0.589300 0.421362 0.724494
O O7 0.464086 0.183022 0.602445
O O8 0.445309 0.430047 0.701669
O O9 0.798578 0.038730 0.435105
O O10 0.153422 0.633163 0.592572
O O11 0.161514 0.510482 0.801727
O O12 0.356672 0.589909 0.954322
O O13 0.893197 0.262927 0.665148
O O14 0.994896 0.509124 0.729061
#
# Coordination Sequence:
#
# PCOD8127786 Si02
#       7
#     4   4   4   4   4   4   4
#     4  10  23  41  66  96 133 172 218 275 328 396
#     4  11  24  38  62  98 131 181 212 279 317 401
#     4  11  23  41  63  94 136 169 231 267 327 387
#     4  10  24  42  70  96 133 177 210 277 335 393
#     4  12  22  41  66  97 139 174 222 263 345 385
#     4  10  25  43  72  94 128 173 223 274 326 399
#     4  12  23  48  68  96 130 177 221 276 336 390
#
# _framework density 22.240660999999999
#
# number of rings (size 3 to 8) (size 9 to 14) (size 15 to 20)
#    0.857    0.286    2.857    3.429    0.000    2.286 
#    0.000    0.714    0.000    0.000    0.000    0.000 
#    0.000    0.000    0.000    0.000    0.000    0.000 
#
# Total GULP energy -346887.647426 kJ/mol
# GULP energy per Si atom -12388.844551 kJ/mol
# Density = 2.219004 g / cm^3
# Si number density = 22.240661 Si / 1000 Ang^3
#
#
#
# Elastic Constant Matrix: (Units=GPa)
#
#
# Indices 1 2 3 4 5 6 
#
# 1 38.7038 21.6627 26.2859 0.0000 9.7639 0.0000
# 2 21.6627 111.5343 47.9791 0.0000 8.3988 0.0000
# 3 26.2859 47.9791 141.1703 0.0000 26.1948 0.0000
# 4 0.0000 0.0000 0.0000 38.0679 0.0000 2.3904
# 5 9.7639 8.3988 26.1948 0.0000 40.6288 0.0000
# 6 0.0000 0.0000 0.0000 2.3904 0.0000 27.1006
#
#
#
# Elastic Compliance Matrix: (Units=1/GPa)
#
#
# Indices 1 2 3 4 5 6 
#
# 1 0.031825 -0.004277 -0.003654 0.000000 -0.004408 0.000000
# 2 -0.004277 0.011077 -0.003106 0.000000 0.000740 0.000000
# 3 -0.003654 -0.003106 0.009698 0.000000 -0.004732 0.000000
# 4 0.000000 0.000000 0.000000 0.026415 0.000000 -0.002330
# 5 -0.004408 0.000740 -0.004732 0.000000 0.028570 0.000000
# 6 0.000000 0.000000 0.000000 -0.002330 0.000000 0.037105
#
#
# Mechanical properties :
#
#
# Convention : Reuss Voigt Hill
#
# Bulk Modulus (GPa) = 32.75974 53.69597 43.22786
# Shear Modulus (GPa) = 28.25828 34.19152 31.22490
#
# Velocity S-wave (km/s) = 3.56837 3.92515 3.75100
# Velocity P-wave (km/s) = 5.63377 6.68864 6.18374
#
# Compressibility (1/GPa) = 0.03052527
#
# Stress axis : x y z
#
# Youngs Moduli (GPa) = 31.42180 90.27877 103.11807
#
# Poissons Ratio (x) = 0.38615 0.37681
# Poissons Ratio (y) = 0.13440 0.32024
# Poissons Ratio (z) = 0.11482 0.28037
#
# Static dielectric constant tensor:
#      x y z
#    x 3.913220 0.000000 -0.109310 
#    y 0.000000 3.773410 0.000000 
#    z -0.109310 0.000000 4.503830 
# 
# 
# High freq. dielectric constant tensor:
#      x y z
#    x 1.858990 0.000000 0.000430 
#    y 0.000000 1.859580 0.000000 
#    z 0.000430 0.000000 1.901510 
# 
# From -- ./inp_files/51165.got.cif
#   From: 2010.03.12/outbox.cif.g09.slc.cpg/sg14_26_cif.got.tgz:51165.got - 2010.03.31 13:35:05.
