data_PCOD8127958
_publ_section_title
;
Structure prediction by ZEFSAII (Michael W. Deem and Ramdas Pophale) SiO2 
 PCOD8127958
Probable space group: P 21/C
;
_chemical_formula_sum "Si O2"
_cell_formula_units_Z 32
_cell_length_a 11.355207
_cell_length_b 9.162853
_cell_length_c 25.141306
_cell_angle_alpha 90.000000
_cell_angle_beta 147.786987
_cell_angle_gamma 90.000000
_cell_volume 1394.429582
_symmetry_space_group_name_H-M "P 21/C"
_symmetry_group_IT_number 14
_symmetry_cell_setting 'monoclinic'
loop_
_space_group_symop_operation_xyz
x,y,z
-x,1/2+y,1/2-z
-x,-y,-z
x,1/2-y,1/2+z
loop_
_atom_site_type_symbol
_atom_site_label
_atom_site_fract_x
_atom_site_fract_y
_atom_site_fract_z
Si Si1 0.790396 0.925274 0.395354
Si Si2 0.229480 0.587180 0.912765
Si Si3 0.447385 0.614427 0.367580
Si Si4 0.239074 0.369070 0.231166
Si Si5 0.893014 0.361210 0.253548
Si Si6 0.794683 0.596407 0.407511
Si Si7 0.649272 0.733711 0.044333
Si Si8 0.645989 0.546831 0.238991
O O1 0.733097 0.968234 0.311958
O O2 0.863509 0.758069 0.417728
O O3 0.588797 0.964205 0.358829
O O4 0.000000 0.000000 0.500000
O O5 0.186520 0.578183 0.833154
O O6 0.268591 0.421596 0.949299
O O7 0.022628 0.662113 0.862289
O O8 0.445785 0.689326 0.005957
O O9 0.332586 0.455273 0.318654
O O10 0.248541 0.724811 0.280492
O O11 0.632351 0.617489 0.394069
O O12 0.560593 0.650521 0.467048
O O13 0.376571 0.219396 0.280276
O O14 0.843513 0.487596 0.277414
O O15 0.150949 0.315781 0.349431
O O16 0.693122 0.513955 0.318443
O O17 0.000000 0.500000 0.500000
#
# Coordination Sequence:
#
# PCOD8127958 Si02
#       8
#     4   4   4   4   4   4   4   4
#     4  11  26  42  66 101 140 190 228 284 364 418
#     4  10  24  44  72 105 143 186 236 302 357 420
#     4  11  22  42  72 100 136 187 236 284 354 430
#     4  11  25  45  69 100 147 181 236 298 353 419
#     4  11  23  44  73 100 142 190 236 289 358 429
#     4  11  24  41  68 100 135 181 235 289 344 424
#     4  10  23  43  74 104 133 191 239 289 362 431
#     4  11  25  45  67 101 145 183 231 297 352 421
#
# _framework density 22.948452
#
# number of rings (size 3 to 8) (size 9 to 14) (size 15 to 20)
#    0.000    1.250    3.750    0.750    5.250    2.000 
#    0.000    1.250    0.000    0.000    0.000    0.000 
#    0.000    0.000    0.000    0.000    0.000    0.000 
#
# Total GULP energy -396624.269125 kJ/mol
# GULP energy per Si atom -12394.508410 kJ/mol
# Density = 2.289622 g / cm^3
# Si number density = 22.948452 Si / 1000 Ang^3
#
#
#
# Elastic Constant Matrix: (Units=GPa)
#
#
# Indices 1 2 3 4 5 6 
#
# 1 79.6939 24.7484 26.5142 0.0000 23.1169 0.0000
# 2 24.7484 95.6268 57.5492 0.0000 -2.0352 0.0000
# 3 26.5142 57.5492 131.5621 0.0000 20.8225 0.0000
# 4 0.0000 0.0000 0.0000 38.0483 0.0000 4.2646
# 5 23.1169 -2.0352 20.8225 0.0000 25.7951 0.0000
# 6 0.0000 0.0000 0.0000 4.2646 0.0000 37.0133
#
#
#
# Elastic Compliance Matrix: (Units=1/GPa)
#
#
# Indices 1 2 3 4 5 6 
#
# 1 0.019752 -0.006851 0.002182 0.000000 -0.020003 0.000000
# 2 -0.006851 0.017776 -0.008701 0.000000 0.014565 0.000000
# 3 0.002182 -0.008701 0.013053 0.000000 -0.013179 0.000000
# 4 0.000000 0.000000 0.000000 0.026626 0.000000 -0.003068
# 5 -0.020003 0.014565 -0.013179 0.000000 0.068480 0.000000
# 6 0.000000 0.000000 0.000000 -0.003068 0.000000 0.027371
#
#
# Mechanical properties :
#
#
# Convention : Reuss Voigt Hill
#
# Bulk Modulus (GPa) = 41.94187 58.27848 50.11018
# Shear Modulus (GPa) = 24.06803 33.37606 28.72205
#
# Velocity S-wave (km/s) = 3.24201 3.81779 3.54162
# Velocity P-wave (km/s) = 5.68598 6.69959 6.21349
#
# Compressibility (1/GPa) = 0.02384252
#
# Stress axis : x y z
#
# Youngs Moduli (GPa) = 50.62841 56.25458 76.61130
#
# Poissons Ratio (x) = 0.38538 -0.16716
# Poissons Ratio (y) = 0.34683 0.66656
# Poissons Ratio (z) = -0.11047 0.48944
#
# Static dielectric constant tensor:
#      x y z
#    x 4.310110 0.000000 0.188750 
#    y 0.000000 4.077330 0.000000 
#    z 0.188750 0.000000 4.205920 
# 
# 
# High freq. dielectric constant tensor:
#      x y z
#    x 1.904680 0.000000 0.012710 
#    y 0.000000 1.903080 0.000000 
#    z 0.012710 0.000000 1.911580 
# 
# From -- ./inp_files/80028.got.cif
#   From: 2010.03.12/outbox.cif.g09.slc.cpg/sg14_41_cif.got.tgz:80028.got - 2010.03.31 13:35:05.
