data_PCOD8127965
_publ_section_title
;
Structure prediction by ZEFSAII (Michael W. Deem and Ramdas Pophale) SiO2 
 PCOD8127965
Probable space group: P 21/C
;
_chemical_formula_sum "Si O2"
_cell_formula_units_Z 32
_cell_length_a 8.922921
_cell_length_b 10.416416
_cell_length_c 29.722865
_cell_angle_alpha 90.000000
_cell_angle_beta 149.838598
_cell_angle_gamma 90.000000
_cell_volume 1388.027812
_symmetry_space_group_name_H-M "P 21/C"
_symmetry_group_IT_number 14
_symmetry_cell_setting 'monoclinic'
loop_
_space_group_symop_operation_xyz
x,y,z
-x,1/2+y,1/2-z
-x,-y,-z
x,1/2-y,1/2+z
loop_
_atom_site_type_symbol
_atom_site_label
_atom_site_fract_x
_atom_site_fract_y
_atom_site_fract_z
Si Si1 0.225794 0.070406 0.904539
Si Si2 0.828517 0.429420 0.832658
Si Si3 0.395076 0.251166 0.595822
Si Si4 0.928873 0.312284 0.407019
Si Si5 0.083912 0.536796 0.764021
Si Si6 0.332118 0.353008 0.898157
Si Si7 0.009970 0.589043 0.958077
Si Si8 0.528526 0.981474 0.169432
O O1 0.320094 0.200502 0.902704
O O2 0.001721 0.087099 0.887345
O O3 0.037959 0.995724 0.817218
O O4 0.500000 0.000000 0.000000
O O5 0.734056 0.297107 0.832394
O O6 0.576495 0.463874 0.731621
O O7 0.155878 0.418950 0.893987
O O8 0.808804 0.534345 0.866216
O O9 0.660122 0.146821 0.669237
O O10 0.489313 0.398448 0.625715
O O11 0.231350 0.244547 0.504724
O O12 0.142181 0.222905 0.567748
O O13 0.749329 0.383134 0.400690
O O14 0.184176 0.402333 0.813026
O O15 0.813257 0.595249 0.723885
O O16 0.671394 0.395529 0.982259
O O17 0.000000 0.500000 0.000000
#
# Coordination Sequence:
#
# PCOD8127965 Si02
#       8
#     4   4   4   4   4   4   4   4
#     4  11  26  43  72 105 144 187 239 302 369 434
#     4  10  23  44  64 101 139 186 241 295 367 438
#     4  12  25  45  72 107 146 190 248 302 363 446
#     4  11  24  46  70 101 151 182 240 303 365 435
#     4  11  23  47  72  99 144 199 248 293 365 435
#     4  10  23  44  68  99 143 191 242 303 366 435
#     4  12  23  40  72 102 137 188 245 303 361 431
#     4  11  27  43  71 103 145 192 238 307 368 429
#
# _framework density 23.054293000000001
#
# number of rings (size 3 to 8) (size 9 to 14) (size 15 to 20)
#    0.000    1.000    2.500    3.750    7.000    3.000 
#    2.250    1.250    0.000    0.000    0.000    0.000 
#    0.000    0.000    0.000    0.000    0.000    0.000 
#
# Total GULP energy -396494.665520 kJ/mol
# GULP energy per Si atom -12390.458298 kJ/mol
# Density = 2.300182 g / cm^3
# Si number density = 23.054293 Si / 1000 Ang^3
#
#
#
# Elastic Constant Matrix: (Units=GPa)
#
#
# Indices 1 2 3 4 5 6 
#
# 1 83.5374 44.8143 39.2266 0.0000 -6.6213 0.0000
# 2 44.8143 74.4010 36.8286 0.0000 4.8150 0.0000
# 3 39.2266 36.8286 118.5906 0.0000 -16.3782 0.0000
# 4 0.0000 0.0000 0.0000 39.8936 0.0000 -7.0273
# 5 -6.6213 4.8150 -16.3782 0.0000 43.4503 0.0000
# 6 0.0000 0.0000 0.0000 -7.0273 0.0000 46.7155
#
#
#
# Elastic Compliance Matrix: (Units=1/GPa)
#
#
# Indices 1 2 3 4 5 6 
#
# 1 0.018998 -0.010324 -0.002659 0.000000 0.003037 0.000000
# 2 -0.010324 0.022116 -0.004229 0.000000 -0.005618 0.000000
# 3 -0.002659 -0.004229 0.011218 0.000000 0.004292 0.000000
# 4 0.000000 0.000000 0.000000 0.025749 0.000000 0.003873
# 5 0.003037 -0.005618 0.004292 0.000000 0.025718 0.000000
# 6 0.000000 0.000000 0.000000 0.003873 0.000000 0.021989
#
#
# Mechanical properties :
#
#
# Convention : Reuss Voigt Hill
#
# Bulk Modulus (GPa) = 55.83820 57.58535 56.71177
# Shear Modulus (GPa) = 30.08770 36.38917 33.23843
#
# Velocity S-wave (km/s) = 3.61651 3.97723 3.80115
# Velocity P-wave (km/s) = 6.45846 6.79143 6.62704
#
# Compressibility (1/GPa) = 0.01790889
#
# Stress axis : x y z
#
# Youngs Moduli (GPa) = 52.63709 45.21580 89.14290
#
# Poissons Ratio (x) = 0.46680 0.23699
# Poissons Ratio (y) = 0.54341 0.37702
# Poissons Ratio (z) = 0.13994 0.19123
#
# Static dielectric constant tensor:
#      x y z
#    x 4.421600 0.000000 0.044030 
#    y 0.000000 4.084460 0.000000 
#    z 0.044030 0.000000 4.315340 
# 
# 
# High freq. dielectric constant tensor:
#      x y z
#    x 1.922230 0.000000 -0.006560 
#    y 0.000000 1.898290 0.000000 
#    z -0.006560 0.000000 1.914090 
# 
# From -- ./inp_files/79657.got.cif
#   From: 2010.03.12/outbox.cif.g09.slc.cpg/sg14_40_cif.got.tgz:79657.got - 2010.03.31 13:35:05.
