data_PCOD8127209
_publ_section_title
;
Structure prediction by ZEFSAII (Michael W. Deem and Ramdas Pophale) SiO2 
 PCOD8127209
Probable space group: P 21/C
;
_chemical_formula_sum "Si O2"
_cell_formula_units_Z 32
_cell_length_a 22.716546
_cell_length_b 10.708332
_cell_length_c 9.076645
_cell_angle_alpha 90.000000
_cell_angle_beta 42.842693
_cell_angle_gamma 90.000000
_cell_volume 1501.379992
_symmetry_space_group_name_H-M "P 21/C"
_symmetry_group_IT_number 14
_symmetry_cell_setting 'monoclinic'
loop_
_space_group_symop_operation_xyz
x,y,z
-x,1/2+y,1/2-z
-x,-y,-z
x,1/2-y,1/2+z
loop_
_atom_site_type_symbol
_atom_site_label
_atom_site_fract_x
_atom_site_fract_y
_atom_site_fract_z
Si Si1 0.966578 0.614374 0.721043
Si Si2 0.156431 0.835062 0.804041
Si Si3 0.449219 0.104115 0.406557
Si Si4 0.125693 0.287946 0.395277
Si Si5 0.258622 0.026251 0.783857
Si Si6 0.844571 0.405508 0.019696
Si Si7 0.547100 0.645706 0.757678
Si Si8 0.738648 0.919263 0.896064
O O1 0.916187 0.637624 0.661907
O O2 0.933215 0.483894 0.848448
O O3 0.067492 0.593752 0.506372
O O4 0.950177 0.725298 0.868024
O O5 0.177572 0.838648 0.592645
O O6 0.236453 0.895550 0.745417
O O7 0.143666 0.691963 0.870592
O O8 0.348168 0.081299 0.557148
O O9 0.465525 0.144058 0.544566
O O10 0.486430 0.219936 0.241292
O O11 0.498305 0.974508 0.277637
O O12 0.180845 0.378960 0.396368
O O13 0.189990 0.186368 0.208530
O O14 0.267794 0.001020 0.941445
O O15 0.765098 0.495569 0.208785
O O16 0.646743 0.639570 0.525140
#
# Coordination Sequence:
#
# PCOD8127209 Si02
#       8
#     4   4   4   4   4   4   4   4
#     4  11  24  39  63  91 125 162 217 264 320 375
#     4  12  25  41  61  87 132 165 215 266 322 377
#     4  10  23  41  68  98 135 167 218 260 329 386
#     4  11  20  37  64  92 118 162 207 265 308 372
#     4  11  22  39  64  91 125 167 208 263 314 377
#     4  11  25  41  60  89 121 170 208 263 321 379
#     4  10  22  42  67 100 132 169 211 272 317 397
#     4  10  22  40  65  92 123 162 216 256 317 381
#
# _framework density 21.313725000000002
#
# number of rings (size 3 to 8) (size 9 to 14) (size 15 to 20)
#    0.000    1.250    3.750    1.875    1.750    2.500 
#    0.000    5.625    0.000    0.000    0.000    0.000 
#    0.000    0.000    0.000    0.000    0.000    0.000 
#
# Total GULP energy -396895.375074 kJ/mol
# GULP energy per Si atom -12402.980471 kJ/mol
# Density = 2.126521 g / cm^3
# Si number density = 21.313725 Si / 1000 Ang^3
#
#
#
# Elastic Constant Matrix: (Units=GPa)
#
#
# Indices 1 2 3 4 5 6 
#
# 1 71.3634 40.5207 19.7706 0.0000 -2.2218 0.0000
# 2 40.5207 127.6527 30.0610 0.0000 4.2042 0.0000
# 3 19.7706 30.0610 69.4589 0.0000 2.4521 0.0000
# 4 0.0000 0.0000 0.0000 37.7487 0.0000 10.1928
# 5 -2.2218 4.2042 2.4521 0.0000 22.4724 0.0000
# 6 0.0000 0.0000 0.0000 10.1928 0.0000 36.9752
#
#
#
# Elastic Compliance Matrix: (Units=1/GPa)
#
#
# Indices 1 2 3 4 5 6 
#
# 1 0.017801 -0.005046 -0.002990 0.000000 0.003030 0.000000
# 2 -0.005046 0.010187 -0.002899 0.000000 -0.002088 0.000000
# 3 -0.002990 -0.002899 0.016558 0.000000 -0.001560 0.000000
# 4 0.000000 0.000000 0.000000 0.028621 0.000000 -0.007890
# 5 0.003030 -0.002088 -0.001560 0.000000 0.045360 0.000000
# 6 0.000000 0.000000 0.000000 -0.007890 0.000000 0.029220
#
#
# Mechanical properties :
#
#
# Convention : Reuss Voigt Hill
#
# Bulk Modulus (GPa) = 44.09982 49.90887 47.00435
# Shear Modulus (GPa) = 28.22079 31.31412 29.76745
#
# Velocity S-wave (km/s) = 3.64272 3.83717 3.74121
# Velocity P-wave (km/s) = 6.19905 6.56498 6.38464
#
# Compressibility (1/GPa) = 0.02267583
#
# Stress axis : x y z
#
# Youngs Moduli (GPa) = 56.17763 98.16464 60.39518
#
# Poissons Ratio (x) = 0.49536 0.18057
# Poissons Ratio (y) = 0.28348 0.17507
# Poissons Ratio (z) = 0.16796 0.28455
#
# Static dielectric constant tensor:
#      x y z
#    x 3.656100 0.000000 -0.001460 
#    y 0.000000 3.923740 0.000000 
#    z -0.001460 0.000000 3.885960 
# 
# 
# High freq. dielectric constant tensor:
#      x y z
#    x 1.823280 0.000000 0.005550 
#    y 0.000000 1.845490 0.000000 
#    z 0.005550 0.000000 1.834710 
# 
# From -- ./inp_files/19480.got.cif
#   From: 2010.03.12/outbox.cif.g09.slc.cpg/sg14_10_cif.got.tgz:19480.got - 2010.03.31 13:35:05.
