data_PCOD8127356
_publ_section_title
;
Structure prediction by ZEFSAII (Michael W. Deem and Ramdas Pophale) SiO2 
 PCOD8127356
Probable space group: P 21/C
;
_chemical_formula_sum "Si O2"
_cell_formula_units_Z 16
_cell_length_a 9.873150
_cell_length_b 13.136392
_cell_length_c 9.563625
_cell_angle_alpha 90.000000
_cell_angle_beta 40.309831
_cell_angle_gamma 90.000000
_cell_volume 802.426707
_symmetry_space_group_name_H-M "P 21/C"
_symmetry_group_IT_number 14
_symmetry_cell_setting 'monoclinic'
loop_
_space_group_symop_operation_xyz
x,y,z
-x,1/2+y,1/2-z
-x,-y,-z
x,1/2-y,1/2+z
loop_
_atom_site_type_symbol
_atom_site_label
_atom_site_fract_x
_atom_site_fract_y
_atom_site_fract_z
Si Si1 0.662605 0.342182 0.611383
Si Si2 0.120447 0.795046 0.781414
Si Si3 0.909914 0.974355 0.792357
Si Si4 0.804463 0.621382 0.094992
O O1 0.708796 0.324852 0.737637
O O2 0.761342 0.250451 0.445038
O O3 0.751334 0.450508 0.494007
O O4 0.414655 0.339997 0.790503
O O5 0.989885 0.894004 0.842102
O O6 0.963440 0.714935 0.973867
O O7 0.779518 0.919675 0.772054
O O8 0.110994 0.032483 0.572076
#
# Coordination Sequence:
#
# PCOD8127356 Si02
#       4
#     4   4   4   4
#     4  11  24  38  66  90 121 166 200 243 309 354
#     4  11  23  41  61  94 124 156 205 252 292 363
#     4  10  22  42  61  89 127 154 203 253 298 356
#     4  10  23  41  63  91 124 159 198 254 300 356
#
# _framework density 19.939516000000001
#
# number of rings (size 3 to 8) (size 9 to 14) (size 15 to 20)
#    0.000    1.500    2.500    1.500    3.500    3.000 
#    0.000    0.000    0.000    0.000    0.000    0.000 
#    0.000    0.000    0.000    0.000    0.000    0.000 
#
# Total GULP energy -198522.243191 kJ/mol
# GULP energy per Si atom -12407.640199 kJ/mol
# Density = 1.989413 g / cm^3
# Si number density = 19.939516 Si / 1000 Ang^3
#
#
#
# Elastic Constant Matrix: (Units=GPa)
#
#
# Indices 1 2 3 4 5 6 
#
# 1 105.4874 38.8197 6.7480 0.0000 5.6432 0.0000
# 2 38.8197 76.1619 9.2479 0.0000 2.0910 0.0000
# 3 6.7480 9.2479 25.6225 0.0000 2.6443 0.0000
# 4 0.0000 0.0000 0.0000 11.0817 0.0000 5.8074
# 5 5.6432 2.0910 2.6443 0.0000 35.6771 0.0000
# 6 0.0000 0.0000 0.0000 5.8074 0.0000 35.5269
#
#
#
# Elastic Compliance Matrix: (Units=1/GPa)
#
#
# Indices 1 2 3 4 5 6 
#
# 1 0.011766 -0.005856 -0.000835 0.000000 -0.001456 0.000000
# 2 -0.005856 0.016653 -0.004498 0.000000 0.000284 0.000000
# 3 -0.000835 -0.004498 0.041145 0.000000 -0.002654 0.000000
# 4 0.000000 0.000000 0.000000 0.098693 0.000000 -0.016133
# 5 -0.001456 0.000284 -0.002654 0.000000 0.028440 0.000000
# 6 0.000000 0.000000 0.000000 -0.016133 0.000000 0.030785
#
#
# Mechanical properties :
#
#
# Convention : Reuss Voigt Hill
#
# Bulk Modulus (GPa) = 21.19200 35.21145 28.20172
# Shear Modulus (GPa) = 18.82615 26.62089 22.72352
#
# Velocity S-wave (km/s) = 3.07606 3.65784 3.37949
# Velocity P-wave (km/s) = 4.82363 5.96131 5.42239
#
# Compressibility (1/GPa) = 0.04718762
#
# Stress axis : x y z
#
# Youngs Moduli (GPa) = 84.99024 60.04941 24.30411
#
# Poissons Ratio (x) = 0.35164 0.02029
# Poissons Ratio (y) = 0.49769 0.10931
# Poissons Ratio (z) = 0.07096 0.27008
#
# Static dielectric constant tensor:
#      x y z
#    x 3.564910 0.000000 0.093830 
#    y 0.000000 3.789350 0.000000 
#    z 0.093830 0.000000 3.456570 
# 
# 
# High freq. dielectric constant tensor:
#      x y z
#    x 1.788250 0.000000 0.006770 
#    y 0.000000 1.792370 0.000000 
#    z 0.006770 0.000000 1.769250 
# 
# From -- ./inp_files/4868.got.cif
#   From: 2010.03.12/outbox.cif.g09.slc.cpg/sg14_3_cif.got.tgz:4868.got - 2010.03.31 13:35:05.
