data_PCOD8127907
_publ_section_title
;
Structure prediction by ZEFSAII (Michael W. Deem and Ramdas Pophale) SiO2 
 PCOD8127907
Probable space group: P 21/C
;
_chemical_formula_sum "Si O2"
_cell_formula_units_Z 24
_cell_length_a 11.286904
_cell_length_b 18.835715
_cell_length_c 7.459054
_cell_angle_alpha 90.000000
_cell_angle_beta 131.365524
_cell_angle_gamma 90.000000
_cell_volume 1190.135790
_symmetry_space_group_name_H-M "P 21/C"
_symmetry_group_IT_number 14
_symmetry_cell_setting 'monoclinic'
loop_
_space_group_symop_operation_xyz
x,y,z
-x,1/2+y,1/2-z
-x,-y,-z
x,1/2-y,1/2+z
loop_
_atom_site_type_symbol
_atom_site_label
_atom_site_fract_x
_atom_site_fract_y
_atom_site_fract_z
Si Si1 0.681767 0.175329 0.009906
Si Si2 0.183162 0.178656 0.890497
Si Si3 0.814455 0.080334 0.850111
Si Si4 0.185545 0.080334 0.221202
Si Si5 0.183161 0.678656 0.975827
Si Si6 0.681767 0.675329 0.853627
O O1 0.716491 0.157121 0.250594
O O2 0.722280 0.106333 0.933482
O O3 0.789253 0.240155 0.051321
O O4 0.500000 0.196515 0.804357
O O5 0.283510 0.157122 0.817614
O O6 0.210747 0.259846 0.972816
O O7 0.000000 0.168022 0.662354
O O8 0.238517 0.127778 0.105861
O O9 0.761483 0.127778 0.628825
O O10 0.762718 1.000000 0.762718
O O11 1.000000 0.086869 0.071569
O O12 0.277720 0.106333 0.488924
#
# Coordination Sequence:
#
# PCOD8127907 Si02
#       6
#     4   4   4   4   4   4
#     4  12  24  38  62  94 128 162 205 260 314 370
#     4  11  22  39  65  91 122 164 211 257 305 372
#     4  10  23  43  66  92 124 165 213 261 309 368
#     4  10  23  43  66  92 124 165 213 261 309 368
#     4  11  22  39  65  91 122 164 211 257 305 372
#     4  12  24  38  62  94 128 162 205 260 314 370
#
# _framework density 20.165766000000001
#
# number of rings (size 3 to 8) (size 9 to 14) (size 15 to 20)
#    0.000    1.000    3.333    4.000    0.000    3.333 
#    0.000    6.667    0.000    0.000    0.000    0.000 
#    0.000    0.000    0.000    0.000    0.000    0.000 
#
# Total GULP energy -297810.178856 kJ/mol
# GULP energy per Si atom -12408.757452 kJ/mol
# Density = 2.011987 g / cm^3
# Si number density = 20.165766 Si / 1000 Ang^3
#
#
#
# Elastic Constant Matrix: (Units=GPa)
#
#
# Indices 1 2 3 4 5 6 
#
# 1 80.2160 17.9892 28.5377 0.0000 -15.0722 0.0000
# 2 17.9892 91.2344 16.4023 0.0000 -5.1450 0.0000
# 3 28.5377 16.4023 71.4100 0.0000 -13.4700 0.0000
# 4 0.0000 0.0000 0.0000 19.9125 0.0000 -10.3103
# 5 -15.0722 -5.1450 -13.4700 0.0000 28.7073 0.0000
# 6 0.0000 0.0000 0.0000 -10.3103 0.0000 23.0943
#
#
#
# Elastic Compliance Matrix: (Units=1/GPa)
#
#
# Indices 1 2 3 4 5 6 
#
# 1 0.015645 -0.001913 -0.004748 0.000000 0.005643 0.000000
# 2 -0.001913 0.011688 -0.001881 0.000000 0.000208 0.000000
# 3 -0.004748 -0.001881 0.017334 0.000000 0.005303 0.000000
# 4 0.000000 0.000000 0.000000 0.065319 0.000000 0.029161
# 5 0.005643 0.000208 0.005303 0.000000 0.040323 0.000000
# 6 0.000000 0.000000 0.000000 0.029161 0.000000 0.056319
#
#
# Mechanical properties :
#
#
# Convention : Reuss Voigt Hill
#
# Bulk Modulus (GPa) = 36.25559 40.96875 38.61217
# Shear Modulus (GPa) = 21.46792 26.33823 23.90307
#
# Velocity S-wave (km/s) = 3.26632 3.61790 3.44660
# Velocity P-wave (km/s) = 5.67829 6.14918 5.91842
#
# Compressibility (1/GPa) = 0.02758195
#
# Stress axis : x y z
#
# Youngs Moduli (GPa) = 63.91839 85.55907 57.69146
#
# Poissons Ratio (x) = 0.16367 0.27394
# Poissons Ratio (y) = 0.12227 0.10851
# Poissons Ratio (z) = 0.30351 0.16093
#
# Static dielectric constant tensor:
#      x y z
#    x 3.725510 0.000000 -0.175620 
#    y 0.000000 3.592360 0.000000 
#    z -0.175620 0.000000 3.671320 
# 
# 
# High freq. dielectric constant tensor:
#      x y z
#    x 1.795490 0.000000 -0.008690 
#    y 0.000000 1.779390 0.000000 
#    z -0.008690 0.000000 1.792810 
# 
# From -- ./inp_files/14222.got.cif
#   From: 2010.03.12/outbox.cif.g09.slc.cpg/sg14_8_cif.got.tgz:14222.got - 2010.03.31 13:35:05.
