data_PCOD8127771
_publ_section_title
;
Structure prediction by ZEFSAII (Michael W. Deem and Ramdas Pophale) SiO2 
 PCOD8127771
Probable space group: P 21/C
;
_chemical_formula_sum "Si O2"
_cell_formula_units_Z 24
_cell_length_a 14.478362
_cell_length_b 9.060981
_cell_length_c 9.475772
_cell_angle_alpha 90.000000
_cell_angle_beta 99.173313
_cell_angle_gamma 90.000000
_cell_volume 1227.210535
_symmetry_space_group_name_H-M "P 21/C"
_symmetry_group_IT_number 14
_symmetry_cell_setting 'monoclinic'
loop_
_space_group_symop_operation_xyz
x,y,z
-x,1/2+y,1/2-z
-x,-y,-z
x,1/2-y,1/2+z
loop_
_atom_site_type_symbol
_atom_site_label
_atom_site_fract_x
_atom_site_fract_y
_atom_site_fract_z
Si Si1 0.751340 0.398602 0.357075
Si Si2 0.927877 0.596553 0.069819
Si Si3 0.539909 0.421279 0.376367
Si Si4 0.758668 0.378876 0.037629
Si Si5 0.554843 0.420917 0.893749
Si Si6 0.073437 0.398905 0.600056
O O1 0.649825 0.456518 0.381621
O O2 0.741997 0.335412 0.196415
O O3 0.792370 0.268875 0.466070
O O4 0.823326 0.532706 0.381024
O O5 0.830410 0.511670 0.040289
O O6 0.957219 0.622467 0.242130
O O7 0.919598 0.747912 0.983456
O O8 0.000000 0.500000 0.000000
O O9 0.500000 0.500000 0.500000
O O10 0.470669 0.488888 0.247970
O O11 0.523096 0.247560 0.376547
O O12 0.664709 0.435864 0.943297
O O13 0.500000 0.500000 0.000000
O O14 0.000000 0.500000 0.500000
#
# Coordination Sequence:
#
# PCOD8127771 Si02
#       6
#     4   4   4   4   4   4
#     4  10  23  42  63  90 125 163 211 253 314 374
#     4  11  24  43  65  96 128 163 209 260 318 376
#     4  11  24  40  63  94 124 172 212 264 322 373
#     4  10  23  41  64  90 124 167 205 258 311 372
#     4  11  22  42  63  90 130 164 215 262 316 382
#     4  11  24  43  66  95 127 165 208 260 316 381
#
# _framework density 19.556547999999999
#
# number of rings (size 3 to 8) (size 9 to 14) (size 15 to 20)
#    0.000    1.333    1.667    3.000    7.000    8.000 
#    0.000    0.000    0.000    0.000    0.000    0.000 
#    0.000    0.000    0.000    0.000    0.000    0.000 
#
# Total GULP energy -297548.972800 kJ/mol
# GULP energy per Si atom -12397.873867 kJ/mol
# Density = 1.951204 g / cm^3
# Si number density = 19.556548 Si / 1000 Ang^3
#
#
#
# Elastic Constant Matrix: (Units=GPa)
#
#
# Indices 1 2 3 4 5 6 
#
# 1 91.6383 69.9690 68.2317 0.0000 -9.5448 0.0000
# 2 69.9690 136.6577 85.3294 0.0000 -2.4722 0.0000
# 3 68.2317 85.3294 191.9024 0.0000 -9.3815 0.0000
# 4 0.0000 0.0000 0.0000 48.1909 0.0000 -1.0827
# 5 -9.5448 -2.4722 -9.3815 0.0000 34.8162 0.0000
# 6 0.0000 0.0000 0.0000 -1.0827 0.0000 35.0209
#
#
#
# Elastic Compliance Matrix: (Units=1/GPa)
#
#
# Indices 1 2 3 4 5 6 
#
# 1 0.019966 -0.008084 -0.003308 0.000000 0.004008 0.000000
# 2 -0.008084 0.013412 -0.003193 0.000000 -0.002124 0.000000
# 3 -0.003308 -0.003193 0.007855 0.000000 0.000983 0.000000
# 4 0.000000 0.000000 0.000000 0.020765 0.000000 0.000642
# 5 0.004008 -0.002124 0.000983 0.000000 0.029935 0.000000
# 6 0.000000 0.000000 0.000000 0.000642 0.000000 0.028574
#
#
# Mechanical properties :
#
#
# Convention : Reuss Voigt Hill
#
# Bulk Modulus (GPa) = 82.90778 96.36206 89.63492
# Shear Modulus (GPa) = 32.53092 36.71681 34.62387
#
# Velocity S-wave (km/s) = 4.08294 4.33768 4.21223
# Velocity P-wave (km/s) = 8.04445 8.62947 8.34209
#
# Compressibility (1/GPa) = 0.01206159
#
# Stress axis : x y z
#
# Youngs Moduli (GPa) = 50.08531 74.55936 127.30510
#
# Poissons Ratio (x) = 0.60277 0.42116
# Poissons Ratio (y) = 0.40491 0.40650
# Poissons Ratio (z) = 0.16570 0.23808
#
# Static dielectric constant tensor:
#      x y z
#    x 3.656950 0.000000 -0.107170 
#    y 0.000000 3.390270 0.000000 
#    z -0.107170 0.000000 3.853600 
# 
# 
# High freq. dielectric constant tensor:
#      x y z
#    x 1.772510 0.000000 -0.002000 
#    y 0.000000 1.768290 0.000000 
#    z -0.002000 0.000000 1.786840 
# 
# From -- ./inp_files/15014.got.cif
#   From: 2010.03.12/outbox.cif.g09.slc.cpg/sg14_8_cif.got.tgz:15014.got - 2010.03.31 13:35:05.
