data_PCOD8127490
_publ_section_title
;
Structure prediction by ZEFSAII (Michael W. Deem and Ramdas Pophale) SiO2 
 PCOD8127490
Probable space group: P 21/C
;
_chemical_formula_sum "Si O2"
_cell_formula_units_Z 24
_cell_length_a 7.989765
_cell_length_b 16.558669
_cell_length_c 8.934679
_cell_angle_alpha 90.000000
_cell_angle_beta 83.102084
_cell_angle_gamma 90.000000
_cell_volume 1173.500837
_symmetry_space_group_name_H-M "P 21/C"
_symmetry_group_IT_number 14
_symmetry_cell_setting 'monoclinic'
loop_
_space_group_symop_operation_xyz
x,y,z
-x,1/2+y,1/2-z
-x,-y,-z
x,1/2-y,1/2+z
loop_
_atom_site_type_symbol
_atom_site_label
_atom_site_fract_x
_atom_site_fract_y
_atom_site_fract_z
Si Si1 0.016483 0.584488 0.421276
Si Si2 0.305028 0.188033 0.984898
Si Si3 0.634184 0.351638 0.955321
Si Si4 0.706414 0.654473 0.854019
Si Si5 0.338334 0.690007 0.394004
Si Si6 0.874052 0.010771 0.383012
O O1 0.180658 0.633976 0.463584
O O2 0.037687 0.569092 0.244525
O O3 0.000000 0.500000 0.500000
O O4 0.836018 0.623753 0.462999
O O5 0.338409 0.190454 0.803746
O O6 0.222513 0.271649 0.053738
O O7 0.485350 0.166961 0.042457
O O8 0.631397 0.317686 0.786473
O O9 0.719599 0.438173 0.963404
O O10 0.452537 0.375234 0.035772
O O11 0.711791 0.281603 0.054254
O O12 0.828526 0.577561 0.822468
O O13 0.000000 0.000000 0.500000
#
# Coordination Sequence:
#
# PCOD8127490 Si02
#       6
#     4   4   4   4   4   4
#     4  11  25  45  62  98 129 167 219 260 322 389
#     4  11  24  42  71  93 129 171 216 267 321 381
#     4  10  22  43  65  96 126 168 219 260 321 389
#     4  11  23  43  66  95 127 171 217 261 324 385
#     4  10  23  41  69  93 128 167 214 266 317 378
#     4  11  26  41  64  98 132 170 211 269 327 372
#
# _framework density 20.451625
#
# number of rings (size 3 to 8) (size 9 to 14) (size 15 to 20)
#    0.000    1.333    1.667    4.500    7.000    4.667 
#    0.000    0.000    0.000    0.000    0.000    0.000 
#    0.000    0.000    0.000    0.000    0.000    0.000 
#
# Total GULP energy -297384.625389 kJ/mol
# GULP energy per Si atom -12391.026058 kJ/mol
# Density = 2.040508 g / cm^3
# Si number density = 20.451625 Si / 1000 Ang^3
#
#
#
# Elastic Constant Matrix: (Units=GPa)
#
#
# Indices 1 2 3 4 5 6 
#
# 1 76.4043 48.4039 27.4944 0.0000 13.4812 0.0000
# 2 48.4039 123.4589 31.5247 0.0000 14.9592 0.0000
# 3 27.4944 31.5247 109.8357 0.0000 11.9386 0.0000
# 4 0.0000 0.0000 0.0000 40.9602 0.0000 8.7238
# 5 13.4812 14.9592 11.9386 0.0000 29.3546 0.0000
# 6 0.0000 0.0000 0.0000 8.7238 0.0000 93.1353
#
#
#
# Elastic Compliance Matrix: (Units=1/GPa)
#
#
# Indices 1 2 3 4 5 6 
#
# 1 0.018640 -0.006153 -0.002417 0.000000 -0.004442 0.000000
# 2 -0.006153 0.011149 -0.001412 0.000000 -0.002282 0.000000
# 3 -0.002417 -0.001412 0.010375 0.000000 -0.002390 0.000000
# 4 0.000000 0.000000 0.000000 0.024911 0.000000 -0.002333
# 5 -0.004442 -0.002282 -0.002390 0.000000 0.038241 0.000000
# 6 0.000000 0.000000 0.000000 -0.002333 0.000000 0.010956
#
#
# Mechanical properties :
#
#
# Convention : Reuss Voigt Hill
#
# Bulk Modulus (GPa) = 49.50476 58.28278 53.89377
# Shear Modulus (GPa) = 35.46926 46.17509 40.82218
#
# Velocity S-wave (km/s) = 4.16901 4.75676 4.47255
# Velocity P-wave (km/s) = 6.88713 7.66347 7.28564
#
# Compressibility (1/GPa) = 0.02020008
#
# Stress axis : x y z
#
# Youngs Moduli (GPa) = 53.64912 89.69387 96.38954
#
# Poissons Ratio (x) = 0.55184 0.23300
# Poissons Ratio (y) = 0.33008 0.13608
# Poissons Ratio (z) = 0.12968 0.12663
#
# Static dielectric constant tensor:
#      x y z
#    x 3.421140 0.000000 -0.101180 
#    y 0.000000 6.691950 0.000000 
#    z -0.101180 0.000000 3.900730 
# 
# 
# High freq. dielectric constant tensor:
#      x y z
#    x 1.794970 0.000000 -0.013830 
#    y 0.000000 1.812260 0.000000 
#    z -0.013830 0.000000 1.815780 
# 
# From -- ./inp_files/8464.got.cif
#   From: 2010.03.12/outbox.cif.g09.slc.cpg/sg14_5_cif.got.tgz:8464.got - 2010.03.31 13:35:05.
