data_PCOD8127427
_publ_section_title
;
Structure prediction by ZEFSAII (Michael W. Deem and Ramdas Pophale) SiO2 
 PCOD8127427
Probable space group: P 21/C
;
_chemical_formula_sum "Si O2"
_cell_formula_units_Z 32
_cell_length_a 11.195453
_cell_length_b 10.864622
_cell_length_c 14.342169
_cell_angle_alpha 90.000000
_cell_angle_beta 126.729882
_cell_angle_gamma 90.000000
_cell_volume 1398.154182
_symmetry_space_group_name_H-M "P 21/C"
_symmetry_group_IT_number 14
_symmetry_cell_setting 'monoclinic'
loop_
_space_group_symop_operation_xyz
x,y,z
-x,1/2+y,1/2-z
-x,-y,-z
x,1/2-y,1/2+z
loop_
_atom_site_type_symbol
_atom_site_label
_atom_site_fract_x
_atom_site_fract_y
_atom_site_fract_z
Si Si1 0.557742 0.971009 0.388422
Si Si2 0.817062 0.416233 0.500792
Si Si3 0.801184 0.543013 0.152284
Si Si4 0.875293 0.426758 0.745021
Si Si5 0.151951 0.129320 0.121026
Si Si6 0.692737 0.302026 0.166069
Si Si7 0.720278 0.879322 0.293003
Si Si8 0.552527 0.252733 0.417159
O O1 0.411754 0.881620 0.311965
O O2 0.658185 0.964910 0.344775
O O3 0.649835 0.930517 0.523953
O O4 0.512534 0.113858 0.369020
O O5 0.829423 0.448449 0.616018
O O6 0.774237 0.537016 0.420142
O O7 0.694937 0.309170 0.427551
O O8 0.973587 0.370942 0.532664
O O9 0.787890 0.605091 0.246779
O O10 0.809734 0.394834 0.170629
O O11 0.946311 0.591124 0.165346
O O12 0.793278 0.308572 0.754893
O O13 0.838421 0.547581 0.786269
O O14 0.202405 0.265872 0.118244
O O15 0.584498 0.238508 0.041424
O O16 0.587864 0.839037 0.163720
#
# Coordination Sequence:
#
# PCOD8127427 Si02
#       8
#     4   4   4   4   4   4   4   4
#     4  11  25  42  65 100 132 179 221 270 332 395
#     4   9  22  44  68  94 133 170 225 273 330 397
#     4  10  22  44  71  95 131 172 224 271 333 394
#     4  10  25  42  68 102 131 172 219 277 335 394
#     4  10  22  42  67  99 127 179 216 270 337 393
#     4  10  22  45  67  94 129 177 221 273 334 393
#     4  12  27  38  65  98 138 172 218 275 326 402
#     4  10  23  42  66  91 130 174 221 278 319 393
#
# _framework density 22.887318
#
# number of rings (size 3 to 8) (size 9 to 14) (size 15 to 20)
#    0.000    1.750    0.000    3.000   12.250    4.500 
#    4.500    0.000    0.000    0.000    0.000    0.000 
#    0.000    0.000    0.000    0.000    0.000    0.000 
#
# Total GULP energy -396709.133170 kJ/mol
# GULP energy per Si atom -12397.160412 kJ/mol
# Density = 2.283523 g / cm^3
# Si number density = 22.887318 Si / 1000 Ang^3
#
#
#
# Elastic Constant Matrix: (Units=GPa)
#
#
# Indices 1 2 3 4 5 6 
#
# 1 112.4511 45.8945 15.7895 0.0000 7.7466 0.0000
# 2 45.8945 95.7288 23.5299 0.0000 14.2539 0.0000
# 3 15.7895 23.5299 26.8340 0.0000 9.2578 0.0000
# 4 0.0000 0.0000 0.0000 32.5143 0.0000 -0.8053
# 5 7.7466 14.2539 9.2578 0.0000 28.6017 0.0000
# 6 0.0000 0.0000 0.0000 -0.8053 0.0000 42.3411
#
#
#
# Elastic Compliance Matrix: (Units=1/GPa)
#
#
# Indices 1 2 3 4 5 6 
#
# 1 0.011176 -0.004781 -0.002433 0.000000 0.000143 0.000000
# 2 -0.004781 0.015630 -0.009739 0.000000 -0.003342 0.000000
# 3 -0.002433 -0.009739 0.051035 0.000000 -0.011007 0.000000
# 4 0.000000 0.000000 0.000000 0.030770 0.000000 0.000585
# 5 0.000143 -0.003342 -0.011007 0.000000 0.040152 0.000000
# 6 0.000000 0.000000 0.000000 0.000585 0.000000 0.023629
#
#
# Mechanical properties :
#
#
# Convention : Reuss Voigt Hill
#
# Bulk Modulus (GPa) = 22.76129 45.04906 33.90517
# Shear Modulus (GPa) = 22.63025 30.67807 26.65416
#
# Velocity S-wave (km/s) = 3.14788 3.66511 3.41630
# Velocity P-wave (km/s) = 4.81443 6.13486 5.51431
#
# Compressibility (1/GPa) = 0.04393425
#
# Stress axis : x y z
#
# Youngs Moduli (GPa) = 89.47845 63.98008 19.59441
#
# Poissons Ratio (x) = 0.30591 0.04767
# Poissons Ratio (y) = 0.42782 0.19083
# Poissons Ratio (z) = 0.21769 0.62310
#
# Static dielectric constant tensor:
#      x y z
#    x 4.110510 0.000000 0.139640 
#    y 0.000000 4.148800 0.000000 
#    z 0.139640 0.000000 4.074190 
# 
# 
# High freq. dielectric constant tensor:
#      x y z
#    x 1.904270 0.000000 0.011830 
#    y 0.000000 1.899990 0.000000 
#    z 0.011830 0.000000 1.899660 
# 
# From -- ./inp_files/44661.got.cif
#   From: 2010.03.12/outbox.cif.g09.slc.cpg/sg14_23_cif.got.tgz:44661.got - 2010.03.31 13:35:05.
