data_PCOD8127706
_publ_section_title
;
Structure prediction by ZEFSAII (Michael W. Deem and Ramdas Pophale) SiO2 
 PCOD8127706
Probable space group: P 21/C
;
_chemical_formula_sum "Si O2"
_cell_formula_units_Z 20
_cell_length_a 10.458842
_cell_length_b 9.516135
_cell_length_c 20.649197
_cell_angle_alpha 90.000000
_cell_angle_beta 156.340815
_cell_angle_gamma 90.000000
_cell_volume 824.729525
_symmetry_space_group_name_H-M "P 21/C"
_symmetry_group_IT_number 14
_symmetry_cell_setting 'monoclinic'
loop_
_space_group_symop_operation_xyz
x,y,z
-x,1/2+y,1/2-z
-x,-y,-z
x,1/2-y,1/2+z
loop_
_atom_site_type_symbol
_atom_site_label
_atom_site_fract_x
_atom_site_fract_y
_atom_site_fract_z
Si Si1 0.073260 0.390059 0.823254
Si Si2 0.717983 0.198125 0.569304
Si Si3 0.412697 0.645993 0.619182
Si Si4 0.899128 0.798593 0.449698
Si Si5 0.363268 0.639602 0.267625
O O1 0.053548 0.559512 0.824909
O O2 0.904252 0.337390 0.678947
O O3 0.893261 0.309987 0.798186
O O4 0.436564 0.338376 0.989060
O O5 0.586526 0.236874 0.437077
O O6 0.752001 0.650698 0.813998
O O7 0.421979 0.484378 0.601193
O O8 0.114166 0.664115 0.528787
O O9 0.613953 0.761013 0.366697
O O10 0.153026 0.901091 0.604815
#
# Coordination Sequence:
#
# PCOD8127706 Si02
#       5
#     4   4   4   4   4
#     4  11  24  43  66  97 131 169 216 263 319 377
#     4  11  25  43  67  95 129 172 216 264 316 379
#     4  11  22  42  65  91 127 169 210 259 320 381
#     4  10  23  39  62  95 125 163 212 260 317 384
#     4  11  22  39  63  91 127 166 210 263 318 377
#
# _framework density 24.250374999999998
#
# number of rings (size 3 to 8) (size 9 to 14) (size 15 to 20)
#    0.000    1.200    0.000    6.000    0.000    6.400 
#    0.000    6.000    0.000    0.000    0.000    0.000 
#    0.000    0.000    0.000    0.000    0.000    0.000 
#
# Total GULP energy -247795.576036 kJ/mol
# GULP energy per Si atom -12389.778802 kJ/mol
# Density = 2.419518 g / cm^3
# Si number density = 24.250375 Si / 1000 Ang^3
#
#
#
# Elastic Constant Matrix: (Units=GPa)
#
#
# Indices 1 2 3 4 5 6 
#
# 1 100.4397 23.4949 27.1625 0.0000 5.6117 0.0000
# 2 23.4949 107.0926 45.0254 0.0000 -19.3564 0.0000
# 3 27.1625 45.0254 103.3967 0.0000 -14.0834 0.0000
# 4 0.0000 0.0000 0.0000 32.4131 0.0000 -6.7090
# 5 5.6117 -19.3564 -14.0834 0.0000 33.0619 0.0000
# 6 0.0000 0.0000 0.0000 -6.7090 0.0000 25.5558
#
#
#
# Elastic Compliance Matrix: (Units=1/GPa)
#
#
# Indices 1 2 3 4 5 6 
#
# 1 0.011423 -0.002179 -0.002643 0.000000 -0.004341 0.000000
# 2 -0.002179 0.012630 -0.004108 0.000000 0.006014 0.000000
# 3 -0.002643 -0.004108 0.012621 0.000000 0.003419 0.000000
# 4 0.000000 0.000000 0.000000 0.032624 0.000000 0.008565
# 5 -0.004341 0.006014 0.003419 0.000000 0.035961 0.000000
# 6 0.000000 0.000000 0.000000 0.008565 0.000000 0.041379
#
#
# Mechanical properties :
#
#
# Convention : Reuss Voigt Hill
#
# Bulk Modulus (GPa) = 53.15615 55.81053 54.48334
# Shear Modulus (GPa) = 29.27909 32.55591 30.91750
#
# Velocity S-wave (km/s) = 3.47849 3.66798 3.57449
# Velocity P-wave (km/s) = 6.17256 6.40336 6.28902
#
# Compressibility (1/GPa) = 0.01881250
#
# Stress axis : x y z
#
# Youngs Moduli (GPa) = 87.53989 79.17553 79.23584
#
# Poissons Ratio (x) = 0.17256 0.20943
# Poissons Ratio (y) = 0.19079 0.32552
# Poissons Ratio (z) = 0.23138 0.32527
#
# Static dielectric constant tensor:
#      x y z
#    x 4.316670 0.000000 0.104190 
#    y 0.000000 3.967390 0.000000 
#    z 0.104190 0.000000 4.453680 
# 
# 
# High freq. dielectric constant tensor:
#      x y z
#    x 1.970110 0.000000 0.013150 
#    y 0.000000 1.935970 0.000000 
#    z 0.013150 0.000000 1.971690 
# 
# From -- ./inp_files/7852.got.cif
#   From: 2010.03.12/outbox.cif.g09.slc.cpg/sg14_4_cif.got.tgz:7852.got - 2010.03.31 13:35:05.
