data_PCOD8127378
_publ_section_title
;
Structure prediction by ZEFSAII (Michael W. Deem and Ramdas Pophale) SiO2 
 PCOD8127378
Probable space group: P 21/C
;
_chemical_formula_sum "Si O2"
_cell_formula_units_Z 28
_cell_length_a 6.470140
_cell_length_b 11.984934
_cell_length_c 19.881697
_cell_angle_alpha 90.000000
_cell_angle_beta 56.086241
_cell_angle_gamma 90.000000
_cell_volume 1279.431965
_symmetry_space_group_name_H-M "P 21/C"
_symmetry_group_IT_number 14
_symmetry_cell_setting 'monoclinic'
loop_
_space_group_symop_operation_xyz
x,y,z
-x,1/2+y,1/2-z
-x,-y,-z
x,1/2-y,1/2+z
loop_
_atom_site_type_symbol
_atom_site_label
_atom_site_fract_x
_atom_site_fract_y
_atom_site_fract_z
Si Si1 0.591127 0.541740 0.284509
Si Si2 0.143526 0.828312 0.825081
Si Si3 0.962737 0.774864 0.712957
Si Si4 0.389321 0.402595 0.564281
Si Si5 0.709852 0.502329 0.043857
Si Si6 0.465446 0.635903 0.802128
Si Si7 0.406701 0.685282 0.038592
O O1 0.358780 0.580170 0.280635
O O2 0.842178 0.605367 0.217482
O O3 0.547191 0.561264 0.371370
O O4 0.610969 0.413421 0.257806
O O5 0.261600 0.733244 0.852484
O O6 0.076105 0.774065 0.766414
O O7 0.903296 0.890834 0.898955
O O8 0.748890 0.680606 0.747993
O O9 0.183741 0.755352 0.620091
O O10 0.500000 0.500000 0.500000
O O11 0.498392 0.280574 0.529059
O O12 0.559188 0.455965 0.135362
O O13 0.618953 0.631192 0.048651
O O14 0.675686 0.422635 0.986727
O O15 0.000000 0.500000 0.000000
#
# Coordination Sequence:
#
# PCOD8127378 Si02
#       7
#     4   4   4   4   4   4   4
#     4  10  23  43  64  96 128 178 224 270 337 398
#     4  10  22  42  64  90 130 173 218 277 324 401
#     4  10  23  40  65  95 134 171 225 270 335 404
#     4  11  26  44  64  96 137 178 221 270 336 404
#     4  11  23  42  71  99 130 169 223 288 335 388
#     4  11  23  41  66  97 129 173 223 280 334 397
#     4  11  24  42  65  99 131 173 220 277 336 396
#
# _framework density 21.884712
#
# number of rings (size 3 to 8) (size 9 to 14) (size 15 to 20)
#    0.000    1.429    0.000    5.143    4.000    6.286 
#    2.571    0.000    0.000    0.000    0.000    0.000 
#    0.000    0.000    0.000    0.000    0.000    0.000 
#
# Total GULP energy -347033.658543 kJ/mol
# GULP energy per Si atom -12394.059234 kJ/mol
# Density = 2.183490 g / cm^3
# Si number density = 21.884712 Si / 1000 Ang^3
#
#
#
# Elastic Constant Matrix: (Units=GPa)
#
#
# Indices 1 2 3 4 5 6 
#
# 1 108.2856 24.0916 34.1725 0.0000 -13.3044 0.0000
# 2 24.0916 81.8807 24.6243 0.0000 0.6386 0.0000
# 3 34.1725 24.6243 103.3230 0.0000 -6.5584 0.0000
# 4 0.0000 0.0000 0.0000 42.8786 0.0000 4.6505
# 5 -13.3044 0.6386 -6.5584 0.0000 26.8119 0.0000
# 6 0.0000 0.0000 0.0000 4.6505 0.0000 26.2615
#
#
#
# Elastic Compliance Matrix: (Units=1/GPa)
#
#
# Indices 1 2 3 4 5 6 
#
# 1 0.011296 -0.002514 -0.002821 0.000000 0.004975 0.000000
# 2 -0.002514 0.013747 -0.002585 0.000000 -0.002207 0.000000
# 3 -0.002821 -0.002585 0.011318 0.000000 0.001430 0.000000
# 4 0.000000 0.000000 0.000000 0.023778 0.000000 -0.004211
# 5 0.004975 -0.002207 0.001430 0.000000 0.040168 0.000000
# 6 0.000000 0.000000 0.000000 -0.004211 0.000000 0.038824
#
#
# Mechanical properties :
#
#
# Convention : Reuss Voigt Hill
#
# Bulk Modulus (GPa) = 48.72970 51.02957 49.87964
# Shear Modulus (GPa) = 30.90018 33.23048 32.06533
#
# Velocity S-wave (km/s) = 3.76167 3.90094 3.83194
# Velocity P-wave (km/s) = 6.41730 6.60741 6.51305
#
# Compressibility (1/GPa) = 0.02052136
#
# Stress axis : x y z
#
# Youngs Moduli (GPa) = 88.53004 72.74240 88.35329
#
# Poissons Ratio (x) = 0.18287 0.24924
# Poissons Ratio (y) = 0.22256 0.22839
# Poissons Ratio (z) = 0.24974 0.18803
#
# Static dielectric constant tensor:
#      x y z
#    x 3.767290 0.000000 -0.148100 
#    y 0.000000 3.476360 0.000000 
#    z -0.148100 0.000000 3.858770 
# 
# 
# High freq. dielectric constant tensor:
#      x y z
#    x 1.873610 0.000000 -0.004450 
#    y 0.000000 1.865250 0.000000 
#    z -0.004450 0.000000 1.855290 
# 
# From -- ./inp_files/63432.got.cif
#   From: 2010.03.12/outbox.cif.g09.slc.cpg/sg14_32_cif.got.tgz:63432.got - 2010.03.31 13:35:05.
