data_PCOD8127616
_publ_section_title
;
Structure prediction by ZEFSAII (Michael W. Deem and Ramdas Pophale) SiO2 
 PCOD8127616
Probable space group: P 21/C
;
_chemical_formula_sum "Si O2"
_cell_formula_units_Z 28
_cell_length_a 12.351433
_cell_length_b 8.433268
_cell_length_c 24.581533
_cell_angle_alpha 90.000000
_cell_angle_beta 30.785556
_cell_angle_gamma 90.000000
_cell_volume 1310.523516
_symmetry_space_group_name_H-M "P 21/C"
_symmetry_group_IT_number 14
_symmetry_cell_setting 'monoclinic'
loop_
_space_group_symop_operation_xyz
x,y,z
-x,1/2+y,1/2-z
-x,-y,-z
x,1/2-y,1/2+z
loop_
_atom_site_type_symbol
_atom_site_label
_atom_site_fract_x
_atom_site_fract_y
_atom_site_fract_z
Si Si1 0.484234 0.010853 0.192208
Si Si2 0.182975 0.662796 0.744025
Si Si3 0.339647 0.159627 0.784013
Si Si4 0.646917 0.509825 0.833620
Si Si5 0.126276 0.657502 0.533676
Si Si6 0.057907 0.828611 0.180703
Si Si7 0.812758 0.037971 0.434363
O O1 0.339237 0.151249 0.277088
O O2 0.377673 0.927845 0.186866
O O3 0.520899 0.884289 0.224012
O O4 0.704169 0.084144 0.078947
O O5 0.220532 0.849414 0.731506
O O6 0.170534 0.608411 0.686277
O O7 0.963551 0.617629 0.870162
O O8 0.096238 0.111134 0.897236
O O9 0.430943 0.072348 0.691389
O O10 0.802936 0.640907 0.793821
O O11 0.434823 0.486977 0.961605
O O12 0.141900 0.585857 0.588935
O O13 0.151488 0.849352 0.528109
O O14 0.112787 0.639877 0.151189
#
# Coordination Sequence:
#
# PCOD8127616 Si02
#       7
#     4   4   4   4   4   4   4
#     4  12  23  42  68  93 134 174 219 272 332 389
#     4  12  24  39  64 102 135 170 220 271 327 394
#     4  11  22  43  65  96 128 174 220 270 328 389
#     4  11  23  43  68  97 136 175 218 274 333 384
#     4   9  21  43  67  91 127 172 216 268 324 386
#     4   9  22  41  66  94 131 176 218 270 321 389
#     4  10  22  45  66  96 133 175 217 271 324 394
#
# _framework density 21.365507999999998
#
# number of rings (size 3 to 8) (size 9 to 14) (size 15 to 20)
#    0.857    0.571    2.857    2.143    0.000    5.143 
#    0.000    5.714    0.000    0.000    0.000    0.000 
#    0.000    0.000    0.000    0.000    0.000    0.000 
#
# Total GULP energy -346986.323403 kJ/mol
# GULP energy per Si atom -12392.368693 kJ/mol
# Density = 2.131688 g / cm^3
# Si number density = 21.365508 Si / 1000 Ang^3
#
#
#
# Elastic Constant Matrix: (Units=GPa)
#
#
# Indices 1 2 3 4 5 6 
#
# 1 134.7612 33.6048 31.3251 0.0000 -12.9611 0.0000
# 2 33.6048 94.4534 50.6137 0.0000 -5.9597 0.0000
# 3 31.3251 50.6137 117.5686 0.0000 -21.0550 0.0000
# 4 0.0000 0.0000 0.0000 31.0203 0.0000 -2.6817
# 5 -12.9611 -5.9597 -21.0550 0.0000 16.8774 0.0000
# 6 0.0000 0.0000 0.0000 -2.6817 0.0000 21.4439
#
#
#
# Elastic Compliance Matrix: (Units=1/GPa)
#
#
# Indices 1 2 3 4 5 6 
#
# 1 0.008647 -0.002628 -0.000193 0.000000 0.005472 0.000000
# 2 -0.002628 0.014701 -0.006516 0.000000 -0.004956 0.000000
# 3 -0.000193 -0.006516 0.014066 0.000000 0.015099 0.000000
# 4 0.000000 0.000000 0.000000 0.032589 0.000000 0.004075
# 5 0.005472 -0.004956 0.015099 0.000000 0.080540 0.000000
# 6 0.000000 0.000000 0.000000 0.004075 0.000000 0.047143
#
#
# Mechanical properties :
#
#
# Convention : Reuss Voigt Hill
#
# Bulk Modulus (GPa) = 53.35916 64.20780 58.78348
# Shear Modulus (GPa) = 22.46105 29.28431 25.87268
#
# Velocity S-wave (km/s) = 3.24586 3.70622 3.48365
# Velocity P-wave (km/s) = 6.25109 6.95932 6.61469
#
# Compressibility (1/GPa) = 0.01874092
#
# Stress axis : x y z
#
# Youngs Moduli (GPa) = 115.64796 68.02090 71.09144
#
# Poissons Ratio (x) = 0.17876 0.01369
# Poissons Ratio (y) = 0.30392 0.46326
# Poissons Ratio (z) = 0.02226 0.44325
#
# Static dielectric constant tensor:
#      x y z
#    x 3.766120 0.000000 -0.110380 
#    y 0.000000 3.738140 0.000000 
#    z -0.110380 0.000000 3.779610 
# 
# 
# High freq. dielectric constant tensor:
#      x y z
#    x 1.832480 0.000000 -0.009050 
#    y 0.000000 1.823480 0.000000 
#    z -0.009050 0.000000 1.834490 
# 
# From -- ./inp_files/77111.got.cif
#   From: 2010.03.12/outbox.cif.g09.slc.cpg/sg14_39_cif.got.tgz:77111.got - 2010.03.31 13:35:05.
