data_PCOD8127048
_publ_section_title
;
Structure prediction by ZEFSAII (Michael W. Deem and Ramdas Pophale) SiO2 
 PCOD8127048
Probable space group: P 21/C
;
_chemical_formula_sum "Si O2"
_cell_formula_units_Z 32
_cell_length_a 15.998098
_cell_length_b 11.993049
_cell_length_c 21.573897
_cell_angle_alpha 90.000000
_cell_angle_beta 158.131568
_cell_angle_gamma 90.000000
_cell_volume 1541.790847
_symmetry_space_group_name_H-M "P 21/C"
_symmetry_group_IT_number 14
_symmetry_cell_setting 'monoclinic'
loop_
_space_group_symop_operation_xyz
x,y,z
-x,1/2+y,1/2-z
-x,-y,-z
x,1/2-y,1/2+z
loop_
_atom_site_type_symbol
_atom_site_label
_atom_site_fract_x
_atom_site_fract_y
_atom_site_fract_z
Si Si1 0.269885 0.361345 0.325266
Si Si2 0.552007 0.642557 0.100869
Si Si3 0.822767 0.058470 0.743182
Si Si4 0.598808 0.422859 0.655194
Si Si5 0.398726 0.139616 0.225872
Si Si6 0.829205 0.255782 0.491898
Si Si7 0.078878 0.775527 0.085729
Si Si8 0.709983 0.012085 0.951994
O O1 0.393159 0.272952 0.365823
O O2 0.398369 0.361365 0.479796
O O3 0.280456 0.484096 0.303440
O O4 0.010367 0.323088 0.151610
O O5 0.749882 0.569072 0.206257
O O6 0.515821 0.610729 0.146998
O O7 0.324200 0.619877 0.908528
O O8 0.806628 0.123917 0.797463
O O9 0.065947 0.058248 0.878255
O O10 0.797683 0.339502 0.811923
O O11 0.490748 0.481842 0.640246
O O12 0.596845 0.191909 0.321368
O O13 0.347904 0.021336 0.158630
O O14 0.185729 0.224591 0.078888
O O15 0.913430 0.297481 0.482652
O O16 0.769043 0.357917 0.495847
#
# Coordination Sequence:
#
# PCOD8127048 Si02
#       8
#     4   4   4   4   4   4   4   4
#     4  11  24  44  66  93 133 180 217 270 335 396
#     4  11  20  41  64  95 124 169 223 266 332 385
#     4  10  22  38  68  92 127 169 217 280 323 382
#     4  11  25  45  66  95 138 177 218 273 336 403
#     4  11  24  39  65  99 129 171 218 272 333 394
#     4  12  24  42  67  96 131 172 222 273 328 396
#     4  11  22  43  66  95 136 171 213 273 334 396
#     4  11  23  42  63  98 130 168 225 277 326 391
#
# _framework density 20.755085000000001
#
# number of rings (size 3 to 8) (size 9 to 14) (size 15 to 20)
#    0.000    1.000    5.000    1.500    1.750    3.500 
#    0.000    0.000    2.750    0.000    0.000    0.000 
#    0.000    0.000    0.000    0.000    0.000    0.000 
#
# Total GULP energy -396772.545341 kJ/mol
# GULP energy per Si atom -12399.142042 kJ/mol
# Density = 2.070785 g / cm^3
# Si number density = 20.755085 Si / 1000 Ang^3
#
#
#
# Elastic Constant Matrix: (Units=GPa)
#
#
# Indices 1 2 3 4 5 6 
#
# 1 60.5268 6.0288 38.3518 0.0000 0.9027 0.0000
# 2 6.0288 82.5924 39.8100 0.0000 7.5348 0.0000
# 3 38.3518 39.8100 124.5289 0.0000 -3.6046 0.0000
# 4 0.0000 0.0000 0.0000 30.0860 0.0000 -1.0696
# 5 0.9027 7.5348 -3.6046 0.0000 35.0656 0.0000
# 6 0.0000 0.0000 0.0000 -1.0696 0.0000 27.4123
#
#
#
# Elastic Compliance Matrix: (Units=1/GPa)
#
#
# Indices 1 2 3 4 5 6 
#
# 1 0.020864 0.002074 -0.007138 0.000000 -0.001717 0.000000
# 2 0.002074 0.014976 -0.005538 0.000000 -0.003841 0.000000
# 3 -0.007138 -0.005538 0.012075 0.000000 0.002615 0.000000
# 4 0.000000 0.000000 0.000000 0.033284 0.000000 0.001299
# 5 -0.001717 -0.003841 0.002615 0.000000 0.029656 0.000000
# 6 0.000000 0.000000 0.000000 0.001299 0.000000 0.036531
#
#
# Mechanical properties :
#
#
# Convention : Reuss Voigt Hill
#
# Bulk Modulus (GPa) = 37.43764 48.44771 42.94267
# Shear Modulus (GPa) = 28.17030 30.74328 29.45679
#
# Velocity S-wave (km/s) = 3.68811 3.85286 3.77139
# Velocity P-wave (km/s) = 6.01774 6.57161 6.30076
#
# Compressibility (1/GPa) = 0.02671109
#
# Stress axis : x y z
#
# Youngs Moduli (GPa) = 47.93014 66.77466 82.81801
#
# Poissons Ratio (x) = -0.13852 0.59118
# Poissons Ratio (y) = -0.09943 0.45861
# Poissons Ratio (z) = 0.34214 0.36977
#
# Static dielectric constant tensor:
#      x y z
#    x 3.554520 0.000000 -0.031620 
#    y 0.000000 3.695880 0.000000 
#    z -0.031620 0.000000 3.995980 
# 
# 
# High freq. dielectric constant tensor:
#      x y z
#    x 1.800590 0.000000 -0.003360 
#    y 0.000000 1.809950 0.000000 
#    z -0.003360 0.000000 1.829810 
# 
# From -- ./inp_files/40335.got.cif
#   From: 2010.03.12/outbox.cif.g09.slc.cpg/sg14_21_cif.got.tgz:40335.got - 2010.03.31 13:35:05.
