data_PCOD8127745
_publ_section_title
;
Structure prediction by ZEFSAII (Michael W. Deem and Ramdas Pophale) SiO2 
 PCOD8127745
Probable space group: P 21/C
;
_chemical_formula_sum "Si O2"
_cell_formula_units_Z 20
_cell_length_a 15.339308
_cell_length_b 9.544987
_cell_length_c 19.018163
_cell_angle_alpha 90.000000
_cell_angle_beta 160.091292
_cell_angle_gamma 90.000000
_cell_volume 948.190128
_symmetry_space_group_name_H-M "P 21/C"
_symmetry_group_IT_number 14
_symmetry_cell_setting 'monoclinic'
loop_
_space_group_symop_operation_xyz
x,y,z
-x,1/2+y,1/2-z
-x,-y,-z
x,1/2-y,1/2+z
loop_
_atom_site_type_symbol
_atom_site_label
_atom_site_fract_x
_atom_site_fract_y
_atom_site_fract_z
Si Si1 0.743316 0.419073 0.488100
Si Si2 0.637826 0.096885 0.390188
Si Si3 0.710814 0.033632 0.601586
Si Si4 0.120214 0.041376 0.664228
Si Si5 0.372021 0.657202 0.451950
O O1 0.623197 0.265851 0.381322
O O2 0.588667 0.538729 0.329888
O O3 0.716777 0.443506 0.551329
O O4 0.042806 0.436789 0.695827
O O5 0.610747 0.018688 0.445178
O O6 0.911054 0.063377 0.564713
O O7 0.779579 0.197116 0.660354
O O8 0.500000 0.000000 0.500000
O O9 0.299217 0.911691 0.822669
O O10 0.315723 0.174088 0.806380
O O11 0.000000 0.000000 0.500000
#
# Coordination Sequence:
#
# PCOD8127745 Si02
#       5
#     4   4   4   4   4
#     4  11  24  42  66  97 134 172 218 271 325 393
#     4  11  25  41  67  98 131 171 221 268 331 386
#     4  11  25  44  65  92 135 176 221 270 326 386
#     4  11  21  40  66  97 128 166 214 268 324 390
#     4  10  23  40  66  98 128 170 219 267 327 389
#
# _framework density 21.092815999999999
#
# number of rings (size 3 to 8) (size 9 to 14) (size 15 to 20)
#    0.000    1.200    4.000    1.200    2.800    2.400 
#    0.000    0.000    0.000    0.000    0.000    0.000 
#    0.000    0.000    0.000    0.000    0.000    0.000 
#
# Total GULP energy -247893.271403 kJ/mol
# GULP energy per Si atom -12394.663570 kJ/mol
# Density = 2.104481 g / cm^3
# Si number density = 21.092816 Si / 1000 Ang^3
#
#
#
# Elastic Constant Matrix: (Units=GPa)
#
#
# Indices 1 2 3 4 5 6 
#
# 1 156.9681 33.4341 61.2682 0.0000 7.1428 0.0000
# 2 33.4341 79.3253 46.7026 0.0000 -18.2283 0.0000
# 3 61.2682 46.7026 126.8930 0.0000 -2.7745 0.0000
# 4 0.0000 0.0000 0.0000 32.4777 0.0000 -0.6857
# 5 7.1428 -18.2283 -2.7745 0.0000 42.5778 0.0000
# 6 0.0000 0.0000 0.0000 -0.6857 0.0000 31.1260
#
#
#
# Elastic Compliance Matrix: (Units=1/GPa)
#
#
# Indices 1 2 3 4 5 6 
#
# 1 0.008198 -0.002127 -0.003230 0.000000 -0.002497 0.000000
# 2 -0.002127 0.018677 -0.005672 0.000000 0.007983 0.000000
# 3 -0.003230 -0.005672 0.011503 0.000000 -0.001137 0.000000
# 4 0.000000 0.000000 0.000000 0.030805 0.000000 0.000679
# 5 -0.002497 0.007983 -0.001137 0.000000 0.027249 0.000000
# 6 0.000000 0.000000 0.000000 0.000679 0.000000 0.032142
#
#
# Mechanical properties :
#
#
# Convention : Reuss Voigt Hill
#
# Bulk Modulus (GPa) = 61.27879 71.77737 66.52808
# Shear Modulus (GPa) = 32.03624 36.02173 34.02898
#
# Velocity S-wave (km/s) = 3.90144 4.13700 4.02094
# Velocity P-wave (km/s) = 7.02922 7.54473 7.29153
#
# Compressibility (1/GPa) = 0.01631886
#
# Stress axis : x y z
#
# Youngs Moduli (GPa) = 121.97806 53.54173 86.93395
#
# Poissons Ratio (x) = 0.11391 0.28079
# Poissons Ratio (y) = 0.25950 0.49311
# Poissons Ratio (z) = 0.39398 0.30370
#
# Static dielectric constant tensor:
#      x y z
#    x 4.215830 0.000000 0.048500 
#    y 0.000000 3.825740 0.000000 
#    z 0.048500 0.000000 3.770780 
# 
# 
# High freq. dielectric constant tensor:
#      x y z
#    x 1.846370 0.000000 0.001470 
#    y 0.000000 1.812200 0.000000 
#    z 0.001470 0.000000 1.828690 
# 
# From -- ./inp_files/36825.got.cif
#   From: 2010.03.12/outbox.cif.g09.slc.cpg/sg14_19_cif.got.tgz:36825.got - 2010.03.31 13:35:05.
