data_PCOD8127950
_publ_section_title
;
Structure prediction by ZEFSAII (Michael W. Deem and Ramdas Pophale) SiO2 
 PCOD8127950
Probable space group: P 21/C
;
_chemical_formula_sum "Si O2"
_cell_formula_units_Z 20
_cell_length_a 11.191354
_cell_length_b 11.663958
_cell_length_c 7.505142
_cell_angle_alpha 90.000000
_cell_angle_beta 47.797378
_cell_angle_gamma 90.000000
_cell_volume 725.726766
_symmetry_space_group_name_H-M "P 21/C"
_symmetry_group_IT_number 14
_symmetry_cell_setting 'monoclinic'
loop_
_space_group_symop_operation_xyz
x,y,z
-x,1/2+y,1/2-z
-x,-y,-z
x,1/2-y,1/2+z
loop_
_atom_site_type_symbol
_atom_site_label
_atom_site_fract_x
_atom_site_fract_y
_atom_site_fract_z
Si Si1 0.801470 0.352712 0.159506
Si Si2 0.635348 0.566380 0.254729
Si Si3 0.647584 0.370618 0.683302
Si Si4 0.157905 0.288504 0.696132
Si Si5 0.167777 0.062660 0.838126
O O1 0.767319 0.466151 0.070982
O O2 0.773395 0.387979 0.393492
O O3 0.673348 0.252872 0.246021
O O4 0.981488 0.309179 0.955354
O O5 0.500000 0.500000 0.500000
O O6 0.540925 0.621642 0.180272
O O7 0.707606 0.663721 0.307188
O O8 0.688605 0.471308 0.784309
O O9 0.169670 0.343019 0.492074
O O10 0.186066 0.148147 0.646295
O O11 0.000000 0.000000 0.000000
#
# Coordination Sequence:
#
# PCOD8127950 Si02
#       5
#     4   4   4   4   4
#     4  11  23  45  71  99 141 183 235 285 357 408
#     4  10  23  43  71  97 144 182 235 287 353 415
#     4  11  25  46  66 105 143 182 232 300 341 424
#     4  12  25  45  75 101 138 189 230 295 347 415
#     4  12  27  45  70 106 141 176 240 284 351 418
#
# _framework density 27.558581
#
# number of rings (size 3 to 8) (size 9 to 14) (size 15 to 20)
#    0.000    0.800    6.000    1.800    2.800    0.000 
#    0.000    1.000    0.000    0.000    0.000    0.000 
#    0.000    0.000    0.000    0.000    0.000    0.000 
#
# Total GULP energy -248087.201588 kJ/mol
# GULP energy per Si atom -12404.360079 kJ/mol
# Density = 2.749586 g / cm^3
# Si number density = 27.558581 Si / 1000 Ang^3
#
#
#
# Elastic Constant Matrix: (Units=GPa)
#
#
# Indices 1 2 3 4 5 6 
#
# 1 154.3028 65.0082 -3.8607 0.0000 -22.6646 0.0000
# 2 65.0082 214.2640 -12.7710 0.0000 -11.0792 0.0000
# 3 -3.8607 -12.7710 43.3000 0.0000 -9.1082 0.0000
# 4 0.0000 0.0000 0.0000 25.4573 0.0000 5.6320
# 5 -22.6646 -11.0792 -9.1082 0.0000 44.0967 0.0000
# 6 0.0000 0.0000 0.0000 5.6320 0.0000 67.4111
#
#
#
# Elastic Compliance Matrix: (Units=1/GPa)
#
#
# Indices 1 2 3 4 5 6 
#
# 1 0.007965 -0.002173 0.000852 0.000000 0.003724 0.000000
# 2 -0.002173 0.005447 0.001532 0.000000 0.000568 0.000000
# 3 0.000852 0.001532 0.024877 0.000000 0.005961 0.000000
# 4 0.000000 0.000000 0.000000 0.040021 0.000000 -0.003344
# 5 0.003724 0.000568 0.005961 0.000000 0.025965 0.000000
# 6 0.000000 0.000000 0.000000 -0.003344 0.000000 0.015114
#
#
# Mechanical properties :
#
#
# Convention : Reuss Voigt Hill
#
# Bulk Modulus (GPa) = 25.83189 56.51331 41.17260
# Shear Modulus (GPa) = 37.91636 51.62571 44.77103
#
# Velocity S-wave (km/s) = 3.71326 4.33287 4.03498
# Velocity P-wave (km/s) = 5.27051 6.75150 6.05644
#
# Compressibility (1/GPa) = 0.03871184
#
# Stress axis : x y z
#
# Youngs Moduli (GPa) = 125.55590 183.58108 40.19834
#
# Poissons Ratio (x) = 0.39894 -0.03427
# Poissons Ratio (y) = 0.27285 -0.06160
# Poissons Ratio (z) = -0.10703 -0.28131
#
# Static dielectric constant tensor:
#      x y z
#    x 5.661450 0.000000 -0.024220 
#    y 0.000000 6.325180 0.000000 
#    z -0.024220 0.000000 5.414650 
# 
# 
# High freq. dielectric constant tensor:
#      x y z
#    x 2.128810 0.000000 -0.004790 
#    y 0.000000 2.144070 0.000000 
#    z -0.004790 0.000000 2.118650 
# 
# From -- ./inp_files/7854.got.cif
#   From: 2010.03.12/outbox.cif.g09.slc.cpg/sg14_4_cif.got.tgz:7854.got - 2010.03.31 13:35:05.
