data_PCOD8127985
_publ_section_title
;
Structure prediction by ZEFSAII (Michael W. Deem and Ramdas Pophale) SiO2 
 PCOD8127985
Probable space group: P 21/C
;
_chemical_formula_sum "Si O2"
_cell_formula_units_Z 32
_cell_length_a 8.696744
_cell_length_b 14.929924
_cell_length_c 23.972586
_cell_angle_alpha 90.000000
_cell_angle_beta 29.336691
_cell_angle_gamma 90.000000
_cell_volume 1525.010314
_symmetry_space_group_name_H-M "P 21/C"
_symmetry_group_IT_number 14
_symmetry_cell_setting 'monoclinic'
loop_
_space_group_symop_operation_xyz
x,y,z
-x,1/2+y,1/2-z
-x,-y,-z
x,1/2-y,1/2+z
loop_
_atom_site_type_symbol
_atom_site_label
_atom_site_fract_x
_atom_site_fract_y
_atom_site_fract_z
Si Si1 0.146238 0.186842 0.402928
Si Si2 0.799402 0.334434 0.741912
Si Si3 0.287558 0.916929 0.617688
Si Si4 0.747647 0.354067 0.508957
Si Si5 0.231084 0.491119 0.311468
Si Si6 0.466272 0.580756 0.895669
Si Si7 0.337815 0.419232 0.741202
Si Si8 0.347456 0.284399 0.077226
O O1 0.427909 0.185209 0.358090
O O2 0.283612 0.167567 0.297782
O O3 0.001426 0.284766 0.452624
O O4 0.897680 0.108318 0.496151
O O5 0.881748 0.366937 0.777797
O O6 0.888186 0.410775 0.669122
O O7 0.001218 0.244777 0.666324
O O8 0.496900 0.846308 0.518296
O O9 0.003521 0.955862 0.669901
O O10 0.507203 0.997431 0.569863
O O11 0.537173 0.388376 0.625690
O O12 0.546609 0.306733 0.523712
O O13 0.924824 0.438506 0.427024
O O14 0.398002 0.440997 0.207556
O O15 0.481753 0.501897 0.282468
O O16 0.660735 0.663326 0.860976
#
# Coordination Sequence:
#
# PCOD8127985 Si02
#       8
#     4   4   4   4   4   4   4   4
#     4  10  24  42  68  96 133 172 217 276 318 385
#     4  10  24  44  60  99 133 169 219 271 319 395
#     4  11  22  42  67  99 132 171 216 276 323 384
#     4  11  23  41  70  93 133 178 213 266 331 384
#     4  10  25  42  67  97 133 176 214 264 332 391
#     4  10  23  44  67  97 132 171 219 269 328 383
#     4  11  22  42  65  95 135 164 220 269 317 387
#     4  11  23  39  69  95 132 167 217 270 329 379
#
# _framework density 20.983466
#
# number of rings (size 3 to 8) (size 9 to 14) (size 15 to 20)
#    0.000    1.500    3.750    0.750    5.250    8.000 
#    2.250    0.000    0.000    0.000    0.000    0.000 
#    0.000    0.000    0.000    0.000    0.000    0.000 
#
# Total GULP energy -396817.045923 kJ/mol
# GULP energy per Si atom -12400.532685 kJ/mol
# Density = 2.093571 g / cm^3
# Si number density = 20.983466 Si / 1000 Ang^3
#
#
#
# Elastic Constant Matrix: (Units=GPa)
#
#
# Indices 1 2 3 4 5 6 
#
# 1 111.0560 42.0479 53.0242 0.0000 -15.4810 0.0000
# 2 42.0479 96.3830 64.8980 0.0000 -13.0118 0.0000
# 3 53.0242 64.8980 123.8639 0.0000 -8.4168 0.0000
# 4 0.0000 0.0000 0.0000 23.6630 0.0000 -2.7223
# 5 -15.4810 -13.0118 -8.4168 0.0000 31.4331 0.0000
# 6 0.0000 0.0000 0.0000 -2.7223 0.0000 19.6792
#
#
#
# Elastic Compliance Matrix: (Units=1/GPa)
#
#
# Indices 1 2 3 4 5 6 
#
# 1 0.012227 -0.002233 -0.003787 0.000000 0.004084 0.000000
# 2 -0.002233 0.017079 -0.007728 0.000000 0.003901 0.000000
# 3 -0.003787 -0.007728 0.013647 0.000000 -0.001409 0.000000
# 4 0.000000 0.000000 0.000000 0.042944 0.000000 0.005941
# 5 0.004084 0.003901 -0.001409 0.000000 0.035062 0.000000
# 6 0.000000 0.000000 0.000000 0.005941 0.000000 0.051637
#
#
# Mechanical properties :
#
#
# Convention : Reuss Voigt Hill
#
# Bulk Modulus (GPa) = 64.68702 72.36034 68.52368
# Shear Modulus (GPa) = 24.36116 26.37725 25.36921
#
# Velocity S-wave (km/s) = 3.41100 3.54934 3.48085
# Velocity P-wave (km/s) = 6.81232 7.16634 6.99157
#
# Compressibility (1/GPa) = 0.01545905
#
# Stress axis : x y z
#
# Youngs Moduli (GPa) = 81.78467 58.54996 73.27358
#
# Poissons Ratio (x) = 0.13076 0.27747
# Poissons Ratio (y) = 0.18264 0.56623
# Poissons Ratio (z) = 0.30970 0.45245
#
# Static dielectric constant tensor:
#      x y z
#    x 3.992470 0.000000 -0.065740 
#    y 0.000000 3.851880 0.000000 
#    z -0.065740 0.000000 3.762650 
# 
# 
# High freq. dielectric constant tensor:
#      x y z
#    x 1.829690 0.000000 -0.002540 
#    y 0.000000 1.815140 0.000000 
#    z -0.002540 0.000000 1.822700 
# 
# From -- ./inp_files/72443.got.cif
#   From: 2010.03.12/outbox.cif.g09.slc.cpg/sg14_37_cif.got.tgz:72443.got - 2010.03.31 13:35:05.
