data_PCOD8127150
_publ_section_title
;
Structure prediction by ZEFSAII (Michael W. Deem and Ramdas Pophale) SiO2 
 PCOD8127150
Probable space group: P 21/C
;
_chemical_formula_sum "Si O2"
_cell_formula_units_Z 20
_cell_length_a 6.951151
_cell_length_b 10.049797
_cell_length_c 17.113712
_cell_angle_alpha 90.000000
_cell_angle_beta 121.670289
_cell_angle_gamma 90.000000
_cell_volume 1017.490569
_symmetry_space_group_name_H-M "P 21/C"
_symmetry_group_IT_number 14
_symmetry_cell_setting 'monoclinic'
loop_
_space_group_symop_operation_xyz
x,y,z
-x,1/2+y,1/2-z
-x,-y,-z
x,1/2-y,1/2+z
loop_
_atom_site_type_symbol
_atom_site_label
_atom_site_fract_x
_atom_site_fract_y
_atom_site_fract_z
Si Si1 0.877341 0.952681 0.669814
Si Si2 0.805283 0.268966 0.081225
Si Si3 0.725636 0.857586 0.791648
Si Si4 0.566962 0.777959 0.115393
Si Si5 0.353235 0.565385 0.328355
O O1 0.814796 0.970161 0.749290
O O2 0.752522 0.818310 0.612289
O O3 0.147843 0.936876 0.722361
O O4 0.795645 0.076519 0.601976
O O5 0.669730 0.188688 0.118315
O O6 0.061412 0.220185 0.126382
O O7 0.680607 0.250649 0.972008
O O8 0.569191 0.753465 0.709218
O O9 0.587537 0.923594 0.831765
O O10 0.638827 0.930730 0.118588
#
# Coordination Sequence:
#
# PCOD8127150 Si02
#       5
#     4   4   4   4   4
#     4   9  20  39  61  83 117 156 198 243 293 347
#     4  11  21  40  62  88 121 155 199 247 296 353
#     4   9  23  36  60  88 118 157 196 243 294 351
#     4  10  22  40  59  91 119 154 203 243 296 354
#     4  11  20  40  61  84 125 159 194 245 299 351
#
# _framework density 19.656202
#
# number of rings (size 3 to 8) (size 9 to 14) (size 15 to 20)
#    1.200    0.800    2.000    1.200    2.800    0.800 
#    3.600    1.000    0.000    0.000    0.000    0.000 
#    0.000    0.000    0.000    0.000    0.000    0.000 
#
# Total GULP energy -247883.167644 kJ/mol
# GULP energy per Si atom -12394.158382 kJ/mol
# Density = 1.961146 g / cm^3
# Si number density = 19.656202 Si / 1000 Ang^3
#
#
#
# Elastic Constant Matrix: (Units=GPa)
#
#
# Indices 1 2 3 4 5 6 
#
# 1 97.5411 29.8285 31.3295 0.0000 16.2188 0.0000
# 2 29.8285 89.8037 27.3710 0.0000 13.5236 0.0000
# 3 31.3295 27.3710 134.2587 0.0000 37.4943 0.0000
# 4 0.0000 0.0000 0.0000 26.6969 0.0000 9.8150
# 5 16.2188 13.5236 37.4943 0.0000 19.5961 0.0000
# 6 0.0000 0.0000 0.0000 9.8150 0.0000 18.4406
#
#
#
# Elastic Compliance Matrix: (Units=1/GPa)
#
#
# Indices 1 2 3 4 5 6 
#
# 1 0.012531 -0.002902 0.000010 0.000000 -0.008387 0.000000
# 2 -0.002902 0.013105 -0.000300 0.000000 -0.006068 0.000000
# 3 0.000010 -0.000300 0.016002 0.000000 -0.030419 0.000000
# 4 0.000000 0.000000 0.000000 0.046570 0.000000 -0.024787
# 5 -0.008387 -0.006068 -0.030419 0.000000 0.120363 0.000000
# 6 0.000000 0.000000 0.000000 -0.024787 0.000000 0.067421
#
#
# Mechanical properties :
#
#
# Convention : Reuss Voigt Hill
#
# Bulk Modulus (GPa) = 28.36576 55.40682 41.88629
# Shear Modulus (GPa) = 16.99944 28.48503 22.74223
#
# Velocity S-wave (km/s) = 2.94400 3.81092 3.40516
# Velocity P-wave (km/s) = 5.10083 6.90024 6.06761
#
# Compressibility (1/GPa) = 0.03525377
#
# Stress axis : x y z
#
# Youngs Moduli (GPa) = 79.80189 76.30963 62.49125
#
# Poissons Ratio (x) = 0.22146 -0.00062
# Poissons Ratio (y) = 0.23160 0.01873
# Poissons Ratio (z) = -0.00079 0.02287
#
# Static dielectric constant tensor:
#      x y z
#    x 3.192560 0.000000 0.271040 
#    y 0.000000 3.501140 0.000000 
#    z 0.271040 0.000000 3.479250 
# 
# 
# High freq. dielectric constant tensor:
#      x y z
#    x 1.735220 0.000000 0.027390 
#    y 0.000000 1.768850 0.000000 
#    z 0.027390 0.000000 1.761970 
# 
# From -- ./inp_files/44689.got.cif
#   From: 2010.03.12/outbox.cif.g09.slc.cpg/sg14_23_cif.got.tgz:44689.got - 2010.03.31 13:35:05.
