data_PCOD8127520
_publ_section_title
;
Structure prediction by ZEFSAII (Michael W. Deem and Ramdas Pophale) SiO2 
 PCOD8127520
Probable space group: P 21/C
;
_chemical_formula_sum "Si O2"
_cell_formula_units_Z 32
_cell_length_a 19.806899
_cell_length_b 8.752005
_cell_length_c 25.650052
_cell_angle_alpha 90.000000
_cell_angle_beta 159.588347
_cell_angle_gamma 90.000000
_cell_volume 1550.751767
_symmetry_space_group_name_H-M "P 21/C"
_symmetry_group_IT_number 14
_symmetry_cell_setting 'monoclinic'
loop_
_space_group_symop_operation_xyz
x,y,z
-x,1/2+y,1/2-z
-x,-y,-z
x,1/2-y,1/2+z
loop_
_atom_site_type_symbol
_atom_site_label
_atom_site_fract_x
_atom_site_fract_y
_atom_site_fract_z
Si Si1 0.395500 0.118380 0.110205
Si Si2 0.603814 0.160705 0.569883
Si Si3 0.646626 0.177930 0.861326
Si Si4 0.691785 0.157436 0.235105
Si Si5 0.026051 0.713044 0.834792
Si Si6 0.026843 0.932747 0.225927
Si Si7 0.948465 0.349628 0.493657
Si Si8 0.251091 0.335429 0.275240
O O1 0.466634 0.239497 0.204263
O O2 0.499876 0.137171 0.130559
O O3 0.442947 0.950606 0.166431
O O4 0.168172 0.142995 0.937369
O O5 0.647069 0.218624 0.658938
O O6 0.801620 0.144108 0.681844
O O7 0.471186 0.281108 0.442635
O O8 0.500000 0.000000 0.500000
O O9 0.788640 0.103886 0.920914
O O10 0.773763 0.295524 0.987816
O O11 0.867888 0.217284 0.397882
O O12 0.755188 0.998044 0.256691
O O13 0.052775 0.602987 0.805312
O O14 0.850248 0.648047 0.741928
O O15 0.976341 0.885564 0.782306
O O16 0.000000 0.500000 0.500000
O O17 0.141777 0.289495 0.661156
#
# Coordination Sequence:
#
# PCOD8127520 Si02
#       8
#     4   4   4   4   4   4   4   4
#     4  10  23  44  63  96 130 165 218 265 325 390
#     4  12  25  44  66  96 131 177 222 269 334 391
#     4   9  22  42  64  91 130 165 210 270 320 388
#     4  11  25  42  68  98 130 172 219 275 336 390
#     4  10  23  43  64  96 131 168 220 269 324 393
#     4  11  25  42  66  94 128 176 218 269 329 392
#     4  10  22  43  68  97 128 171 220 268 329 395
#     4  11  23  43  66  97 137 166 218 278 321 399
#
# _framework density 20.635152999999999
#
# number of rings (size 3 to 8) (size 9 to 14) (size 15 to 20)
#    0.000    1.500    1.250    2.250    8.750    2.000 
#    6.750    0.000    0.000    0.000    0.000    0.000 
#    0.000    0.000    0.000    0.000    0.000    0.000 
#
# Total GULP energy -396995.272905 kJ/mol
# GULP energy per Si atom -12406.102278 kJ/mol
# Density = 2.058819 g / cm^3
# Si number density = 20.635153 Si / 1000 Ang^3
#
#
#
# Elastic Constant Matrix: (Units=GPa)
#
#
# Indices 1 2 3 4 5 6 
#
# 1 143.1502 55.9732 68.4409 0.0000 -1.4600 0.0000
# 2 55.9732 57.4745 12.3251 0.0000 7.6146 0.0000
# 3 68.4409 12.3251 97.9586 0.0000 8.5871 0.0000
# 4 0.0000 0.0000 0.0000 23.9780 0.0000 -9.2445
# 5 -1.4600 7.6146 8.5871 0.0000 33.1929 0.0000
# 6 0.0000 0.0000 0.0000 -9.2445 0.0000 40.2397
#
#
#
# Elastic Compliance Matrix: (Units=1/GPa)
#
#
# Indices 1 2 3 4 5 6 
#
# 1 0.020043 -0.017935 -0.012468 0.000000 0.008222 0.000000
# 2 -0.017935 0.034362 0.009176 0.000000 -0.011046 0.000000
# 3 -0.012468 0.009176 0.018415 0.000000 -0.007417 0.000000
# 4 0.000000 0.000000 0.000000 0.045758 0.000000 0.010512
# 5 0.008222 -0.011046 -0.007417 0.000000 0.034941 0.000000
# 6 0.000000 0.000000 0.000000 0.010512 0.000000 0.027266
#
#
# Mechanical properties :
#
#
# Convention : Reuss Voigt Hill
#
# Bulk Modulus (GPa) = 32.93233 63.56243 48.24738
# Shear Modulus (GPa) = 21.42592 30.27172 25.84882
#
# Velocity S-wave (km/s) = 3.22580 3.83430 3.54313
# Velocity P-wave (km/s) = 5.46519 7.10438 6.33800
#
# Compressibility (1/GPa) = 0.03036529
#
# Stress axis : x y z
#
# Youngs Moduli (GPa) = 49.89163 29.10218 54.30342
#
# Poissons Ratio (x) = 0.52196 0.67705
# Poissons Ratio (y) = 0.89483 -0.49828
# Poissons Ratio (z) = 0.62204 -0.26704
#
# Static dielectric constant tensor:
#      x y z
#    x 4.005820 0.000000 -0.137360 
#    y 0.000000 3.504930 0.000000 
#    z -0.137360 0.000000 3.971610 
# 
# 
# High freq. dielectric constant tensor:
#      x y z
#    x 1.819890 0.000000 -0.009320 
#    y 0.000000 1.804230 0.000000 
#    z -0.009320 0.000000 1.820530 
# 
# From -- ./inp_files/78019.got.cif
#   From: 2010.03.12/outbox.cif.g09.slc.cpg/sg14_40_cif.got.tgz:78019.got - 2010.03.31 13:35:05.
