data_PCOD8127246
_publ_section_title
;
Structure prediction by ZEFSAII (Michael W. Deem and Ramdas Pophale) SiO2 
 PCOD8127246
Probable space group: P 21/C
;
_chemical_formula_sum "Si O2"
_cell_formula_units_Z 32
_cell_length_a 10.978320
_cell_length_b 10.404765
_cell_length_c 14.340602
_cell_angle_alpha 90.000000
_cell_angle_beta 104.080330
_cell_angle_gamma 90.000000
_cell_volume 1588.866454
_symmetry_space_group_name_H-M "P 21/C"
_symmetry_group_IT_number 14
_symmetry_cell_setting 'monoclinic'
loop_
_space_group_symop_operation_xyz
x,y,z
-x,1/2+y,1/2-z
-x,-y,-z
x,1/2-y,1/2+z
loop_
_atom_site_type_symbol
_atom_site_label
_atom_site_fract_x
_atom_site_fract_y
_atom_site_fract_z
Si Si1 0.187019 0.925381 0.442094
Si Si2 0.593778 0.264805 0.950574
Si Si3 0.908566 0.510974 0.259645
Si Si4 0.573131 0.807772 0.918673
Si Si5 0.305312 0.536649 0.640268
Si Si6 0.256749 0.408137 0.119772
Si Si7 0.532486 0.073671 0.271332
Si Si8 0.966836 0.794293 0.316869
O O1 0.321231 0.854662 0.467962
O O2 0.180816 0.016175 0.348985
O O3 0.073993 0.820335 0.415294
O O4 0.171012 0.009196 0.533059
O O5 0.686507 0.172128 0.910340
O O6 0.513025 0.350204 0.864119
O O7 0.495897 0.185586 0.994869
O O8 0.829733 0.476450 0.336913
O O9 0.977072 0.648316 0.282835
O O10 0.011490 0.396920 0.263747
O O11 0.642593 0.672056 0.921074
O O12 0.470526 0.827145 0.816580
O O13 0.676267 0.922240 0.932363
O O14 0.416818 0.526390 0.738332
O O15 0.333408 0.501782 0.203357
O O16 0.171047 0.315185 0.165819
#
# Coordination Sequence:
#
# PCOD8127246 Si02
#       8
#     4   4   4   4   4   4   4   4
#     4   9  25  38  67  89 125 164 226 259 325 378
#     4  11  22  39  62  96 125 171 209 262 319 385
#     4  10  23  42  68  89 127 168 216 268 320 383
#     4  10  23  36  64  93 136 162 212 256 327 384
#     4  10  22  41  59  94 131 165 210 262 321 385
#     4  11  20  41  62  93 127 169 213 264 318 387
#     4   9  23  35  63  91 131 168 204 256 319 386
#     4  10  22  43  64  95 122 170 219 266 320 373
#
# _framework density 20.140146000000001
#
# number of rings (size 3 to 8) (size 9 to 14) (size 15 to 20)
#    1.500    0.500    1.250    1.500    5.250    4.000 
#    0.000    1.875    0.000    0.000    0.000    0.000 
#    0.000    0.000    0.000    0.000    0.000    0.000 
#
# Total GULP energy -396615.782164 kJ/mol
# GULP energy per Si atom -12394.243193 kJ/mol
# Density = 2.009431 g / cm^3
# Si number density = 20.140146 Si / 1000 Ang^3
#
#
#
# Elastic Constant Matrix: (Units=GPa)
#
#
# Indices 1 2 3 4 5 6 
#
# 1 78.2478 33.7952 17.3510 0.0000 -20.3043 0.0000
# 2 33.7952 109.0509 33.0255 0.0000 -3.1925 0.0000
# 3 17.3510 33.0255 64.0236 0.0000 2.8734 0.0000
# 4 0.0000 0.0000 0.0000 37.1144 0.0000 0.3887
# 5 -20.3043 -3.1925 2.8734 0.0000 24.2016 0.0000
# 6 0.0000 0.0000 0.0000 0.3887 0.0000 39.2387
#
#
#
# Elastic Compliance Matrix: (Units=1/GPa)
#
#
# Indices 1 2 3 4 5 6 
#
# 1 0.019859 -0.004523 -0.003790 0.000000 0.016515 0.000000
# 2 -0.004523 0.012006 -0.004894 0.000000 -0.001630 0.000000
# 3 -0.003790 -0.004894 0.019446 0.000000 -0.006134 0.000000
# 4 0.000000 0.000000 0.000000 0.026946 0.000000 -0.000267
# 5 0.016515 -0.001630 -0.006134 0.000000 0.055688 0.000000
# 6 0.000000 0.000000 0.000000 -0.000267 0.000000 0.025488
#
#
# Mechanical properties :
#
#
# Convention : Reuss Voigt Hill
#
# Bulk Modulus (GPa) = 40.16570 46.62953 43.39761
# Shear Modulus (GPa) = 25.75358 31.25431 28.50394
#
# Velocity S-wave (km/s) = 3.57980 3.94362 3.76610
# Velocity P-wave (km/s) = 6.08876 6.62864 6.36443
#
# Compressibility (1/GPa) = 0.02489687
#
# Stress axis : x y z
#
# Youngs Moduli (GPa) = 50.35454 83.28986 51.42372
#
# Poissons Ratio (x) = 0.37674 0.19490
# Poissons Ratio (y) = 0.22776 0.25168
# Poissons Ratio (z) = 0.19084 0.40764
#
# Static dielectric constant tensor:
#      x y z
#    x 3.277970 0.000000 0.026500 
#    y 0.000000 3.584650 0.000000 
#    z 0.026500 0.000000 3.433330 
# 
# 
# High freq. dielectric constant tensor:
#      x y z
#    x 1.770310 0.000000 -0.003310 
#    y 0.000000 1.790870 0.000000 
#    z -0.003310 0.000000 1.769400 
# 
# From -- ./inp_files/55473.got.cif
#   From: 2010.03.12/outbox.cif.g09.slc.cpg/sg14_28_cif.got.tgz:55473.got - 2010.03.31 13:35:05.
