data_PCOD8127204
_publ_section_title
;
Structure prediction by ZEFSAII (Michael W. Deem and Ramdas Pophale) SiO2 
 PCOD8127204
Probable space group: P 21/C
;
_chemical_formula_sum "Si O2"
_cell_formula_units_Z 28
_cell_length_a 13.029162
_cell_length_b 9.877958
_cell_length_c 18.747508
_cell_angle_alpha 90.000000
_cell_angle_beta 145.912169
_cell_angle_gamma 90.000000
_cell_volume 1352.303711
_symmetry_space_group_name_H-M "P 21/C"
_symmetry_group_IT_number 14
_symmetry_cell_setting 'monoclinic'
loop_
_space_group_symop_operation_xyz
x,y,z
-x,1/2+y,1/2-z
-x,-y,-z
x,1/2-y,1/2+z
loop_
_atom_site_type_symbol
_atom_site_label
_atom_site_fract_x
_atom_site_fract_y
_atom_site_fract_z
Si Si1 0.421364 0.203333 0.136925
Si Si2 0.925817 0.687604 0.128459
Si Si3 0.050870 0.065269 0.765866
Si Si4 0.655304 0.676747 0.758201
Si Si5 0.006440 0.735577 0.903860
Si Si6 0.700611 0.064685 0.989065
Si Si7 0.811924 0.120662 0.351459
O O1 0.432853 0.267521 0.221016
O O2 0.626715 0.201119 0.223386
O O3 0.345903 0.048991 0.097227
O O4 0.287938 0.291917 0.010965
O O5 0.922297 0.567182 0.184793
O O6 0.037141 0.653293 0.121160
O O7 0.016837 0.822742 0.215981
O O8 0.058189 0.126032 0.691603
O O9 0.249251 0.007419 0.906674
O O10 0.806643 0.785802 0.817720
O O11 0.480477 0.657641 0.604633
O O12 0.771354 0.538623 0.835459
O O13 0.120577 0.856223 0.935022
O O14 0.123520 0.667377 0.033666
#
# Coordination Sequence:
#
# PCOD8127204 Si02
#       7
#     4   4   4   4   4   4   4
#     4  10  22  40  64  95 134 166 214 286 326 373
#     4  11  22  44  65  95 132 173 223 272 329 398
#     4  11  23  42  66  92 134 176 213 272 332 391
#     4  11  21  39  66  95 125 173 216 270 331 385
#     4  12  21  39  69  92 124 172 222 265 332 388
#     4  10  24  41  59  97 134 165 220 274 324 397
#     4  11  22  40  68  97 123 174 226 269 322 403
#
# _framework density 20.705407999999998
#
# number of rings (size 3 to 8) (size 9 to 14) (size 15 to 20)
#    0.000    1.143    5.714    1.286    0.000    1.143 
#    2.571    0.714    0.000    0.000    0.000    0.000 
#    0.000    0.000    0.000    0.000    0.000    0.000 
#
# Total GULP energy -346908.192376 kJ/mol
# GULP energy per Si atom -12389.578299 kJ/mol
# Density = 2.065828 g / cm^3
# Si number density = 20.705408 Si / 1000 Ang^3
#
#
#
# Elastic Constant Matrix: (Units=GPa)
#
#
# Indices 1 2 3 4 5 6 
#
# 1 53.2019 24.2626 33.4953 0.0000 -5.4452 0.0000
# 2 24.2626 71.1065 45.7014 0.0000 -2.8308 0.0000
# 3 33.4953 45.7014 112.1723 0.0000 -14.7285 0.0000
# 4 0.0000 0.0000 0.0000 40.6374 0.0000 -3.1914
# 5 -5.4452 -2.8308 -14.7285 0.0000 29.1119 0.0000
# 6 0.0000 0.0000 0.0000 -3.1914 0.0000 29.3136
#
#
#
# Elastic Compliance Matrix: (Units=1/GPa)
#
#
# Indices 1 2 3 4 5 6 
#
# 1 0.024422 -0.005032 -0.005042 0.000000 0.001528 0.000000
# 2 -0.005032 0.020224 -0.007072 0.000000 -0.002553 0.000000
# 3 -0.005042 -0.007072 0.014019 0.000000 0.005462 0.000000
# 4 0.000000 0.000000 0.000000 0.024820 0.000000 0.002702
# 5 0.001528 -0.002553 0.005462 0.000000 0.037151 0.000000
# 6 0.000000 0.000000 0.000000 0.002702 0.000000 0.034408
#
#
# Mechanical properties :
#
#
# Convention : Reuss Voigt Hill
#
# Bulk Modulus (GPa) = 41.02919 49.26659 45.14789
# Shear Modulus (GPa) = 25.32151 28.68067 27.00109
#
# Velocity S-wave (km/s) = 3.50085 3.72584 3.61509
# Velocity P-wave (km/s) = 6.01664 6.50806 6.26717
#
# Compressibility (1/GPa) = 0.02437289
#
# Stress axis : x y z
#
# Youngs Moduli (GPa) = 40.94723 49.44550 71.33170
#
# Poissons Ratio (x) = 0.24880 0.35964
# Poissons Ratio (y) = 0.20604 0.50449
# Poissons Ratio (z) = 0.20645 0.34970
#
# Static dielectric constant tensor:
#      x y z
#    x 3.583670 0.000000 0.003670 
#    y 0.000000 3.913920 0.000000 
#    z 0.003670 0.000000 4.216560 
# 
# 
# High freq. dielectric constant tensor:
#      x y z
#    x 1.780980 0.000000 -0.006590 
#    y 0.000000 1.805610 0.000000 
#    z -0.006590 0.000000 1.837420 
# 
# From -- ./inp_files/68379.got.cif
#   From: 2010.03.12/outbox.cif.g09.slc.cpg/sg14_35_cif.got.tgz:68379.got - 2010.03.31 13:35:05.
