data_PCOD8127399
_publ_section_title
;
Structure prediction by ZEFSAII (Michael W. Deem and Ramdas Pophale) SiO2 
 PCOD8127399
Probable space group: P 21/C
;
_chemical_formula_sum "Si O2"
_cell_formula_units_Z 28
_cell_length_a 6.364673
_cell_length_b 11.286222
_cell_length_c 22.359329
_cell_angle_alpha 90.000000
_cell_angle_beta 128.322731
_cell_angle_gamma 90.000000
_cell_volume 1260.065846
_symmetry_space_group_name_H-M "P 21/C"
_symmetry_group_IT_number 14
_symmetry_cell_setting 'monoclinic'
loop_
_space_group_symop_operation_xyz
x,y,z
-x,1/2+y,1/2-z
-x,-y,-z
x,1/2-y,1/2+z
loop_
_atom_site_type_symbol
_atom_site_label
_atom_site_fract_x
_atom_site_fract_y
_atom_site_fract_z
Si Si1 0.757857 0.812006 0.540874
Si Si2 0.496872 0.166674 0.629397
Si Si3 0.723194 0.468817 0.842033
Si Si4 0.578134 0.798705 0.637150
Si Si5 0.440538 0.563110 0.323303
Si Si6 0.002789 0.613313 0.721956
Si Si7 0.841647 0.377543 0.381355
O O1 0.591850 0.850193 0.454179
O O2 0.557830 0.818342 0.562038
O O3 0.001085 0.903753 0.593100
O O4 0.861326 0.673962 0.551389
O O5 0.529724 0.303173 0.652415
O O6 0.790718 0.105172 0.686425
O O7 0.277776 0.106215 0.635794
O O8 0.468908 0.420332 0.835832
O O9 0.660464 0.453351 0.761884
O O10 0.864082 0.742200 0.703318
O O11 0.351047 0.713985 0.621284
O O12 0.213327 0.492968 0.321161
O O13 0.739261 0.505889 0.386411
O O14 0.187951 0.617676 0.695568
#
# Coordination Sequence:
#
# PCOD8127399 Si02
#       7
#     4   4   4   4   4   4   4
#     4  10  23  43  64  97 138 170 208 271 335 401
#     4  12  25  41  65 100 130 172 223 266 338 394
#     4  11  24  42  67  97 133 172 218 274 328 392
#     4   9  20  42  69  88 131 178 209 265 332 380
#     4  11  24  42  69  97 124 173 227 274 318 388
#     4  10  22  42  65  96 126 168 220 278 315 382
#     4   9  19  44  69  91 130 170 216 267 324 384
#
# _framework density 22.221062
#
# number of rings (size 3 to 8) (size 9 to 14) (size 15 to 20)
#    0.000    1.714    1.429    3.000    6.000    1.143 
#    5.143    6.429    0.000    0.000    0.000    0.000 
#    0.000    0.000    0.000    0.000    0.000    0.000 
#
# Total GULP energy -346879.398489 kJ/mol
# GULP energy per Si atom -12388.549946 kJ/mol
# Density = 2.217049 g / cm^3
# Si number density = 22.221062 Si / 1000 Ang^3
#
#
#
# Elastic Constant Matrix: (Units=GPa)
#
#
# Indices 1 2 3 4 5 6 
#
# 1 114.2769 35.1961 26.5508 0.0000 -19.4009 0.0000
# 2 35.1961 96.6664 13.2708 0.0000 -1.2231 0.0000
# 3 26.5508 13.2708 74.7077 0.0000 -17.8717 0.0000
# 4 0.0000 0.0000 0.0000 22.3822 0.0000 -5.1712
# 5 -19.4009 -1.2231 -17.8717 0.0000 26.5827 0.0000
# 6 0.0000 0.0000 0.0000 -5.1712 0.0000 28.7669
#
#
#
# Elastic Compliance Matrix: (Units=1/GPa)
#
#
# Indices 1 2 3 4 5 6 
#
# 1 0.011549 -0.003879 -0.001718 0.000000 0.007095 0.000000
# 2 -0.003879 0.011926 -0.001532 0.000000 -0.003313 0.000000
# 3 -0.001718 -0.001532 0.016625 0.000000 0.009853 0.000000
# 4 0.000000 0.000000 0.000000 0.046614 0.000000 0.008379
# 5 0.007095 -0.003313 0.009853 0.000000 0.049269 0.000000
# 6 0.000000 0.000000 0.000000 0.008379 0.000000 0.036268
#
#
# Mechanical properties :
#
#
# Convention : Reuss Voigt Hill
#
# Bulk Modulus (GPa) = 38.69818 48.40959 43.55388
# Shear Modulus (GPa) = 25.62460 29.58856 27.60658
#
# Velocity S-wave (km/s) = 3.39952 3.65301 3.52854
# Velocity P-wave (km/s) = 5.73252 6.29487 6.02027
#
# Compressibility (1/GPa) = 0.02584101
#
# Stress axis : x y z
#
# Youngs Moduli (GPa) = 86.58556 83.85193 60.14930
#
# Poissons Ratio (x) = 0.32530 0.10334
# Poissons Ratio (y) = 0.33590 0.09216
# Poissons Ratio (z) = 0.14876 0.12848
#
# Static dielectric constant tensor:
#      x y z
#    x 4.546240 0.000000 0.059360 
#    y 0.000000 4.556970 0.000000 
#    z 0.059360 0.000000 3.803010 
# 
# 
# High freq. dielectric constant tensor:
#      x y z
#    x 1.884780 0.000000 -0.006940 
#    y 0.000000 1.885940 0.000000 
#    z -0.006940 0.000000 1.848570 
# 
# From -- ./inp_files/63607.got.cif
#   From: 2010.03.12/outbox.cif.g09.slc.cpg/sg14_32_cif.got.tgz:63607.got - 2010.03.31 13:35:05.
