data_PCOD8127562
_publ_section_title
;
Structure prediction by ZEFSAII (Michael W. Deem and Ramdas Pophale) SiO2 
 PCOD8127562
Probable space group: P 21/C
;
_chemical_formula_sum "Si O2"
_cell_formula_units_Z 28
_cell_length_a 16.155194
_cell_length_b 5.185103
_cell_length_c 17.962638
_cell_angle_alpha 90.000000
_cell_angle_beta 132.171851
_cell_angle_gamma 90.000000
_cell_volume 1115.158821
_symmetry_space_group_name_H-M "P 21/C"
_symmetry_group_IT_number 14
_symmetry_cell_setting 'monoclinic'
loop_
_space_group_symop_operation_xyz
x,y,z
-x,1/2+y,1/2-z
-x,-y,-z
x,1/2-y,1/2+z
loop_
_atom_site_type_symbol
_atom_site_label
_atom_site_fract_x
_atom_site_fract_y
_atom_site_fract_z
Si Si1 0.158850 0.863212 0.646919
Si Si2 0.075823 0.336893 0.962568
Si Si3 0.723170 0.971927 0.886833
Si Si4 0.594395 0.484270 0.452840
Si Si5 0.314171 0.010692 0.413740
Si Si6 0.350076 0.178386 0.796204
Si Si7 0.932194 0.414717 0.190065
O O1 0.237297 0.692792 0.643776
O O2 0.052244 0.721795 0.621781
O O3 0.099562 0.082690 0.561549
O O4 0.242758 0.002166 0.755705
O O5 0.090654 0.568906 0.912555
O O6 0.169145 0.123510 0.000721
O O7 0.635898 0.078966 0.894398
O O8 0.663459 0.757352 0.798820
O O9 0.643186 0.759053 0.507276
O O10 0.460555 0.492938 0.371865
O O11 0.629411 0.257159 0.529548
O O12 0.350147 0.073950 0.350646
O O13 0.181214 0.975702 0.334578
O O14 0.975697 0.129502 0.233382
#
# Coordination Sequence:
#
# PCOD8127562 Si02
#       7
#     4   4   4   4   4   4   4
#     4  10  23  42  71  98 148 182 249 302 373 437
#     4  10  22  44  65 104 138 193 233 305 373 439
#     4  11  25  43  73 105 145 192 246 310 368 447
#     4  12  28  48  77 103 156 197 252 302 375 442
#     4  12  27  51  73 108 150 201 245 308 375 442
#     4  11  28  44  74 111 143 199 257 306 366 441
#     4  12  26  42  73 102 141 185 245 301 369 440
#
# _framework density 25.108529000000001
#
# number of rings (size 3 to 8) (size 9 to 14) (size 15 to 20)
#    0.000    0.857    1.429    3.857   12.000    0.000 
#    0.000    0.000    0.000    0.000    0.000    0.000 
#    0.000    0.000    0.000    0.000    0.000    0.000 
#
# Total GULP energy -347169.942482 kJ/mol
# GULP energy per Si atom -12398.926517 kJ/mol
# Density = 2.505138 g / cm^3
# Si number density = 25.108529 Si / 1000 Ang^3
#
#
#
# Elastic Constant Matrix: (Units=GPa)
#
#
# Indices 1 2 3 4 5 6 
#
# 1 87.4949 -11.6602 35.3259 0.0000 25.1115 0.0000
# 2 -11.6602 57.0062 29.8675 0.0000 17.6592 0.0000
# 3 35.3259 29.8675 126.2768 0.0000 28.3971 0.0000
# 4 0.0000 0.0000 0.0000 27.8781 0.0000 0.5237
# 5 25.1115 17.6592 28.3971 0.0000 48.8709 0.0000
# 6 0.0000 0.0000 0.0000 0.5237 0.0000 33.8104
#
#
#
# Elastic Compliance Matrix: (Units=1/GPa)
#
#
# Indices 1 2 3 4 5 6 
#
# 1 0.017241 0.008941 -0.004853 0.000000 -0.009269 0.000000
# 2 0.008941 0.025857 -0.006307 0.000000 -0.010273 0.000000
# 3 -0.004853 -0.006307 0.011153 0.000000 -0.001708 0.000000
# 4 0.000000 0.000000 0.000000 0.035881 0.000000 -0.000556
# 5 -0.009269 -0.010273 -0.001708 0.000000 0.029929 0.000000
# 6 0.000000 0.000000 0.000000 -0.000556 0.000000 0.029585
#
#
# Mechanical properties :
#
#
# Convention : Reuss Voigt Hill
#
# Bulk Modulus (GPa) = 20.07569 41.98269 31.02919
# Shear Modulus (GPa) = 29.29309 36.59486 32.94398
#
# Velocity S-wave (km/s) = 3.41934 3.82182 3.62617
# Velocity P-wave (km/s) = 4.85820 6.01929 5.46964
#
# Compressibility (1/GPa) = 0.04981149
#
# Stress axis : x y z
#
# Youngs Moduli (GPa) = 58.00267 38.67373 89.66556
#
# Poissons Ratio (x) = -0.34577 0.43517
# Poissons Ratio (y) = -0.51858 0.56551
# Poissons Ratio (z) = 0.28150 0.24391
#
# Static dielectric constant tensor:
#      x y z
#    x 4.692080 0.000000 0.076280 
#    y 0.000000 4.269350 0.000000 
#    z 0.076280 0.000000 5.064020 
# 
# 
# High freq. dielectric constant tensor:
#      x y z
#    x 2.005980 0.000000 0.007300 
#    y 0.000000 1.986410 0.000000 
#    z 0.007300 0.000000 2.020750 
# 
# From -- ./inp_files/68978.got.cif
#   From: 2010.03.12/outbox.cif.g09.slc.cpg/sg14_35_cif.got.tgz:68978.got - 2010.03.31 13:35:05.
