data_PCOD8127749
_publ_section_title
;
Structure prediction by ZEFSAII (Michael W. Deem and Ramdas Pophale) SiO2 
 PCOD8127749
Probable space group: P 21/C
;
_chemical_formula_sum "Si O2"
_cell_formula_units_Z 24
_cell_length_a 6.037573
_cell_length_b 11.364841
_cell_length_c 15.510943
_cell_angle_alpha 90.000000
_cell_angle_beta 109.812067
_cell_angle_gamma 90.000000
_cell_volume 1001.303218
_symmetry_space_group_name_H-M "P 21/C"
_symmetry_group_IT_number 14
_symmetry_cell_setting 'monoclinic'
loop_
_space_group_symop_operation_xyz
x,y,z
-x,1/2+y,1/2-z
-x,-y,-z
x,1/2-y,1/2+z
loop_
_atom_site_type_symbol
_atom_site_label
_atom_site_fract_x
_atom_site_fract_y
_atom_site_fract_z
Si Si1 0.702114 0.238865 0.918961
Si Si2 0.172315 0.318553 0.026483
Si Si3 0.603154 0.161146 0.090859
Si Si4 0.076242 0.640628 0.827118
Si Si5 0.504961 0.015388 0.381308
Si Si6 0.612430 0.560868 0.705931
O O1 0.525077 0.348712 0.910936
O O2 0.600783 0.155092 0.830315
O O3 0.701709 0.162234 0.006565
O O4 0.965147 0.287709 0.929615
O O5 0.334239 0.204550 0.058472
O O6 0.335539 0.434891 0.031389
O O7 0.027645 0.343217 0.092692
O O8 0.760810 0.246273 0.173067
O O9 0.606638 0.029891 0.126663
O O10 0.233669 0.522508 0.848294
O O11 0.863235 0.628097 0.731137
O O12 0.597243 0.002988 0.295553
#
# Coordination Sequence:
#
# PCOD8127749 Si02
#       6
#     4   4   4   4   4   4
#     4  11  24  40  66  95 129 170 217 262 325 378
#     4   9  21  42  64  93 128 165 213 264 317 377
#     4  10  23  42  65  93 134 166 215 263 323 384
#     4   9  22  41  65  92 127 170 211 264 315 376
#     4  10  23  40  67  93 128 172 221 262 316 379
#     4  11  25  39  65  96 131 170 215 266 324 379
#
# _framework density 23.968764
#
# number of rings (size 3 to 8) (size 9 to 14) (size 15 to 20)
#    0.000    2.000    0.000    1.000    9.333   12.000 
#    0.000    0.000    0.000    0.000    0.000    0.000 
#    0.000    0.000    0.000    0.000    0.000    0.000 
#
# Total GULP energy -297559.826329 kJ/mol
# GULP energy per Si atom -12398.326097 kJ/mol
# Density = 2.391421 g / cm^3
# Si number density = 23.968764 Si / 1000 Ang^3
#
#
#
# Elastic Constant Matrix: (Units=GPa)
#
#
# Indices 1 2 3 4 5 6 
#
# 1 77.1657 2.0102 5.8237 0.0000 38.4021 0.0000
# 2 2.0102 87.3865 26.7648 0.0000 33.4165 0.0000
# 3 5.8237 26.7648 70.8962 0.0000 31.2614 0.0000
# 4 0.0000 0.0000 0.0000 38.0986 0.0000 3.9088
# 5 38.4021 33.4165 31.2614 0.0000 44.8081 0.0000
# 6 0.0000 0.0000 0.0000 3.9088 0.0000 28.4916
#
#
#
# Elastic Compliance Matrix: (Units=1/GPa)
#
#
# Indices 1 2 3 4 5 6 
#
# 1 0.039798 0.016089 0.015870 0.000000 -0.057178 0.000000
# 2 0.016089 0.022575 0.005286 0.000000 -0.034312 0.000000
# 3 0.015870 0.005286 0.026780 0.000000 -0.036226 0.000000
# 4 0.000000 0.000000 0.000000 0.026622 0.000000 -0.003652
# 5 -0.057178 -0.034312 -0.036226 0.000000 0.122184 0.000000
# 6 0.000000 0.000000 0.000000 -0.003652 0.000000 0.035599
#
#
# Mechanical properties :
#
#
# Convention : Reuss Voigt Hill
#
# Bulk Modulus (GPa) = 6.11094 33.84953 19.98024
# Shear Modulus (GPa) = 19.71471 35.66965 27.69218
#
# Velocity S-wave (km/s) = 2.87107 3.86187 3.40272
# Velocity P-wave (km/s) = 3.68046 5.83424 4.87771
#
# Compressibility (1/GPa) = 0.16364091
#
# Stress axis : x y z
#
# Youngs Moduli (GPa) = 25.12719 44.29590 37.34136
#
# Poissons Ratio (x) = -0.71267 -0.59259
# Poissons Ratio (y) = -0.40427 -0.19737
# Poissons Ratio (z) = -0.39876 -0.23413
#
# Static dielectric constant tensor:
#      x y z
#    x 4.776660 0.000000 0.604240 
#    y 0.000000 4.209500 0.000000 
#    z 0.604240 0.000000 4.352050 
# 
# 
# High freq. dielectric constant tensor:
#      x y z
#    x 1.959530 0.000000 0.014310 
#    y 0.000000 1.939090 0.000000 
#    z 0.014310 0.000000 1.940330 
# 
# From -- ./inp_files/53041.got.cif
#   From: 2010.03.12/outbox.cif.g09.slc.cpg/sg14_27_cif.got.tgz:53041.got - 2010.03.31 13:35:05.
