data_PCOD8127407
_publ_section_title
;
Structure prediction by ZEFSAII (Michael W. Deem and Ramdas Pophale) SiO2 
 PCOD8127407
Probable space group: P 21/C
;
_chemical_formula_sum "Si O2"
_cell_formula_units_Z 28
_cell_length_a 6.120807
_cell_length_b 11.118990
_cell_length_c 20.548798
_cell_angle_alpha 90.000000
_cell_angle_beta 66.154513
_cell_angle_gamma 90.000000
_cell_volume 1279.116693
_symmetry_space_group_name_H-M "P 21/C"
_symmetry_group_IT_number 14
_symmetry_cell_setting 'monoclinic'
loop_
_space_group_symop_operation_xyz
x,y,z
-x,1/2+y,1/2-z
-x,-y,-z
x,1/2-y,1/2+z
loop_
_atom_site_type_symbol
_atom_site_label
_atom_site_fract_x
_atom_site_fract_y
_atom_site_fract_z
Si Si1 0.356912 0.211797 0.745775
Si Si2 0.159437 0.722026 0.368512
Si Si3 0.877711 0.191021 0.358224
Si Si4 0.258928 0.060525 0.081016
Si Si5 0.922869 0.927299 0.323459
Si Si6 0.646203 0.402210 0.314589
Si Si7 0.731289 0.332544 0.497968
O O1 0.587007 0.293459 0.698883
O O2 0.283806 0.148760 0.687093
O O3 0.426484 0.109961 0.790991
O O4 0.152060 0.292882 0.802341
O O5 0.169317 0.704232 0.444208
O O6 0.979317 0.621305 0.361622
O O7 0.046251 0.852564 0.366953
O O8 0.706381 0.267006 0.331573
O O9 0.835405 0.232749 0.437043
O O10 0.810543 0.050526 0.363981
O O11 0.410894 0.990455 0.118675
O O12 0.180456 0.965269 0.035025
O O13 0.440146 0.162453 0.031997
O O14 0.122121 0.959748 0.246387
#
# Coordination Sequence:
#
# PCOD8127407 Si02
#       7
#     4   4   4   4   4   4   4
#     4  10  23  44  64  98 127 175 216 265 334 378
#     4  11  23  41  65  96 130 173 215 264 326 387
#     4  10  23  44  62  94 132 167 224 265 318 396
#     4  10  22  42  65  98 131 166 224 269 324 384
#     4  10  23  40  60  94 130 166 218 269 319 384
#     4   9  22  38  64  92 125 170 212 274 319 382
#     4  10  23  41  67  94 129 176 212 272 327 383
#
# _framework density 21.890107
#
# number of rings (size 3 to 8) (size 9 to 14) (size 15 to 20)
#    0.000    2.000    0.000    1.286    8.000    9.714 
#    5.143    2.857    0.000    0.000    0.000    0.000 
#    0.000    0.000    0.000    0.000    0.000    0.000 
#
# Total GULP energy -347142.192353 kJ/mol
# GULP energy per Si atom -12397.935441 kJ/mol
# Density = 2.184028 g / cm^3
# Si number density = 21.890107 Si / 1000 Ang^3
#
#
#
# Elastic Constant Matrix: (Units=GPa)
#
#
# Indices 1 2 3 4 5 6 
#
# 1 89.3153 41.9217 41.2650 0.0000 -0.2127 0.0000
# 2 41.9217 92.0510 57.9335 0.0000 -1.0039 0.0000
# 3 41.2650 57.9335 111.5782 0.0000 9.9173 0.0000
# 4 0.0000 0.0000 0.0000 30.0487 0.0000 -2.5107
# 5 -0.2127 -1.0039 9.9173 0.0000 40.7131 0.0000
# 6 0.0000 0.0000 0.0000 -2.5107 0.0000 20.2796
#
#
#
# Elastic Compliance Matrix: (Units=1/GPa)
#
#
# Indices 1 2 3 4 5 6 
#
# 1 0.014883 -0.004853 -0.003047 0.000000 0.000700 0.000000
# 2 -0.004853 0.017970 -0.007740 0.000000 0.002303 0.000000
# 3 -0.003047 -0.007740 0.014439 0.000000 -0.003724 0.000000
# 4 0.000000 0.000000 0.000000 0.033627 0.000000 0.004163
# 5 0.000700 0.002303 -0.003724 0.000000 0.025530 0.000000
# 6 0.000000 0.000000 0.000000 0.004163 0.000000 0.049826
#
#
# Mechanical properties :
#
#
# Convention : Reuss Voigt Hill
#
# Bulk Modulus (GPa) = 62.45180 63.90944 63.18062
# Shear Modulus (GPa) = 25.92099 28.32991 27.12545
#
# Velocity S-wave (km/s) = 3.44487 3.60139 3.52400
# Velocity P-wave (km/s) = 6.66442 6.82292 6.74414
#
# Compressibility (1/GPa) = 0.01601235
#
# Stress axis : x y z
#
# Youngs Moduli (GPa) = 67.18864 55.64714 69.25620
#
# Poissons Ratio (x) = 0.27005 0.21101
# Poissons Ratio (y) = 0.32607 0.53608
# Poissons Ratio (z) = 0.20471 0.43074
#
# Static dielectric constant tensor:
#      x y z
#    x 3.956190 0.000000 0.057300 
#    y 0.000000 3.719260 0.000000 
#    z 0.057300 0.000000 3.998110 
# 
# 
# High freq. dielectric constant tensor:
#      x y z
#    x 1.858330 0.000000 0.005240 
#    y 0.000000 1.845430 0.000000 
#    z 0.005240 0.000000 1.862100 
# 
# From -- ./inp_files/63474.got.cif
#   From: 2010.03.12/outbox.cif.g09.slc.cpg/sg14_32_cif.got.tgz:63474.got - 2010.03.31 13:35:05.
