data_PCOD8127330
_publ_section_title
;
Structure prediction by ZEFSAII (Michael W. Deem and Ramdas Pophale) SiO2 
 PCOD8127330
Probable space group: P 21/C
;
_chemical_formula_sum "Si O2"
_cell_formula_units_Z 20
_cell_length_a 6.872891
_cell_length_b 11.335073
_cell_length_c 12.586076
_cell_angle_alpha 90.000000
_cell_angle_beta 110.004394
_cell_angle_gamma 90.000000
_cell_volume 921.356746
_symmetry_space_group_name_H-M "P 21/C"
_symmetry_group_IT_number 14
_symmetry_cell_setting 'monoclinic'
loop_
_space_group_symop_operation_xyz
x,y,z
-x,1/2+y,1/2-z
-x,-y,-z
x,1/2-y,1/2+z
loop_
_atom_site_type_symbol
_atom_site_label
_atom_site_fract_x
_atom_site_fract_y
_atom_site_fract_z
Si Si1 0.656793 0.963885 0.676385
Si Si2 0.917455 0.030911 0.134427
Si Si3 0.025637 0.307458 0.470632
Si Si4 0.748567 0.384436 0.819701
Si Si5 0.721062 0.906357 0.453834
O O1 0.841466 0.988190 0.791116
O O2 0.497105 0.870636 0.701110
O O3 0.755321 0.912784 0.587136
O O4 0.524863 0.083216 0.622092
O O5 0.774411 0.073895 0.203272
O O6 0.895132 0.127018 0.037378
O O7 0.848280 0.902429 0.077627
O O8 0.187685 0.220769 0.560716
O O9 0.866071 0.236507 0.365934
O O10 0.840659 0.487668 0.914280
#
# Coordination Sequence:
#
# PCOD8127330 Si02
#       5
#     4   4   4   4   4
#     4   9  21  41  62  97 120 161 223 246 312 375
#     4  11  25  42  60  98 130 164 206 264 317 370
#     4  11  24  41  63  95 132 159 212 264 310 375
#     4  10  22  41  69  86 121 176 205 253 318 373
#     4   9  20  40  66  92 120 162 217 253 299 382
#
# _framework density 21.707115999999999
#
# number of rings (size 3 to 8) (size 9 to 14) (size 15 to 20)
#    1.200    0.800    2.000    0.600    2.800    1.600 
#    7.200    2.000    0.000    0.000    0.000    0.000 
#    0.000    0.000    0.000    0.000    0.000    0.000 
#
# Total GULP energy -247862.758319 kJ/mol
# GULP energy per Si atom -12393.137916 kJ/mol
# Density = 2.165771 g / cm^3
# Si number density = 21.707116 Si / 1000 Ang^3
#
#
#
# Elastic Constant Matrix: (Units=GPa)
#
#
# Indices 1 2 3 4 5 6 
#
# 1 40.1126 21.7555 15.1788 0.0000 -24.1758 0.0000
# 2 21.7555 126.6344 33.2994 0.0000 -24.2455 0.0000
# 3 15.1788 33.2994 94.1452 0.0000 -37.8792 0.0000
# 4 0.0000 0.0000 0.0000 24.2598 0.0000 -2.6987
# 5 -24.1758 -24.2455 -37.8792 0.0000 45.8713 0.0000
# 6 0.0000 0.0000 0.0000 -2.6987 0.0000 11.5465
#
#
#
# Elastic Compliance Matrix: (Units=1/GPa)
#
#
# Indices 1 2 3 4 5 6 
#
# 1 0.038302 -0.003446 0.003643 0.000000 0.021374 0.000000
# 2 -0.003446 0.009318 -0.002230 0.000000 0.001267 0.000000
# 3 0.003643 -0.002230 0.016655 0.000000 0.014495 0.000000
# 4 0.000000 0.000000 0.000000 0.042321 0.000000 0.009891
# 5 0.021374 0.001267 0.014495 0.000000 0.045704 0.000000
# 6 0.000000 0.000000 0.000000 0.009891 0.000000 0.088918
#
#
# Mechanical properties :
#
#
# Convention : Reuss Voigt Hill
#
# Bulk Modulus (GPa) = 16.60888 44.59551 30.60219
# Shear Modulus (GPa) = 18.84274 29.04607 23.94440
#
# Velocity S-wave (km/s) = 2.94946 3.66196 3.32485
# Velocity P-wave (km/s) = 4.38942 6.20232 5.37288
#
# Compressibility (1/GPa) = 0.06020876
#
# Stress axis : x y z
#
# Youngs Moduli (GPa) = 26.10831 107.32098 60.04084
#
# Poissons Ratio (x) = 0.36983 -0.21874
# Poissons Ratio (y) = 0.08997 0.13391
# Poissons Ratio (z) = -0.09512 0.23936
#
# Static dielectric constant tensor:
#      x y z
#    x 3.649320 0.000000 -0.131460 
#    y 0.000000 3.742340 0.000000 
#    z -0.131460 0.000000 3.773560 
# 
# 
# High freq. dielectric constant tensor:
#      x y z
#    x 1.841160 0.000000 -0.009500 
#    y 0.000000 1.836000 0.000000 
#    z -0.009500 0.000000 1.854260 
# 
# From -- ./inp_files/23527.got.cif
#   From: 2010.03.12/outbox.cif.g09.slc.cpg/sg14_12_cif.got.tgz:23527.got - 2010.03.31 13:35:05.
