data_PCOD8127159
_publ_section_title
;
Structure prediction by ZEFSAII (Michael W. Deem and Ramdas Pophale) SiO2 
 PCOD8127159
Probable space group: P 21/C
;
_chemical_formula_sum "Si O2"
_cell_formula_units_Z 32
_cell_length_a 20.143832
_cell_length_b 12.508186
_cell_length_c 11.927872
_cell_angle_alpha 90.000000
_cell_angle_beta 148.417431
_cell_angle_gamma 90.000000
_cell_volume 1573.997935
_symmetry_space_group_name_H-M "P 21/C"
_symmetry_group_IT_number 14
_symmetry_cell_setting 'monoclinic'
loop_
_space_group_symop_operation_xyz
x,y,z
-x,1/2+y,1/2-z
-x,-y,-z
x,1/2-y,1/2+z
loop_
_atom_site_type_symbol
_atom_site_label
_atom_site_fract_x
_atom_site_fract_y
_atom_site_fract_z
Si Si1 0.370250 0.458792 0.760959
Si Si2 0.242359 0.197970 0.248963
Si Si3 0.112009 0.049202 0.232666
Si Si4 0.566209 0.634176 0.380358
Si Si5 0.203247 0.863324 0.906290
Si Si6 0.714322 0.452294 0.699463
Si Si7 0.293906 0.864656 0.574630
Si Si8 0.924205 0.885129 0.574335
O O1 0.289727 0.394713 0.735803
O O2 0.398149 0.378735 0.698451
O O3 0.287968 0.559985 0.605092
O O4 0.500000 0.500000 0.000000
O O5 0.176594 0.146761 0.261818
O O6 0.361260 0.265600 0.463076
O O7 0.139730 0.270017 0.036860
O O8 0.054249 0.097528 0.262933
O O9 0.216111 0.959586 0.406706
O O10 0.000000 0.000000 0.000000
O O11 0.598078 0.525741 0.492616
O O12 0.417788 0.656179 0.178615
O O13 0.249877 0.867791 0.845041
O O14 0.057227 0.896610 0.703123
O O15 0.211371 0.742246 0.960163
O O16 0.667912 0.391095 0.742874
O O17 0.837698 0.523069 0.898258
#
# Coordination Sequence:
#
# PCOD8127159 Si02
#       8
#     4   4   4   4   4   4   4   4
#     4  11  23  40  60  87 120 155 195 241 289 346
#     4  11  22  39  62  88 116 153 194 243 294 346
#     4  11  23  40  60  87 120 155 195 241 289 346
#     4  10  22  40  61  85 116 154 194 237 292 348
#     4  11  23  38  60  88 116 152 194 240 289 342
#     4   9  22  41  60  82 116 155 192 235 288 348
#     4  11  23  38  60  88 116 152 194 240 289 342
#     4  10  22  40  61  85 116 154 194 237 292 348
#
# _framework density 20.330397000000001
#
# number of rings (size 3 to 8) (size 9 to 14) (size 15 to 20)
#    0.000    1.500    0.000    4.500    0.000    7.000 
#    0.000    0.000    0.000    0.000    0.000    0.000 
#    0.000    0.000    0.000    0.000    0.000    0.000 
#
# Total GULP energy -397014.360725 kJ/mol
# GULP energy per Si atom -12406.698773 kJ/mol
# Density = 2.028412 g / cm^3
# Si number density = 20.330397 Si / 1000 Ang^3
#
#
#
# Elastic Constant Matrix: (Units=GPa)
#
#
# Indices 1 2 3 4 5 6 
#
# 1 72.6030 22.6563 23.2239 0.0000 -4.4105 0.0000
# 2 22.6563 84.9268 19.7100 0.0000 -7.2273 0.0000
# 3 23.2239 19.7100 94.4554 0.0000 -0.0536 0.0000
# 4 0.0000 0.0000 0.0000 28.1278 0.0000 -4.1601
# 5 -4.4105 -7.2273 -0.0536 0.0000 40.2521 0.0000
# 6 0.0000 0.0000 0.0000 -4.1601 0.0000 32.2513
#
#
#
# Elastic Compliance Matrix: (Units=1/GPa)
#
#
# Indices 1 2 3 4 5 6 
#
# 1 0.015931 -0.003410 -0.003205 0.000000 0.001129 0.000000
# 2 -0.003410 0.013305 -0.001937 0.000000 0.002013 0.000000
# 3 -0.003205 -0.001937 0.011779 0.000000 -0.000683 0.000000
# 4 0.000000 0.000000 0.000000 0.036243 0.000000 0.004675
# 5 0.001129 0.002013 -0.000683 0.000000 0.025328 0.000000
# 6 0.000000 0.000000 0.000000 0.004675 0.000000 0.031610
#
#
# Mechanical properties :
#
#
# Convention : Reuss Voigt Hill
#
# Bulk Modulus (GPa) = 41.82034 42.57399 42.19717
# Shear Modulus (GPa) = 31.39312 32.55258 31.97285
#
# Velocity S-wave (km/s) = 3.93383 4.00581 3.96998
# Velocity P-wave (km/s) = 6.42249 6.51014 6.46646
#
# Compressibility (1/GPa) = 0.02391181
#
# Stress axis : x y z
#
# Youngs Moduli (GPa) = 62.76889 75.15749 84.89865
#
# Poissons Ratio (x) = 0.25631 0.27209
# Poissons Ratio (y) = 0.21406 0.16443
# Poissons Ratio (z) = 0.20116 0.14557
#
# Static dielectric constant tensor:
#      x y z
#    x 3.952950 0.000000 -0.249790 
#    y 0.000000 3.554990 0.000000 
#    z -0.249790 0.000000 3.850350 
# 
# 
# High freq. dielectric constant tensor:
#      x y z
#    x 1.805310 0.000000 -0.002450 
#    y 0.000000 1.800480 0.000000 
#    z -0.002450 0.000000 1.805040 
# 
# From -- ./inp_files/35267.got.cif
#   From: 2010.03.12/outbox.cif.g09.slc.cpg/sg14_18_cif.got.tgz:35267.got - 2010.03.31 13:35:05.
