data_PCOD8127509
_publ_section_title
;
Structure prediction by ZEFSAII (Michael W. Deem and Ramdas Pophale) SiO2 
 PCOD8127509
Probable space group: P 21/C
;
_chemical_formula_sum "Si O2"
_cell_formula_units_Z 24
_cell_length_a 5.481907
_cell_length_b 10.840089
_cell_length_c 17.030991
_cell_angle_alpha 90.000000
_cell_angle_beta 99.721090
_cell_angle_gamma 90.000000
_cell_volume 997.524016
_symmetry_space_group_name_H-M "P 21/C"
_symmetry_group_IT_number 14
_symmetry_cell_setting 'monoclinic'
loop_
_space_group_symop_operation_xyz
x,y,z
-x,1/2+y,1/2-z
-x,-y,-z
x,1/2-y,1/2+z
loop_
_atom_site_type_symbol
_atom_site_label
_atom_site_fract_x
_atom_site_fract_y
_atom_site_fract_z
Si Si1 0.260535 0.907048 0.345361
Si Si2 0.019236 0.268623 0.438852
Si Si3 0.410360 0.259099 0.243714
Si Si4 0.917962 0.548765 0.692274
Si Si5 0.489919 0.862843 0.597199
Si Si6 0.009506 0.815574 0.891924
O O1 0.363148 0.801979 0.294998
O O2 0.082663 0.987269 0.278213
O O3 0.122892 0.822430 0.401638
O O4 0.458476 0.989109 0.405030
O O5 0.945995 0.360082 0.363521
O O6 0.788202 0.174642 0.442587
O O7 0.054260 0.346938 0.521028
O O8 0.284209 0.202998 0.436946
O O9 0.500013 0.157735 0.309328
O O10 0.315230 0.378730 0.286145
O O11 0.229053 0.189565 0.175330
O O12 0.830911 0.426611 0.639636
#
# Coordination Sequence:
#
# PCOD8127509 Si02
#       6
#     4   4   4   4   4   4
#     4  11  24  40  70  99 131 192 228 287 334 418
#     4  11  26  47  68 104 139 181 221 292 351 406
#     4  10  23  40  66 100 128 181 231 276 338 405
#     4  10  22  43  68 100 135 180 233 290 336 410
#     4  11  25  46  70  95 143 177 230 279 342 417
#     4  11  25  42  68  99 140 178 232 283 353 411
#
# _framework density 24.059570000000001
#
# number of rings (size 3 to 8) (size 9 to 14) (size 15 to 20)
#    0.000    1.333    3.333    0.500    9.333    1.333 
#    0.000    2.500    0.000    0.000    0.000    0.000 
#    0.000    0.000    0.000    0.000    0.000    0.000 
#
# Total GULP energy -297313.370024 kJ/mol
# GULP energy per Si atom -12388.057084 kJ/mol
# Density = 2.400481 g / cm^3
# Si number density = 24.059570 Si / 1000 Ang^3
#
#
#
# Elastic Constant Matrix: (Units=GPa)
#
#
# Indices 1 2 3 4 5 6 
#
# 1 76.2833 -3.4238 2.7624 0.0000 -4.0762 0.0000
# 2 -3.4238 69.0245 4.3151 0.0000 6.9243 0.0000
# 3 2.7624 4.3151 100.1527 0.0000 -5.9630 0.0000
# 4 0.0000 0.0000 0.0000 3.9075 0.0000 19.7877
# 5 -4.0762 6.9243 -5.9630 0.0000 7.6872 0.0000
# 6 0.0000 0.0000 0.0000 19.7877 0.0000 13.6406
#
#
#
# Elastic Compliance Matrix: (Units=1/GPa)
#
#
# Indices 1 2 3 4 5 6 
#
# 1 0.013492 -0.000063 0.000063 0.000000 0.007260 0.000000
# 2 -0.000063 0.016180 -0.001641 0.000000 -0.015881 0.000000
# 3 0.000063 -0.001641 0.010635 0.000000 0.009761 0.000000
# 4 0.000000 0.000000 0.000000 -0.040327 0.000000 0.058500
# 5 0.007260 -0.015881 0.009761 0.000000 0.155812 0.000000
# 6 0.000000 0.000000 0.000000 0.058500 0.000000 -0.011552
#
#
# Mechanical properties :
#
#
# Convention : Reuss Voigt Hill
#
# Bulk Modulus (GPa) = 27.00895 28.08532 27.54714
# Shear Modulus (GPa) = 31.27657 21.16751 26.22204
#
# Velocity S-wave (km/s) = 3.60941 2.96935 3.30491
# Velocity P-wave (km/s) = 5.34983 4.84300 5.10271
#
# Compressibility (1/GPa) = 0.03702477
#
# Stress axis : x y z
#
# Youngs Moduli (GPa) = 74.11891 61.80406 94.03031
#
# Poissons Ratio (x) = 0.00389 -0.00591
# Poissons Ratio (y) = 0.00467 0.15429
# Poissons Ratio (z) = -0.00466 0.10141
#
# Static dielectric constant tensor:
#      x y z
#    x 4.041220 0.000000 -0.081350 
#    y 0.000000 4.273530 0.000000 
#    z -0.081350 0.000000 4.539450 
# 
# 
# High freq. dielectric constant tensor:
#      x y z
#    x 1.930940 0.000000 -0.010560 
#    y 0.000000 1.949040 0.000000 
#    z -0.010560 0.000000 1.972460 
# 
# From -- ./inp_files/52981.got.cif
#   From: 2010.03.12/outbox.cif.g09.slc.cpg/sg14_27_cif.got.tgz:52981.got - 2010.03.31 13:35:05.
