data_PCOD8127184
_publ_section_title
;
Structure prediction by ZEFSAII (Michael W. Deem and Ramdas Pophale) SiO2 
 PCOD8127184
Probable space group: P 21/C
;
_chemical_formula_sum "Si O2"
_cell_formula_units_Z 20
_cell_length_a 12.680512
_cell_length_b 12.864641
_cell_length_c 10.643971
_cell_angle_alpha 90.000000
_cell_angle_beta 34.324727
_cell_angle_gamma 90.000000
_cell_volume 979.099368
_symmetry_space_group_name_H-M "P 21/C"
_symmetry_group_IT_number 14
_symmetry_cell_setting 'monoclinic'
loop_
_space_group_symop_operation_xyz
x,y,z
-x,1/2+y,1/2-z
-x,-y,-z
x,1/2-y,1/2+z
loop_
_atom_site_type_symbol
_atom_site_label
_atom_site_fract_x
_atom_site_fract_y
_atom_site_fract_z
Si Si1 0.052832 0.883132 0.957530
Si Si2 0.351174 0.199056 0.606798
Si Si3 0.541582 0.576117 0.575166
Si Si4 0.636047 0.390713 0.643870
Si Si5 0.648433 0.319270 0.021063
O O1 0.194673 0.865663 0.930805
O O2 0.154602 0.853844 0.728523
O O3 0.867320 0.817329 0.160141
O O4 0.000000 0.000000 0.000000
O O5 0.352301 0.323101 0.580783
O O6 0.434754 0.130547 0.409420
O O7 0.466502 0.157594 0.613926
O O8 0.500000 0.500000 0.500000
O O9 0.653381 0.505451 0.566914
O O10 0.367580 0.624015 0.826746
O O11 0.654857 0.305492 0.517000
#
# Coordination Sequence:
#
# PCOD8127184 Si02
#       5
#     4   4   4   4   4
#     4  11  23  40  63  93 123 166 213 259 322 382
#     4  10  22  42  68  91 124 173 213 260 324 382
#     4  11  21  40  69  93 125 175 212 259 324 376
#     4  10  22  40  63  92 127 162 210 269 310 373
#     4  10  22  41  64  89 129 161 212 266 310 376
#
# _framework density 20.426936000000001
#
# number of rings (size 3 to 8) (size 9 to 14) (size 15 to 20)
#    0.000    1.600    2.000    2.400    0.000    8.000 
#    3.600    3.000    0.000    0.000    0.000    0.000 
#    0.000    0.000    0.000    0.000    0.000    0.000 
#
# Total GULP energy -247811.941121 kJ/mol
# GULP energy per Si atom -12390.597056 kJ/mol
# Density = 2.038044 g / cm^3
# Si number density = 20.426936 Si / 1000 Ang^3
#
#
#
# Elastic Constant Matrix: (Units=GPa)
#
#
# Indices 1 2 3 4 5 6 
#
# 1 54.9498 30.4864 61.0867 0.0000 3.1368 0.0000
# 2 30.4864 130.9624 72.6439 0.0000 9.1189 0.0000
# 3 61.0867 72.6439 172.1265 0.0000 -10.7977 0.0000
# 4 0.0000 0.0000 0.0000 32.5528 0.0000 10.0195
# 5 3.1368 9.1189 -10.7977 0.0000 31.6603 0.0000
# 6 0.0000 0.0000 0.0000 10.0195 0.0000 41.6688
#
#
#
# Elastic Compliance Matrix: (Units=1/GPa)
#
#
# Indices 1 2 3 4 5 6 
#
# 1 0.031571 -0.000546 -0.011404 0.000000 -0.006860 0.000000
# 2 -0.000546 0.010618 -0.004574 0.000000 -0.004564 0.000000
# 3 -0.011404 -0.004574 0.012202 0.000000 0.006609 0.000000
# 4 0.000000 0.000000 0.000000 0.033175 0.000000 -0.007977
# 5 -0.006860 -0.004564 0.006609 0.000000 0.035833 0.000000
# 6 0.000000 0.000000 0.000000 -0.007977 0.000000 0.025917
#
#
# Mechanical properties :
#
#
# Convention : Reuss Voigt Hill
#
# Bulk Modulus (GPa) = 46.85416 76.27473 61.56445
# Shear Modulus (GPa) = 26.38848 34.09783 30.24315
#
# Velocity S-wave (km/s) = 3.59813 4.09009 3.85197
# Velocity P-wave (km/s) = 6.34423 7.72829 7.07021
#
# Compressibility (1/GPa) = 0.02134282
#
# Stress axis : x y z
#
# Youngs Moduli (GPa) = 31.67489 94.18349 81.95494
#
# Poissons Ratio (x) = 0.05140 0.93464
# Poissons Ratio (y) = 0.01728 0.37483
# Poissons Ratio (z) = 0.36123 0.43076
#
# Static dielectric constant tensor:
#      x y z
#    x 3.389070 0.000000 0.530150 
#    y 0.000000 3.967690 0.000000 
#    z 0.530150 0.000000 3.322280 
# 
# 
# High freq. dielectric constant tensor:
#      x y z
#    x 1.788970 0.000000 0.021430 
#    y 0.000000 1.821380 0.000000 
#    z 0.021430 0.000000 1.792650 
# 
# From -- ./inp_files/32093.got.cif
#   From: 2010.03.12/outbox.cif.g09.slc.cpg/sg14_17_cif.got.tgz:32093.got - 2010.03.31 13:35:05.
