data_PCOD8127992
_publ_section_title
;
Structure prediction by ZEFSAII (Michael W. Deem and Ramdas Pophale) SiO2 
 PCOD8127992
Probable space group: P 21/C
;
_chemical_formula_sum "Si O2"
_cell_formula_units_Z 28
_cell_length_a 5.003849
_cell_length_b 12.051833
_cell_length_c 23.298946
_cell_angle_alpha 90.000000
_cell_angle_beta 116.844363
_cell_angle_gamma 90.000000
_cell_volume 1253.642003
_symmetry_space_group_name_H-M "P 21/C"
_symmetry_group_IT_number 14
_symmetry_cell_setting 'monoclinic'
loop_
_space_group_symop_operation_xyz
x,y,z
-x,1/2+y,1/2-z
-x,-y,-z
x,1/2-y,1/2+z
loop_
_atom_site_type_symbol
_atom_site_label
_atom_site_fract_x
_atom_site_fract_y
_atom_site_fract_z
Si Si1 0.496234 0.736423 0.321739
Si Si2 0.096854 0.524770 0.697855
Si Si3 0.410676 0.906302 0.913444
Si Si4 0.438207 0.648722 0.540238
Si Si5 0.682980 0.091812 0.293680
Si Si6 0.109780 0.711246 0.615088
Si Si7 0.962515 0.623489 0.796496
O O1 0.612154 0.660469 0.386056
O O2 0.273458 0.660852 0.261216
O O3 0.304849 0.835265 0.331998
O O4 0.755493 0.782966 0.305685
O O5 0.353410 0.463606 0.759693
O O6 0.247502 0.611281 0.667351
O O7 0.888450 0.596402 0.721843
O O8 0.912593 0.432100 0.645589
O O9 0.577960 0.018024 0.947275
O O10 0.364696 0.831731 0.966129
O O11 0.180432 0.700915 0.554512
O O12 0.752240 0.705082 0.587944
O O13 0.740053 0.173091 0.352220
O O14 0.926834 0.994013 0.325236
#
# Coordination Sequence:
#
# PCOD8127992 Si02
#       7
#     4   4   4   4   4   4   4
#     4  12  25  38  66  94 132 170 212 265 327 394
#     4  11  23  41  63 102 134 165 216 268 331 405
#     4  10  23  44  69  94 133 174 213 278 324 381
#     4  10  25  44  66  99 127 171 227 265 324 381
#     4  12  24  39  67  93 139 171 210 265 347 379
#     4  11  25  40  67  94 135 168 215 272 319 403
#     4  12  25  40  56 103 130 168 210 257 333 399
#
# _framework density 22.334927
#
# number of rings (size 3 to 8) (size 9 to 14) (size 15 to 20)
#    0.000    0.857    4.286    1.714    8.000    8.571 
#    0.000    0.000    0.000    5.143    0.000    0.000 
#    0.000    0.000    0.000    0.000    0.000    0.000 
#
# Total GULP energy -347054.578166 kJ/mol
# GULP energy per Si atom -12394.806363 kJ/mol
# Density = 2.228409 g / cm^3
# Si number density = 22.334927 Si / 1000 Ang^3
#
#
#
# Elastic Constant Matrix: (Units=GPa)
#
#
# Indices 1 2 3 4 5 6 
#
# 1 98.3325 32.6146 32.9492 0.0000 -21.2749 0.0000
# 2 32.6146 87.0938 40.1683 0.0000 -11.9174 0.0000
# 3 32.9492 40.1683 107.6252 0.0000 -27.9658 0.0000
# 4 0.0000 0.0000 0.0000 34.1744 0.0000 -10.1590
# 5 -21.2749 -11.9174 -27.9658 0.0000 34.4265 0.0000
# 6 0.0000 0.0000 0.0000 -10.1590 0.0000 26.6289
#
#
#
# Elastic Compliance Matrix: (Units=1/GPa)
#
#
# Indices 1 2 3 4 5 6 
#
# 1 0.012996 -0.003541 -0.001126 0.000000 0.005890 0.000000
# 2 -0.003541 0.014850 -0.004679 0.000000 -0.000848 0.000000
# 3 -0.001126 -0.004679 0.013665 0.000000 0.008785 0.000000
# 4 0.000000 0.000000 0.000000 0.033005 0.000000 0.012591
# 5 0.005890 -0.000848 0.008785 0.000000 0.039530 0.000000
# 6 0.000000 0.000000 0.000000 0.012591 0.000000 0.042357
#
#
# Mechanical properties :
#
#
# Convention : Reuss Voigt Hill
#
# Bulk Modulus (GPa) = 43.82416 56.05729 49.94073
# Shear Modulus (GPa) = 27.36710 31.53392 29.45051
#
# Velocity S-wave (km/s) = 3.50423 3.76156 3.63517
# Velocity P-wave (km/s) = 6.00307 6.63466 6.32675
#
# Compressibility (1/GPa) = 0.02281846
#
# Stress axis : x y z
#
# Youngs Moduli (GPa) = 76.94697 67.34162 73.17824
#
# Poissons Ratio (x) = 0.23847 0.08243
# Poissons Ratio (y) = 0.27248 0.34237
# Poissons Ratio (z) = 0.08668 0.31506
#
# Static dielectric constant tensor:
#      x y z
#    x 3.844170 0.000000 -0.308070 
#    y 0.000000 4.230150 0.000000 
#    z -0.308070 0.000000 3.992800 
# 
# 
# High freq. dielectric constant tensor:
#      x y z
#    x 1.878620 0.000000 -0.025350 
#    y 0.000000 1.872850 0.000000 
#    z -0.025350 0.000000 1.855680 
# 
# From -- ./inp_files/63549.got.cif
#   From: 2010.03.12/outbox.cif.g09.slc.cpg/sg14_32_cif.got.tgz:63549.got - 2010.03.31 13:35:05.
