data_PCOD8127361
_publ_section_title
;
Structure prediction by ZEFSAII (Michael W. Deem and Ramdas Pophale) SiO2 
 PCOD8127361
Probable space group: P 21/C
;
_chemical_formula_sum "Si O2"
_cell_formula_units_Z 24
_cell_length_a 20.684968
_cell_length_b 5.184244
_cell_length_c 31.256827
_cell_angle_alpha 90.000000
_cell_angle_beta 18.945061
_cell_angle_gamma 90.000000
_cell_volume 1088.217749
_symmetry_space_group_name_H-M "P 21/C"
_symmetry_group_IT_number 14
_symmetry_cell_setting 'monoclinic'
loop_
_space_group_symop_operation_xyz
x,y,z
-x,1/2+y,1/2-z
-x,-y,-z
x,1/2-y,1/2+z
loop_
_atom_site_type_symbol
_atom_site_label
_atom_site_fract_x
_atom_site_fract_y
_atom_site_fract_z
Si Si1 0.401979 0.655680 0.793782
Si Si2 0.392107 0.649101 0.702463
Si Si3 0.982597 0.921232 0.595714
Si Si4 0.163665 0.916022 0.777534
Si Si5 0.206073 0.513397 0.156493
Si Si6 0.748414 0.511853 0.423462
O O1 0.538355 0.404828 0.715956
O O2 0.420597 0.742976 0.732947
O O3 0.177966 0.572547 0.944658
O O4 0.211721 0.440056 0.813467
O O5 0.332292 0.889914 0.709038
O O6 0.596495 0.526193 0.557869
O O7 0.975875 0.661215 0.627251
O O8 0.978680 0.161598 0.631723
O O9 0.274963 0.946902 0.662414
O O10 0.285507 0.242428 0.089099
O O11 0.967082 0.524553 0.306338
O O12 0.295946 0.743833 0.072319
#
# Coordination Sequence:
#
# PCOD8127361 Si02
#       6
#     4   4   4   4   4   4
#     4  12  28  45  70  99 129 173 218 275 330 394
#     4  10  27  42  69  98 132 172 223 268 328 393
#     4  10  24  44  65  99 129 174 209 277 322 389
#     4  10  23  41  69  93 132 177 209 271 322 390
#     4  10  22  42  61  96 133 176 213 269 319 379
#     4  10  23  39  65  94 133 171 221 265 318 383
#
# _framework density 22.054411000000002
#
# number of rings (size 3 to 8) (size 9 to 14) (size 15 to 20)
#    1.000    0.667    0.000    2.500    9.333    2.000 
#    0.000    0.000    0.000    0.000    0.000    0.000 
#    0.000    0.000    0.000    0.000    0.000    0.000 
#
# Total GULP energy -297583.214028 kJ/mol
# GULP energy per Si atom -12399.300584 kJ/mol
# Density = 2.200421 g / cm^3
# Si number density = 22.054411 Si / 1000 Ang^3
#
#
#
# Elastic Constant Matrix: (Units=GPa)
#
#
# Indices 1 2 3 4 5 6 
#
# 1 81.4219 9.0927 6.4205 0.0000 14.2505 0.0000
# 2 9.0927 117.1960 -4.1425 0.0000 -6.9553 0.0000
# 3 6.4205 -4.1425 78.4636 0.0000 3.4540 0.0000
# 4 0.0000 0.0000 0.0000 26.4264 0.0000 8.9645
# 5 14.2505 -6.9553 3.4540 0.0000 25.9169 0.0000
# 6 0.0000 0.0000 0.0000 8.9645 0.0000 18.4744
#
#
#
# Elastic Compliance Matrix: (Units=1/GPa)
#
#
# Indices 1 2 3 4 5 6 
#
# 1 0.013921 -0.001584 -0.000872 0.000000 -0.007963 0.000000
# 2 -0.001584 0.008861 0.000457 0.000000 0.003188 0.000000
# 3 -0.000872 0.000457 0.012889 0.000000 -0.001116 0.000000
# 4 0.000000 0.000000 0.000000 0.045297 0.000000 -0.021980
# 5 -0.007963 0.003188 -0.001116 0.000000 0.043968 0.000000
# 6 0.000000 0.000000 0.000000 -0.021980 0.000000 0.064794
#
#
# Mechanical properties :
#
#
# Convention : Reuss Voigt Hill
#
# Bulk Modulus (GPa) = 31.57155 33.31366 32.44260
# Shear Modulus (GPa) = 24.47550 31.87759 28.17654
#
# Velocity S-wave (km/s) = 3.33495 3.80597 3.57822
# Velocity P-wave (km/s) = 5.40144 5.86958 5.64037
#
# Compressibility (1/GPa) = 0.03167409
#
# Stress axis : x y z
#
# Youngs Moduli (GPa) = 71.83364 112.85513 77.58332
#
# Poissons Ratio (x) = 0.17871 0.06767
# Poissons Ratio (y) = 0.11375 -0.03546
# Poissons Ratio (z) = 0.06265 -0.05158
#
# Static dielectric constant tensor:
#      x y z
#    x 3.707880 0.000000 -0.009600 
#    y 0.000000 3.914000 0.000000 
#    z -0.009600 0.000000 3.821740 
# 
# 
# High freq. dielectric constant tensor:
#      x y z
#    x 1.852510 0.000000 0.005000 
#    y 0.000000 1.870220 0.000000 
#    z 0.005000 0.000000 1.873450 
# 
# From -- ./inp_files/80449.got.cif
#   From: 2010.03.12/outbox.cif.g09.slc.cpg/sg14_41_cif.got.tgz:80449.got - 2010.03.31 13:35:05.
