data_PCOD8127473
_publ_section_title
;
Structure prediction by ZEFSAII (Michael W. Deem and Ramdas Pophale) SiO2 
 PCOD8127473
Probable space group: P 21/C
;
_chemical_formula_sum "Si O2"
_cell_formula_units_Z 28
_cell_length_a 8.976303
_cell_length_b 11.485371
_cell_length_c 13.789476
_cell_angle_alpha 90.000000
_cell_angle_beta 112.613082
_cell_angle_gamma 90.000000
_cell_volume 1312.349796
_symmetry_space_group_name_H-M "P 21/C"
_symmetry_group_IT_number 14
_symmetry_cell_setting 'monoclinic'
loop_
_space_group_symop_operation_xyz
x,y,z
-x,1/2+y,1/2-z
-x,-y,-z
x,1/2-y,1/2+z
loop_
_atom_site_type_symbol
_atom_site_label
_atom_site_fract_x
_atom_site_fract_y
_atom_site_fract_z
Si Si1 0.115988 0.205300 0.409658
Si Si2 0.697487 0.692608 0.720707
Si Si3 0.922351 0.012768 0.279247
Si Si4 0.636982 0.082136 0.900854
Si Si5 0.632510 0.811166 0.896684
Si Si6 0.143631 0.628363 0.717534
Si Si7 0.715949 0.193162 0.115589
O O1 0.224235 0.227051 0.341551
O O2 0.227632 0.225408 0.530114
O O3 0.032666 0.077079 0.387981
O O4 0.970183 0.295401 0.379195
O O5 0.835134 0.604232 0.796711
O O6 0.551327 0.615414 0.640646
O O7 0.627319 0.783123 0.781400
O O8 0.780050 0.093305 0.202906
O O9 0.045386 0.987187 0.221076
O O10 0.698788 0.105115 0.807510
O O11 0.665341 0.946028 0.929529
O O12 0.733103 0.156195 0.007100
O O13 0.467648 0.776698 0.906475
O O14 0.185281 0.690500 0.831381
#
# Coordination Sequence:
#
# PCOD8127473 Si02
#       7
#     4   4   4   4   4   4   4
#     4  10  23  41  62  93 127 162 212 261 315 379
#     4  11  22  39  66  93 128 169 210 263 320 374
#     4  10  22  43  61  89 135 170 201 266 322 369
#     4  12  22  39  68  94 123 165 214 263 312 373
#     4  12  23  39  67  95 121 167 218 256 315 382
#     4  10  23  40  62  96 128 160 208 260 315 376
#     4  11  22  40  67  93 126 165 211 261 312 378
#
# _framework density 21.335775999999999
#
# number of rings (size 3 to 8) (size 9 to 14) (size 15 to 20)
#    0.000    1.143    4.286    3.000    0.000    6.286 
#    0.000    3.571    0.000    0.000    0.000    0.000 
#    0.000    0.000    0.000    0.000    0.000    0.000 
#
# Total GULP energy -347067.078392 kJ/mol
# GULP energy per Si atom -12395.252800 kJ/mol
# Density = 2.128721 g / cm^3
# Si number density = 21.335776 Si / 1000 Ang^3
#
#
#
# Elastic Constant Matrix: (Units=GPa)
#
#
# Indices 1 2 3 4 5 6 
#
# 1 73.8134 14.4142 15.0881 0.0000 12.4623 0.0000
# 2 14.4142 41.8816 22.4011 0.0000 5.6963 0.0000
# 3 15.0881 22.4011 82.7030 0.0000 9.9457 0.0000
# 4 0.0000 0.0000 0.0000 24.8684 0.0000 2.0966
# 5 12.4623 5.6963 9.9457 0.0000 29.8182 0.0000
# 6 0.0000 0.0000 0.0000 2.0966 0.0000 26.2807
#
#
#
# Elastic Compliance Matrix: (Units=1/GPa)
#
#
# Indices 1 2 3 4 5 6 
#
# 1 0.015454 -0.004010 -0.001092 0.000000 -0.005328 0.000000
# 2 -0.004010 0.029210 -0.006991 0.000000 -0.001572 0.000000
# 3 -0.001092 -0.006991 0.014553 0.000000 -0.003062 0.000000
# 4 0.000000 0.000000 0.000000 0.040484 0.000000 -0.003230
# 5 -0.005328 -0.001572 -0.003062 0.000000 0.037085 0.000000
# 6 0.000000 0.000000 0.000000 -0.003230 0.000000 0.038308
#
#
# Mechanical properties :
#
#
# Convention : Reuss Voigt Hill
#
# Bulk Modulus (GPa) = 28.54729 33.57833 31.06281
# Shear Modulus (GPa) = 23.70150 25.95976 24.83063
#
# Velocity S-wave (km/s) = 3.33660 3.49194 3.41516
# Velocity P-wave (km/s) = 5.31535 5.65954 5.49014
#
# Compressibility (1/GPa) = 0.03502959
#
# Stress axis : x y z
#
# Youngs Moduli (GPa) = 64.70987 34.23478 68.71597
#
# Poissons Ratio (x) = 0.13727 0.07507
# Poissons Ratio (y) = 0.25946 0.48042
# Poissons Ratio (z) = 0.07070 0.23935
#
# Static dielectric constant tensor:
#      x y z
#    x 3.902320 0.000000 0.238190 
#    y 0.000000 3.806380 0.000000 
#    z 0.238190 0.000000 3.661050 
# 
# 
# High freq. dielectric constant tensor:
#      x y z
#    x 1.847350 0.000000 0.014580 
#    y 0.000000 1.829560 0.000000 
#    z 0.014580 0.000000 1.820840 
# 
# From -- ./inp_files/39930.got.cif
#   From: 2010.03.12/outbox.cif.g09.slc.cpg/sg14_20_cif.got.tgz:39930.got - 2010.03.31 13:35:05.
