data_PCOD8127887
_publ_section_title
;
Structure prediction by ZEFSAII (Michael W. Deem and Ramdas Pophale) SiO2 
 PCOD8127887
Probable space group: P 21/C
;
_chemical_formula_sum "Si O2"
_cell_formula_units_Z 20
_cell_length_a 8.782059
_cell_length_b 22.363899
_cell_length_c 5.214890
_cell_angle_alpha 90.000000
_cell_angle_beta 58.723971
_cell_angle_gamma 90.000000
_cell_volume 875.367843
_symmetry_space_group_name_H-M "P 21/C"
_symmetry_group_IT_number 14
_symmetry_cell_setting 'monoclinic'
loop_
_space_group_symop_operation_xyz
x,y,z
-x,1/2+y,1/2-z
-x,-y,-z
x,1/2-y,1/2+z
loop_
_atom_site_type_symbol
_atom_site_label
_atom_site_fract_x
_atom_site_fract_y
_atom_site_fract_z
Si Si1 0.415849 0.211707 0.707844
Si Si2 0.702320 0.380045 0.848448
Si Si3 0.991168 0.787899 0.936962
Si Si4 0.467834 0.038348 0.278557
Si Si5 0.117049 0.503511 0.143969
O O1 0.454388 0.241628 0.400141
O O2 0.553055 0.157396 0.633616
O O3 0.212139 0.188109 0.884223
O O4 0.599635 0.404420 0.680730
O O5 0.771642 0.434642 0.961524
O O6 0.873903 0.341517 0.620080
O O7 0.027242 0.738715 0.123982
O O8 0.500000 0.000000 0.500000
O O9 0.255424 0.052430 0.490086
O O10 0.500000 0.000000 0.000000
O O11 0.000000 0.500000 0.500000
O O12 0.000000 0.500000 0.000000
#
# Coordination Sequence:
#
# PCOD8127887 Si02
#       5
#     4   4   4   4   4
#     4  10  23  43  66 102 135 168 224 281 329 406
#     4  11  24  43  75  94 136 185 222 266 358 392
#     4  10  23  43  67 103 137 168 224 280 332 406
#     4  10  23  43  63  96 133 171 227 278 324 398
#     4  11  25  44  65  98 138 174 230 286 327 401
#
# _framework density 22.847536999999999
#
# number of rings (size 3 to 8) (size 9 to 14) (size 15 to 20)
#    0.000    1.600    0.000    3.600    2.800    9.600 
#    7.200    0.000    0.000    0.000    0.000    0.000 
#    0.000    0.000    0.000    0.000    0.000    0.000 
#
# Total GULP energy -247817.936060 kJ/mol
# GULP energy per Si atom -12390.896803 kJ/mol
# Density = 2.279554 g / cm^3
# Si number density = 22.847537 Si / 1000 Ang^3
#
#
#
# Elastic Constant Matrix: (Units=GPa)
#
#
# Indices 1 2 3 4 5 6 
#
# 1 186.6317 72.7443 73.4102 0.0000 -15.6484 0.0000
# 2 72.7443 97.2418 32.9231 0.0000 -20.1821 0.0000
# 3 73.4102 32.9231 122.9768 0.0000 0.0767 0.0000
# 4 0.0000 0.0000 0.0000 16.0043 0.0000 -9.9187
# 5 -15.6484 -20.1821 0.0767 0.0000 50.7742 0.0000
# 6 0.0000 0.0000 0.0000 -9.9187 0.0000 65.2600
#
#
#
# Elastic Compliance Matrix: (Units=1/GPa)
#
#
# Indices 1 2 3 4 5 6 
#
# 1 0.009037 -0.005266 -0.003985 0.000000 0.000698 0.000000
# 2 -0.005266 0.015508 -0.001011 0.000000 0.004543 0.000000
# 3 -0.003985 -0.001011 0.010782 0.000000 -0.001646 0.000000
# 4 0.000000 0.000000 0.000000 0.068981 0.000000 0.010484
# 5 0.000698 0.004543 -0.001646 0.000000 0.021718 0.000000
# 6 0.000000 0.000000 0.000000 0.010484 0.000000 0.016917
#
#
# Mechanical properties :
#
#
# Convention : Reuss Voigt Hill
#
# Bulk Modulus (GPa) = 67.55527 85.00062 76.27794
# Shear Modulus (GPa) = 29.69086 41.59255 35.64170
#
# Velocity S-wave (km/s) = 3.60880 4.27129 3.95394
# Velocity P-wave (km/s) = 6.85541 7.84916 7.36906
#
# Compressibility (1/GPa) = 0.01480269
#
# Stress axis : x y z
#
# Youngs Moduli (GPa) = 110.65932 64.48165 92.74577
#
# Poissons Ratio (x) = 0.33957 0.36959
# Poissons Ratio (y) = 0.58275 0.09378
# Poissons Ratio (z) = 0.44098 0.06520
#
# Static dielectric constant tensor:
#      x y z
#    x 5.317120 0.000000 -0.376860 
#    y 0.000000 4.282590 0.000000 
#    z -0.376860 0.000000 4.053310 
# 
# 
# High freq. dielectric constant tensor:
#      x y z
#    x 1.936150 0.000000 -0.011460 
#    y 0.000000 1.878290 0.000000 
#    z -0.011460 0.000000 1.906550 
# 
# From -- ./inp_files/1370.got.cif
#   From: 2010.03.12/outbox.cif.g09.slc.cpg/sg14_1_cif.got.tgz:1370.got - 2010.03.31 13:35:05.
