data_PCOD8127281
_publ_section_title
;
Structure prediction by ZEFSAII (Michael W. Deem and Ramdas Pophale) SiO2 
 PCOD8127281
Probable space group: P 21/C
;
_chemical_formula_sum "Si O2"
_cell_formula_units_Z 28
_cell_length_a 16.438881
_cell_length_b 7.796236
_cell_length_c 21.985302
_cell_angle_alpha 90.000000
_cell_angle_beta 153.816249
_cell_angle_gamma 90.000000
_cell_volume 1243.299432
_symmetry_space_group_name_H-M "P 21/C"
_symmetry_group_IT_number 14
_symmetry_cell_setting 'monoclinic'
loop_
_space_group_symop_operation_xyz
x,y,z
-x,1/2+y,1/2-z
-x,-y,-z
x,1/2-y,1/2+z
loop_
_atom_site_type_symbol
_atom_site_label
_atom_site_fract_x
_atom_site_fract_y
_atom_site_fract_z
Si Si1 0.721484 0.955119 0.220798
Si Si2 0.466040 0.067770 0.673448
Si Si3 0.248740 0.392726 0.826557
Si Si4 0.057393 0.444314 0.875978
Si Si5 0.517413 0.171479 0.840376
Si Si6 0.426475 0.683905 0.876607
Si Si7 0.892328 0.299582 0.650509
O O1 0.677879 0.783451 0.154244
O O2 0.668163 0.909949 0.254811
O O3 0.603739 0.121636 0.120488
O O4 0.936791 0.002628 0.354405
O O5 0.251106 0.126650 0.530837
O O6 0.553493 0.093448 0.798247
O O7 0.575581 0.185455 0.698442
O O8 0.499489 0.874168 0.675872
O O9 0.268805 0.557544 0.796635
O O10 0.037408 0.394518 0.704144
O O11 0.378570 0.401567 0.973233
O O12 0.100839 0.600259 0.859956
O O13 0.941485 0.314348 0.755204
O O14 0.690717 0.122590 0.000311
#
# Coordination Sequence:
#
# PCOD8127281 Si02
#       7
#     4   4   4   4   4   4   4
#     4  11  24  40  64 101 129 170 217 273 326 384
#     4  11  23  47  64  94 131 181 211 273 323 395
#     4  10  22  41  63  96 136 162 212 278 318 388
#     4  10  24  40  67  93 137 162 219 273 330 375
#     4  11  25  42  67  91 135 171 227 261 328 396
#     4  11  22  38  69  94 129 172 212 264 335 383
#     4  10  23  39  63  99 124 171 212 269 324 388
#
# _framework density 22.520721000000002
#
# number of rings (size 3 to 8) (size 9 to 14) (size 15 to 20)
#    0.000    1.429    2.857    1.286    8.000    1.714 
#    0.000    2.143    0.000    0.000    0.000    0.000 
#    0.000    0.000    0.000    0.000    0.000    0.000 
#
# Total GULP energy -347104.163629 kJ/mol
# GULP energy per Si atom -12396.577272 kJ/mol
# Density = 2.246946 g / cm^3
# Si number density = 22.520721 Si / 1000 Ang^3
#
#
#
# Elastic Constant Matrix: (Units=GPa)
#
#
# Indices 1 2 3 4 5 6 
#
# 1 117.7813 41.7993 15.8707 0.0000 4.0947 0.0000
# 2 41.7993 92.0938 20.5856 0.0000 9.2194 0.0000
# 3 15.8707 20.5856 60.4111 0.0000 0.3435 0.0000
# 4 0.0000 0.0000 0.0000 21.5647 0.0000 -2.3637
# 5 4.0947 9.2194 0.3435 0.0000 23.2491 0.0000
# 6 0.0000 0.0000 0.0000 -2.3637 0.0000 31.6150
#
#
#
# Elastic Compliance Matrix: (Units=1/GPa)
#
#
# Indices 1 2 3 4 5 6 
#
# 1 0.010199 -0.004357 -0.001194 0.000000 -0.000051 0.000000
# 2 -0.004357 0.014129 -0.003643 0.000000 -0.004782 0.000000
# 3 -0.001194 -0.003643 0.018100 0.000000 0.001387 0.000000
# 4 0.000000 0.000000 0.000000 0.046755 0.000000 0.003496
# 5 -0.000051 -0.004782 0.001387 0.000000 0.044897 0.000000
# 6 0.000000 0.000000 0.000000 0.003496 0.000000 0.031892
#
#
# Mechanical properties :
#
#
# Convention : Reuss Voigt Hill
#
# Bulk Modulus (GPa) = 41.59711 47.42194 44.50952
# Shear Modulus (GPa) = 25.99089 28.08780 27.03935
#
# Velocity S-wave (km/s) = 3.40087 3.53540 3.46879
# Velocity P-wave (km/s) = 5.82511 6.14558 5.98749
#
# Compressibility (1/GPa) = 0.02404013
#
# Stress axis : x y z
#
# Youngs Moduli (GPa) = 98.04560 70.77613 55.24726
#
# Poissons Ratio (x) = 0.30838 0.06599
# Poissons Ratio (y) = 0.42720 0.20125
# Poissons Ratio (z) = 0.11711 0.25782
#
# Static dielectric constant tensor:
#      x y z
#    x 4.132970 0.000000 0.115510 
#    y 0.000000 4.081160 0.000000 
#    z 0.115510 0.000000 3.909950 
# 
# 
# High freq. dielectric constant tensor:
#      x y z
#    x 1.900180 0.000000 0.017250 
#    y 0.000000 1.895990 0.000000 
#    z 0.017250 0.000000 1.849470 
# 
# From -- ./inp_files/68376.got.cif
#   From: 2010.03.12/outbox.cif.g09.slc.cpg/sg14_35_cif.got.tgz:68376.got - 2010.03.31 13:35:05.
