data_PCOD8127168
_publ_section_title
;
Structure prediction by ZEFSAII (Michael W. Deem and Ramdas Pophale) SiO2 
 PCOD8127168
Probable space group: P 21/C
;
_chemical_formula_sum "Si O2"
_cell_formula_units_Z 20
_cell_length_a 7.042780
_cell_length_b 12.385366
_cell_length_c 11.298696
_cell_angle_alpha 90.000000
_cell_angle_beta 82.623826
_cell_angle_gamma 90.000000
_cell_volume 977.400130
_symmetry_space_group_name_H-M "P 21/C"
_symmetry_group_IT_number 14
_symmetry_cell_setting 'monoclinic'
loop_
_space_group_symop_operation_xyz
x,y,z
-x,1/2+y,1/2-z
-x,-y,-z
x,1/2-y,1/2+z
loop_
_atom_site_type_symbol
_atom_site_label
_atom_site_fract_x
_atom_site_fract_y
_atom_site_fract_z
Si Si1 0.055641 0.784795 0.952200
Si Si2 0.249986 0.583435 0.250046
Si Si3 0.729198 0.622368 0.623295
Si Si4 0.444568 0.784922 0.547876
Si Si5 0.229005 0.122270 0.623231
O O1 0.090435 0.840360 0.821818
O O2 0.935879 0.675690 0.941797
O O3 0.250132 0.749945 0.000008
O O4 0.934391 0.867669 0.041994
O O5 0.327379 0.504190 0.349433
O O6 0.409691 0.659549 0.178275
O O7 0.172448 0.504272 0.150631
O O8 0.564367 0.675830 0.558261
O O9 0.750052 0.680373 0.750064
O O10 0.565845 0.867825 0.458130
#
# Coordination Sequence:
#
# PCOD8127168 Si02
#       5
#     4   4   4   4   4
#     4  11  21  39  64  88 119 157 201 246 293 353
#     4  10  22  40  62  88 122 160 198 240 306 352
#     4   9  22  40  57  88 123 154 197 246 293 354
#     4  11  21  39  64  88 119 157 201 246 293 353
#     4   9  22  40  57  88 123 154 197 246 293 354
#
# _framework density 20.462448999999999
#
# number of rings (size 3 to 8) (size 9 to 14) (size 15 to 20)
#    1.200    0.800    0.000    3.600    0.000    1.600 
#    0.000   12.000    0.000    0.000    0.000    0.000 
#    0.000    0.000    0.000    0.000    0.000    0.000 
#
# Total GULP energy -247784.777517 kJ/mol
# GULP energy per Si atom -12389.238876 kJ/mol
# Density = 2.041588 g / cm^3
# Si number density = 20.462449 Si / 1000 Ang^3
#
#
#
# Elastic Constant Matrix: (Units=GPa)
#
#
# Indices 1 2 3 4 5 6 
#
# 1 132.8767 40.6879 49.2005 0.0000 -14.2161 0.0000
# 2 40.6879 85.6507 28.0717 0.0000 -16.7067 0.0000
# 3 49.2005 28.0717 117.7146 0.0000 -44.7518 0.0000
# 4 0.0000 0.0000 0.0000 47.4772 0.0000 0.5081
# 5 -14.2161 -16.7067 -44.7518 0.0000 40.4396 0.0000
# 6 0.0000 0.0000 0.0000 0.5081 0.0000 13.1625
#
#
#
# Elastic Compliance Matrix: (Units=1/GPa)
#
#
# Indices 1 2 3 4 5 6 
#
# 1 0.010026 -0.003900 -0.004373 0.000000 -0.002926 0.000000
# 2 -0.003900 0.014437 -0.000115 0.000000 0.004466 0.000000
# 3 -0.004373 -0.000115 0.016827 0.000000 0.017037 0.000000
# 4 0.000000 0.000000 0.000000 0.021071 0.000000 -0.000813
# 5 -0.002926 0.004466 0.017037 0.000000 0.044398 0.000000
# 6 0.000000 0.000000 0.000000 -0.000813 0.000000 0.076005
#
#
# Mechanical properties :
#
#
# Convention : Reuss Voigt Hill
#
# Bulk Modulus (GPa) = 40.79206 63.57356 52.18281
# Shear Modulus (GPa) = 24.07183 34.76800 29.41991
#
# Velocity S-wave (km/s) = 3.43358 4.12650 3.79588
# Velocity P-wave (km/s) = 5.97475 7.33757 6.69094
#
# Compressibility (1/GPa) = 0.02451458
#
# Stress axis : x y z
#
# Youngs Moduli (GPa) = 99.73857 69.26664 59.42826
#
# Poissons Ratio (x) = 0.27017 0.25987
# Poissons Ratio (y) = 0.38902 0.00681
# Poissons Ratio (z) = 0.43613 0.00794
#
# Static dielectric constant tensor:
#      x y z
#    x 3.335920 0.000000 -0.311870 
#    y 0.000000 3.605200 0.000000 
#    z -0.311870 0.000000 3.863590 
# 
# 
# High freq. dielectric constant tensor:
#      x y z
#    x 1.772850 0.000000 -0.023520 
#    y 0.000000 1.794780 0.000000 
#    z -0.023520 0.000000 1.816090 
# 
# From -- ./inp_files/20752.got.cif
#   From: 2010.03.12/outbox.cif.g09.slc.cpg/sg14_11_cif.got.tgz:20752.got - 2010.03.31 13:35:05.
