data_PCOD8127705
_publ_section_title
;
Structure prediction by ZEFSAII (Michael W. Deem and Ramdas Pophale) SiO2 
 PCOD8127705
Probable space group: P 21/C
;
_chemical_formula_sum "Si O2"
_cell_formula_units_Z 32
_cell_length_a 13.768443
_cell_length_b 9.548351
_cell_length_c 21.260995
_cell_angle_alpha 90.000000
_cell_angle_beta 30.887951
_cell_angle_gamma 90.000000
_cell_volume 1434.892911
_symmetry_space_group_name_H-M "P 21/C"
_symmetry_group_IT_number 14
_symmetry_cell_setting 'monoclinic'
loop_
_space_group_symop_operation_xyz
x,y,z
-x,1/2+y,1/2-z
-x,-y,-z
x,1/2-y,1/2+z
loop_
_atom_site_type_symbol
_atom_site_label
_atom_site_fract_x
_atom_site_fract_y
_atom_site_fract_z
Si Si1 0.027099 0.797700 0.078499
Si Si2 0.625785 0.860344 0.262379
Si Si3 0.103659 0.269819 0.561574
Si Si4 0.062000 0.482245 0.812810
Si Si5 0.882088 0.008693 0.857689
Si Si6 0.496643 0.140987 0.806200
Si Si7 0.206832 0.852936 0.851878
Si Si8 0.517806 0.598589 0.387356
O O1 0.832861 0.788861 0.146470
O O2 0.061939 0.641332 0.086474
O O3 0.016824 0.895775 0.145725
O O4 0.182475 0.855185 0.941910
O O5 0.500582 0.853626 0.269992
O O6 0.512448 0.767630 0.377658
O O7 0.663482 0.025120 0.250923
O O8 0.095373 0.347512 0.633294
O O9 0.322756 0.260182 0.422810
O O10 0.997499 0.363162 0.567492
O O11 0.002556 0.120747 0.615567
O O12 0.010263 0.511293 0.768558
O O13 0.286382 0.449377 0.689921
O O14 0.662882 0.057533 0.969704
O O15 0.688798 0.209677 0.725233
O O16 0.487398 0.983491 0.837989
#
# Coordination Sequence:
#
# PCOD8127705 Si02
#       8
#     4   4   4   4   4   4   4   4
#     4  11  23  38  65  94 126 172 214 268 330 383
#     4  11  21  37  61  94 126 164 207 258 328 400
#     4  11  23  41  64  94 129 170 216 267 331 394
#     4  11  24  42  64  92 131 173 224 270 318 389
#     4  11  22  43  66  90 127 177 224 269 325 380
#     4  11  22  38  63  92 130 167 200 265 336 385
#     4  12  22  41  65  93 136 165 207 273 332 392
#     4  10  23  39  62  94 124 170 220 265 322 387
#
# _framework density 22.301314000000001
#
# number of rings (size 3 to 8) (size 9 to 14) (size 15 to 20)
#    0.000    1.000    3.750    4.500    0.000    3.500 
#    0.000    0.000    0.000    1.500    0.000    0.000 
#    0.000    0.000    0.000    0.000    0.000    0.000 
#
# Total GULP energy -396444.070786 kJ/mol
# GULP energy per Si atom -12388.877212 kJ/mol
# Density = 2.225056 g / cm^3
# Si number density = 22.301314 Si / 1000 Ang^3
#
#
#
# Elastic Constant Matrix: (Units=GPa)
#
#
# Indices 1 2 3 4 5 6 
#
# 1 77.0623 9.6151 16.6286 0.0000 -0.6677 0.0000
# 2 9.6151 93.0691 11.0067 0.0000 0.4036 0.0000
# 3 16.6286 11.0067 39.0774 0.0000 -6.7856 0.0000
# 4 0.0000 0.0000 0.0000 25.0664 0.0000 -7.4609
# 5 -0.6677 0.4036 -6.7856 0.0000 25.9704 0.0000
# 6 0.0000 0.0000 0.0000 -7.4609 0.0000 31.7548
#
#
#
# Elastic Compliance Matrix: (Units=1/GPa)
#
#
# Indices 1 2 3 4 5 6 
#
# 1 0.014380 -0.000757 -0.006117 0.000000 -0.001217 0.000000
# 2 -0.000757 0.011182 -0.002997 0.000000 -0.000976 0.000000
# 3 -0.006117 -0.002997 0.030397 0.000000 0.007832 0.000000
# 4 0.000000 0.000000 0.000000 0.042894 0.000000 0.010078
# 5 -0.001217 -0.000976 0.007832 0.000000 0.040535 0.000000
# 6 0.000000 0.000000 0.000000 0.010078 0.000000 0.033859
#
#
# Mechanical properties :
#
#
# Convention : Reuss Voigt Hill
#
# Bulk Modulus (GPa) = 27.61134 31.52329 29.56732
# Shear Modulus (GPa) = 24.38279 28.02221 26.20250
#
# Velocity S-wave (km/s) = 3.31015 3.54860 3.43144
# Velocity P-wave (km/s) = 5.19782 5.56380 5.38392
#
# Compressibility (1/GPa) = 0.03621700
#
# Stress axis : x y z
#
# Youngs Moduli (GPa) = 69.53883 89.43302 32.89746
#
# Poissons Ratio (x) = 0.06769 0.20125
# Poissons Ratio (y) = 0.05263 0.09859
# Poissons Ratio (z) = 0.42540 0.26802
#
# Static dielectric constant tensor:
#      x y z
#    x 4.051280 0.000000 -0.190280 
#    y 0.000000 4.053610 0.000000 
#    z -0.190280 0.000000 3.757410 
# 
# 
# High freq. dielectric constant tensor:
#      x y z
#    x 1.880590 0.000000 -0.019230 
#    y 0.000000 1.883100 0.000000 
#    z -0.019230 0.000000 1.852310 
# 
# From -- ./inp_files/73854.got.cif
#   From: 2010.03.12/outbox.cif.g09.slc.cpg/sg14_37_cif.got.tgz:73854.got - 2010.03.31 13:35:05.
