data_PCOD8127879
_publ_section_title
;
Structure prediction by ZEFSAII (Michael W. Deem and Ramdas Pophale) SiO2 
 PCOD8127879
Probable space group: P 21/C
;
_chemical_formula_sum "Si O2"
_cell_formula_units_Z 32
_cell_length_a 9.205091
_cell_length_b 14.956752
_cell_length_c 15.225907
_cell_angle_alpha 90.000000
_cell_angle_beta 46.718046
_cell_angle_gamma 90.000000
_cell_volume 1526.065614
_symmetry_space_group_name_H-M "P 21/C"
_symmetry_group_IT_number 14
_symmetry_cell_setting 'monoclinic'
loop_
_space_group_symop_operation_xyz
x,y,z
-x,1/2+y,1/2-z
-x,-y,-z
x,1/2-y,1/2+z
loop_
_atom_site_type_symbol
_atom_site_label
_atom_site_fract_x
_atom_site_fract_y
_atom_site_fract_z
Si Si1 0.476826 0.777345 0.859040
Si Si2 0.131101 0.846422 0.483085
Si Si3 0.304303 0.024231 0.639428
Si Si4 0.562624 0.964451 0.879571
Si Si5 0.703275 0.677733 0.103618
Si Si6 0.743541 0.714418 0.897785
Si Si7 0.984390 0.621013 0.232646
Si Si8 0.555208 0.484303 0.196214
O O1 0.274554 0.737059 0.904256
O O2 0.432596 0.877907 0.908557
O O3 0.642609 0.764195 0.713542
O O4 0.557299 0.725149 0.910074
O O5 0.077098 0.840735 0.606612
O O6 0.238618 0.938867 0.416926
O O7 0.939317 0.839202 0.501383
O O8 0.188364 0.110543 0.645849
O O9 0.373155 0.049798 0.710547
O O10 0.500000 0.000000 0.500000
O O11 0.149346 0.941142 0.711746
O O12 0.794823 0.939266 0.786150
O O13 0.521643 0.032978 0.815215
O O14 0.500000 0.000000 0.000000
O O15 0.576124 0.588234 0.166285
O O16 0.652385 0.725979 0.033206
O O17 0.915599 0.790252 0.815287
#
# Coordination Sequence:
#
# PCOD8127879 Si02
#       8
#     4   4   4   4   4   4   4   4
#     4  10  23  43  61  93 135 170 219 277 331 397
#     4  12  21  40  65  96 127 173 217 280 330 390
#     4  12  22  40  71 102 130 170 226 280 334 394
#     4  10  24  46  64  93 136 177 217 275 339 407
#     4  11  23  40  63  93 135 168 222 277 332 397
#     4  11  22  42  64  94 139 173 214 281 336 397
#     4  11  24  42  66  97 138 171 223 279 331 403
#     4  11  22  39  70  96 130 166 230 276 335 392
#
# _framework density 20.968955000000001
#
# number of rings (size 3 to 8) (size 9 to 14) (size 15 to 20)
#    0.000    1.000    7.500    0.375    1.750    5.000 
#    0.000    0.625    0.000    0.000    0.000    0.000 
#    0.000    0.000    0.000    0.000    0.000    0.000 
#
# Total GULP energy -396615.277839 kJ/mol
# GULP energy per Si atom -12394.227432 kJ/mol
# Density = 2.092123 g / cm^3
# Si number density = 20.968955 Si / 1000 Ang^3
#
#
#
# Elastic Constant Matrix: (Units=GPa)
#
#
# Indices 1 2 3 4 5 6 
#
# 1 93.8841 27.3465 41.9548 0.0000 19.0954 0.0000
# 2 27.3465 82.9153 45.8469 0.0000 5.9864 0.0000
# 3 41.9548 45.8469 108.3058 0.0000 34.4266 0.0000
# 4 0.0000 0.0000 0.0000 36.0889 0.0000 -6.5262
# 5 19.0954 5.9864 34.4266 0.0000 44.5275 0.0000
# 6 0.0000 0.0000 0.0000 -6.5262 0.0000 38.3302
#
#
#
# Elastic Compliance Matrix: (Units=1/GPa)
#
#
# Indices 1 2 3 4 5 6 
#
# 1 0.013396 -0.002416 -0.003240 0.000000 -0.002915 0.000000
# 2 -0.002416 0.016746 -0.007645 0.000000 0.004696 0.000000
# 3 -0.003240 -0.007645 0.017178 0.000000 -0.010864 0.000000
# 4 0.000000 0.000000 0.000000 0.028590 0.000000 0.004868
# 5 -0.002915 0.004696 -0.010864 0.000000 0.031476 0.000000
# 6 0.000000 0.000000 0.000000 0.004868 0.000000 0.026918
#
#
# Mechanical properties :
#
#
# Convention : Reuss Voigt Hill
#
# Bulk Modulus (GPa) = 48.27041 57.26684 52.76862
# Shear Modulus (GPa) = 29.79540 35.11980 32.45760
#
# Velocity S-wave (km/s) = 3.77361 4.09693 3.93859
# Velocity P-wave (km/s) = 6.48512 7.05332 6.77518
#
# Compressibility (1/GPa) = 0.02071663
#
# Stress axis : x y z
#
# Youngs Moduli (GPa) = 74.64947 59.71670 58.21527
#
# Poissons Ratio (x) = 0.14429 0.18861
# Poissons Ratio (y) = 0.18037 0.44507
# Poissons Ratio (z) = 0.24185 0.45655
#
# Static dielectric constant tensor:
#      x y z
#    x 4.005940 0.000000 -0.040620 
#    y 0.000000 4.062140 0.000000 
#    z -0.040620 0.000000 4.286020 
# 
# 
# High freq. dielectric constant tensor:
#      x y z
#    x 1.822240 0.000000 0.017030 
#    y 0.000000 1.819510 0.000000 
#    z 0.017030 0.000000 1.810810 
# 
# From -- ./inp_files/41678.got.cif
#   From: 2010.03.12/outbox.cif.g09.slc.cpg/sg14_21_cif.got.tgz:41678.got - 2010.03.31 13:35:05.
