data_PCOD8127810
_publ_section_title
;
Structure prediction by ZEFSAII (Michael W. Deem and Ramdas Pophale) SiO2 
 PCOD8127810
Probable space group: P 21/C
;
_chemical_formula_sum "Si O2"
_cell_formula_units_Z 20
_cell_length_a 5.153046
_cell_length_b 18.156370
_cell_length_c 12.183842
_cell_angle_alpha 90.000000
_cell_angle_beta 132.023579
_cell_angle_gamma 90.000000
_cell_volume 846.817391
_symmetry_space_group_name_H-M "P 21/C"
_symmetry_group_IT_number 14
_symmetry_cell_setting 'monoclinic'
loop_
_space_group_symop_operation_xyz
x,y,z
-x,1/2+y,1/2-z
-x,-y,-z
x,1/2-y,1/2+z
loop_
_atom_site_type_symbol
_atom_site_label
_atom_site_fract_x
_atom_site_fract_y
_atom_site_fract_z
Si Si1 0.213549 0.478926 0.780447
Si Si2 0.928265 0.089676 0.411000
Si Si3 0.443032 0.626469 0.772026
Si Si4 0.458403 0.708713 0.330670
Si Si5 0.823081 0.358908 0.538602
O O1 0.151750 0.459700 0.889647
O O2 0.174726 0.566439 0.747884
O O3 0.941629 0.436032 0.625538
O O4 0.604736 0.457789 0.858459
O O5 0.160049 0.108616 0.582008
O O6 0.818764 0.165476 0.322471
O O7 0.347445 0.706683 0.790215
O O8 0.415508 0.622916 0.633044
O O9 0.848991 0.692394 0.400254
O O10 0.422238 0.685247 0.446866
#
# Coordination Sequence:
#
# PCOD8127810 Si02
#       5
#     4   4   4   4   4
#     4  10  23  43  63  92 129 163 203 256 310 368
#     4  10  23  42  62  91 130 162 202 256 309 365
#     4  12  23  40  69  95 119 167 213 253 307 369
#     4  10  24  42  60  89 128 163 203 256 309 365
#     4  10  24  43  62  91 128 163 205 257 309 367
#
# _framework density 23.617844000000002
#
# number of rings (size 3 to 8) (size 9 to 14) (size 15 to 20)
#    0.000    1.600    0.000    3.000    0.000   12.800 
#    0.000    6.000    0.000    0.000    0.000    0.000 
#    0.000    0.000    0.000    0.000    0.000    0.000 
#
# Total GULP energy -248115.413622 kJ/mol
# GULP energy per Si atom -12405.770681 kJ/mol
# Density = 2.356409 g / cm^3
# Si number density = 23.617844 Si / 1000 Ang^3
#
#
#
# Elastic Constant Matrix: (Units=GPa)
#
#
# Indices 1 2 3 4 5 6 
#
# 1 100.0667 21.4128 15.1667 0.0000 -16.3507 0.0000
# 2 21.4128 165.2924 40.6875 0.0000 -15.9296 0.0000
# 3 15.1667 40.6875 160.5697 0.0000 -14.9388 0.0000
# 4 0.0000 0.0000 0.0000 16.1962 0.0000 -7.3949
# 5 -16.3507 -15.9296 -14.9388 0.0000 15.0532 0.0000
# 6 0.0000 0.0000 0.0000 -7.3949 0.0000 12.2375
#
#
#
# Elastic Compliance Matrix: (Units=1/GPa)
#
#
# Indices 1 2 3 4 5 6 
#
# 1 0.012170 -0.000362 0.000150 0.000000 0.012985 0.000000
# 2 -0.000362 0.006946 -0.001188 0.000000 0.005778 0.000000
# 3 0.000150 -0.001188 0.007065 0.000000 0.005917 0.000000
# 4 0.000000 0.000000 0.000000 0.085269 0.000000 0.051527
# 5 0.012985 0.005778 0.005917 0.000000 0.092522 0.000000
# 6 0.000000 0.000000 0.000000 0.051527 0.000000 0.112853
#
#
# Mechanical properties :
#
#
# Convention : Reuss Voigt Hill
#
# Bulk Modulus (GPa) = 42.77037 64.49587 53.63312
# Shear Modulus (GPa) = 15.27099 31.94150 23.60624
#
# Velocity S-wave (km/s) = 2.54557 3.68153 3.16493
# Velocity P-wave (km/s) = 5.17576 6.74084 6.00947
#
# Compressibility (1/GPa) = 0.02338067
#
# Stress axis : x y z
#
# Youngs Moduli (GPa) = 82.17135 143.96472 141.53726
#
# Poissons Ratio (x) = 0.05214 -0.02127
# Poissons Ratio (y) = 0.02976 0.16820
# Poissons Ratio (z) = -0.01235 0.17108
#
# Static dielectric constant tensor:
#      x y z
#    x 4.060100 0.000000 -0.129880 
#    y 0.000000 4.536650 0.000000 
#    z -0.129880 0.000000 4.395200 
# 
# 
# High freq. dielectric constant tensor:
#      x y z
#    x 1.926590 0.000000 -0.005350 
#    y 0.000000 1.950130 0.000000 
#    z -0.005350 0.000000 1.948950 
# 
# From -- ./inp_files/5435.got.cif
#   From: 2010.03.12/outbox.cif.g09.slc.cpg/sg14_3_cif.got.tgz:5435.got - 2010.03.31 13:35:05.
