data_PCOD8127873
_publ_section_title
;
Structure prediction by ZEFSAII (Michael W. Deem and Ramdas Pophale) SiO2 
 PCOD8127873
Probable space group: P 21/C
;
_chemical_formula_sum "Si O2"
_cell_formula_units_Z 16
_cell_length_a 17.795172
_cell_length_b 7.408553
_cell_length_c 17.022716
_cell_angle_alpha 90.000000
_cell_angle_beta 163.054378
_cell_angle_gamma 90.000000
_cell_volume 654.107772
_symmetry_space_group_name_H-M "P 21/C"
_symmetry_group_IT_number 14
_symmetry_cell_setting 'monoclinic'
loop_
_space_group_symop_operation_xyz
x,y,z
-x,1/2+y,1/2-z
-x,-y,-z
x,1/2-y,1/2+z
loop_
_atom_site_type_symbol
_atom_site_label
_atom_site_fract_x
_atom_site_fract_y
_atom_site_fract_z
Si Si1 0.035587 0.299591 0.501710
Si Si2 0.826093 0.797363 0.530289
Si Si3 0.326099 0.797012 0.621792
Si Si4 0.464449 0.700285 0.930436
O O1 0.769335 0.197961 0.257687
O O2 0.000000 0.500000 0.500000
O O3 0.084935 0.307816 0.458394
O O4 0.269327 0.197989 0.781183
O O5 0.572789 0.697538 0.310672
O O6 0.749943 0.000191 0.432845
O O7 0.072758 0.802729 0.834763
O O8 0.415095 0.691721 0.788421
O O9 0.500000 0.500000 0.000000
#
# Coordination Sequence:
#
# PCOD8127873 Si02
#       4
#     4   4   4   4
#     4  10  23  42  73 104 145 194 248 302 381 438
#     4  12  28  46  75 112 155 198 253 311 381 449
#     4  12  28  46  75 112 155 198 253 311 381 449
#     4  10  23  42  73 104 145 194 248 302 381 438
#
# _framework density 24.460799999999999
#
# number of rings (size 3 to 8) (size 9 to 14) (size 15 to 20)
#    0.000    1.000    0.000    4.500   21.000    2.000 
#    0.000    0.000    0.000    0.000    0.000    0.000 
#    0.000    0.000    0.000    0.000    0.000    0.000 
#
# Total GULP energy -198347.588486 kJ/mol
# GULP energy per Si atom -12396.724280 kJ/mol
# Density = 2.440513 g / cm^3
# Si number density = 24.460800 Si / 1000 Ang^3
#
#
#
# Elastic Constant Matrix: (Units=GPa)
#
#
# Indices 1 2 3 4 5 6 
#
# 1 183.0266 46.9468 83.0189 0.0000 3.6857 0.0000
# 2 46.9468 72.4566 20.8306 0.0000 -7.3857 0.0000
# 3 83.0189 20.8306 254.7144 0.0000 16.3669 0.0000
# 4 0.0000 0.0000 0.0000 23.7320 0.0000 -0.9661
# 5 3.6857 -7.3857 16.3669 0.0000 60.2474 0.0000
# 6 0.0000 0.0000 0.0000 -0.9661 0.0000 27.2401
#
#
#
# Elastic Compliance Matrix: (Units=1/GPa)
#
#
# Indices 1 2 3 4 5 6 
#
# 1 0.007519 -0.004321 -0.002070 0.000000 -0.000427 0.000000
# 2 -0.004321 0.016878 -0.000124 0.000000 0.002367 0.000000
# 3 -0.002070 -0.000124 0.004685 0.000000 -0.001161 0.000000
# 4 0.000000 0.000000 0.000000 0.042198 0.000000 0.001497
# 5 -0.000427 0.002367 -0.001161 0.000000 0.017230 0.000000
# 6 0.000000 0.000000 0.000000 0.001497 0.000000 0.036764
#
#
# Mechanical properties :
#
#
# Convention : Reuss Voigt Hill
#
# Bulk Modulus (GPa) = 62.29292 90.19891 76.24591
# Shear Modulus (GPa) = 34.80563 46.20400 40.50482
#
# Velocity S-wave (km/s) = 3.77625 4.35086 4.07370
# Velocity P-wave (km/s) = 6.67346 7.88638 7.30514
#
# Compressibility (1/GPa) = 0.01605319
#
# Stress axis : x y z
#
# Youngs Moduli (GPa) = 132.98835 59.24957 213.42756
#
# Poissons Ratio (x) = 0.25599 0.44180
# Poissons Ratio (y) = 0.57458 0.02650
# Poissons Ratio (z) = 0.27529 0.00736
#
# Static dielectric constant tensor:
#      x y z
#    x 4.203740 0.000000 -0.295160 
#    y 0.000000 3.916050 0.000000 
#    z -0.295160 0.000000 3.143200 
# 
# 
# High freq. dielectric constant tensor:
#      x y z
#    x 1.975590 0.000000 0.011490 
#    y 0.000000 1.947500 0.000000 
#    z 0.011490 0.000000 2.016360 
# 
# From -- ./inp_files/46325.got.cif
#   From: 2010.03.12/outbox.cif.g09.slc.cpg/sg14_24_cif.got.tgz:46325.got - 2010.03.31 13:35:05.
