data_PCOD8127493
_publ_section_title
;
Structure prediction by ZEFSAII (Michael W. Deem and Ramdas Pophale) SiO2 
 PCOD8127493
Probable space group: P 21/C
;
_chemical_formula_sum "Si O2"
_cell_formula_units_Z 28
_cell_length_a 5.377679
_cell_length_b 26.805321
_cell_length_c 9.572122
_cell_angle_alpha 90.000000
_cell_angle_beta 63.466982
_cell_angle_gamma 90.000000
_cell_volume 1234.498098
_symmetry_space_group_name_H-M "P 21/C"
_symmetry_group_IT_number 14
_symmetry_cell_setting 'monoclinic'
loop_
_space_group_symop_operation_xyz
x,y,z
-x,1/2+y,1/2-z
-x,-y,-z
x,1/2-y,1/2+z
loop_
_atom_site_type_symbol
_atom_site_label
_atom_site_fract_x
_atom_site_fract_y
_atom_site_fract_z
Si Si1 0.093133 0.067028 0.831273
Si Si2 0.538276 0.604932 0.527300
Si Si3 0.075355 0.114311 0.328186
Si Si4 0.305025 0.803220 0.221146
Si Si5 0.820100 0.013333 0.406245
Si Si6 0.706206 0.207104 0.461104
Si Si7 0.230753 0.363252 0.073953
O O1 0.775439 0.086358 0.922160
O O2 0.261521 0.066529 0.936097
O O3 0.305518 0.100526 0.683345
O O4 0.064046 0.013880 0.762449
O O5 0.541563 0.658968 0.604387
O O6 0.674262 0.612176 0.342670
O O7 0.841170 0.072273 0.360447
O O8 0.969943 0.171534 0.367398
O O9 0.178908 0.100164 0.457137
O O10 0.255088 0.758789 0.125996
O O11 0.370451 0.781574 0.358010
O O12 0.030277 0.834458 0.301491
O O13 0.500000 0.000000 0.500000
O O14 0.000000 0.000000 0.500000
O O15 0.450796 0.176510 0.464102
#
# Coordination Sequence:
#
# PCOD8127493 Si02
#       7
#     4   4   4   4   4   4   4
#     4  11  23  46  71 100 141 186 226 290 346 418
#     4  11  26  45  69 102 148 178 230 290 361 403
#     4  11  27  43  68 106 135 185 233 297 341 426
#     4  10  25  40  65  96 133 188 224 291 343 422
#     4  12  25  43  78 104 138 185 241 283 355 416
#     4  11  24  43  67  95 139 179 243 279 353 411
#     4  10  22  43  66  94 137 179 234 283 345 411
#
# _framework density 22.681284999999999
#
# number of rings (size 3 to 8) (size 9 to 14) (size 15 to 20)
#    0.000    1.143    2.857    1.714    8.000    3.429 
#    0.000    0.000    0.000    0.000    0.000    0.000 
#    0.000    0.000    0.000    0.000    0.000    0.000 
#
# Total GULP energy -346923.040786 kJ/mol
# GULP energy per Si atom -12390.108600 kJ/mol
# Density = 2.262966 g / cm^3
# Si number density = 22.681285 Si / 1000 Ang^3
#
#
#
# Elastic Constant Matrix: (Units=GPa)
#
#
# Indices 1 2 3 4 5 6 
#
# 1 83.4924 31.6700 -269.2216 0.0000 -151.6705 0.0000
# 2 31.6700 26.3957 520.0428 0.0000 243.9983 0.0000
# 3 -269.2216 520.0428-5046.3332 0.0000-2528.6728 0.0000
# 4 0.0000 0.0000 0.0000 13.7056 0.0000 25.0940
# 5 -151.6705 243.9983-2528.6728 0.0000-1195.9380 0.0000
# 6 0.0000 0.0000 0.0000 25.0940 0.0000 13.4275
#
#
#
# Elastic Compliance Matrix: (Units=1/GPa)
#
#
# Indices 1 2 3 4 5 6 
#
# 1 0.010649 -0.000002 -0.001825 0.000000 0.002509 0.000000
# 2 -0.000002 0.013137 -0.000181 0.000000 0.003062 0.000000
# 3 -0.001825 -0.000181 0.003646 0.000000 -0.007514 0.000000
# 4 0.000000 0.000000 0.000000 -0.030128 0.000000 0.056305
# 5 0.002509 0.003062 -0.007514 0.000000 0.015358 0.000000
# 6 0.000000 0.000000 0.000000 0.056305 0.000000 -0.030752
#
#
# Mechanical properties :
#
#
# Convention : Reuss Voigt Hill
#
# Bulk Modulus (GPa) = 42.70672 -485.71808 -221.50568
# Shear Modulus (GPa) = -797.66897 -581.69005 -689.67951
#
# Velocity S-wave (km/s) = -18.77364 -16.03182 -17.45664
# Velocity P-wave (km/s) = 21.23824 23.60734 22.45406
#
# Compressibility (1/GPa) = 0.02341552
#
# Stress axis : x y z
#
# Youngs Moduli (GPa) = 93.90505 76.11982 274.28012
#
# Poissons Ratio (x) = 0.00018 0.50067
# Poissons Ratio (y) = 0.00022 0.04953
# Poissons Ratio (z) = 0.17141 0.01375
#
# Static dielectric constant tensor:
#      x y z
#    x 3.961680 0.000000 0.115500 
#    y 0.000000 4.153860 0.000000 
#    z 0.115500 0.000000 3.643500 
# 
# 
# High freq. dielectric constant tensor:
#      x y z
#    x 1.889150 0.000000 0.000590 
#    y 0.000000 1.897700 0.000000 
#    z 0.000590 0.000000 1.905530 
# 
# From -- ./inp_files/6891.got.cif
#   From: 2010.03.12/outbox.cif.g09.slc.cpg/sg14_4_cif.got.tgz:6891.got - 2010.03.31 13:35:05.
