data_PCOD8127352
_publ_section_title
;
Structure prediction by ZEFSAII (Michael W. Deem and Ramdas Pophale) SiO2 
 PCOD8127352
Probable space group: P 21/C
;
_chemical_formula_sum "Si O2"
_cell_formula_units_Z 32
_cell_length_a 14.981055
_cell_length_b 14.418191
_cell_length_c 19.871026
_cell_angle_alpha 90.000000
_cell_angle_beta 21.141977
_cell_angle_gamma 90.000000
_cell_volume 1548.088553
_symmetry_space_group_name_H-M "P 21/C"
_symmetry_group_IT_number 14
_symmetry_cell_setting 'monoclinic'
loop_
_space_group_symop_operation_xyz
x,y,z
-x,1/2+y,1/2-z
-x,-y,-z
x,1/2-y,1/2+z
loop_
_atom_site_type_symbol
_atom_site_label
_atom_site_fract_x
_atom_site_fract_y
_atom_site_fract_z
Si Si1 0.512654 0.197426 0.670922
Si Si2 0.219688 0.489062 0.398801
Si Si3 0.427514 0.320529 0.602513
Si Si4 0.780747 0.559333 0.449757
Si Si5 0.050367 0.889032 0.254412
Si Si6 0.282597 0.477132 0.789033
Si Si7 0.057181 0.219305 0.250824
Si Si8 0.595736 0.635114 0.169020
O O1 0.395589 0.095937 0.754834
O O2 0.414682 0.247893 0.672847
O O3 0.444696 0.255062 0.787464
O O4 0.808318 0.184298 0.462001
O O5 0.127163 0.468865 0.540208
O O6 0.367860 0.586788 0.289952
O O7 0.000000 0.500000 0.500000
O O8 0.295947 0.419250 0.710830
O O9 0.288684 0.278975 0.637175
O O10 0.707573 0.341682 0.383455
O O11 0.478223 0.562645 0.653718
O O12 0.885843 0.659967 0.356563
O O13 0.894163 0.489707 0.314558
O O14 0.962372 0.826486 0.254439
O O15 0.848961 0.890568 0.454381
O O16 0.399003 0.409146 0.761638
O O17 0.000000 0.500000 0.000000
#
# Coordination Sequence:
#
# PCOD8127352 Si02
#       8
#     4   4   4   4   4   4   4   4
#     4  10  23  42  63  93 131 169 219 261 322 389
#     4  11  24  43  67  94 129 172 223 261 323 393
#     4   9  22  37  61  91 120 173 205 257 327 383
#     4  10  23  39  62  94 123 166 205 262 325 375
#     4  10  22  42  59  90 133 156 212 263 321 386
#     4   9  20  35  60  90 123 155 210 260 309 385
#     4  11  22  40  65  89 131 162 207 269 318 384
#     4  10  22  43  62  91 128 169 210 270 316 377
#
# _framework density 20.670650999999999
#
# number of rings (size 3 to 8) (size 9 to 14) (size 15 to 20)
#    0.000    2.000    0.000    3.750   10.500    1.000 
#    6.750    1.250    0.000    0.000    0.000    0.000 
#    0.000    0.000    0.000    0.000    0.000    0.000 
#
# Total GULP energy -396662.140390 kJ/mol
# GULP energy per Si atom -12395.691887 kJ/mol
# Density = 2.062360 g / cm^3
# Si number density = 20.670651 Si / 1000 Ang^3
#
#
#
# Elastic Constant Matrix: (Units=GPa)
#
#
# Indices 1 2 3 4 5 6 
#
# 1 89.3309 18.8211 29.6343 0.0000 -14.5661 0.0000
# 2 18.8211 53.6773 24.2727 0.0000 -9.4742 0.0000
# 3 29.6343 24.2727 98.0653 0.0000 5.4121 0.0000
# 4 0.0000 0.0000 0.0000 34.3231 0.0000 4.8914
# 5 -14.5661 -9.4742 5.4121 0.0000 35.5535 0.0000
# 6 0.0000 0.0000 0.0000 4.8914 0.0000 20.5076
#
#
#
# Elastic Compliance Matrix: (Units=1/GPa)
#
#
# Indices 1 2 3 4 5 6 
#
# 1 0.013894 -0.002041 -0.004011 0.000000 0.005759 0.000000
# 2 -0.002041 0.022847 -0.005373 0.000000 0.006070 0.000000
# 3 -0.004011 -0.005373 0.013018 0.000000 -0.005057 0.000000
# 4 0.000000 0.000000 0.000000 0.030160 0.000000 -0.007194
# 5 0.005759 0.006070 -0.005057 0.000000 0.032873 0.000000
# 6 0.000000 0.000000 0.000000 -0.007194 0.000000 0.050478
#
#
# Mechanical properties :
#
#
# Convention : Reuss Voigt Hill
#
# Bulk Modulus (GPa) = 37.16376 42.94774 40.05575
# Shear Modulus (GPa) = 25.62905 29.29987 27.46446
#
# Velocity S-wave (km/s) = 3.52501 3.76900 3.64905
# Velocity P-wave (km/s) = 5.88095 6.30577 6.09706
#
# Compressibility (1/GPa) = 0.02690793
#
# Stress axis : x y z
#
# Youngs Moduli (GPa) = 71.97276 43.77025 76.81436
#
# Poissons Ratio (x) = 0.08935 0.30812
# Poissons Ratio (y) = 0.14693 0.41272
# Poissons Ratio (z) = 0.28870 0.23518
#
# Static dielectric constant tensor:
#      x y z
#    x 3.624580 0.000000 0.058950 
#    y 0.000000 3.872620 0.000000 
#    z 0.058950 0.000000 3.928070 
# 
# 
# High freq. dielectric constant tensor:
#      x y z
#    x 1.802000 0.000000 0.004850 
#    y 0.000000 1.810020 0.000000 
#    z 0.004850 0.000000 1.814170 
# 
# From -- ./inp_files/68640.got.cif
#   From: 2010.03.12/outbox.cif.g09.slc.cpg/sg14_35_cif.got.tgz:68640.got - 2010.03.31 13:35:05.
