data_PCOD8127796
_publ_section_title
;
Structure prediction by ZEFSAII (Michael W. Deem and Ramdas Pophale) SiO2 
 PCOD8127796
Probable space group: P 21/C
;
_chemical_formula_sum "Si O2"
_cell_formula_units_Z 24
_cell_length_a 15.074093
_cell_length_b 17.378699
_cell_length_c 10.369518
_cell_angle_alpha 90.000000
_cell_angle_beta 155.103550
_cell_angle_gamma 90.000000
_cell_volume 1143.584040
_symmetry_space_group_name_H-M "P 21/C"
_symmetry_group_IT_number 14
_symmetry_cell_setting 'monoclinic'
loop_
_space_group_symop_operation_xyz
x,y,z
-x,1/2+y,1/2-z
-x,-y,-z
x,1/2-y,1/2+z
loop_
_atom_site_type_symbol
_atom_site_label
_atom_site_fract_x
_atom_site_fract_y
_atom_site_fract_z
Si Si1 0.050110 0.880049 0.604880
Si Si2 0.220959 0.862873 0.089862
Si Si3 0.252035 0.500575 0.192456
Si Si4 0.313776 0.182170 0.268174
Si Si5 0.064263 0.023229 0.942416
Si Si6 0.128629 0.256620 0.777176
O O1 0.838002 0.916407 0.388769
O O2 0.992223 0.821380 0.416564
O O3 0.200636 0.944497 0.744009
O O4 0.183595 0.837090 0.892344
O O5 0.441939 0.833668 0.434259
O O6 0.213458 0.955711 0.084066
O O7 0.037055 0.826323 0.934309
O O8 0.500000 0.500000 0.500000
O O9 0.146035 0.530351 0.920821
O O10 0.290376 0.222190 0.376642
O O11 0.243026 0.242241 0.064431
O O12 0.186649 0.103004 0.095285
O O13 0.000000 0.000000 0.000000
#
# Coordination Sequence:
#
# PCOD8127796 Si02
#       6
#     4   4   4   4   4   4
#     4  10  23  43  62  98 136 168 229 274 327 411
#     4  11  26  43  71  96 136 181 225 284 338 398
#     4  10  23  41  68  96 133 180 218 276 338 398
#     4  12  27  45  71  97 139 183 223 280 344 402
#     4  11  23  45  68 101 131 172 235 280 326 406
#     4  12  25  46  64 102 137 174 229 277 336 415
#
# _framework density 20.986650999999998
#
# number of rings (size 3 to 8) (size 9 to 14) (size 15 to 20)
#    0.000    1.000    5.000    0.500    4.667    2.667 
#    0.000    0.000    0.000    0.000    0.000    0.000 
#    0.000    0.000    0.000    0.000    0.000    0.000 
#
# Total GULP energy -297674.890138 kJ/mol
# GULP energy per Si atom -12403.120422 kJ/mol
# Density = 2.093888 g / cm^3
# Si number density = 20.986651 Si / 1000 Ang^3
#
#
#
# Elastic Constant Matrix: (Units=GPa)
#
#
# Indices 1 2 3 4 5 6 
#
# 1 111.3332 22.1760 51.6799 0.0000 -8.4203 0.0000
# 2 22.1760 86.6462 34.4184 0.0000 3.9455 0.0000
# 3 51.6799 34.4184 133.9127 0.0000 9.3907 0.0000
# 4 0.0000 0.0000 0.0000 27.1982 0.0000 -7.7913
# 5 -8.4203 3.9455 9.3907 0.0000 33.1232 0.0000
# 6 0.0000 0.0000 0.0000 -7.7913 0.0000 37.2378
#
#
#
# Elastic Compliance Matrix: (Units=1/GPa)
#
#
# Indices 1 2 3 4 5 6 
#
# 1 0.011659 -0.001419 -0.004443 0.000000 0.004393 0.000000
# 2 -0.001419 0.013038 -0.002723 0.000000 -0.001142 0.000000
# 3 -0.004443 -0.002723 0.010140 0.000000 -0.003680 0.000000
# 4 0.000000 0.000000 0.000000 0.039111 0.000000 0.008183
# 5 0.004393 -0.001142 -0.003680 0.000000 0.032486 0.000000
# 6 0.000000 0.000000 0.000000 0.008183 0.000000 0.028567
#
#
# Mechanical properties :
#
#
# Convention : Reuss Voigt Hill
#
# Bulk Modulus (GPa) = 56.60319 60.93786 58.77053
# Shear Modulus (GPa) = 31.63326 34.41971 33.02649
#
# Velocity S-wave (km/s) = 3.88661 4.05418 3.97128
# Velocity P-wave (km/s) = 6.86809 7.14246 7.00661
#
# Compressibility (1/GPa) = 0.01766685
#
# Stress axis : x y z
#
# Youngs Moduli (GPa) = 85.76861 76.69775 98.61799
#
# Poissons Ratio (x) = 0.10885 0.43814
# Poissons Ratio (y) = 0.12173 0.26857
# Poissons Ratio (z) = 0.38106 0.20887
#
# Static dielectric constant tensor:
#      x y z
#    x 3.871260 0.000000 -0.199500 
#    y 0.000000 3.904260 0.000000 
#    z -0.199500 0.000000 3.703210 
# 
# 
# High freq. dielectric constant tensor:
#      x y z
#    x 1.831600 0.000000 -0.015800 
#    y 0.000000 1.829260 0.000000 
#    z -0.015800 0.000000 1.815110 
# 
# From -- ./inp_files/34324.got.cif
#   From: 2010.03.12/outbox.cif.g09.slc.cpg/sg14_18_cif.got.tgz:34324.got - 2010.03.31 13:35:05.
