data_PCOD8127630
_publ_section_title
;
Structure prediction by ZEFSAII (Michael W. Deem and Ramdas Pophale) SiO2 
 PCOD8127630
Probable space group: P 21/C
;
_chemical_formula_sum "Si O2"
_cell_formula_units_Z 32
_cell_length_a 27.105116
_cell_length_b 8.986394
_cell_length_c 9.489148
_cell_angle_alpha 90.000000
_cell_angle_beta 146.691349
_cell_angle_gamma 90.000000
_cell_volume 1269.270395
_symmetry_space_group_name_H-M "P 21/C"
_symmetry_group_IT_number 14
_symmetry_cell_setting 'monoclinic'
loop_
_space_group_symop_operation_xyz
x,y,z
-x,1/2+y,1/2-z
-x,-y,-z
x,1/2-y,1/2+z
loop_
_atom_site_type_symbol
_atom_site_label
_atom_site_fract_x
_atom_site_fract_y
_atom_site_fract_z
Si Si1 0.972253 0.167831 0.946033
Si Si2 0.579486 0.749818 0.600804
Si Si3 0.671019 0.184043 0.978319
Si Si4 0.603740 0.004292 0.370587
Si Si5 0.910565 0.923299 0.234338
Si Si6 0.274214 0.041165 0.108741
Si Si7 0.459819 0.443119 0.747277
Si Si8 0.135947 0.687996 0.547607
O O1 0.886196 0.200068 0.840322
O O2 0.061465 0.251648 0.220773
O O3 0.942094 0.223707 0.721161
O O4 0.000000 0.000000 0.000000
O O5 0.679515 0.816362 0.855938
O O6 0.516377 0.875775 0.534816
O O7 0.559130 0.707986 0.389298
O O8 0.572185 0.592275 0.663318
O O9 0.600706 0.323584 0.809482
O O10 0.767160 0.243997 0.264117
O O11 0.690496 0.116306 0.870263
O O12 0.627880 0.051236 0.969738
O O13 0.544391 0.976918 0.373106
O O14 0.701555 0.961382 0.665189
O O15 0.872630 0.011539 0.008342
O O16 0.832129 0.936979 0.165477
O O17 0.000000 0.000000 0.500000
#
# Coordination Sequence:
#
# PCOD8127630 Si02
#       8
#     4   4   4   4   4   4   4   4
#     4  11  25  44  73 106 137 184 233 288 351 423
#     4  11  25  47  67 101 140 182 240 290 364 425
#     4  11  26  41  73 100 143 184 240 293 359 431
#     4  12  25  44  71 103 140 186 243 296 362 422
#     4  10  22  45  68  96 140 177 224 284 345 417
#     4  11  25  46  68 104 139 189 232 302 354 429
#     4  11  26  45  71 102 141 190 238 301 357 435
#     4  11  23  45  69 104 141 181 230 286 353 422
#
# _framework density 25.211331000000001
#
# number of rings (size 3 to 8) (size 9 to 14) (size 15 to 20)
#    0.000    1.000    2.500    3.375    3.500    4.000 
#    4.500    0.000    0.000    0.000    0.000    0.000 
#    0.000    0.000    0.000    0.000    0.000    0.000 
#
# Total GULP energy -396627.264420 kJ/mol
# GULP energy per Si atom -12394.602013 kJ/mol
# Density = 2.515395 g / cm^3
# Si number density = 25.211331 Si / 1000 Ang^3
#
#
#
# Elastic Constant Matrix: (Units=GPa)
#
#
# Indices 1 2 3 4 5 6 
#
# 1 106.3495 31.6762 15.5296 0.0000 17.8027 0.0000
# 2 31.6762 167.7517 26.2701 0.0000 13.3731 0.0000
# 3 15.5296 26.2701 57.7992 0.0000 16.6577 0.0000
# 4 0.0000 0.0000 0.0000 41.6080 0.0000 5.6544
# 5 17.8027 13.3731 16.6577 0.0000 42.4647 0.0000
# 6 0.0000 0.0000 0.0000 5.6544 0.0000 30.8593
#
#
#
# Elastic Compliance Matrix: (Units=1/GPa)
#
#
# Indices 1 2 3 4 5 6 
#
# 1 0.010619 -0.001547 -0.001136 0.000000 -0.003519 0.000000
# 2 -0.001547 0.006680 -0.002482 0.000000 -0.000482 0.000000
# 3 -0.001136 -0.002482 0.020714 0.000000 -0.006868 0.000000
# 4 0.000000 0.000000 0.000000 0.024648 0.000000 -0.004516
# 5 -0.003519 -0.000482 -0.006868 0.000000 0.027870 0.000000
# 6 0.000000 0.000000 0.000000 -0.004516 0.000000 0.033233
#
#
# Mechanical properties :
#
#
# Convention : Reuss Voigt Hill
#
# Bulk Modulus (GPa) = 36.12207 53.20581 44.66394
# Shear Modulus (GPa) = 34.88709 40.21471 37.55090
#
# Velocity S-wave (km/s) = 3.72396 3.99821 3.86352
# Velocity P-wave (km/s) = 5.73144 6.51644 6.13650
#
# Compressibility (1/GPa) = 0.02768391
#
# Stress axis : x y z
#
# Youngs Moduli (GPa) = 94.17460 149.69354 48.27712
#
# Poissons Ratio (x) = 0.23153 0.05484
# Poissons Ratio (y) = 0.14566 0.11982
# Poissons Ratio (z) = 0.10697 0.37151
#
# Static dielectric constant tensor:
#      x y z
#    x 4.450710 0.000000 0.080850 
#    y 0.000000 5.194300 0.000000 
#    z 0.080850 0.000000 4.231020 
# 
# 
# High freq. dielectric constant tensor:
#      x y z
#    x 2.007580 0.000000 0.013670 
#    y 0.000000 2.033880 0.000000 
#    z 0.013670 0.000000 1.995270 
# 
# From -- ./inp_files/36506.got.cif
#   From: 2010.03.12/outbox.cif.g09.slc.cpg/sg14_19_cif.got.tgz:36506.got - 2010.03.31 13:35:05.
