data_PCOD8127040
_publ_section_title
;
Structure prediction by ZEFSAII (Michael W. Deem and Ramdas Pophale) SiO2 
 PCOD8127040
Probable space group: P 21/C
;
_chemical_formula_sum "Si O2"
_cell_formula_units_Z 20
_cell_length_a 11.914269
_cell_length_b 9.599479
_cell_length_c 17.592551
_cell_angle_alpha 90.000000
_cell_angle_beta 150.314650
_cell_angle_gamma 90.000000
_cell_volume 996.452437
_symmetry_space_group_name_H-M "P 21/C"
_symmetry_group_IT_number 14
_symmetry_cell_setting 'monoclinic'
loop_
_space_group_symop_operation_xyz
x,y,z
-x,1/2+y,1/2-z
-x,-y,-z
x,1/2-y,1/2+z
loop_
_atom_site_type_symbol
_atom_site_label
_atom_site_fract_x
_atom_site_fract_y
_atom_site_fract_z
Si Si1 0.070543 0.278043 0.066628
Si Si2 0.685169 0.026078 0.357791
Si Si3 0.759803 0.621364 0.472006
Si Si4 0.606214 0.881552 0.463526
Si Si5 0.173614 0.049278 0.250551
O O1 0.219095 0.419161 0.149133
O O2 0.075399 0.202344 0.988564
O O3 0.169204 0.179461 0.190415
O O4 0.810574 0.324047 0.928341
O O5 0.420084 0.039532 0.185136
O O6 0.718496 0.972019 0.462886
O O7 0.620629 0.719312 0.448165
O O8 0.922206 0.514502 0.611688
O O9 0.758258 0.895699 0.627345
O O10 0.349013 0.930222 0.326495
#
# Coordination Sequence:
#
# PCOD8127040 Si02
#       5
#     4   4   4   4   4
#     4  10  22  38  65  90 119 156 207 245 295 368
#     4  10  22  40  63  91 122 157 202 250 294 361
#     4  11  22  39  65  90 116 163 202 252 298 364
#     4  10  24  41  58  93 126 155 203 254 301 361
#     4  11  23  40  64  88 124 163 198 250 310 361
#
# _framework density 20.071202
#
# number of rings (size 3 to 8) (size 9 to 14) (size 15 to 20)
#    0.000    1.600    2.000    1.800    8.400    0.000 
#    3.600    1.000    0.000    0.000    0.000    0.000 
#    0.000    0.000    0.000    0.000    0.000    0.000 
#
# Total GULP energy -248009.115551 kJ/mol
# GULP energy per Si atom -12400.455778 kJ/mol
# Density = 2.002552 g / cm^3
# Si number density = 20.071202 Si / 1000 Ang^3
#
#
#
# Elastic Constant Matrix: (Units=GPa)
#
#
# Indices 1 2 3 4 5 6 
#
# 1 78.7132 32.6378 41.1557 0.0000 -14.0398 0.0000
# 2 32.6378 85.2735 42.0632 0.0000 -13.3190 0.0000
# 3 41.1557 42.0632 123.8007 0.0000 -12.1968 0.0000
# 4 0.0000 0.0000 0.0000 31.0344 0.0000 2.9280
# 5 -14.0398 -13.3190 -12.1968 0.0000 29.1010 0.0000
# 6 0.0000 0.0000 0.0000 2.9280 0.0000 32.7310
#
#
#
# Elastic Compliance Matrix: (Units=1/GPa)
#
#
# Indices 1 2 3 4 5 6 
#
# 1 0.017247 -0.003901 -0.003926 0.000000 0.004890 0.000000
# 2 -0.003901 0.015596 -0.003634 0.000000 0.003733 0.000000
# 3 -0.003926 -0.003634 0.010709 0.000000 0.000931 0.000000
# 4 0.000000 0.000000 0.000000 0.032497 0.000000 -0.002907
# 5 0.004890 0.003733 0.000931 0.000000 0.038821 0.000000
# 6 0.000000 0.000000 0.000000 -0.002907 0.000000 0.030812
#
#
# Mechanical properties :
#
#
# Convention : Reuss Voigt Hill
#
# Bulk Modulus (GPa) = 48.47535 57.72229 53.09882
# Shear Modulus (GPa) = 28.49320 30.03533 29.26426
#
# Velocity S-wave (km/s) = 3.77185 3.87258 3.82255
# Velocity P-wave (km/s) = 6.57064 6.98692 6.78197
#
# Compressibility (1/GPa) = 0.02062904
#
# Stress axis : x y z
#
# Youngs Moduli (GPa) = 57.98165 64.12031 93.37635
#
# Poissons Ratio (x) = 0.25010 0.36664
# Poissons Ratio (y) = 0.22616 0.33937
# Poissons Ratio (z) = 0.22766 0.23304
#
# Static dielectric constant tensor:
#      x y z
#    x 3.625800 0.000000 0.070130 
#    y 0.000000 3.707140 0.000000 
#    z 0.070130 0.000000 3.521140 
# 
# 
# High freq. dielectric constant tensor:
#      x y z
#    x 1.779260 0.000000 0.004350 
#    y 0.000000 1.785810 0.000000 
#    z 0.004350 0.000000 1.784410 
# 
# From -- ./inp_files/23010.got.cif
#   From: 2010.03.12/outbox.cif.g09.slc.cpg/sg14_12_cif.got.tgz:23010.got - 2010.03.31 13:35:05.
