data_PCOD8127694
_publ_section_title
;
Structure prediction by ZEFSAII (Michael W. Deem and Ramdas Pophale) SiO2 
 PCOD8127694
Probable space group: P 21/C
;
_chemical_formula_sum "Si O2"
_cell_formula_units_Z 24
_cell_length_a 9.473191
_cell_length_b 8.568581
_cell_length_c 20.212228
_cell_angle_alpha 90.000000
_cell_angle_beta 46.845828
_cell_angle_gamma 90.000000
_cell_volume 1196.889805
_symmetry_space_group_name_H-M "P 21/C"
_symmetry_group_IT_number 14
_symmetry_cell_setting 'monoclinic'
loop_
_space_group_symop_operation_xyz
x,y,z
-x,1/2+y,1/2-z
-x,-y,-z
x,1/2-y,1/2+z
loop_
_atom_site_type_symbol
_atom_site_label
_atom_site_fract_x
_atom_site_fract_y
_atom_site_fract_z
Si Si1 0.508004 0.823867 0.785191
Si Si2 0.068514 0.883437 0.922289
Si Si3 0.493542 0.510967 0.156905
Si Si4 0.893507 0.129531 0.236455
Si Si5 0.108700 0.443888 0.028374
Si Si6 0.138735 0.996970 0.270322
O O1 0.283572 0.838714 0.876749
O O2 0.557546 0.646290 0.786727
O O3 0.537465 0.854737 0.697544
O O4 0.646572 0.942273 0.781181
O O5 0.072580 0.951665 0.846375
O O6 0.917715 0.741715 0.963048
O O7 0.000000 0.000000 0.000000
O O8 0.306432 0.554825 0.172801
O O9 0.668276 0.503436 0.048580
O O10 0.858674 0.313593 0.243199
O O11 0.070624 0.090357 0.227444
O O12 0.013279 0.529416 0.121974
O O13 0.000000 0.500000 0.000000
#
# Coordination Sequence:
#
# PCOD8127694 Si02
#       6
#     4   4   4   4   4   4
#     4  11  21  37  62  91 121 159 206 246 304 363
#     4  10  23  38  63  93 120 154 205 256 305 359
#     4  11  22  38  63  92 123 162 206 249 304 364
#     4  10  24  41  62  90 121 164 204 249 312 365
#     4  11  21  39  63  93 123 158 204 250 306 362
#     4  11  23  43  63  88 126 162 205 252 308 370
#
# _framework density 20.051970000000001
#
# number of rings (size 3 to 8) (size 9 to 14) (size 15 to 20)
#    0.000    1.333    3.333    3.000    7.000    2.000 
#    0.000    0.833    0.000    0.000    0.000    0.000 
#    0.000    0.000    0.000    0.000    0.000    0.000 
#
# Total GULP energy -297494.121135 kJ/mol
# GULP energy per Si atom -12395.588381 kJ/mol
# Density = 2.000633 g / cm^3
# Si number density = 20.051970 Si / 1000 Ang^3
#
#
#
# Elastic Constant Matrix: (Units=GPa)
#
#
# Indices 1 2 3 4 5 6 
#
# 1 102.3796 15.4475 19.6688 0.0000 2.9380 0.0000
# 2 15.4475 70.8643 30.5283 0.0000 5.1968 0.0000
# 3 19.6688 30.5283 79.5378 0.0000 -0.5412 0.0000
# 4 0.0000 0.0000 0.0000 30.3163 0.0000 -1.9109
# 5 2.9380 5.1968 -0.5412 0.0000 24.4117 0.0000
# 6 0.0000 0.0000 0.0000 -1.9109 0.0000 35.7288
#
#
#
# Elastic Compliance Matrix: (Units=1/GPa)
#
#
# Indices 1 2 3 4 5 6 
#
# 1 0.010392 -0.001294 -0.002080 0.000000 -0.001021 0.000000
# 2 -0.001294 0.017417 -0.006390 0.000000 -0.003694 0.000000
# 3 -0.002080 -0.006390 0.015553 0.000000 0.001956 0.000000
# 4 0.000000 0.000000 0.000000 0.033097 0.000000 0.001770
# 5 -0.001021 -0.003694 0.001956 0.000000 0.041917 0.000000
# 6 0.000000 0.000000 0.000000 0.001770 0.000000 0.028083
#
#
# Mechanical properties :
#
#
# Convention : Reuss Voigt Hill
#
# Bulk Modulus (GPa) = 41.95833 42.67455 42.31644
# Shear Modulus (GPa) = 28.74676 30.56716 29.65696
#
# Velocity S-wave (km/s) = 3.79042 3.90859 3.84996
# Velocity P-wave (km/s) = 6.33455 6.45737 6.39625
#
# Compressibility (1/GPa) = 0.02383317
#
# Stress axis : x y z
#
# Youngs Moduli (GPa) = 96.23008 57.41378 64.29627
#
# Poissons Ratio (x) = 0.07431 0.13373
# Poissons Ratio (y) = 0.12456 0.41087
# Poissons Ratio (z) = 0.20015 0.36689
#
# Static dielectric constant tensor:
#      x y z
#    x 3.619850 0.000000 0.096250 
#    y 0.000000 3.450010 0.000000 
#    z 0.096250 0.000000 3.350940 
# 
# 
# High freq. dielectric constant tensor:
#      x y z
#    x 1.781700 0.000000 -0.011090 
#    y 0.000000 1.783430 0.000000 
#    z -0.011090 0.000000 1.777230 
# 
# From -- ./inp_files/46360.got.cif
#   From: 2010.03.12/outbox.cif.g09.slc.cpg/sg14_24_cif.got.tgz:46360.got - 2010.03.31 13:35:05.
