data_PCOD8127546
_publ_section_title
;
Structure prediction by ZEFSAII (Michael W. Deem and Ramdas Pophale) SiO2 
 PCOD8127546
Probable space group: P 21/C
;
_chemical_formula_sum "Si O2"
_cell_formula_units_Z 32
_cell_length_a 17.254607
_cell_length_b 15.357819
_cell_length_c 10.616064
_cell_angle_alpha 90.000000
_cell_angle_beta 30.929072
_cell_angle_gamma 90.000000
_cell_volume 1445.910684
_symmetry_space_group_name_H-M "P 21/C"
_symmetry_group_IT_number 14
_symmetry_cell_setting 'monoclinic'
loop_
_space_group_symop_operation_xyz
x,y,z
-x,1/2+y,1/2-z
-x,-y,-z
x,1/2-y,1/2+z
loop_
_atom_site_type_symbol
_atom_site_label
_atom_site_fract_x
_atom_site_fract_y
_atom_site_fract_z
Si Si1 0.798035 0.494945 0.672731
Si Si2 0.924272 0.771336 0.400935
Si Si3 0.874597 0.572892 0.161406
Si Si4 0.628443 0.174057 0.471722
Si Si5 0.674317 0.017969 0.759501
Si Si6 0.895979 0.581247 0.775792
Si Si7 0.743854 0.289620 0.081166
Si Si8 0.292832 0.364242 0.371046
O O1 0.872249 0.566399 0.661773
O O2 0.685818 0.545433 0.734881
O O3 0.942689 0.455315 0.398871
O O4 0.703828 0.421067 0.876752
O O5 0.927678 0.851045 0.493806
O O6 0.900982 0.815421 0.295273
O O7 0.780006 0.708309 0.620464
O O8 0.078427 0.717253 0.192276
O O9 0.729365 0.519284 0.316263
O O10 0.834178 0.619791 0.346993
O O11 0.000000 0.500000 0.000000
O O12 0.689547 0.218424 0.258684
O O13 0.663672 0.222664 0.555511
O O14 0.448802 0.167330 0.712203
O O15 0.707127 0.119402 0.697627
O O16 0.756272 0.964636 0.536929
O O17 0.500000 0.000000 0.000000
#
# Coordination Sequence:
#
# PCOD8127546 Si02
#       8
#     4   4   4   4   4   4   4   4
#     4  11  23  47  72 101 141 196 239 304 362 445
#     4  11  26  44  73 106 143 191 245 306 370 442
#     4  11  26  46  72 106 142 191 248 305 366 454
#     4  12  29  46  75 107 154 191 251 303 386 435
#     4  11  24  45  74 100 143 191 239 294 371 437
#     4  10  22  43  73 101 138 185 245 290 365 437
#     4  12  27  49  72 109 146 198 246 313 364 456
#     4  12  28  44  74 105 150 184 250 308 373 442
#
# _framework density 22.131381999999999
#
# number of rings (size 3 to 8) (size 9 to 14) (size 15 to 20)
#    0.000    0.750    2.500    4.125   12.250    0.000 
#    0.000    0.000    0.000    0.000    0.000    0.000 
#    0.000    0.000    0.000    0.000    0.000    0.000 
#
# Total GULP energy -396746.522021 kJ/mol
# GULP energy per Si atom -12398.328813 kJ/mol
# Density = 2.208101 g / cm^3
# Si number density = 22.131382 Si / 1000 Ang^3
#
#
#
# Elastic Constant Matrix: (Units=GPa)
#
#
# Indices 1 2 3 4 5 6 
#
# 1 98.8420 43.3909 21.0218 0.0000 -7.9653 0.0000
# 2 43.3909 103.7919 37.0307 0.0000 -10.5436 0.0000
# 3 21.0218 37.0307 92.0862 0.0000 -24.3502 0.0000
# 4 0.0000 0.0000 0.0000 29.9787 0.0000 -0.6674
# 5 -7.9653 -10.5436 -24.3502 0.0000 43.0442 0.0000
# 6 0.0000 0.0000 0.0000 -0.6674 0.0000 43.6683
#
#
#
# Elastic Compliance Matrix: (Units=1/GPa)
#
#
# Indices 1 2 3 4 5 6 
#
# 1 0.012470 -0.004895 -0.000688 0.000000 0.000719 0.000000
# 2 -0.004895 0.013172 -0.004193 0.000000 -0.000051 0.000000
# 3 -0.000688 -0.004193 0.014578 0.000000 0.007092 0.000000
# 4 0.000000 0.000000 0.000000 0.033368 0.000000 0.000510
# 5 0.000719 -0.000051 0.007092 0.000000 0.027365 0.000000
# 6 0.000000 0.000000 0.000000 0.000510 0.000000 0.022908
#
#
# Mechanical properties :
#
#
# Convention : Reuss Voigt Hill
#
# Bulk Modulus (GPa) = 48.38337 55.28964 51.83650
# Shear Modulus (GPa) = 33.26643 36.22336 34.74489
#
# Velocity S-wave (km/s) = 3.88123 4.05006 3.96654
# Velocity P-wave (km/s) = 6.48033 6.84889 6.66716
#
# Compressibility (1/GPa) = 0.02066826
#
# Stress axis : x y z
#
# Youngs Moduli (GPa) = 80.19108 75.92077 68.59629
#
# Poissons Ratio (x) = 0.37160 0.04721
# Poissons Ratio (y) = 0.39251 0.28762
# Poissons Ratio (z) = 0.05519 0.31833
#
# Static dielectric constant tensor:
#      x y z
#    x 4.182230 0.000000 -0.085840 
#    y 0.000000 4.148840 0.000000 
#    z -0.085840 0.000000 3.819600 
# 
# 
# High freq. dielectric constant tensor:
#      x y z
#    x 1.878390 0.000000 -0.002720 
#    y 0.000000 1.882520 0.000000 
#    z -0.002720 0.000000 1.869430 
# 
# From -- ./inp_files/34215.got.cif
#   From: 2010.03.12/outbox.cif.g09.slc.cpg/sg14_18_cif.got.tgz:34215.got - 2010.03.31 13:35:05.
