data_PCOD8127002
_publ_section_title
;
Structure prediction by ZEFSAII (Michael W. Deem and Ramdas Pophale) SiO2 
 PCOD8127002
Probable space group: P 21/C
;
_chemical_formula_sum "Si O2"
_cell_formula_units_Z 28
_cell_length_a 9.030769
_cell_length_b 8.858773
_cell_length_c 21.189979
_cell_angle_alpha 90.000000
_cell_angle_beta 49.187518
_cell_angle_gamma 90.000000
_cell_volume 1283.039986
_symmetry_space_group_name_H-M "P 21/C"
_symmetry_group_IT_number 14
_symmetry_cell_setting 'monoclinic'
loop_
_space_group_symop_operation_xyz
x,y,z
-x,1/2+y,1/2-z
-x,-y,-z
x,1/2-y,1/2+z
loop_
_atom_site_type_symbol
_atom_site_label
_atom_site_fract_x
_atom_site_fract_y
_atom_site_fract_z
Si Si1 0.792779 0.675421 0.507351
Si Si2 0.004628 0.884281 0.273237
Si Si3 0.723268 0.512180 0.957272
Si Si4 0.892434 0.154846 0.518029
Si Si5 0.036947 0.578131 0.327930
Si Si6 0.614966 0.219661 0.197562
Si Si7 0.550402 0.056594 0.817581
O O1 0.881277 0.568350 0.428168
O O2 0.602381 0.588068 0.583967
O O3 0.953247 0.704665 0.519073
O O4 0.741622 0.838500 0.494079
O O5 0.229954 0.923581 0.221516
O O6 0.970375 0.708161 0.296742
O O7 0.954301 0.922902 0.214370
O O8 0.864668 0.982675 0.357512
O O9 0.784690 0.362030 0.980382
O O10 0.500000 0.500000 0.000000
O O11 0.736451 0.173590 0.617278
O O12 0.000000 0.000000 0.500000
O O13 0.247677 0.612789 0.298273
O O14 0.493748 0.328944 0.277108
O O15 0.467699 0.116030 0.199368
#
# Coordination Sequence:
#
# PCOD8127002 Si02
#       7
#     4   4   4   4   4   4   4
#     4   9  21  40  62  87 128 168 206 271 313 391
#     4  10  23  41  60  91 128 165 207 272 323 387
#     4  10  22  37  66  93 121 171 221 257 332 391
#     4   9  19  40  64  88 127 164 214 267 321 380
#     4   9  21  43  59  87 127 162 213 259 328 383
#     4  10  24  39  63  94 123 171 217 267 323 391
#     4  11  24  39  63  95 130 166 216 266 336 379
#
# _framework density 21.823170999999999
#
# number of rings (size 3 to 8) (size 9 to 14) (size 15 to 20)
#    0.000    2.286    0.000    2.571   10.000    6.286 
#    2.571    0.000    0.000    0.000    0.000    0.000 
#    0.000    0.000    0.000    0.000    0.000    0.000 
#
# Total GULP energy -347130.336947 kJ/mol
# GULP energy per Si atom -12397.512034 kJ/mol
# Density = 2.177350 g / cm^3
# Si number density = 21.823171 Si / 1000 Ang^3
#
#
#
# Elastic Constant Matrix: (Units=GPa)
#
#
# Indices 1 2 3 4 5 6 
#
# 1 79.9549 3.2512 35.5765 0.0000 -4.2482 0.0000
# 2 3.2512 34.7183 18.6101 0.0000 1.9204 0.0000
# 3 35.5765 18.6101 116.7843 0.0000 -7.9728 0.0000
# 4 0.0000 0.0000 0.0000 40.5418 0.0000 12.6397
# 5 -4.2482 1.9204 -7.9728 0.0000 23.4469 0.0000
# 6 0.0000 0.0000 0.0000 12.6397 0.0000 25.3426
#
#
#
# Elastic Compliance Matrix: (Units=1/GPa)
#
#
# Indices 1 2 3 4 5 6 
#
# 1 0.014530 0.001005 -0.004517 0.000000 0.001014 0.000000
# 2 0.001005 0.032010 -0.005706 0.000000 -0.004380 0.000000
# 3 -0.004517 -0.005706 0.011081 0.000000 0.003417 0.000000
# 4 0.000000 0.000000 0.000000 0.029208 0.000000 -0.014567
# 5 0.001014 -0.004380 0.003417 0.000000 0.044354 0.000000
# 6 0.000000 0.000000 0.000000 -0.014567 0.000000 0.046725
#
#
# Mechanical properties :
#
#
# Convention : Reuss Voigt Hill
#
# Bulk Modulus (GPa) = 25.52043 38.48146 32.00095
# Shear Modulus (GPa) = 23.87702 29.46757 26.67230
#
# Velocity S-wave (km/s) = 3.31133 3.67861 3.49979
# Velocity P-wave (km/s) = 5.13220 5.97616 5.57019
#
# Compressibility (1/GPa) = 0.03918429
#
# Stress axis : x y z
#
# Youngs Moduli (GPa) = 68.82285 31.24024 90.24103
#
# Poissons Ratio (x) = -0.03138 0.40764
# Poissons Ratio (y) = -0.06914 0.51491
# Poissons Ratio (z) = 0.31089 0.17826
#
# Static dielectric constant tensor:
#      x y z
#    x 3.295230 0.000000 -0.277720 
#    y 0.000000 3.772740 0.000000 
#    z -0.277720 0.000000 3.819670 
# 
# 
# High freq. dielectric constant tensor:
#      x y z
#    x 1.852180 0.000000 -0.000910 
#    y 0.000000 1.842780 0.000000 
#    z -0.000910 0.000000 1.865340 
# 
# From -- ./inp_files/64986.got.cif
#   From: 2010.03.12/outbox.cif.g09.slc.cpg/sg14_33_cif.got.tgz:64986.got - 2010.03.31 13:35:05.
