data_PCOD8127659
_publ_section_title
;
Structure prediction by ZEFSAII (Michael W. Deem and Ramdas Pophale) SiO2 
 PCOD8127659
Probable space group: P 21/C
;
_chemical_formula_sum "Si O2"
_cell_formula_units_Z 32
_cell_length_a 15.128025
_cell_length_b 11.130371
_cell_length_c 25.675079
_cell_angle_alpha 90.000000
_cell_angle_beta 160.065164
_cell_angle_gamma 90.000000
_cell_volume 1473.994514
_symmetry_space_group_name_H-M "P 21/C"
_symmetry_group_IT_number 14
_symmetry_cell_setting 'monoclinic'
loop_
_space_group_symop_operation_xyz
x,y,z
-x,1/2+y,1/2-z
-x,-y,-z
x,1/2-y,1/2+z
loop_
_atom_site_type_symbol
_atom_site_label
_atom_site_fract_x
_atom_site_fract_y
_atom_site_fract_z
Si Si1 0.641668 0.116587 0.556799
Si Si2 0.500644 0.167406 0.156911
Si Si3 0.858113 0.574670 0.727884
Si Si4 0.462884 0.091757 0.779761
Si Si5 0.988802 0.119907 0.026196
Si Si6 0.289174 0.240028 0.275883
Si Si7 0.888961 0.804265 0.488266
Si Si8 0.410338 0.841520 0.907628
O O1 0.492582 0.177218 0.426397
O O2 0.694105 0.210830 0.632688
O O3 0.915888 0.071619 0.688529
O O4 0.500000 0.000000 0.500000
O O5 0.310438 0.267662 0.076144
O O6 0.426467 0.168223 0.055167
O O7 0.811866 0.191447 0.329459
O O8 0.443604 0.040408 0.152028
O O9 0.908806 0.672411 0.801788
O O10 0.823361 0.438278 0.730309
O O11 0.591615 0.612992 0.553900
O O12 0.423782 0.170331 0.809657
O O13 0.222708 0.079134 0.605093
O O14 0.692007 0.154296 0.873298
O O15 0.139188 0.129004 0.164966
O O16 0.141611 0.210644 0.074873
O O17 0.000000 0.000000 0.000000
#
# Coordination Sequence:
#
# PCOD8127659 Si02
#       8
#     4   4   4   4   4   4   4   4
#     4  11  26  43  68 103 134 169 222 288 339 404
#     4  12  24  43  66  98 133 181 222 281 338 398
#     4  10  22  46  68  96 133 176 228 277 337 417
#     4  11  22  44  66  93 131 177 226 270 337 402
#     4  11  22  40  66  98 133 178 223 278 332 403
#     4  10  23  43  68  98 131 181 224 271 340 411
#     4  11  25  41  64  97 137 172 227 276 334 401
#     4  10  25  43  69  98 131 179 222 279 345 403
#
# _framework density 21.709714999999999
#
# number of rings (size 3 to 8) (size 9 to 14) (size 15 to 20)
#    0.000    1.250    3.750    1.125    5.250    2.000 
#    2.250    0.000    0.000    0.000    0.000    0.000 
#    0.000    0.000    0.000    0.000    0.000    0.000 
#
# Total GULP energy -396489.072270 kJ/mol
# GULP energy per Si atom -12390.283508 kJ/mol
# Density = 2.166030 g / cm^3
# Si number density = 21.709715 Si / 1000 Ang^3
#
#
#
# Elastic Constant Matrix: (Units=GPa)
#
#
# Indices 1 2 3 4 5 6 
#
# 1 123.8884 47.8450 19.1861 0.0000 19.9543 0.0000
# 2 47.8450 103.2673 18.5538 0.0000 1.1815 0.0000
# 3 19.1861 18.5538 59.0359 0.0000 15.6302 0.0000
# 4 0.0000 0.0000 0.0000 25.2909 0.0000 -4.2616
# 5 19.9543 1.1815 15.6302 0.0000 42.0579 0.0000
# 6 0.0000 0.0000 0.0000 -4.2616 0.0000 32.9247
#
#
#
# Elastic Compliance Matrix: (Units=1/GPa)
#
#
# Indices 1 2 3 4 5 6 
#
# 1 0.010808 -0.004819 -0.000750 0.000000 -0.004714 0.000000
# 2 -0.004819 0.012450 -0.003172 0.000000 0.003115 0.000000
# 3 -0.000750 -0.003172 0.020033 0.000000 -0.007000 0.000000
# 4 0.000000 0.000000 0.000000 0.040422 0.000000 0.005232
# 5 -0.004714 0.003115 -0.007000 0.000000 0.028527 0.000000
# 6 0.000000 0.000000 0.000000 0.005232 0.000000 0.031050
#
#
# Mechanical properties :
#
#
# Convention : Reuss Voigt Hill
#
# Bulk Modulus (GPa) = 38.74444 50.81795 44.78119
# Shear Modulus (GPa) = 29.52048 33.42849 31.47449
#
# Velocity S-wave (km/s) = 3.69152 3.92828 3.81174
# Velocity P-wave (km/s) = 6.00459 6.63580 6.32807
#
# Compressibility (1/GPa) = 0.02581016
#
# Stress axis : x y z
#
# Youngs Moduli (GPa) = 92.52235 80.31838 49.91853
#
# Poissons Ratio (x) = 0.38704 0.03744
# Poissons Ratio (y) = 0.44585 0.15832
# Poissons Ratio (z) = 0.06940 0.25474
#
# Static dielectric constant tensor:
#      x y z
#    x 4.211900 0.000000 -0.023790 
#    y 0.000000 3.033440 0.000000 
#    z -0.023790 0.000000 3.461720 
# 
# 
# High freq. dielectric constant tensor:
#      x y z
#    x 1.874710 0.000000 0.001570 
#    y 0.000000 1.849850 0.000000 
#    z 0.001570 0.000000 1.841820 
# 
# From -- ./inp_files/77602.got.cif
#   From: 2010.03.12/outbox.cif.g09.slc.cpg/sg14_39_cif.got.tgz:77602.got - 2010.03.31 13:35:05.
