data_PCOD8127524
_publ_section_title
;
Structure prediction by ZEFSAII (Michael W. Deem and Ramdas Pophale) SiO2 
 PCOD8127524
Probable space group: P 21/C
;
_chemical_formula_sum "Si O2"
_cell_formula_units_Z 28
_cell_length_a 14.263207
_cell_length_b 8.492746
_cell_length_c 10.427316
_cell_angle_alpha 90.000000
_cell_angle_beta 114.471852
_cell_angle_gamma 90.000000
_cell_volume 1149.629591
_symmetry_space_group_name_H-M "P 21/C"
_symmetry_group_IT_number 14
_symmetry_cell_setting 'monoclinic'
loop_
_space_group_symop_operation_xyz
x,y,z
-x,1/2+y,1/2-z
-x,-y,-z
x,1/2-y,1/2+z
loop_
_atom_site_type_symbol
_atom_site_label
_atom_site_fract_x
_atom_site_fract_y
_atom_site_fract_z
Si Si1 0.540209 0.585405 0.216320
Si Si2 0.279132 0.123644 0.976349
Si Si3 0.293757 0.601823 0.807967
Si Si4 0.776544 0.213981 0.989027
Si Si5 0.017974 0.602797 0.887610
Si Si6 0.564368 0.908721 0.139747
Si Si7 0.865721 0.641606 0.206985
O O1 0.628608 0.633666 0.369758
O O2 0.591026 0.468694 0.139593
O O3 0.504144 0.744378 0.127545
O O4 0.441459 0.505744 0.229495
O O5 0.321861 0.118758 0.852478
O O6 0.205975 0.278429 0.945042
O O7 0.213964 0.965579 0.959476
O O8 0.278195 0.724081 0.681378
O O9 0.286279 0.685127 0.941348
O O10 0.209071 0.461214 0.743813
O O11 0.890450 0.276781 0.036831
O O12 0.046437 0.477372 0.793196
O O13 0.917396 0.708217 0.804904
O O14 0.000000 0.500000 0.000000
O O15 0.500000 0.000000 0.000000
#
# Coordination Sequence:
#
# PCOD8127524 Si02
#       7
#     4   4   4   4   4   4   4
#     4  10  22  43  69 104 134 179 226 287 347 418
#     4  10  22  43  69  95 139 181 232 278 351 419
#     4  10  23  45  69 100 141 183 237 284 357 412
#     4  10  24  43  68 100 137 187 230 290 345 417
#     4  11  27  41  66  98 135 181 239 290 352 402
#     4  10  22  43  68  99 135 173 227 282 347 415
#     4  11  24  44  66  97 137 187 231 292 347 415
#
# _framework density 24.355672999999999
#
# number of rings (size 3 to 8) (size 9 to 14) (size 15 to 20)
#    0.000    1.714    1.429    0.857   12.000    0.571 
#    2.571    2.857    0.000    0.000    0.000    0.000 
#    0.000    0.000    0.000    0.000    0.000    0.000 
#
# Total GULP energy -347081.740088 kJ/mol
# GULP energy per Si atom -12395.776432 kJ/mol
# Density = 2.430024 g / cm^3
# Si number density = 24.355673 Si / 1000 Ang^3
#
#
#
# Elastic Constant Matrix: (Units=GPa)
#
#
# Indices 1 2 3 4 5 6 
#
# 1 82.2225 33.3745 22.2858 0.0000 -23.9263 0.0000
# 2 33.3745 132.1981 39.7570 0.0000 -6.8729 0.0000
# 3 22.2858 39.7570 46.6346 0.0000 -15.4129 0.0000
# 4 0.0000 0.0000 0.0000 43.8642 0.0000 2.0104
# 5 -23.9263 -6.8729 -15.4129 0.0000 33.4787 0.0000
# 6 0.0000 0.0000 0.0000 2.0104 0.0000 46.7363
#
#
#
# Elastic Compliance Matrix: (Units=1/GPa)
#
#
# Indices 1 2 3 4 5 6 
#
# 1 0.017078 -0.003177 -0.001928 0.000000 0.010665 0.000000
# 2 -0.003177 0.010909 -0.009190 0.000000 -0.004262 0.000000
# 3 -0.001928 -0.009190 0.034347 0.000000 0.012548 0.000000
# 4 0.000000 0.000000 0.000000 0.022843 0.000000 -0.000983
# 5 0.010665 -0.004262 0.012548 0.000000 0.042394 0.000000
# 6 0.000000 0.000000 0.000000 -0.000983 0.000000 0.021439
#
#
# Mechanical properties :
#
#
# Convention : Reuss Voigt Hill
#
# Bulk Modulus (GPa) = 29.63577 50.20999 39.92288
# Shear Modulus (GPa) = 26.47648 35.85836 31.16742
#
# Velocity S-wave (km/s) = 3.30066 3.84119 3.58114
# Velocity P-wave (km/s) = 5.16915 6.35083 5.79022
#
# Compressibility (1/GPa) = 0.03374301
#
# Stress axis : x y z
#
# Youngs Moduli (GPa) = 58.55556 91.66889 29.11489
#
# Poissons Ratio (x) = 0.29126 0.05612
# Poissons Ratio (y) = 0.18605 0.26758
# Poissons Ratio (z) = 0.11287 0.84247
#
# Static dielectric constant tensor:
#      x y z
#    x 4.911750 0.000000 -0.374320 
#    y 0.000000 4.610750 0.000000 
#    z -0.374320 0.000000 4.097990 
# 
# 
# High freq. dielectric constant tensor:
#      x y z
#    x 1.975240 0.000000 -0.019030 
#    y 0.000000 1.985530 0.000000 
#    z -0.019030 0.000000 1.943470 
# 
# From -- ./inp_files/31611.got.cif
#   From: 2010.03.12/outbox.cif.g09.slc.cpg/sg14_16_cif.got.tgz:31611.got - 2010.03.31 13:35:05.
