data_PCOD8127594
_publ_section_title
;
Structure prediction by ZEFSAII (Michael W. Deem and Ramdas Pophale) SiO2 
 PCOD8127594
Probable space group: P 21/C
;
_chemical_formula_sum "Si O2"
_cell_formula_units_Z 20
_cell_length_a 10.052134
_cell_length_b 9.396433
_cell_length_c 8.896624
_cell_angle_alpha 90.000000
_cell_angle_beta 97.282025
_cell_angle_gamma 90.000000
_cell_volume 833.545701
_symmetry_space_group_name_H-M "P 21/C"
_symmetry_group_IT_number 14
_symmetry_cell_setting 'monoclinic'
loop_
_space_group_symop_operation_xyz
x,y,z
-x,1/2+y,1/2-z
-x,-y,-z
x,1/2-y,1/2+z
loop_
_atom_site_type_symbol
_atom_site_label
_atom_site_fract_x
_atom_site_fract_y
_atom_site_fract_z
Si Si1 0.327463 0.314359 0.251202
Si Si2 0.149725 0.173762 0.003256
Si Si3 0.546539 0.404115 0.811508
Si Si4 0.128962 0.621342 0.638216
Si Si5 0.296841 0.729823 0.914260
O O1 0.208995 0.304116 0.110208
O O2 0.262452 0.366911 0.397009
O O3 0.443908 0.426687 0.220284
O O4 0.395598 0.157621 0.277046
O O5 0.111538 0.046470 0.111197
O O6 0.009819 0.210794 0.900051
O O7 0.635471 0.329626 0.698145
O O8 0.599097 0.377181 0.989065
O O9 0.179447 0.641470 0.815853
O O10 0.237909 0.672331 0.535188
#
# Coordination Sequence:
#
# PCOD8127594 Si02
#       5
#     4   4   4   4   4
#     4  12  27  45  68 104 136 182 229 279 332 409
#     4  11  25  43  69  98 139 173 230 275 345 396
#     4  11  26  43  71  98 139 180 227 278 336 397
#     4  10  22  45  70  99 133 181 216 288 335 408
#     4  10  22  44  69  98 136 174 228 273 343 401
#
# _framework density 23.993887000000001
#
# number of rings (size 3 to 8) (size 9 to 14) (size 15 to 20)
#    0.000    1.200    2.000    2.400    8.400    3.200 
#    0.000    3.000    0.000    0.000    0.000    0.000 
#    0.000    0.000    0.000    0.000    0.000    0.000 
#
# Total GULP energy -248013.141099 kJ/mol
# GULP energy per Si atom -12400.657055 kJ/mol
# Density = 2.393928 g / cm^3
# Si number density = 23.993887 Si / 1000 Ang^3
#
#
#
# Elastic Constant Matrix: (Units=GPa)
#
#
# Indices 1 2 3 4 5 6 
#
# 1 93.8111 13.0041 18.7723 0.0000 20.4735 0.0000
# 2 13.0041 66.5916 19.3332 0.0000 7.4140 0.0000
# 3 18.7723 19.3332 114.1853 0.0000 20.2031 0.0000
# 4 0.0000 0.0000 0.0000 20.7982 0.0000 4.9186
# 5 20.4735 7.4140 20.2031 0.0000 41.4294 0.0000
# 6 0.0000 0.0000 0.0000 4.9186 0.0000 32.8914
#
#
#
# Elastic Compliance Matrix: (Units=1/GPa)
#
#
# Indices 1 2 3 4 5 6 
#
# 1 0.012205 -0.001556 -0.000794 0.000000 -0.005366 0.000000
# 2 -0.001556 0.016097 -0.002294 0.000000 -0.000993 0.000000
# 3 -0.000794 -0.002294 0.009997 0.000000 -0.004072 0.000000
# 4 0.000000 0.000000 0.000000 0.049844 0.000000 -0.007454
# 5 -0.005366 -0.000993 -0.004072 0.000000 0.028953 0.000000
# 6 0.000000 0.000000 0.000000 -0.007454 0.000000 0.031518
#
#
# Mechanical properties :
#
#
# Convention : Reuss Voigt Hill
#
# Bulk Modulus (GPa) = 34.46731 41.86748 38.16739
# Shear Modulus (GPa) = 29.83796 33.92236 31.88016
#
# Velocity S-wave (km/s) = 3.53025 3.76412 3.64906
# Velocity P-wave (km/s) = 5.56894 6.03147 5.80481
#
# Compressibility (1/GPa) = 0.02901300
#
# Stress axis : x y z
#
# Youngs Moduli (GPa) = 81.93160 62.12227 100.02869
#
# Poissons Ratio (x) = 0.09664 0.07940
# Poissons Ratio (y) = 0.12745 0.22947
# Poissons Ratio (z) = 0.06503 0.14251
#
# Static dielectric constant tensor:
#      x y z
#    x 4.326730 0.000000 0.241020 
#    y 0.000000 4.039730 0.000000 
#    z 0.241020 0.000000 4.568290 
# 
# 
# High freq. dielectric constant tensor:
#      x y z
#    x 1.953460 0.000000 0.002510 
#    y 0.000000 1.929760 0.000000 
#    z 0.002510 0.000000 1.967990 
# 
# From -- ./inp_files/11785.got.cif
#   From: 2010.03.12/outbox.cif.g09.slc.cpg/sg14_6_cif.got.tgz:11785.got - 2010.03.31 13:35:05.
