data_PCOD8127362
_publ_section_title
;
Structure prediction by ZEFSAII (Michael W. Deem and Ramdas Pophale) SiO2 
 PCOD8127362
Probable space group: P 21/C
;
_chemical_formula_sum "Si O2"
_cell_formula_units_Z 20
_cell_length_a 7.116282
_cell_length_b 7.114316
_cell_length_c 21.517864
_cell_angle_alpha 90.000000
_cell_angle_beta 98.608351
_cell_angle_gamma 90.000000
_cell_volume 1077.122706
_symmetry_space_group_name_H-M "P 21/C"
_symmetry_group_IT_number 14
_symmetry_cell_setting 'monoclinic'
loop_
_space_group_symop_operation_xyz
x,y,z
-x,1/2+y,1/2-z
-x,-y,-z
x,1/2-y,1/2+z
loop_
_atom_site_type_symbol
_atom_site_label
_atom_site_fract_x
_atom_site_fract_y
_atom_site_fract_z
Si Si1 0.368436 0.979705 0.676519
Si Si2 0.692591 0.488989 0.971282
Si Si3 0.060636 0.288352 0.676662
Si Si4 0.749037 0.366515 0.249774
Si Si5 0.997476 0.794617 0.971093
O O1 0.221065 0.132169 0.694924
O O2 0.579134 0.035756 0.705271
O O3 0.357775 0.958628 0.602553
O O4 0.325187 0.779527 0.703666
O O5 0.814533 0.679577 0.987204
O O6 0.500000 0.500000 0.000000
O O7 0.810088 0.310058 0.000380
O O8 0.129311 0.485581 0.705969
O O9 0.872040 0.232516 0.703348
O O10 0.007196 0.312908 0.602751
O O11 0.000000 0.000000 0.000000
#
# Coordination Sequence:
#
# PCOD8127362 Si02
#       5
#     4   4   4   4   4
#     4  11  23  39  61  91 125 155 200 249 295 360
#     4  10  22  42  62  88 122 159 198 248 299 348
#     4  11  23  39  63  89 123 158 199 248 300 356
#     4  12  22  40  60  90 122 160 200 246 304 350
#     4  10  22  42  62  90 120 157 203 246 296 357
#
# _framework density 18.567986999999999
#
# number of rings (size 3 to 8) (size 9 to 14) (size 15 to 20)
#    0.000    1.200    4.000    2.400    0.000    0.800 
#    7.200    0.000    0.000    0.000    0.000    0.000 
#    0.000    0.000    0.000    0.000    0.000    0.000 
#
# Total GULP energy -248101.639006 kJ/mol
# GULP energy per Si atom -12405.081950 kJ/mol
# Density = 1.852573 g / cm^3
# Si number density = 18.567987 Si / 1000 Ang^3
#
#
#
# Elastic Constant Matrix: (Units=GPa)
#
#
# Indices 1 2 3 4 5 6 
#
# 1 164.8172 77.7422 73.8417 0.0000 2.0640 0.0000
# 2 77.7422 175.7889 71.6479 0.0000 -12.9985 0.0000
# 3 73.8417 71.6479 109.6339 0.0000 13.8319 0.0000
# 4 0.0000 0.0000 0.0000 26.8062 0.0000 3.7990
# 5 2.0640 -12.9985 13.8319 0.0000 58.6885 0.0000
# 6 0.0000 0.0000 0.0000 3.7990 0.0000 34.9817
#
#
#
# Elastic Compliance Matrix: (Units=1/GPa)
#
#
# Indices 1 2 3 4 5 6 
#
# 1 0.009238 -0.002046 -0.004933 0.000000 0.000385 0.000000
# 2 -0.002046 0.008756 -0.004739 0.000000 0.003128 0.000000
# 3 -0.004933 -0.004739 0.016131 0.000000 -0.004678 0.000000
# 4 0.000000 0.000000 0.000000 0.037888 0.000000 -0.004115
# 5 0.000385 0.003128 -0.004678 0.000000 0.018821 0.000000
# 6 0.000000 0.000000 0.000000 -0.004115 0.000000 0.029033
#
#
# Mechanical properties :
#
#
# Convention : Reuss Voigt Hill
#
# Bulk Modulus (GPa) = 93.55823 99.63373 96.59598
# Shear Modulus (GPa) = 34.04434 39.22915 36.63674
#
# Velocity S-wave (km/s) = 4.28658 4.60143 4.44679
# Velocity P-wave (km/s) = 8.66002 9.05573 8.86008
#
# Compressibility (1/GPa) = 0.01068853
#
# Stress axis : x y z
#
# Youngs Moduli (GPa) = 108.24936 114.20195 61.99213
#
# Poissons Ratio (x) = 0.23370 0.30582
# Poissons Ratio (y) = 0.22151 0.29377
# Poissons Ratio (z) = 0.53402 0.54119
#
# Static dielectric constant tensor:
#      x y z
#    x 3.528970 0.000000 0.088010 
#    y 0.000000 3.500310 0.000000 
#    z 0.088010 0.000000 3.503120 
# 
# 
# High freq. dielectric constant tensor:
#      x y z
#    x 1.731900 0.000000 0.004630 
#    y 0.000000 1.732190 0.000000 
#    z 0.004630 0.000000 1.737860 
# 
# From -- ./inp_files/75489.got.cif
#   From: 2010.03.12/outbox.cif.g09.slc.cpg/sg14_38_cif.got.tgz:75489.got - 2010.03.31 13:35:05.
