data_PCOD8127850
_publ_section_title
;
Structure prediction by ZEFSAII (Michael W. Deem and Ramdas Pophale) SiO2 
 PCOD8127850
Probable space group: P 21/C
;
_chemical_formula_sum "Si O2"
_cell_formula_units_Z 20
_cell_length_a 21.026697
_cell_length_b 7.231767
_cell_length_c 13.802695
_cell_angle_alpha 90.000000
_cell_angle_beta 155.336438
_cell_angle_gamma 90.000000
_cell_volume 875.823371
_symmetry_space_group_name_H-M "P 21/C"
_symmetry_group_IT_number 14
_symmetry_cell_setting 'monoclinic'
loop_
_space_group_symop_operation_xyz
x,y,z
-x,1/2+y,1/2-z
-x,-y,-z
x,1/2-y,1/2+z
loop_
_atom_site_type_symbol
_atom_site_label
_atom_site_fract_x
_atom_site_fract_y
_atom_site_fract_z
Si Si1 0.659649 0.534176 0.516387
Si Si2 0.091087 0.335330 0.820580
Si Si3 0.683788 0.960347 0.508202
Si Si4 0.813880 0.449745 0.539697
Si Si5 0.215954 0.762576 0.188487
O O1 0.700835 0.749157 0.569010
O O2 0.744569 0.413517 0.549445
O O3 0.720893 0.442955 0.700999
O O4 0.481058 0.502935 0.261692
O O5 0.195474 0.491877 0.913179
O O6 0.998406 0.412873 0.785540
O O7 0.968385 0.266266 0.568936
O O8 0.202470 0.168604 0.006636
O O9 0.718130 0.094197 0.643344
O O10 0.723280 0.329252 0.333800
#
# Coordination Sequence:
#
# PCOD8127850 Si02
#       5
#     4   4   4   4   4
#     4  11  23  42  66  93 132 166 213 260 315 380
#     4   9  22  40  63  94 125 165 214 256 313 375
#     4  11  22  40  65  93 125 172 211 259 312 378
#     4   9  23  40  64  94 130 158 217 262 307 381
#     4  10  23  42  68  90 130 170 209 258 328 363
#
# _framework density 22.835654999999999
#
# number of rings (size 3 to 8) (size 9 to 14) (size 15 to 20)
#    1.200    0.800    2.000    0.600    2.800    5.600 
#    0.000    1.000    0.000    0.000    0.000    0.000 
#    0.000    0.000    0.000    0.000    0.000    0.000 
#
# Total GULP energy -247817.464999 kJ/mol
# GULP energy per Si atom -12390.873250 kJ/mol
# Density = 2.278368 g / cm^3
# Si number density = 22.835655 Si / 1000 Ang^3
#
#
#
# Elastic Constant Matrix: (Units=GPa)
#
#
# Indices 1 2 3 4 5 6 
#
# 1 40.0253 1.6150 17.8363 0.0000 11.2756 0.0000
# 2 1.6150 46.1455 2.8277 0.0000 -3.2308 0.0000
# 3 17.8363 2.8277 62.1381 0.0000 23.8613 0.0000
# 4 0.0000 0.0000 0.0000 41.8723 0.0000 -4.7260
# 5 11.2756 -3.2308 23.8613 0.0000 25.6760 0.0000
# 6 0.0000 0.0000 0.0000 -4.7260 0.0000 -27.2647
#
#
#
# Elastic Compliance Matrix: (Units=1/GPa)
#
#
# Indices 1 2 3 4 5 6 
#
# 1 0.029732 -0.001299 -0.005285 0.000000 -0.008309 0.000000
# 2 -0.001299 0.022334 -0.003019 0.000000 0.006186 0.000000
# 3 -0.005285 -0.003019 0.026436 0.000000 -0.022627 0.000000
# 4 0.000000 0.000000 0.000000 0.023424 0.000000 -0.004060
# 5 -0.008309 0.006186 -0.022627 0.000000 0.064402 0.000000
# 6 0.000000 0.000000 0.000000 -0.004060 0.000000 -0.035974
#
#
# Mechanical properties :
#
#
# Convention : Reuss Voigt Hill
#
# Bulk Modulus (GPa) = 16.86389 21.42967 19.14678
# Shear Modulus (GPa) = 29.52880 16.45872 22.99376
#
# Velocity S-wave (km/s) = 3.59987 2.68759 3.17665
# Velocity P-wave (km/s) = 4.96787 4.36297 4.67521
#
# Compressibility (1/GPa) = 0.05929830
#
# Stress axis : x y z
#
# Youngs Moduli (GPa) = 33.63341 44.77446 37.82660
#
# Poissons Ratio (x) = 0.05814 0.19990
# Poissons Ratio (y) = 0.04367 0.11421
# Poissons Ratio (z) = 0.17774 0.13519
#
# Static dielectric constant tensor:
#      x y z
#    x 4.096610 0.000000 0.094800 
#    y 0.000000 4.159800 0.000000 
#    z 0.094800 0.000000 3.926610 
# 
# 
# High freq. dielectric constant tensor:
#      x y z
#    x 1.888980 0.000000 0.010080 
#    y 0.000000 1.914440 0.000000 
#    z 0.010080 0.000000 1.878990 
# 
# From -- ./inp_files/51304.got.cif
#   From: 2010.03.12/outbox.cif.g09.slc.cpg/sg14_26_cif.got.tgz:51304.got - 2010.03.31 13:35:05.
