data_PCOD8127015
_publ_section_title
;
Structure prediction by ZEFSAII (Michael W. Deem and Ramdas Pophale) SiO2 
 PCOD8127015
Probable space group: P 21/C
;
_chemical_formula_sum "Si O2"
_cell_formula_units_Z 28
_cell_length_a 8.065756
_cell_length_b 18.728939
_cell_length_c 9.011979
_cell_angle_alpha 90.000000
_cell_angle_beta 90.000066
_cell_angle_gamma 90.000000
_cell_volume 1361.377053
_symmetry_space_group_name_H-M "P 21/C"
_symmetry_group_IT_number 14
_symmetry_cell_setting 'monoclinic'
loop_
_space_group_symop_operation_xyz
x,y,z
-x,1/2+y,1/2-z
-x,-y,-z
x,1/2-y,1/2+z
loop_
_atom_site_type_symbol
_atom_site_label
_atom_site_fract_x
_atom_site_fract_y
_atom_site_fract_z
Si Si1 0.077198 0.768019 0.034502
Si Si2 0.781255 0.803650 0.687862
Si Si3 0.749999 0.000000 0.075807
Si Si4 0.536733 0.094192 0.862107
Si Si5 0.963265 0.594191 0.362105
Si Si6 0.577199 0.768018 0.965495
Si Si7 0.718745 0.303649 0.187865
O O1 0.229210 0.780613 0.146734
O O2 0.914504 0.752827 0.128908
O O3 0.128245 0.700358 0.928295
O O4 0.051695 0.837126 0.933271
O O5 0.866933 0.881839 0.710446
O O6 0.729210 0.780613 0.853263
O O7 0.628246 0.799643 0.571700
O O8 0.891574 0.037120 0.177183
O O9 0.608427 0.962879 0.177183
O O10 0.668110 0.060239 0.973739
O O11 0.831885 0.939763 0.973733
O O12 0.633067 0.118162 0.710449
O O13 0.448302 0.162875 0.933270
O O14 0.414504 0.752827 0.871090
#
# Coordination Sequence:
#
# PCOD8127015 Si02
#       7
#     4   4   4   4   4   4   4
#     4  12  22  38  63  96 125 155 196 261 319 364
#     4  12  22  38  61  97 126 156 198 256 321 362
#     4  10  22  38  60  90 118 168 210 254 270 380
#     4  11  21  38  62  92 119 157 210 247 303 352
#     4  11  21  38  62  92 119 157 210 247 303 352
#     4  12  22  38  63  96 125 155 196 261 319 364
#     4  12  22  38  61  97 126 156 198 256 321 362
#
# _framework density 20.567409000000001
#
# number of rings (size 3 to 8) (size 9 to 14) (size 15 to 20)
#    0.000    0.571    8.571    0.000    0.000    0.000 
#    0.000    0.000    0.000    5.143    0.000    0.000 
#    0.000    0.000    0.000    0.000    0.000    0.000 
#
# Total GULP energy -346989.003354 kJ/mol
# GULP energy per Si atom -12392.464405 kJ/mol
# Density = 2.052060 g / cm^3
# Si number density = 20.567409 Si / 1000 Ang^3
#
#
#
# Elastic Constant Matrix: (Units=GPa)
#
#
# Indices 1 2 3 4 5 6 
#
# 1 83.5062 27.8994 28.3674 0.0000 -0.0002 0.0000
# 2 27.8994 64.4469 23.9568 0.0000 -0.0002 0.0000
# 3 28.3674 23.9568 66.9532 0.0000 -0.0002 0.0000
# 4 0.0000 0.0000 0.0000 -2.7215 0.0000 0.0019
# 5 -0.0002 -0.0002 -0.0002 0.0000 30.7116 0.0000
# 6 0.0000 0.0000 0.0000 0.0019 0.0000 50.1820
#
#
#
# Elastic Compliance Matrix: (Units=1/GPa)
#
#
# Indices 1 2 3 4 5 6 
#
# 1 0.015186 -0.004824 -0.004708 0.000000 0.000000 0.000000
# 2 -0.004824 0.019430 -0.004908 0.000000 0.000000 0.000000
# 3 -0.004708 -0.004908 0.018687 0.000000 0.000000 0.000000
# 4 0.000000 0.000000 0.000000 -0.367444 0.000000 0.000014
# 5 0.000000 0.000000 0.000000 0.000000 0.032561 0.000000
# 6 0.000000 0.000000 0.000000 0.000014 0.000000 0.019927
#
#
# Mechanical properties :
#
#
# Convention : Reuss Voigt Hill
#
# Bulk Modulus (GPa) = 40.94716 41.70594 41.32655
# Shear Modulus (GPa) = -22.25864 24.61326 1.17731
#
# Velocity S-wave (km/s) = -3.29329 3.46311 0.75740
# Velocity P-wave (km/s) = 2.34328 6.02599 4.57184
#
# Compressibility (1/GPa) = 0.02442172
#
# Stress axis : x y z
#
# Youngs Moduli (GPa) = 65.84906 51.46804 53.51362
#
# Poissons Ratio (x) = 0.24828 0.25195
# Poissons Ratio (y) = 0.31766 0.26266
# Poissons Ratio (z) = 0.31003 0.25262
#
# Static dielectric constant tensor:
#      x y z
#    x 4.195100 0.000000 0.000000 
#    y 0.000000 3.715580 0.000000 
#    z 0.000000 0.000000 3.672260 
# 
# 
# High freq. dielectric constant tensor:
#      x y z
#    x 1.839870 0.000000 0.000000 
#    y 0.000000 1.779220 0.000000 
#    z 0.000000 0.000000 1.771720 
# 
# From -- ./inp_files/9450.got.cif
#   From: 2010.03.12/outbox.cif.g09.slc.cpg/sg14_5_cif.got.tgz:9450.got - 2010.03.31 13:35:05.
