data_PCOD8127502
_publ_section_title
;
Structure prediction by ZEFSAII (Michael W. Deem and Ramdas Pophale) SiO2 
 PCOD8127502
Probable space group: P 21/C
;
_chemical_formula_sum "Si O2"
_cell_formula_units_Z 24
_cell_length_a 8.903315
_cell_length_b 20.893172
_cell_length_c 7.984161
_cell_angle_alpha 90.000000
_cell_angle_beta 129.691231
_cell_angle_gamma 90.000000
_cell_volume 1142.858623
_symmetry_space_group_name_H-M "P 21/C"
_symmetry_group_IT_number 14
_symmetry_cell_setting 'monoclinic'
loop_
_space_group_symop_operation_xyz
x,y,z
-x,1/2+y,1/2-z
-x,-y,-z
x,1/2-y,1/2+z
loop_
_atom_site_type_symbol
_atom_site_label
_atom_site_fract_x
_atom_site_fract_y
_atom_site_fract_z
Si Si1 0.625619 0.622779 0.826434
Si Si2 0.477450 0.747427 0.332260
Si Si3 0.834709 0.916661 0.807068
Si Si4 0.731207 0.057829 0.800827
Si Si5 0.806625 0.657741 0.629931
Si Si6 0.251333 0.672295 0.924266
O O1 0.529902 0.693355 0.748198
O O2 0.451710 0.570382 0.706851
O O3 0.749872 0.611032 0.745395
O O4 0.761183 0.619177 0.088678
O O5 0.678979 0.722082 0.554338
O O6 0.313425 0.771614 0.342517
O O7 0.383884 0.684542 0.180245
O O8 0.729349 0.985151 0.738667
O O9 0.776933 0.877515 0.931646
O O10 0.068271 0.924702 0.961004
O O11 0.703431 0.102074 0.616385
O O12 0.026822 0.680618 0.810762
#
# Coordination Sequence:
#
# PCOD8127502 Si02
#       6
#     4   4   4   4   4   4
#     4  11  23  38  64  92 122 166 208 254 311 370
#     4  11  22  40  57  89 128 159 208 256 307 377
#     4  10  22  43  67  89 129 166 206 264 312 372
#     4   9  21  43  64  92 127 166 207 258 320 364
#     4  11  24  39  62  95 121 165 214 252 314 375
#     4  10  23  39  62  86 125 163 202 259 314 373
#
# _framework density 20.999973000000001
#
# number of rings (size 3 to 8) (size 9 to 14) (size 15 to 20)
#    0.000    1.667    1.667    2.500    2.333    4.667 
#    0.000    7.500    0.000    0.000    0.000    0.000 
#    0.000    0.000    0.000    0.000    0.000    0.000 
#
# Total GULP energy -297550.938802 kJ/mol
# GULP energy per Si atom -12397.955783 kJ/mol
# Density = 2.095218 g / cm^3
# Si number density = 20.999973 Si / 1000 Ang^3
#
#
#
# Elastic Constant Matrix: (Units=GPa)
#
#
# Indices 1 2 3 4 5 6 
#
# 1 128.6343 16.0911 38.2275 0.0000 2.1811 0.0000
# 2 16.0911 78.1107 19.6274 0.0000 6.4038 0.0000
# 3 38.2275 19.6274 59.3572 0.0000 -2.4279 0.0000
# 4 0.0000 0.0000 0.0000 34.7811 0.0000 8.0916
# 5 2.1811 6.4038 -2.4279 0.0000 34.1669 0.0000
# 6 0.0000 0.0000 0.0000 8.0916 0.0000 16.0172
#
#
#
# Elastic Compliance Matrix: (Units=1/GPa)
#
#
# Indices 1 2 3 4 5 6 
#
# 1 0.009662 -0.000366 -0.006141 0.000000 -0.000984 0.000000
# 2 -0.000366 0.014280 -0.004608 0.000000 -0.002981 0.000000
# 3 -0.006141 -0.004608 0.022443 0.000000 0.002850 0.000000
# 4 0.000000 0.000000 0.000000 0.032580 0.000000 -0.016459
# 5 -0.000984 -0.002981 0.002850 0.000000 0.030092 0.000000
# 6 0.000000 0.000000 0.000000 -0.016459 0.000000 0.070748
#
#
# Mechanical properties :
#
#
# Convention : Reuss Voigt Hill
#
# Bulk Modulus (GPa) = 41.40291 45.99937 43.70114
# Shear Modulus (GPa) = 23.79972 29.80346 26.80159
#
# Velocity S-wave (km/s) = 3.37014 3.77133 3.57636
# Velocity P-wave (km/s) = 5.90781 6.39656 6.15704
#
# Compressibility (1/GPa) = 0.02415289
#
# Stress axis : x y z
#
# Youngs Moduli (GPa) = 103.50240 70.02793 44.55802
#
# Poissons Ratio (x) = 0.02566 0.27365
# Poissons Ratio (y) = 0.03793 0.20532
# Poissons Ratio (z) = 0.63565 0.32268
#
# Static dielectric constant tensor:
#      x y z
#    x 3.955450 0.000000 0.153370 
#    y 0.000000 3.716490 0.000000 
#    z 0.153370 0.000000 3.761200 
# 
# 
# High freq. dielectric constant tensor:
#      x y z
#    x 1.829470 0.000000 0.014940 
#    y 0.000000 1.814020 0.000000 
#    z 0.014940 0.000000 1.823060 
# 
# From -- ./inp_files/10286.got.cif
#   From: 2010.03.12/outbox.cif.g09.slc.cpg/sg14_6_cif.got.tgz:10286.got - 2010.03.31 13:35:05.
