data_PCOD8127551
_publ_section_title
;
Structure prediction by ZEFSAII (Michael W. Deem and Ramdas Pophale) SiO2 
 PCOD8127551
Probable space group: P 21/C
;
_chemical_formula_sum "Si O2"
_cell_formula_units_Z 32
_cell_length_a 22.376481
_cell_length_b 9.174289
_cell_length_c 13.668226
_cell_angle_alpha 90.000000
_cell_angle_beta 146.494073
_cell_angle_gamma 90.000000
_cell_volume 1548.936886
_symmetry_space_group_name_H-M "P 21/C"
_symmetry_group_IT_number 14
_symmetry_cell_setting 'monoclinic'
loop_
_space_group_symop_operation_xyz
x,y,z
-x,1/2+y,1/2-z
-x,-y,-z
x,1/2-y,1/2+z
loop_
_atom_site_type_symbol
_atom_site_label
_atom_site_fract_x
_atom_site_fract_y
_atom_site_fract_z
Si Si1 0.929207 0.657051 0.790809
Si Si2 0.636455 0.389518 0.602651
Si Si3 0.455613 0.895242 0.822974
Si Si4 0.137069 0.487097 0.099502
Si Si5 0.329826 0.600172 0.958784
Si Si6 0.418384 0.384604 0.936897
Si Si7 0.189039 0.306581 0.566858
Si Si8 0.881245 0.945622 0.829680
O O1 0.898203 0.562003 0.841427
O O2 0.867500 0.622941 0.605537
O O3 0.891132 0.821254 0.761124
O O4 0.056774 0.615083 0.949033
O O5 0.631766 0.426728 0.711631
O O6 0.533500 0.465965 0.409395
O O7 0.746986 0.452103 0.713750
O O8 0.642931 0.218033 0.587694
O O9 0.393171 0.850456 0.641036
O O10 0.522852 0.762219 0.956131
O O11 0.150456 0.359826 0.035955
O O12 0.373159 0.447039 0.977176
O O13 0.203499 0.574192 0.815904
O O14 0.318504 0.334022 0.730483
O O15 0.500000 0.500000 0.000000
O O16 0.152508 0.397071 0.609620
O O17 0.000000 0.000000 0.000000
#
# Coordination Sequence:
#
# PCOD8127551 Si02
#       8
#     4   4   4   4   4   4   4   4
#     4  10  23  40  67  91 123 173 208 261 327 384
#     4  11  23  42  62  94 130 164 212 272 311 383
#     4  11  24  40  65  94 128 174 211 264 327 376
#     4  10  22  44  61  95 129 160 221 263 315 396
#     4  11  24  40  65  96 124 171 216 263 322 384
#     4  11  22  45  62  93 136 165 217 265 314 392
#     4  10  23  40  66  93 125 175 208 263 331 378
#     4  10  23  42  61  95 130 159 215 272 315 386
#
# _framework density 20.659331999999999
#
# number of rings (size 3 to 8) (size 9 to 14) (size 15 to 20)
#    0.000    1.500    2.500    1.500    3.500    2.000 
#    0.000    0.000    0.000    0.000    0.000    0.000 
#    0.000    0.000    0.000    0.000    0.000    0.000 
#
# Total GULP energy -396508.361922 kJ/mol
# GULP energy per Si atom -12390.886310 kJ/mol
# Density = 2.061231 g / cm^3
# Si number density = 20.659332 Si / 1000 Ang^3
#
#
#
# Elastic Constant Matrix: (Units=GPa)
#
#
# Indices 1 2 3 4 5 6 
#
# 1 61.9762 27.9697 54.9757 0.0000 15.2118 0.0000
# 2 27.9697 82.5167 32.6530 0.0000 10.2874 0.0000
# 3 54.9757 32.6530 131.2980 0.0000 4.5535 0.0000
# 4 0.0000 0.0000 0.0000 32.5736 0.0000 16.3278
# 5 15.2118 10.2874 4.5535 0.0000 39.1249 0.0000
# 6 0.0000 0.0000 0.0000 16.3278 0.0000 23.7424
#
#
#
# Elastic Compliance Matrix: (Units=1/GPa)
#
#
# Indices 1 2 3 4 5 6 
#
# 1 0.030593 -0.004731 -0.011309 0.000000 -0.009335 0.000000
# 2 -0.004731 0.014573 -0.001581 0.000000 -0.001809 0.000000
# 3 -0.011309 -0.001581 0.012629 0.000000 0.003343 0.000000
# 4 0.000000 0.000000 0.000000 0.046850 0.000000 -0.032219
# 5 -0.009335 -0.001809 0.003343 0.000000 0.029275 0.000000
# 6 0.000000 0.000000 0.000000 -0.032219 0.000000 0.064276
#
#
# Mechanical properties :
#
#
# Convention : Reuss Voigt Hill
#
# Bulk Modulus (GPa) = 44.33911 56.33196 50.33553
# Shear Modulus (GPa) = 20.75069 29.76768 25.25918
#
# Velocity S-wave (km/s) = 3.17270 3.80001 3.50044
# Velocity P-wave (km/s) = 5.91016 6.82494 6.38395
#
# Compressibility (1/GPa) = 0.02255345
#
# Stress axis : x y z
#
# Youngs Moduli (GPa) = 32.68687 68.61863 79.18396
#
# Poissons Ratio (x) = 0.32462 0.89553
# Poissons Ratio (y) = 0.15464 0.12517
# Poissons Ratio (z) = 0.36967 0.10847
#
# Static dielectric constant tensor:
#      x y z
#    x 3.870770 0.000000 -0.378100 
#    y 0.000000 3.512630 0.000000 
#    z -0.378100 0.000000 9.220520 
# 
# 
# High freq. dielectric constant tensor:
#      x y z
#    x 1.813030 0.000000 0.015480 
#    y 0.000000 1.808650 0.000000 
#    z 0.015480 0.000000 1.810430 
# 
# From -- ./inp_files/51375.got.cif
#   From: 2010.03.12/outbox.cif.g09.slc.cpg/sg14_26_cif.got.tgz:51375.got - 2010.03.31 13:35:05.
