data_PCOD8127886
_publ_section_title
;
Structure prediction by ZEFSAII (Michael W. Deem and Ramdas Pophale) SiO2 
 PCOD8127886
Probable space group: P 21/C
;
_chemical_formula_sum "Si O2"
_cell_formula_units_Z 20
_cell_length_a 7.422574
_cell_length_b 5.102844
_cell_length_c 24.110666
_cell_angle_alpha 90.000000
_cell_angle_beta 111.703072
_cell_angle_gamma 90.000000
_cell_volume 848.485554
_symmetry_space_group_name_H-M "P 21/C"
_symmetry_group_IT_number 14
_symmetry_cell_setting 'monoclinic'
loop_
_space_group_symop_operation_xyz
x,y,z
-x,1/2+y,1/2-z
-x,-y,-z
x,1/2-y,1/2+z
loop_
_atom_site_type_symbol
_atom_site_label
_atom_site_fract_x
_atom_site_fract_y
_atom_site_fract_z
Si Si1 0.384325 0.307533 0.751934
Si Si2 0.980417 0.370533 0.712215
Si Si3 0.846909 0.760991 0.540940
Si Si4 0.251939 0.756474 0.035208
Si Si5 0.664193 0.812365 0.131860
O O1 0.524833 0.520353 0.742197
O O2 0.173228 0.302627 0.697034
O O3 0.340842 0.359818 0.812483
O O4 0.956409 0.153549 0.756133
O O5 0.778139 0.410428 0.655978
O O6 0.784016 0.468727 0.516880
O O7 0.790332 0.826381 0.597951
O O8 0.078689 0.771199 0.560065
O O9 0.729938 0.971178 0.490512
O O10 0.444185 0.853175 0.088016
#
# Coordination Sequence:
#
# PCOD8127886 Si02
#       5
#     4   4   4   4   4
#     4  11  25  44  65  99 138 173 226 279 321 396
#     4  10  23  43  63  96 133 170 223 274 323 392
#     4  10  23  43  65 100 132 165 220 273 324 398
#     4  10  23  43  66  99 132 165 218 276 325 393
#     4  11  24  43  73  94 132 181 216 264 345 381
#
# _framework density 23.571407000000001
#
# number of rings (size 3 to 8) (size 9 to 14) (size 15 to 20)
#    0.000    1.600    0.000    3.600    2.800    9.600 
#    7.200    0.000    0.000    0.000    0.000    0.000 
#    0.000    0.000    0.000    0.000    0.000    0.000 
#
# Total GULP energy -247803.098938 kJ/mol
# GULP energy per Si atom -12390.154947 kJ/mol
# Density = 2.351776 g / cm^3
# Si number density = 23.571407 Si / 1000 Ang^3
#
#
#
# Elastic Constant Matrix: (Units=GPa)
#
#
# Indices 1 2 3 4 5 6 
#
# 1 143.5700 18.9054 44.1662 0.0000 -2.0616 0.0000
# 2 18.9054 87.9603 9.3353 0.0000 -7.0178 0.0000
# 3 44.1662 9.3353 83.6546 0.0000 -20.8022 0.0000
# 4 0.0000 0.0000 0.0000 10.7656 0.0000 1.3670
# 5 -2.0616 -7.0178 -20.8022 0.0000 31.2864 0.0000
# 6 0.0000 0.0000 0.0000 1.3670 0.0000 23.4186
#
#
#
# Elastic Compliance Matrix: (Units=1/GPa)
#
#
# Indices 1 2 3 4 5 6 
#
# 1 0.008742 -0.001583 -0.005253 0.000000 -0.003271 0.000000
# 2 -0.001583 0.011904 0.000174 0.000000 0.002682 0.000000
# 3 -0.005253 0.000174 0.017530 0.000000 0.011348 0.000000
# 4 0.000000 0.000000 0.000000 0.093582 0.000000 -0.005462
# 5 -0.003271 0.002682 0.011348 0.000000 0.039894 0.000000
# 6 0.000000 0.000000 0.000000 -0.005462 0.000000 0.043020
#
#
# Mechanical properties :
#
#
# Convention : Reuss Voigt Hill
#
# Bulk Modulus (GPa) = 40.23484 51.11095 45.67290
# Shear Modulus (GPa) = 21.16133 29.27932 25.22032
#
# Velocity S-wave (km/s) = 2.99951 3.52824 3.27456
# Velocity P-wave (km/s) = 5.39467 6.19100 5.80650
#
# Compressibility (1/GPa) = 0.02485408
#
# Stress axis : x y z
#
# Youngs Moduli (GPa) = 114.38390 84.00250 57.04644
#
# Poissons Ratio (x) = 0.13294 0.29964
# Poissons Ratio (y) = 0.18102 -0.00992
# Poissons Ratio (z) = 0.60081 -0.01461
#
# Static dielectric constant tensor:
#      x y z
#    x 4.769350 0.000000 0.173200 
#    y 0.000000 4.141870 0.000000 
#    z 0.173200 0.000000 4.051560 
# 
# 
# High freq. dielectric constant tensor:
#      x y z
#    x 1.963570 0.000000 0.006710 
#    y 0.000000 1.931990 0.000000 
#    z 0.006710 0.000000 1.904400 
# 
# From -- ./inp_files/71480.got.cif
#   From: 2010.03.12/outbox.cif.g09.slc.cpg/sg14_36_cif.got.tgz:71480.got - 2010.03.31 13:35:05.
