data_PCOD8127928
_publ_section_title
;
Structure prediction by ZEFSAII (Michael W. Deem and Ramdas Pophale) SiO2 
 PCOD8127928
Probable space group: P 21/C
;
_chemical_formula_sum "Si O2"
_cell_formula_units_Z 28
_cell_length_a 14.275783
_cell_length_b 11.680842
_cell_length_c 8.558872
_cell_angle_alpha 90.000000
_cell_angle_beta 62.324142
_cell_angle_gamma 90.000000
_cell_volume 1263.930035
_symmetry_space_group_name_H-M "P 21/C"
_symmetry_group_IT_number 14
_symmetry_cell_setting 'monoclinic'
loop_
_space_group_symop_operation_xyz
x,y,z
-x,1/2+y,1/2-z
-x,-y,-z
x,1/2-y,1/2+z
loop_
_atom_site_type_symbol
_atom_site_label
_atom_site_fract_x
_atom_site_fract_y
_atom_site_fract_z
Si Si1 0.295082 0.812373 0.751646
Si Si2 0.215979 0.207139 0.736418
Si Si3 0.891962 0.885937 0.483605
Si Si4 0.762081 0.982595 0.037537
Si Si5 0.592173 0.844010 0.022467
Si Si6 0.551590 0.263220 0.608156
Si Si7 0.869775 0.393721 0.179790
O O1 0.344458 0.809754 0.887579
O O2 0.395720 0.820294 0.560904
O O3 0.213641 0.708601 0.784941
O O4 0.241597 0.936621 0.804461
O O5 0.155385 0.140748 0.648204
O O6 0.210458 0.139670 0.906575
O O7 0.333441 0.236245 0.584025
O O8 0.162637 0.327009 0.824080
O O9 0.013264 0.843549 0.387909
O O10 0.874067 0.021778 0.526644
O O11 0.655299 0.959814 0.016972
O O12 0.847805 0.035404 0.854827
O O13 0.513753 0.862636 0.934289
O O14 0.524750 0.810483 0.225590
#
# Coordination Sequence:
#
# PCOD8127928 Si02
#       7
#     4   4   4   4   4   4   4
#     4  11  25  46  63 103 141 181 227 283 345 415
#     4  12  23  45  73 104 136 176 237 291 344 410
#     4  11  25  44  75 102 134 187 232 284 356 410
#     4  12  25  44  72  99 141 186 224 290 350 400
#     4  11  21  44  67 101 137 173 233 284 326 425
#     4  10  23  43  68  97 139 184 229 274 351 403
#     4  11  26  48  68 101 144 181 231 289 349 418
#
# _framework density 22.153127000000001
#
# number of rings (size 3 to 8) (size 9 to 14) (size 15 to 20)
#    0.000    0.857    5.714    0.000    4.000    1.714 
#    2.571    0.000    0.000    0.000    0.000    0.000 
#    0.000    0.000    0.000    0.000    0.000    0.000 
#
# Total GULP energy -346984.889890 kJ/mol
# GULP energy per Si atom -12392.317496 kJ/mol
# Density = 2.210271 g / cm^3
# Si number density = 22.153127 Si / 1000 Ang^3
#
#
#
# Elastic Constant Matrix: (Units=GPa)
#
#
# Indices 1 2 3 4 5 6 
#
# 1 116.4280 26.2582 44.3297 0.0000 -3.3552 0.0000
# 2 26.2582 71.8189 19.7143 0.0000 -6.2037 0.0000
# 3 44.3297 19.7143 91.0828 0.0000 -6.8312 0.0000
# 4 0.0000 0.0000 0.0000 34.8510 0.0000 1.3631
# 5 -3.3552 -6.2037 -6.8312 0.0000 35.8853 0.0000
# 6 0.0000 0.0000 0.0000 1.3631 0.0000 24.9627
#
#
#
# Elastic Compliance Matrix: (Units=1/GPa)
#
#
# Indices 1 2 3 4 5 6 
#
# 1 0.011025 -0.002744 -0.004798 0.000000 -0.000357 0.000000
# 2 -0.002744 0.015626 -0.001890 0.000000 0.002085 0.000000
# 3 -0.004798 -0.001890 0.013863 0.000000 0.001864 0.000000
# 4 0.000000 0.000000 0.000000 0.028755 0.000000 -0.001570
# 5 -0.000357 0.002085 0.001864 0.000000 0.028548 0.000000
# 6 0.000000 0.000000 0.000000 -0.001570 0.000000 0.040146
#
#
# Mechanical properties :
#
#
# Convention : Reuss Voigt Hill
#
# Bulk Modulus (GPa) = 46.19325 51.10380 48.64853
# Shear Modulus (GPa) = 30.47940 31.74163 31.11052
#
# Velocity S-wave (km/s) = 3.71327 3.78938 3.75152
# Velocity P-wave (km/s) = 6.26750 6.50111 6.38537
#
# Compressibility (1/GPa) = 0.02164818
#
# Stress axis : x y z
#
# Youngs Moduli (GPa) = 90.70574 63.99477 72.13311
#
# Poissons Ratio (x) = 0.17563 0.34612
# Poissons Ratio (y) = 0.24894 0.13634
# Poissons Ratio (z) = 0.43524 0.12096
#
# Static dielectric constant tensor:
#      x y z
#    x 4.099080 0.000000 0.031120 
#    y 0.000000 3.830530 0.000000 
#    z 0.031120 0.000000 4.043520 
# 
# 
# High freq. dielectric constant tensor:
#      x y z
#    x 1.874570 0.000000 0.002330 
#    y 0.000000 1.855680 0.000000 
#    z 0.002330 0.000000 1.891840 
# 
# From -- ./inp_files/15676.got.cif
#   From: 2010.03.12/outbox.cif.g09.slc.cpg/sg14_8_cif.got.tgz:15676.got - 2010.03.31 13:35:05.
