data_PCOD8127194
_publ_section_title
;
Structure prediction by ZEFSAII (Michael W. Deem and Ramdas Pophale) SiO2 
 PCOD8127194
Probable space group: P 21/C
;
_chemical_formula_sum "Si O2"
_cell_formula_units_Z 32
_cell_length_a 13.048000
_cell_length_b 16.215856
_cell_length_c 15.995735
_cell_angle_alpha 90.000000
_cell_angle_beta 153.312417
_cell_angle_gamma 90.000000
_cell_volume 1520.042127
_symmetry_space_group_name_H-M "P 21/C"
_symmetry_group_IT_number 14
_symmetry_cell_setting 'monoclinic'
loop_
_space_group_symop_operation_xyz
x,y,z
-x,1/2+y,1/2-z
-x,-y,-z
x,1/2-y,1/2+z
loop_
_atom_site_type_symbol
_atom_site_label
_atom_site_fract_x
_atom_site_fract_y
_atom_site_fract_z
Si Si1 0.633930 0.710672 0.057985
Si Si2 0.735557 0.490938 0.784491
Si Si3 0.004216 0.078765 0.944503
Si Si4 0.150578 0.774383 0.900931
Si Si5 0.562708 0.374384 0.515938
Si Si6 0.302337 0.611593 0.929019
Si Si7 0.477077 0.472942 0.761531
Si Si8 0.337339 0.657272 0.695456
O O1 0.902722 0.697738 0.250448
O O2 0.577527 0.804339 0.039051
O O3 0.527930 0.649230 0.049886
O O4 0.544682 0.691102 0.900619
O O5 0.699898 0.428989 0.682146
O O6 0.621847 0.577242 0.674755
O O7 0.615201 0.454318 0.778612
O O8 0.000000 0.500000 0.000000
O O9 0.853982 0.064386 0.751881
O O10 0.892762 0.155100 0.914330
O O11 0.266429 0.092598 0.109012
O O12 0.000000 0.000000 0.000000
O O13 0.237877 0.838471 0.896061
O O14 0.155553 0.682551 0.867640
O O15 0.308926 0.779432 0.098538
O O16 0.370093 0.542454 0.045275
O O17 0.390528 0.566550 0.699052
#
# Coordination Sequence:
#
# PCOD8127194 Si02
#       8
#     4   4   4   4   4   4   4   4
#     4  10  24  42  66  92 131 168 209 266 321 384
#     4  11  26  43  67  94 130 175 215 272 315 384
#     4   9  21  40  63  92 128 153 202 263 317 374
#     4  11  23  41  66  91 131 172 212 268 319 379
#     4  10  25  46  63  97 130 167 226 260 320 389
#     4  10  24  40  63  99 124 169 216 259 321 388
#     4  11  23  40  67  96 128 163 213 259 319 379
#     4  10  22  40  63  98 125 167 208 259 323 380
#
# _framework density 21.052047000000002
#
# number of rings (size 3 to 8) (size 9 to 14) (size 15 to 20)
#    0.000    1.750    1.250    0.750    7.000    7.500 
#    0.000    5.000    0.000    0.000    0.000    0.000 
#    0.000    0.000    0.000    0.000    0.000    0.000 
#
# Total GULP energy -396847.767329 kJ/mol
# GULP energy per Si atom -12401.492729 kJ/mol
# Density = 2.100413 g / cm^3
# Si number density = 21.052047 Si / 1000 Ang^3
#
#
#
# Elastic Constant Matrix: (Units=GPa)
#
#
# Indices 1 2 3 4 5 6 
#
# 1 96.4303 9.3667 45.6746 0.0000 6.5200 0.0000
# 2 9.3667 54.3789 27.6487 0.0000 -1.9944 0.0000
# 3 45.6746 27.6487 115.8984 0.0000 -5.7743 0.0000
# 4 0.0000 0.0000 0.0000 23.5634 0.0000 -7.4901
# 5 6.5200 -1.9944 -5.7743 0.0000 36.4838 0.0000
# 6 0.0000 0.0000 0.0000 -7.4901 0.0000 23.1595
#
#
#
# Elastic Compliance Matrix: (Units=1/GPa)
#
#
# Indices 1 2 3 4 5 6 
#
# 1 0.013114 0.000379 -0.005417 0.000000 -0.003180 0.000000
# 2 0.000379 0.020943 -0.005132 0.000000 0.000265 0.000000
# 3 -0.005417 -0.005132 0.012117 0.000000 0.002605 0.000000
# 4 0.000000 0.000000 0.000000 0.047301 0.000000 0.015298
# 5 -0.003180 0.000265 0.002605 0.000000 0.028405 0.000000
# 6 0.000000 0.000000 0.000000 0.015298 0.000000 0.048126
#
#
# Mechanical properties :
#
#
# Convention : Reuss Voigt Hill
#
# Bulk Modulus (GPa) = 38.70919 48.00974 43.35947
# Shear Modulus (GPa) = 25.13071 28.90917 27.01994
#
# Velocity S-wave (km/s) = 3.45881 3.70972 3.58646
# Velocity P-wave (km/s) = 5.86331 6.41905 6.14746
#
# Compressibility (1/GPa) = 0.02583366
#
# Stress axis : x y z
#
# Youngs Moduli (GPa) = 76.25322 47.74759 82.52731
#
# Poissons Ratio (x) = -0.01808 0.44705
# Poissons Ratio (y) = -0.02888 0.42356
# Poissons Ratio (z) = 0.41306 0.24506
#
# Static dielectric constant tensor:
#      x y z
#    x 4.134070 0.000000 0.050400 
#    y 0.000000 3.671760 0.000000 
#    z 0.050400 0.000000 3.883020 
# 
# 
# High freq. dielectric constant tensor:
#      x y z
#    x 1.842930 0.000000 -0.008260 
#    y 0.000000 1.809660 0.000000 
#    z -0.008260 0.000000 1.829900 
# 
# From -- ./inp_files/45449.got.cif
#   From: 2010.03.12/outbox.cif.g09.slc.cpg/sg14_23_cif.got.tgz:45449.got - 2010.03.31 13:35:05.
