data_PCOD8127214
_publ_section_title
;
Structure prediction by ZEFSAII (Michael W. Deem and Ramdas Pophale) SiO2 
 PCOD8127214
Probable space group: P 21/C
;
_chemical_formula_sum "Si O2"
_cell_formula_units_Z 28
_cell_length_a 7.851497
_cell_length_b 8.728096
_cell_length_c 28.047299
_cell_angle_alpha 90.000000
_cell_angle_beta 137.178437
_cell_angle_gamma 90.000000
_cell_volume 1306.445840
_symmetry_space_group_name_H-M "P 21/C"
_symmetry_group_IT_number 14
_symmetry_cell_setting 'monoclinic'
loop_
_space_group_symop_operation_xyz
x,y,z
-x,1/2+y,1/2-z
-x,-y,-z
x,1/2-y,1/2+z
loop_
_atom_site_type_symbol
_atom_site_label
_atom_site_fract_x
_atom_site_fract_y
_atom_site_fract_z
Si Si1 0.061433 0.662400 0.874795
Si Si2 0.223535 0.366863 0.962795
Si Si3 0.490746 0.690323 0.889258
Si Si4 0.616087 0.151836 0.003138
Si Si5 0.290293 0.976391 0.073094
Si Si6 0.539714 0.946023 0.294502
Si Si7 0.719853 0.211967 0.837428
O O1 0.153975 0.528151 0.928061
O O2 0.211240 0.664843 0.854853
O O3 0.764451 0.634419 0.809708
O O4 0.112801 0.819374 0.915530
O O5 0.466741 0.303697 0.986448
O O6 0.006732 0.244365 0.908643
O O7 0.291536 0.382447 0.032787
O O8 0.513406 0.610765 0.843000
O O9 0.547088 0.869921 0.896722
O O10 0.618666 0.145363 0.947226
O O11 0.500000 0.000000 0.000000
O O12 0.368819 0.899206 0.138630
O O13 0.000000 0.000000 0.000000
O O14 0.298767 0.886783 0.215387
O O15 0.562553 0.129724 0.300618
#
# Coordination Sequence:
#
# PCOD8127214 Si02
#       7
#     4   4   4   4   4   4   4
#     4  10  23  40  64  97 133 166 223 268 332 392
#     4  10  22  40  65  94 132 165 221 275 327 392
#     4  11  21  42  66  98 129 172 214 280 328 396
#     4  11  19  35  61  99 127 165 208 277 325 382
#     4  12  22  38  65  98 133 166 223 269 336 393
#     4  11  26  45  67  90 139 178 221 272 339 405
#     4  11  25  45  64  96 129 181 221 275 335 398
#
# _framework density 21.432193999999999
#
# number of rings (size 3 to 8) (size 9 to 14) (size 15 to 20)
#    0.000    1.143    4.286    3.429    4.000    2.286 
#    2.571    0.000    0.000    0.000    0.000    0.000 
#    0.000    0.000    0.000    0.000    0.000    0.000 
#
# Total GULP energy -346980.274704 kJ/mol
# GULP energy per Si atom -12392.152668 kJ/mol
# Density = 2.138341 g / cm^3
# Si number density = 21.432194 Si / 1000 Ang^3
#
#
#
# Elastic Constant Matrix: (Units=GPa)
#
#
# Indices 1 2 3 4 5 6 
#
# 1 95.7765 16.1793 44.4496 0.0000 -22.7243 0.0000
# 2 16.1793 46.0272 16.0786 0.0000 -13.6354 0.0000
# 3 44.4496 16.0786 103.9746 0.0000 -32.6664 0.0000
# 4 0.0000 0.0000 0.0000 40.5264 0.0000 -7.6265
# 5 -22.7243 -13.6354 -32.6664 0.0000 33.2566 0.0000
# 6 0.0000 0.0000 0.0000 -7.6265 0.0000 32.2060
#
#
#
# Elastic Compliance Matrix: (Units=1/GPa)
#
#
# Indices 1 2 3 4 5 6 
#
# 1 0.013787 -0.002063 -0.004167 0.000000 0.004482 0.000000
# 2 -0.002063 0.025100 -0.000303 0.000000 0.008584 0.000000
# 3 -0.004167 -0.000303 0.015204 0.000000 0.011963 0.000000
# 4 0.000000 0.000000 0.000000 0.025826 0.000000 0.006116
# 5 0.004482 0.008584 0.011963 0.000000 0.048403 0.000000
# 6 0.000000 0.000000 0.000000 0.006116 0.000000 0.032498
#
#
# Mechanical properties :
#
#
# Convention : Reuss Voigt Hill
#
# Bulk Modulus (GPa) = 24.37426 44.35480 34.36453
# Shear Modulus (GPa) = 26.65836 32.46919 29.56377
#
# Velocity S-wave (km/s) = 3.53065 3.89649 3.71807
# Velocity P-wave (km/s) = 5.29321 6.40186 5.87375
#
# Compressibility (1/GPa) = 0.04102689
#
# Stress axis : x y z
#
# Youngs Moduli (GPa) = 72.53414 39.84023 65.77011
#
# Poissons Ratio (x) = 0.08219 0.27405
# Poissons Ratio (y) = 0.14963 0.01990
# Poissons Ratio (z) = 0.30223 0.01205
#
# Static dielectric constant tensor:
#      x y z
#    x 3.653520 0.000000 -0.377380 
#    y 0.000000 3.997950 0.000000 
#    z -0.377380 0.000000 4.068310 
# 
# 
# High freq. dielectric constant tensor:
#      x y z
#    x 1.836240 0.000000 -0.005950 
#    y 0.000000 1.857790 0.000000 
#    z -0.005950 0.000000 1.836460 
# 
# From -- ./inp_files/76490.got.cif
#   From: 2010.03.12/outbox.cif.g09.slc.cpg/sg14_39_cif.got.tgz:76490.got - 2010.03.31 13:35:05.
