data_PCOD8127149
_publ_section_title
;
Structure prediction by ZEFSAII (Michael W. Deem and Ramdas Pophale) SiO2 
 PCOD8127149
Probable space group: P 21/C
;
_chemical_formula_sum "Si O2"
_cell_formula_units_Z 24
_cell_length_a 5.399746
_cell_length_b 8.905708
_cell_length_c 26.578313
_cell_angle_alpha 90.000000
_cell_angle_beta 60.714889
_cell_angle_gamma 90.000000
_cell_volume 1114.765428
_symmetry_space_group_name_H-M "P 21/C"
_symmetry_group_IT_number 14
_symmetry_cell_setting 'monoclinic'
loop_
_space_group_symop_operation_xyz
x,y,z
-x,1/2+y,1/2-z
-x,-y,-z
x,1/2-y,1/2+z
loop_
_atom_site_type_symbol
_atom_site_label
_atom_site_fract_x
_atom_site_fract_y
_atom_site_fract_z
Si Si1 0.360567 0.383820 0.141827
Si Si2 0.070128 0.679868 0.151290
Si Si3 0.538575 0.501220 0.221972
Si Si4 0.186690 0.731860 0.745031
Si Si5 0.598292 0.398454 0.564375
Si Si6 0.079512 0.925236 0.069651
O O1 0.586052 0.425365 0.162662
O O2 0.512280 0.267591 0.090180
O O3 0.272203 0.534960 0.120211
O O4 0.094125 0.313242 0.197613
O O5 0.779712 0.624625 0.204854
O O6 0.188377 0.785637 0.184420
O O7 0.016156 0.771764 0.105767
O O8 0.553745 0.376238 0.263762
O O9 0.241676 0.592494 0.253993
O O10 0.791050 0.377064 0.496355
O O11 0.307538 0.483572 0.579979
O O12 0.786346 0.483041 0.588638
#
# Coordination Sequence:
#
# PCOD8127149 Si02
#       6
#     4   4   4   4   4   4
#     4  10  23  41  62  93 129 170 218 267 328 391
#     4  10  23  41  62  93 129 170 218 267 328 391
#     4  10  22  40  59  88 131 166 214 264 312 396
#     4  10  22  40  58  92 126 166 212 258 326 384
#     4  10  24  45  68  97 129 168 222 275 328 387
#     4  10  24  45  68  97 129 168 222 275 328 387
#
# _framework density 21.529195000000001
#
# number of rings (size 3 to 8) (size 9 to 14) (size 15 to 20)
#    0.000    2.000    0.000    1.000    9.333    7.333 
#    3.000    0.833    0.000    0.000    0.000    0.000 
#    0.000    0.000    0.000    0.000    0.000    0.000 
#
# Total GULP energy -297490.410114 kJ/mol
# GULP energy per Si atom -12395.433755 kJ/mol
# Density = 2.148019 g / cm^3
# Si number density = 21.529195 Si / 1000 Ang^3
#
#
#
# Elastic Constant Matrix: (Units=GPa)
#
#
# Indices 1 2 3 4 5 6 
#
# 1 110.5149 42.8100 27.1954 0.0000 25.0520 0.0000
# 2 42.8100 113.4087 56.5068 0.0000 22.2714 0.0000
# 3 27.1954 56.5068 61.4812 0.0000 17.7675 0.0000
# 4 0.0000 0.0000 0.0000 45.2137 0.0000 6.0335
# 5 25.0520 22.2714 17.7675 0.0000 24.7450 0.0000
# 6 0.0000 0.0000 0.0000 6.0335 0.0000 40.3372
#
#
#
# Elastic Compliance Matrix: (Units=1/GPa)
#
#
# Indices 1 2 3 4 5 6 
#
# 1 0.012384 -0.002616 -0.000165 0.000000 -0.010065 0.000000
# 2 -0.002616 0.017310 -0.013900 0.000000 -0.002951 0.000000
# 3 -0.000165 -0.013900 0.032113 0.000000 -0.010381 0.000000
# 4 0.000000 0.000000 0.000000 0.022568 0.000000 -0.003376
# 5 -0.010065 -0.002951 -0.010381 0.000000 0.060711 0.000000
# 6 0.000000 0.000000 0.000000 -0.003376 0.000000 0.025296
#
#
# Mechanical properties :
#
#
# Convention : Reuss Voigt Hill
#
# Bulk Modulus (GPa) = 35.15426 59.82546 47.48986
# Shear Modulus (GPa) = 23.44925 32.65202 28.05063
#
# Velocity S-wave (km/s) = 3.30386 3.89863 3.61350
# Velocity P-wave (km/s) = 5.56040 6.93644 6.28618
#
# Compressibility (1/GPa) = 0.02844606
#
# Stress axis : x y z
#
# Youngs Moduli (GPa) = 80.74916 57.76850 31.13976
#
# Poissons Ratio (x) = 0.15113 0.00513
# Poissons Ratio (y) = 0.21125 0.43284
# Poissons Ratio (z) = 0.01331 0.80298
#
# Static dielectric constant tensor:
#      x y z
#    x 4.250230 0.000000 0.215460 
#    y 0.000000 4.051330 0.000000 
#    z 0.215460 0.000000 3.512150 
# 
# 
# High freq. dielectric constant tensor:
#      x y z
#    x 1.864290 0.000000 0.015700 
#    y 0.000000 1.855320 0.000000 
#    z 0.015700 0.000000 1.816030 
# 
# From -- ./inp_files/71078.got.cif
#   From: 2010.03.12/outbox.cif.g09.slc.cpg/sg14_36_cif.got.tgz:71078.got - 2010.03.31 13:35:05.
