data_PCOD8127849
_publ_section_title
;
Structure prediction by ZEFSAII (Michael W. Deem and Ramdas Pophale) SiO2 
 PCOD8127849
Probable space group: P 21/C
;
_chemical_formula_sum "Si O2"
_cell_formula_units_Z 32
_cell_length_a 23.803636
_cell_length_b 8.285723
_cell_length_c 14.646078
_cell_angle_alpha 90.000000
_cell_angle_beta 29.418278
_cell_angle_gamma 90.000000
_cell_volume 1418.852312
_symmetry_space_group_name_H-M "P 21/C"
_symmetry_group_IT_number 14
_symmetry_cell_setting 'monoclinic'
loop_
_space_group_symop_operation_xyz
x,y,z
-x,1/2+y,1/2-z
-x,-y,-z
x,1/2-y,1/2+z
loop_
_atom_site_type_symbol
_atom_site_label
_atom_site_fract_x
_atom_site_fract_y
_atom_site_fract_z
Si Si1 0.095407 0.789578 0.009026
Si Si2 0.896715 0.387184 0.175553
Si Si3 0.908591 0.955198 0.841674
Si Si4 0.312018 0.624515 0.775238
Si Si5 0.521683 0.671137 0.014029
Si Si6 0.704260 0.801647 0.619107
Si Si7 0.358435 0.937627 0.015962
Si Si8 0.552927 0.738702 0.166288
O O1 0.015707 0.653523 0.165406
O O2 0.070618 0.967364 0.086623
O O3 0.087148 0.779335 0.907940
O O4 0.222958 0.750703 0.859476
O O5 0.897499 0.390902 0.285742
O O6 0.774116 0.458244 0.321602
O O7 0.000000 0.500000 0.000000
O O8 0.799369 0.837443 0.992988
O O9 0.404130 0.730129 0.699897
O O10 0.250632 0.482791 0.920944
O O11 0.375421 0.541721 0.599686
O O12 0.576730 0.649736 0.036084
O O13 0.500000 0.500000 0.000000
O O14 0.603257 0.767850 0.831907
O O15 0.654226 0.819865 0.589042
O O16 0.423303 0.777681 0.888817
O O17 0.435316 0.070718 0.858553
#
# Coordination Sequence:
#
# PCOD8127849 Si02
#       8
#     4   4   4   4   4   4   4   4
#     4  10  23  42  68 100 128 174 227 283 338 416
#     4   9  21  42  69  92 131 177 226 277 343 407
#     4  11  22  44  71  99 133 178 227 282 351 411
#     4  11  23  43  64  91 137 173 221 282 340 404
#     4  12  25  41  62  96 135 175 224 282 338 402
#     4  12  23  42  66  95 131 179 223 280 344 409
#     4  11  22  42  64  96 129 179 224 272 344 408
#     4  12  24  39  65  94 133 175 227 270 336 415
#
# _framework density 22.553439000000001
#
# number of rings (size 3 to 8) (size 9 to 14) (size 15 to 20)
#    0.000    1.000    3.750    3.375    1.750    0.000 
#    0.000    0.625    0.000    0.000    0.000    0.000 
#    0.000    0.000    0.000    0.000    0.000    0.000 
#
# Total GULP energy -396434.999798 kJ/mol
# GULP energy per Si atom -12388.593744 kJ/mol
# Density = 2.250211 g / cm^3
# Si number density = 22.553439 Si / 1000 Ang^3
#
#
#
# Elastic Constant Matrix: (Units=GPa)
#
#
# Indices 1 2 3 4 5 6 
#
# 1 105.1066 26.5394 26.9920 0.0000 13.1790 0.0000
# 2 26.5394 75.5975 30.7901 0.0000 3.1537 0.0000
# 3 26.9920 30.7901 84.9488 0.0000 -9.4234 0.0000
# 4 0.0000 0.0000 0.0000 31.6535 0.0000 7.1406
# 5 13.1790 3.1537 -9.4234 0.0000 31.3378 0.0000
# 6 0.0000 0.0000 0.0000 7.1406 0.0000 32.1569
#
#
#
# Elastic Compliance Matrix: (Units=1/GPa)
#
#
# Indices 1 2 3 4 5 6 
#
# 1 0.011750 -0.002470 -0.003474 0.000000 -0.005737 0.000000
# 2 -0.002470 0.016389 -0.005403 0.000000 -0.002235 0.000000
# 3 -0.003474 -0.005403 0.015576 0.000000 0.006689 0.000000
# 4 0.000000 0.000000 0.000000 0.033258 0.000000 -0.007385
# 5 -0.005737 -0.002235 0.006689 0.000000 0.036559 0.000000
# 6 0.000000 0.000000 0.000000 -0.007385 0.000000 0.032737
#
#
# Mechanical properties :
#
#
# Convention : Reuss Voigt Hill
#
# Bulk Modulus (GPa) = 47.57668 48.25511 47.91589
# Shear Modulus (GPa) = 28.41353 31.11840 29.76597
#
# Velocity S-wave (km/s) = 3.55326 3.71855 3.63684
# Velocity P-wave (km/s) = 6.16239 6.31499 6.23916
#
# Compressibility (1/GPa) = 0.02101870
#
# Stress axis : x y z
#
# Youngs Moduli (GPa) = 85.10949 61.01584 64.20036
#
# Poissons Ratio (x) = 0.15073 0.22306
# Poissons Ratio (y) = 0.21025 0.34690
# Poissons Ratio (z) = 0.29571 0.32969
#
# Static dielectric constant tensor:
#      x y z
#    x 4.508930 0.000000 0.212420 
#    y 0.000000 3.659640 0.000000 
#    z 0.212420 0.000000 4.281450 
# 
# 
# High freq. dielectric constant tensor:
#      x y z
#    x 1.897640 0.000000 0.004400 
#    y 0.000000 1.869290 0.000000 
#    z 0.004400 0.000000 1.895380 
# 
# From -- ./inp_files/51362.got.cif
#   From: 2010.03.12/outbox.cif.g09.slc.cpg/sg14_26_cif.got.tgz:51362.got - 2010.03.31 13:35:05.
