data_PCOD8127437
_publ_section_title
;
Structure prediction by ZEFSAII (Michael W. Deem and Ramdas Pophale) SiO2 
 PCOD8127437
Probable space group: P 21/C
;
_chemical_formula_sum "Si O2"
_cell_formula_units_Z 20
_cell_length_a 16.599599
_cell_length_b 5.041728
_cell_length_c 9.091907
_cell_angle_alpha 90.000000
_cell_angle_beta 107.843848
_cell_angle_gamma 90.000000
_cell_volume 724.304387
_symmetry_space_group_name_H-M "P 21/C"
_symmetry_group_IT_number 14
_symmetry_cell_setting 'monoclinic'
loop_
_space_group_symop_operation_xyz
x,y,z
-x,1/2+y,1/2-z
-x,-y,-z
x,1/2-y,1/2+z
loop_
_atom_site_type_symbol
_atom_site_label
_atom_site_fract_x
_atom_site_fract_y
_atom_site_fract_z
Si Si1 0.443772 0.022960 0.717572
Si Si2 0.333566 0.206394 0.396629
Si Si3 0.083781 0.189741 0.673562
Si Si4 0.103183 0.811700 0.373975
Si Si5 0.779998 0.550083 0.422247
O O1 0.522045 0.225755 0.743612
O O2 0.389165 0.025590 0.536930
O O3 0.390779 0.092431 0.833544
O O4 0.282009 0.023144 0.252531
O O5 0.268974 0.373949 0.457731
O O6 0.114383 0.401829 0.810484
O O7 0.141380 0.241059 0.560904
O O8 0.983848 0.213466 0.579921
O O9 0.102766 0.899160 0.742662
O O10 0.180678 0.742146 0.527229
#
# Coordination Sequence:
#
# PCOD8127437 Si02
#       5
#     4   4   4   4   4
#     4  11  24  50  75 103 140 178 230 273 348 440
#     4  10  24  44  74 110 136 190 216 298 350 412
#     4  10  22  42  68  97 137 193 242 289 343 403
#     4  10  22  42  68  97 137 193 242 289 343 403
#     4  11  21  46  67 105 150 172 242 283 358 398
#
# _framework density 27.612701000000001
#
# number of rings (size 3 to 8) (size 9 to 14) (size 15 to 20)
#    0.000    1.600    2.000    1.800    0.000    1.600 
#   14.400    6.000    0.000    0.000    0.000    0.000 
#    0.000    0.000    0.000    0.000    0.000    0.000 
#
# Total GULP energy -248023.939711 kJ/mol
# GULP energy per Si atom -12401.196986 kJ/mol
# Density = 2.754985 g / cm^3
# Si number density = 27.612701 Si / 1000 Ang^3
#
#
#
# Elastic Constant Matrix: (Units=GPa)
#
#
# Indices 1 2 3 4 5 6 
#
# 1 145.2581 -4.0878 64.7379 0.0000 -18.8202 0.0000
# 2 -4.0878 43.8237 38.6461 0.0000 -7.3515 0.0000
# 3 64.7379 38.6461 169.3222 0.0000 -4.5645 0.0000
# 4 0.0000 0.0000 0.0000 -2.7783 0.0000 -10.0369
# 5 -18.8202 -7.3515 -4.5645 0.0000 56.0161 0.0000
# 6 0.0000 0.0000 0.0000 -10.0369 0.0000 12.3574
#
#
#
# Elastic Compliance Matrix: (Units=1/GPa)
#
#
# Indices 1 2 3 4 5 6 
#
# 1 0.009739 0.005905 -0.004973 0.000000 0.003642 0.000000
# 2 0.005905 0.032742 -0.009582 0.000000 0.005500 0.000000
# 3 -0.004973 -0.009582 0.009937 0.000000 -0.002119 0.000000
# 4 0.000000 0.000000 0.000000 -0.091488 0.000000 -0.074308
# 5 0.003642 0.005500 -0.002119 0.000000 0.019625 0.000000
# 6 0.000000 0.000000 0.000000 -0.074308 0.000000 0.020569
#
#
# Mechanical properties :
#
#
# Convention : Reuss Voigt Hill
#
# Bulk Modulus (GPa) = 28.47633 61.88849 45.18241
# Shear Modulus (GPa) = 165.94365 30.39290 98.16827
#
# Velocity S-wave (km/s) = 7.76063 3.32126 5.96901
# Velocity P-wave (km/s) = 9.52041 6.09667 7.99399
#
# Compressibility (1/GPa) = 0.03511688
#
# Stress axis : x y z
#
# Youngs Moduli (GPa) = 102.68403 30.54143 100.63185
#
# Poissons Ratio (x) = -0.18034 0.50044
# Poissons Ratio (y) = -0.60632 0.96430
# Poissons Ratio (z) = 0.51064 0.29266
#
# Static dielectric constant tensor:
#      x y z
#    x 5.806470 0.000000 -0.032860 
#    y 0.000000 4.770300 0.000000 
#    z -0.032860 0.000000 5.188490 
# 
# 
# High freq. dielectric constant tensor:
#      x y z
#    x 2.129930 0.000000 -0.006790 
#    y 0.000000 2.101460 0.000000 
#    z -0.006790 0.000000 2.140640 
# 
# From -- ./inp_files/17233.got.cif
#   From: 2010.03.12/outbox.cif.g09.slc.cpg/sg14_9_cif.got.tgz:17233.got - 2010.03.31 13:35:05.
