data_PCOD8127462
_publ_section_title
;
Structure prediction by ZEFSAII (Michael W. Deem and Ramdas Pophale) SiO2 
 PCOD8127462
Probable space group: P 21/C
;
_chemical_formula_sum "Si O2"
_cell_formula_units_Z 32
_cell_length_a 14.495363
_cell_length_b 22.078048
_cell_length_c 9.344571
_cell_angle_alpha 90.000000
_cell_angle_beta 31.158287
_cell_angle_gamma 90.000000
_cell_volume 1547.316077
_symmetry_space_group_name_H-M "P 21/C"
_symmetry_group_IT_number 14
_symmetry_cell_setting 'monoclinic'
loop_
_space_group_symop_operation_xyz
x,y,z
-x,1/2+y,1/2-z
-x,-y,-z
x,1/2-y,1/2+z
loop_
_atom_site_type_symbol
_atom_site_label
_atom_site_fract_x
_atom_site_fract_y
_atom_site_fract_z
Si Si1 0.770134 0.349760 0.183576
Si Si2 0.637107 0.359429 0.915592
Si Si3 0.915793 0.781658 0.584559
Si Si4 0.846771 0.924034 0.291920
Si Si5 0.481172 0.287066 0.365547
Si Si6 0.020305 0.688167 0.644959
Si Si7 0.862355 0.060732 0.316852
Si Si8 0.512760 0.356075 0.780411
O O1 0.633876 0.307491 0.274193
O O2 0.673125 0.370796 0.457573
O O3 0.831961 0.407298 0.008824
O O4 0.956709 0.317401 0.974169
O O5 0.717274 0.415800 0.895559
O O6 0.552536 0.385120 0.882638
O O7 0.781135 0.308155 0.680700
O O8 0.495804 0.322412 0.196600
O O9 0.891913 0.716343 0.692446
O O10 0.013648 0.775746 0.302657
O O11 0.716923 0.806925 0.818031
O O12 0.968847 0.882435 0.234178
O O13 0.657966 0.891711 0.545656
O O14 0.830827 0.989739 0.383829
O O15 0.939254 0.927576 0.011367
O O16 0.489711 0.215860 0.325698
#
# Coordination Sequence:
#
# PCOD8127462 Si02
#       8
#     4   4   4   4   4   4   4   4
#     4  11  25  42  64  95 132 169 210 267 321 380
#     4  10  23  39  62  91 130 166 212 261 319 380
#     4  12  25  39  65  97 134 167 207 255 331 383
#     4  10  22  42  71  87 125 169 222 263 318 377
#     4  11  24  39  60  97 132 166 209 257 319 395
#     4  11  23  41  62  94 129 168 203 262 321 386
#     4   9  23  46  64  89 122 174 221 264 313 379
#     4  12  21  38  61  94 129 163 208 269 321 381
#
# _framework density 20.680971
#
# number of rings (size 3 to 8) (size 9 to 14) (size 15 to 20)
#    0.000    1.250    2.500    3.000    8.750    1.000 
#    0.000    0.625    0.000    0.000    0.000    0.000 
#    0.000    0.000    0.000    0.000    0.000    0.000 
#
# Total GULP energy -396675.374649 kJ/mol
# GULP energy per Si atom -12396.105458 kJ/mol
# Density = 2.063390 g / cm^3
# Si number density = 20.680971 Si / 1000 Ang^3
#
#
#
# Elastic Constant Matrix: (Units=GPa)
#
#
# Indices 1 2 3 4 5 6 
#
# 1 65.8692 23.2553 15.3238 0.0000 8.8412 0.0000
# 2 23.2553 106.1699 27.5311 0.0000 4.0364 0.0000
# 3 15.3238 27.5311 82.7135 0.0000 -0.1247 0.0000
# 4 0.0000 0.0000 0.0000 30.7174 0.0000 0.8495
# 5 8.8412 4.0364 -0.1247 0.0000 41.1680 0.0000
# 6 0.0000 0.0000 0.0000 0.8495 0.0000 16.0579
#
#
#
# Elastic Compliance Matrix: (Units=1/GPa)
#
#
# Indices 1 2 3 4 5 6 
#
# 1 0.017232 -0.003082 -0.002172 0.000000 -0.003405 0.000000
# 2 -0.003082 0.010903 -0.003059 0.000000 -0.000416 0.000000
# 3 -0.002172 -0.003059 0.013512 0.000000 0.000807 0.000000
# 4 0.000000 0.000000 0.000000 0.032603 0.000000 -0.001725
# 5 -0.003405 -0.000416 0.000807 0.000000 0.025065 0.000000
# 6 0.000000 0.000000 0.000000 -0.001725 0.000000 0.062366
#
#
# Mechanical properties :
#
#
# Convention : Reuss Voigt Hill
#
# Bulk Modulus (GPa) = 39.96518 42.99699 41.48109
# Shear Modulus (GPa) = 26.78878 30.16482 28.47680
#
# Velocity S-wave (km/s) = 3.60298 3.82328 3.71476
# Velocity P-wave (km/s) = 6.05600 6.35025 6.20487
#
# Compressibility (1/GPa) = 0.02502178
#
# Stress axis : x y z
#
# Youngs Moduli (GPa) = 58.03177 91.71885 74.01061
#
# Poissons Ratio (x) = 0.28266 0.16074
# Poissons Ratio (y) = 0.17884 0.22638
# Poissons Ratio (z) = 0.12603 0.28054
#
# Static dielectric constant tensor:
#      x y z
#    x 3.779410 0.000000 -0.021410 
#    y 0.000000 3.624340 0.000000 
#    z -0.021410 0.000000 3.928800 
# 
# 
# High freq. dielectric constant tensor:
#      x y z
#    x 1.806220 0.000000 -0.001560 
#    y 0.000000 1.787390 0.000000 
#    z -0.001560 0.000000 1.824620 
# 
# From -- ./inp_files/16998.got.cif
#   From: 2010.03.12/outbox.cif.g09.slc.cpg/sg14_9_cif.got.tgz:16998.got - 2010.03.31 13:35:05.
