data_PCOD8127363
_publ_section_title
;
Structure prediction by ZEFSAII (Michael W. Deem and Ramdas Pophale) SiO2 
 PCOD8127363
Probable space group: P 21/C
;
_chemical_formula_sum "Si O2"
_cell_formula_units_Z 20
_cell_length_a 13.616610
_cell_length_b 12.320659
_cell_length_c 11.789463
_cell_angle_alpha 90.000000
_cell_angle_beta 30.458896
_cell_angle_gamma 90.000000
_cell_volume 1002.620250
_symmetry_space_group_name_H-M "P 21/C"
_symmetry_group_IT_number 14
_symmetry_cell_setting 'monoclinic'
loop_
_space_group_symop_operation_xyz
x,y,z
-x,1/2+y,1/2-z
-x,-y,-z
x,1/2-y,1/2+z
loop_
_atom_site_type_symbol
_atom_site_label
_atom_site_fract_x
_atom_site_fract_y
_atom_site_fract_z
Si Si1 0.917637 0.205407 0.988586
Si Si2 0.251916 0.394713 0.024455
Si Si3 0.655380 0.077847 0.406935
Si Si4 0.966408 0.103369 0.608489
Si Si5 0.355414 0.710255 0.441284
O O1 0.127897 0.175778 0.734156
O O2 0.816323 0.102585 0.151064
O O3 0.971578 0.291883 0.027487
O O4 0.783161 0.254094 0.021993
O O5 0.263417 0.515056 0.064922
O O6 0.151305 0.398586 0.004261
O O7 0.459481 0.339838 0.803490
O O8 0.583240 0.193900 0.531478
O O9 0.500000 0.000000 0.500000
O O10 0.762260 0.110976 0.880199
O O11 0.000000 0.000000 0.500000
#
# Coordination Sequence:
#
# PCOD8127363 Si02
#       5
#     4   4   4   4   4
#     4  10  22  42  62  90 126 159 206 256 305 370
#     4  11  23  39  63  91 118 163 207 250 309 366
#     4  11  22  40  65  87 125 166 204 255 311 366
#     4  10  23  40  61  88 126 160 197 257 312 362
#     4  10  23  40  60  93 123 155 214 254 298 380
#
# _framework density 19.947731999999998
#
# number of rings (size 3 to 8) (size 9 to 14) (size 15 to 20)
#    0.000    1.600    2.000    1.800    2.800    2.400 
#    3.600    0.000    0.000    0.000    0.000    0.000 
#    0.000    0.000    0.000    0.000    0.000    0.000 
#
# Total GULP energy -247872.108462 kJ/mol
# GULP energy per Si atom -12393.605423 kJ/mol
# Density = 1.990233 g / cm^3
# Si number density = 19.947732 Si / 1000 Ang^3
#
#
#
# Elastic Constant Matrix: (Units=GPa)
#
#
# Indices 1 2 3 4 5 6 
#
# 1 106.7750 60.4959 54.9142 0.0000 8.7879 0.0000
# 2 60.4959 78.6960 42.2404 0.0000 -6.1462 0.0000
# 3 54.9142 42.2404 140.3649 0.0000 -3.5322 0.0000
# 4 0.0000 0.0000 0.0000 31.7415 0.0000 10.9541
# 5 8.7879 -6.1462 -3.5322 0.0000 28.5788 0.0000
# 6 0.0000 0.0000 0.0000 10.9541 0.0000 42.2106
#
#
#
# Elastic Compliance Matrix: (Units=1/GPa)
#
#
# Indices 1 2 3 4 5 6 
#
# 1 0.020223 -0.014228 -0.003876 0.000000 -0.009757 0.000000
# 2 -0.014228 0.025376 -0.001829 0.000000 0.009606 0.000000
# 3 -0.003876 -0.001829 0.009240 0.000000 0.001940 0.000000
# 4 0.000000 0.000000 0.000000 0.034604 0.000000 -0.008980
# 5 -0.009757 0.009606 0.001940 0.000000 0.040297 0.000000
# 6 0.000000 0.000000 0.000000 -0.008980 0.000000 0.026021
#
#
# Mechanical properties :
#
#
# Convention : Reuss Voigt Hill
#
# Bulk Modulus (GPa) = 66.77859 71.23743 69.00801
# Shear Modulus (GPa) = 24.92333 31.71854 28.32093
#
# Velocity S-wave (km/s) = 3.53856 3.99191 3.77205
# Velocity P-wave (km/s) = 7.08835 7.55226 7.32398
#
# Compressibility (1/GPa) = 0.01497486
#
# Stress axis : x y z
#
# Youngs Moduli (GPa) = 49.44929 39.40728 108.22950
#
# Poissons Ratio (x) = 0.56067 0.41946
# Poissons Ratio (y) = 0.70354 0.19790
# Poissons Ratio (z) = 0.19165 0.07206
#
# Static dielectric constant tensor:
#      x y z
#    x 3.859540 0.000000 0.404920 
#    y 0.000000 4.470850 0.000000 
#    z 0.404920 0.000000 4.011850 
# 
# 
# High freq. dielectric constant tensor:
#      x y z
#    x 1.795030 0.000000 0.014890 
#    y 0.000000 1.768890 0.000000 
#    z 0.014890 0.000000 1.788650 
# 
# From -- ./inp_files/20484.got.cif
#   From: 2010.03.12/outbox.cif.g09.slc.cpg/sg14_11_cif.got.tgz:20484.got - 2010.03.31 13:35:05.
