data_PCOD8127353
_publ_section_title
;
Structure prediction by ZEFSAII (Michael W. Deem and Ramdas Pophale) SiO2 
 PCOD8127353
Probable space group: P 21/C
;
_chemical_formula_sum "Si O2"
_cell_formula_units_Z 20
_cell_length_a 6.539877
_cell_length_b 7.155718
_cell_length_c 25.100680
_cell_angle_alpha 90.000000
_cell_angle_beta 46.161754
_cell_angle_gamma 90.000000
_cell_volume 847.272366
_symmetry_space_group_name_H-M "P 21/C"
_symmetry_group_IT_number 14
_symmetry_cell_setting 'monoclinic'
loop_
_space_group_symop_operation_xyz
x,y,z
-x,1/2+y,1/2-z
-x,-y,-z
x,1/2-y,1/2+z
loop_
_atom_site_type_symbol
_atom_site_label
_atom_site_fract_x
_atom_site_fract_y
_atom_site_fract_z
Si Si1 0.241811 0.667305 0.349961
Si Si2 0.207199 0.633568 0.583953
Si Si3 0.609003 0.667482 0.085876
Si Si4 0.700217 0.910558 0.682435
Si Si5 0.272775 0.762982 0.460081
O O1 0.504259 0.585741 0.269588
O O2 0.325843 0.639637 0.397184
O O3 0.950381 0.565455 0.385533
O O4 0.185498 0.883168 0.349541
O O5 0.446669 0.665303 0.585286
O O6 0.361340 0.654065 0.498187
O O7 0.977896 0.789411 0.640482
O O8 0.519965 0.666459 0.164393
O O9 0.556745 0.459807 0.071174
O O10 0.939374 0.707450 0.023962
#
# Coordination Sequence:
#
# PCOD8127353 Si02
#       5
#     4   4   4   4   4
#     4  11  21  40  65  90 127 173 216 266 327 385
#     4  11  21  40  67  92 124 169 215 265 329 387
#     4   9  20  40  62  93 127 165 212 265 327 386
#     4  10  22  42  60  89 130 172 212 270 324 389
#     4   9  20  38  65  93 128 163 211 271 324 384
#
# _framework density 23.605160999999999
#
# number of rings (size 3 to 8) (size 9 to 14) (size 15 to 20)
#    0.000    2.000    2.000    2.400    0.000    0.800 
#    3.600   10.000    0.000    0.000    0.000    0.000 
#    0.000    0.000    0.000    0.000    0.000    0.000 
#
# Total GULP energy -247974.511123 kJ/mol
# GULP energy per Si atom -12398.725556 kJ/mol
# Density = 2.355143 g / cm^3
# Si number density = 23.605161 Si / 1000 Ang^3
#
#
#
# Elastic Constant Matrix: (Units=GPa)
#
#
# Indices 1 2 3 4 5 6 
#
# 1 80.0744 42.1286 25.1522 0.0000 23.4698 0.0000
# 2 42.1286 76.1787 23.4090 0.0000 16.1542 0.0000
# 3 25.1522 23.4090 147.2047 0.0000 27.9370 0.0000
# 4 0.0000 0.0000 0.0000 34.7439 0.0000 2.9473
# 5 23.4698 16.1542 27.9370 0.0000 28.9354 0.0000
# 6 0.0000 0.0000 0.0000 2.9473 0.0000 40.8028
#
#
#
# Elastic Compliance Matrix: (Units=1/GPa)
#
#
# Indices 1 2 3 4 5 6 
#
# 1 0.020624 -0.008931 0.000153 0.000000 -0.011890 0.000000
# 2 -0.008931 0.018871 -0.001041 0.000000 -0.002286 0.000000
# 3 0.000153 -0.001041 0.008382 0.000000 -0.007635 0.000000
# 4 0.000000 0.000000 0.000000 0.028959 0.000000 -0.002092
# 5 -0.011890 -0.002286 -0.007635 0.000000 0.052852 0.000000
# 6 0.000000 0.000000 0.000000 -0.002092 0.000000 0.024659
#
#
# Mechanical properties :
#
#
# Convention : Reuss Voigt Hill
#
# Bulk Modulus (GPa) = 35.41346 53.87078 44.64212
# Shear Modulus (GPa) = 27.26297 35.08096 31.17197
#
# Velocity S-wave (km/s) = 3.40215 3.85925 3.63789
# Velocity P-wave (km/s) = 5.51977 6.53679 6.04969
#
# Compressibility (1/GPa) = 0.02823785
#
# Stress axis : x y z
#
# Youngs Moduli (GPa) = 48.48674 52.99163 119.30679
#
# Poissons Ratio (x) = 0.47328 -0.01823
# Poissons Ratio (y) = 0.43305 0.12420
# Poissons Ratio (z) = -0.00741 0.05517
#
# Static dielectric constant tensor:
#      x y z
#    x 4.093640 0.000000 0.527600 
#    y 0.000000 4.444130 0.000000 
#    z 0.527600 0.000000 4.771500 
# 
# 
# High freq. dielectric constant tensor:
#      x y z
#    x 1.909530 0.000000 0.014140 
#    y 0.000000 1.953700 0.000000 
#    z 0.014140 0.000000 1.941400 
# 
# From -- ./inp_files/70915.got.cif
#   From: 2010.03.12/outbox.cif.g09.slc.cpg/sg14_36_cif.got.tgz:70915.got - 2010.03.31 13:35:05.
