data_PCOD8127715
_publ_section_title
;
Structure prediction by ZEFSAII (Michael W. Deem and Ramdas Pophale) SiO2 
 PCOD8127715
Probable space group: P 21/C
;
_chemical_formula_sum "Si O2"
_cell_formula_units_Z 24
_cell_length_a 9.545937
_cell_length_b 15.786901
_cell_length_c 16.122471
_cell_angle_alpha 90.000000
_cell_angle_beta 150.521188
_cell_angle_gamma 90.000000
_cell_volume 1195.644007
_symmetry_space_group_name_H-M "P 21/C"
_symmetry_group_IT_number 14
_symmetry_cell_setting 'monoclinic'
loop_
_space_group_symop_operation_xyz
x,y,z
-x,1/2+y,1/2-z
-x,-y,-z
x,1/2-y,1/2+z
loop_
_atom_site_type_symbol
_atom_site_label
_atom_site_fract_x
_atom_site_fract_y
_atom_site_fract_z
Si Si1 0.752187 0.775012 0.004255
Si Si2 0.282104 0.790134 0.164113
Si Si3 0.417949 0.300767 0.819897
Si Si4 0.973371 0.064241 0.059838
Si Si5 0.267167 0.447311 0.427849
Si Si6 0.992427 0.304011 0.200119
O O1 0.623569 0.870346 0.955441
O O2 0.923711 0.746816 0.175635
O O3 0.963487 0.776733 0.033651
O O4 0.502507 0.706338 0.855932
O O5 0.412675 0.713217 0.178578
O O6 0.273890 0.870407 0.097630
O O7 0.272853 0.391727 0.735161
O O8 0.169889 0.232083 0.712813
O O9 0.654064 0.297273 0.014033
O O10 0.898317 0.016699 0.104978
O O11 0.000000 0.000000 0.000000
O O12 0.500000 0.500000 0.500000
O O13 0.066036 0.402893 0.254721
#
# Coordination Sequence:
#
# PCOD8127715 Si02
#       6
#     4   4   4   4   4   4
#     4  10  23  39  66  93 128 163 222 261 325 390
#     4  12  20  41  64  95 122 172 217 258 323 393
#     4  12  22  40  71  95 128 173 228 266 322 403
#     4  12  23  41  65  97 135 171 209 282 331 376
#     4  10  23  41  63  94 135 168 208 275 340 375
#     4  10  23  41  64  99 124 176 222 267 326 395
#
# _framework density 20.072865
#
# number of rings (size 3 to 8) (size 9 to 14) (size 15 to 20)
#    1.000    0.000    5.000    2.000    0.000    0.667 
#    0.000    1.667    0.000    5.000    0.000    0.000 
#    0.000    0.000    0.000    0.000    0.000    0.000 
#
# Total GULP energy -297330.209966 kJ/mol
# GULP energy per Si atom -12388.758749 kJ/mol
# Density = 2.002718 g / cm^3
# Si number density = 20.072865 Si / 1000 Ang^3
#
#
#
# Elastic Constant Matrix: (Units=GPa)
#
#
# Indices 1 2 3 4 5 6 
#
# 1 102.2914 40.0960 16.3435 0.0000 19.9056 0.0000
# 2 40.0960 85.7655 54.0041 0.0000 11.9018 0.0000
# 3 16.3435 54.0041 130.9860 0.0000 -0.5201 0.0000
# 4 0.0000 0.0000 0.0000 41.9047 0.0000 -7.7728
# 5 19.9056 11.9018 -0.5201 0.0000 30.6750 0.0000
# 6 0.0000 0.0000 0.0000 -7.7728 0.0000 45.1809
#
#
#
# Elastic Compliance Matrix: (Units=1/GPa)
#
#
# Indices 1 2 3 4 5 6 
#
# 1 0.013123 -0.005693 0.000685 0.000000 -0.006295 0.000000
# 2 -0.005693 0.019501 -0.007346 0.000000 -0.003997 0.000000
# 3 0.000685 -0.007346 0.010588 0.000000 0.002585 0.000000
# 4 0.000000 0.000000 0.000000 0.024650 0.000000 0.004241
# 5 -0.006295 -0.003997 0.002585 0.000000 0.038280 0.000000
# 6 0.000000 0.000000 0.000000 0.004241 0.000000 0.022863
#
#
# Mechanical properties :
#
#
# Convention : Reuss Voigt Hill
#
# Bulk Modulus (GPa) = 54.04060 59.99224 57.01642
# Shear Modulus (GPa) = 31.27343 37.45874 34.36609
#
# Velocity S-wave (km/s) = 3.95143 4.32457 4.14220
# Velocity P-wave (km/s) = 6.91368 7.40864 7.16544
#
# Compressibility (1/GPa) = 0.01850461
#
# Stress axis : x y z
#
# Youngs Moduli (GPa) = 76.20182 51.27934 94.44845
#
# Poissons Ratio (x) = 0.29191 -0.06466
# Poissons Ratio (y) = 0.43378 0.69379
# Poissons Ratio (z) = -0.05217 0.37668
#
# Static dielectric constant tensor:
#      x y z
#    x 3.670510 0.000000 -0.120590 
#    y 0.000000 3.503070 0.000000 
#    z -0.120590 0.000000 3.825090 
# 
# 
# High freq. dielectric constant tensor:
#      x y z
#    x 1.803550 0.000000 -0.006090 
#    y 0.000000 1.755780 0.000000 
#    z -0.006090 0.000000 1.779970 
# 
# From -- ./inp_files/56007.got.cif
#   From: 2010.03.12/outbox.cif.g09.slc.cpg/sg14_29_cif.got.tgz:56007.got - 2010.03.31 13:35:05.
