data_PCOD8127418
_publ_section_title
;
Structure prediction by ZEFSAII (Michael W. Deem and Ramdas Pophale) SiO2 
 PCOD8127418
Probable space group: P 21/C
;
_chemical_formula_sum "Si O2"
_cell_formula_units_Z 24
_cell_length_a 8.428722
_cell_length_b 15.389202
_cell_length_c 9.119125
_cell_angle_alpha 90.000000
_cell_angle_beta 75.429450
_cell_angle_gamma 90.000000
_cell_volume 1144.811388
_symmetry_space_group_name_H-M "P 21/C"
_symmetry_group_IT_number 14
_symmetry_cell_setting 'monoclinic'
loop_
_space_group_symop_operation_xyz
x,y,z
-x,1/2+y,1/2-z
-x,-y,-z
x,1/2-y,1/2+z
loop_
_atom_site_type_symbol
_atom_site_label
_atom_site_fract_x
_atom_site_fract_y
_atom_site_fract_z
Si Si1 0.158728 0.176668 0.216176
Si Si2 0.647332 0.644093 0.836787
Si Si3 0.370574 0.747172 0.040182
Si Si4 0.857209 0.238718 0.655600
Si Si5 0.926004 0.589617 0.963189
Si Si6 0.420424 0.090376 0.975496
O O1 0.258147 0.265841 0.208458
O O2 0.130854 0.147097 0.387394
O O3 0.987995 0.188874 0.170622
O O4 0.248819 0.102328 0.100343
O O5 0.765086 0.577303 0.898337
O O6 0.602102 0.599004 0.694063
O O7 0.481858 0.663924 0.969315
O O8 0.317627 0.746419 0.222618
O O9 0.464094 0.835636 0.985835
O O10 0.193597 0.748810 0.001834
O O11 0.934057 0.142236 0.659061
O O12 0.000000 0.500000 0.000000
O O13 0.500000 0.000000 0.000000
#
# Coordination Sequence:
#
# PCOD8127418 Si02
#       6
#     4   4   4   4   4   4
#     4  10  22  42  67  92 129 174 214 263 324 391
#     4  10  22  44  66  91 128 175 216 262 321 392
#     4  11  22  40  69  96 130 169 220 260 316 399
#     4  11  22  41  67  99 126 170 222 259 315 396
#     4  11  25  41  65  97 134 169 214 273 331 379
#     4  11  25  42  64  98 133 170 214 273 329 379
#
# _framework density 20.964154000000001
#
# number of rings (size 3 to 8) (size 9 to 14) (size 15 to 20)
#    0.000    1.333    3.333    3.000    7.000    1.333 
#    0.000    3.333    0.000    0.000    0.000    0.000 
#    0.000    0.000    0.000    0.000    0.000    0.000 
#
# Total GULP energy -297581.826611 kJ/mol
# GULP energy per Si atom -12399.242775 kJ/mol
# Density = 2.091644 g / cm^3
# Si number density = 20.964154 Si / 1000 Ang^3
#
#
#
# Elastic Constant Matrix: (Units=GPa)
#
#
# Indices 1 2 3 4 5 6 
#
# 1 123.7598 49.6422 44.3956 0.0000 12.3241 0.0000
# 2 49.6422 89.1399 39.8808 0.0000 6.4001 0.0000
# 3 44.3956 39.8808 90.9876 0.0000 -4.2392 0.0000
# 4 0.0000 0.0000 0.0000 25.1718 0.0000 8.1640
# 5 12.3241 6.4001 -4.2392 0.0000 47.1167 0.0000
# 6 0.0000 0.0000 0.0000 8.1640 0.0000 29.7084
#
#
#
# Elastic Compliance Matrix: (Units=1/GPa)
#
#
# Indices 1 2 3 4 5 6 
#
# 1 0.011522 -0.004538 -0.003760 0.000000 -0.002736 0.000000
# 2 -0.004538 0.016031 -0.004879 0.000000 -0.001430 0.000000
# 3 -0.003760 -0.004879 0.015104 0.000000 0.003005 0.000000
# 4 0.000000 0.000000 0.000000 0.043614 0.000000 -0.011985
# 5 -0.002736 -0.001430 0.003005 0.000000 0.022404 0.000000
# 6 0.000000 0.000000 0.000000 -0.011985 0.000000 0.036954
#
#
# Mechanical properties :
#
#
# Convention : Reuss Voigt Hill
#
# Bulk Modulus (GPa) = 61.34099 63.52493 62.43296
# Shear Modulus (GPa) = 28.18221 31.73063 29.95642
#
# Velocity S-wave (km/s) = 3.67045 3.89468 3.78423
# Velocity P-wave (km/s) = 6.87651 7.11282 6.99566
#
# Compressibility (1/GPa) = 0.01630231
#
# Stress axis : x y z
#
# Youngs Moduli (GPa) = 86.79332 62.37966 66.20845
#
# Poissons Ratio (x) = 0.28306 0.24896
# Poissons Ratio (y) = 0.39384 0.32303
# Poissons Ratio (z) = 0.32637 0.30435
#
# Static dielectric constant tensor:
#      x y z
#    x 4.065750 0.000000 -0.081060 
#    y 0.000000 3.494540 0.000000 
#    z -0.081060 0.000000 3.897630 
# 
# 
# High freq. dielectric constant tensor:
#      x y z
#    x 1.841650 0.000000 0.000580 
#    y 0.000000 1.787050 0.000000 
#    z 0.000580 0.000000 1.834030 
# 
# From -- ./inp_files/8419.got.cif
#   From: 2010.03.12/outbox.cif.g09.slc.cpg/sg14_5_cif.got.tgz:8419.got - 2010.03.31 13:35:05.
