data_PCOD8127841
_publ_section_title
;
Structure prediction by ZEFSAII (Michael W. Deem and Ramdas Pophale) SiO2 
 PCOD8127841
Probable space group: P 21/C
;
_chemical_formula_sum "Si O2"
_cell_formula_units_Z 32
_cell_length_a 16.456448
_cell_length_b 11.638922
_cell_length_c 14.613776
_cell_angle_alpha 90.000000
_cell_angle_beta 146.676657
_cell_angle_gamma 90.000000
_cell_volume 1537.697617
_symmetry_space_group_name_H-M "P 21/C"
_symmetry_group_IT_number 14
_symmetry_cell_setting 'monoclinic'
loop_
_space_group_symop_operation_xyz
x,y,z
-x,1/2+y,1/2-z
-x,-y,-z
x,1/2-y,1/2+z
loop_
_atom_site_type_symbol
_atom_site_label
_atom_site_fract_x
_atom_site_fract_y
_atom_site_fract_z
Si Si1 0.100026 0.464976 0.177812
Si Si2 0.132696 0.952536 0.391394
Si Si3 0.345246 0.355846 0.163717
Si Si4 0.532529 0.788612 0.884297
Si Si5 0.953851 0.574902 0.372771
Si Si6 0.780085 0.207890 0.966812
Si Si7 0.639200 0.457911 0.476283
Si Si8 0.740470 0.747212 0.734695
O O1 0.253022 0.538238 0.333027
O O2 0.141328 0.334326 0.202823
O O3 0.016239 0.477035 0.193799
O O4 0.000000 0.500000 0.000000
O O5 0.168970 0.816525 0.423291
O O6 0.261148 0.026066 0.561704
O O7 0.099242 0.993381 0.258540
O O8 0.373917 0.292227 0.095790
O O9 0.496757 0.380324 0.361583
O O10 0.259334 0.276241 0.155872
O O11 0.358812 0.757668 0.721481
O O12 0.574837 0.916470 0.890193
O O13 0.582200 0.767464 0.035852
O O14 0.804392 0.629390 0.272234
O O15 0.000000 0.500000 0.500000
O O16 0.083982 0.665199 0.468316
O O17 0.729760 0.097972 0.977839
#
# Coordination Sequence:
#
# PCOD8127841 Si02
#       8
#     4   4   4   4   4   4   4   4
#     4  11  22  37  66  97 132 174 228 281 335 400
#     4  12  23  45  68  97 138 182 228 283 340 416
#     4  11  23  42  69  96 139 177 229 285 342 406
#     4  10  23  44  70  97 136 178 232 280 336 409
#     4  12  28  45  67 102 140 182 227 282 348 411
#     4  11  24  46  70  99 138 183 228 279 342 413
#     4  10  23  42  67 100 130 181 227 277 344 399
#     4  11  24  41  66 102 132 177 225 280 342 403
#
# _framework density 20.810333
#
# number of rings (size 3 to 8) (size 9 to 14) (size 15 to 20)
#    0.000    1.000    6.250    0.000    1.750    5.000 
#    4.500    0.625    0.000    0.000    0.000    0.000 
#    0.000    0.000    0.000    0.000    0.000    0.000 
#
# Total GULP energy -396555.949216 kJ/mol
# GULP energy per Si atom -12392.373413 kJ/mol
# Density = 2.076297 g / cm^3
# Si number density = 20.810333 Si / 1000 Ang^3
#
#
#
# Elastic Constant Matrix: (Units=GPa)
#
#
# Indices 1 2 3 4 5 6 
#
# 1 71.5616 17.9614 24.7858 0.0000 -5.2804 0.0000
# 2 17.9614 86.5565 35.1388 0.0000 -2.9112 0.0000
# 3 24.7858 35.1388 134.2826 0.0000 -7.9761 0.0000
# 4 0.0000 0.0000 0.0000 34.8642 0.0000 3.5968
# 5 -5.2804 -2.9112 -7.9761 0.0000 33.5982 0.0000
# 6 0.0000 0.0000 0.0000 3.5968 0.0000 29.6753
#
#
#
# Elastic Compliance Matrix: (Units=1/GPa)
#
#
# Indices 1 2 3 4 5 6 
#
# 1 0.015414 -0.002268 -0.002150 0.000000 0.001716 0.000000
# 2 -0.002268 0.013264 -0.003048 0.000000 0.000069 0.000000
# 3 -0.002150 -0.003048 0.008729 0.000000 0.001470 0.000000
# 4 0.000000 0.000000 0.000000 0.029046 0.000000 -0.003520
# 5 0.001716 0.000069 0.001470 0.000000 0.030388 0.000000
# 6 0.000000 0.000000 0.000000 -0.003520 0.000000 0.034125
#
#
# Mechanical properties :
#
#
# Convention : Reuss Voigt Hill
#
# Bulk Modulus (GPa) = 44.49436 49.79695 47.14565
# Shear Modulus (GPa) = 32.59686 33.92853 33.26269
#
# Velocity S-wave (km/s) = 3.96204 4.04216 4.00230
# Velocity P-wave (km/s) = 6.50828 6.76508 6.63792
#
# Compressibility (1/GPa) = 0.02247476
#
# Stress axis : x y z
#
# Youngs Moduli (GPa) = 64.87415 75.39473 114.56463
#
# Poissons Ratio (x) = 0.17101 0.24628
# Poissons Ratio (y) = 0.14715 0.34919
# Poissons Ratio (z) = 0.13946 0.22980
#
# Static dielectric constant tensor:
#      x y z
#    x 3.624380 0.000000 0.160180 
#    y 0.000000 3.724080 0.000000 
#    z 0.160180 0.000000 3.839510 
# 
# 
# High freq. dielectric constant tensor:
#      x y z
#    x 1.805140 0.000000 0.011690 
#    y 0.000000 1.816850 0.000000 
#    z 0.011690 0.000000 1.830800 
# 
# From -- ./inp_files/49049.got.cif
#   From: 2010.03.12/outbox.cif.g09.slc.cpg/sg14_25_cif.got.tgz:49049.got - 2010.03.31 13:35:05.
