data_PCOD8127837
_publ_section_title
;
Structure prediction by ZEFSAII (Michael W. Deem and Ramdas Pophale) SiO2 
 PCOD8127837
Probable space group: P 21/C
;
_chemical_formula_sum "Si O2"
_cell_formula_units_Z 32
_cell_length_a 14.088277
_cell_length_b 14.392914
_cell_length_c 12.929365
_cell_angle_alpha 90.000000
_cell_angle_beta 35.411619
_cell_angle_gamma 90.000000
_cell_volume 1519.137633
_symmetry_space_group_name_H-M "P 21/C"
_symmetry_group_IT_number 14
_symmetry_cell_setting 'monoclinic'
loop_
_space_group_symop_operation_xyz
x,y,z
-x,1/2+y,1/2-z
-x,-y,-z
x,1/2-y,1/2+z
loop_
_atom_site_type_symbol
_atom_site_label
_atom_site_fract_x
_atom_site_fract_y
_atom_site_fract_z
Si Si1 0.358827 0.431163 0.098096
Si Si2 0.353601 0.196230 0.314426
Si Si3 0.150754 0.357598 0.446659
Si Si4 0.445061 0.771463 0.671467
Si Si5 0.932839 0.282379 0.465613
Si Si6 0.933894 0.594702 0.250955
Si Si7 0.584757 0.903553 0.951785
Si Si8 0.891946 0.582282 0.845893
O O1 0.222860 0.438524 0.309651
O O2 0.260744 0.461339 0.082352
O O3 0.500000 0.500000 0.000000
O O4 0.441428 0.329105 0.010127
O O5 0.315469 0.303198 0.329002
O O6 0.504460 0.194954 0.259305
O O7 0.402346 0.143616 0.169475
O O8 0.182764 0.156990 0.510081
O O9 0.067174 0.395971 0.623624
O O10 0.030649 0.292913 0.485711
O O11 0.474630 0.662056 0.623536
O O12 0.254144 0.793330 0.834027
O O13 0.969637 0.180924 0.384819
O O14 0.981046 0.363238 0.341557
O O15 0.757254 0.583387 0.356006
O O16 0.027573 0.497139 0.153767
O O17 0.500000 0.000000 0.000000
#
# Coordination Sequence:
#
# PCOD8127837 Si02
#       8
#     4   4   4   4   4   4   4   4
#     4  10  23  42  66  97 129 168 222 268 327 388
#     4  11  22  48  67  88 138 181 212 271 327 390
#     4  11  22  44  72  86 135 177 214 269 328 385
#     4  11  25  44  66  98 134 173 221 270 333 397
#     4  11  25  43  66 101 131 171 225 268 327 397
#     4  12  25  44  68  96 134 175 220 270 333 390
#     4  12  27  44  68 102 133 178 224 271 333 397
#     4  10  25  42  65  98 129 171 218 269 327 393
#
# _framework density 21.064582000000001
#
# number of rings (size 3 to 8) (size 9 to 14) (size 15 to 20)
#    0.000    1.000    5.000    0.750    7.000    5.500 
#    0.000    0.000    0.000    0.000    0.000    0.000 
#    0.000    0.000    0.000    0.000    0.000    0.000 
#
# Total GULP energy -396672.017444 kJ/mol
# GULP energy per Si atom -12396.000545 kJ/mol
# Density = 2.101664 g / cm^3
# Si number density = 21.064582 Si / 1000 Ang^3
#
#
#
# Elastic Constant Matrix: (Units=GPa)
#
#
# Indices 1 2 3 4 5 6 
#
# 1 100.0919 35.0086 39.9422 0.0000 -0.7274 0.0000
# 2 35.0086 82.9059 10.1832 0.0000 -10.9812 0.0000
# 3 39.9422 10.1832 86.6876 0.0000 -9.3383 0.0000
# 4 0.0000 0.0000 0.0000 16.2380 0.0000 -13.5325
# 5 -0.7274 -10.9812 -9.3383 0.0000 36.2317 0.0000
# 6 0.0000 0.0000 0.0000 -13.5325 0.0000 37.0279
#
#
#
# Elastic Compliance Matrix: (Units=1/GPa)
#
#
# Indices 1 2 3 4 5 6 
#
# 1 0.014514 -0.005759 -0.006344 0.000000 -0.003089 0.000000
# 2 -0.005759 0.014953 0.001412 0.000000 0.004780 0.000000
# 3 -0.006344 0.001412 0.014734 0.000000 0.004098 0.000000
# 4 0.000000 0.000000 0.000000 0.088556 0.000000 0.032365
# 5 -0.003089 0.004780 0.004098 0.000000 0.030043 0.000000
# 6 0.000000 0.000000 0.000000 0.032365 0.000000 0.038835
#
#
# Mechanical properties :
#
#
# Convention : Reuss Voigt Hill
#
# Bulk Modulus (GPa) = 43.82087 48.88370 46.35228
# Shear Modulus (GPa) = 21.68023 30.20293 25.94158
#
# Velocity S-wave (km/s) = 3.21164 3.79070 3.51312
# Velocity P-wave (km/s) = 5.88227 6.51277 6.20553
#
# Compressibility (1/GPa) = 0.02282018
#
# Stress axis : x y z
#
# Youngs Moduli (GPa) = 68.89828 66.87436 67.86900
#
# Poissons Ratio (x) = 0.38512 0.43055
# Poissons Ratio (y) = 0.39677 -0.09582
# Poissons Ratio (z) = 0.43708 -0.09442
#
# Static dielectric constant tensor:
#      x y z
#    x 3.929120 0.000000 0.086560 
#    y 0.000000 3.343310 0.000000 
#    z 0.086560 0.000000 3.752760 
# 
# 
# High freq. dielectric constant tensor:
#      x y z
#    x 1.839240 0.000000 0.002420 
#    y 0.000000 1.823650 0.000000 
#    z 0.002420 0.000000 1.824190 
# 
# From -- ./inp_files/47404.got.cif
#   From: 2010.03.12/outbox.cif.g09.slc.cpg/sg14_24_cif.got.tgz:47404.got - 2010.03.31 13:35:05.
