data_PCOD8127141
_publ_section_title
;
Structure prediction by ZEFSAII (Michael W. Deem and Ramdas Pophale) SiO2 
 PCOD8127141
Probable space group: P 21/C
;
_chemical_formula_sum "Si O2"
_cell_formula_units_Z 28
_cell_length_a 11.855938
_cell_length_b 14.930735
_cell_length_c 8.546056
_cell_angle_alpha 90.000000
_cell_angle_beta 123.924883
_cell_angle_gamma 90.000000
_cell_volume 1255.279862
_symmetry_space_group_name_H-M "P 21/C"
_symmetry_group_IT_number 14
_symmetry_cell_setting 'monoclinic'
loop_
_space_group_symop_operation_xyz
x,y,z
-x,1/2+y,1/2-z
-x,-y,-z
x,1/2-y,1/2+z
loop_
_atom_site_type_symbol
_atom_site_label
_atom_site_fract_x
_atom_site_fract_y
_atom_site_fract_z
Si Si1 0.005690 0.795011 0.841156
Si Si2 0.140880 0.449129 0.631178
Si Si3 0.382322 0.009097 0.529919
Si Si4 0.632582 0.689895 0.784677
Si Si5 0.380345 0.821668 0.644008
Si Si6 0.198226 0.753295 0.751389
Si Si7 0.211732 0.169861 0.908727
O O1 0.884105 0.862186 0.781501
O O2 0.937675 0.695330 0.775049
O O3 0.088270 0.820416 0.746459
O O4 0.117108 0.805217 0.063557
O O5 0.202409 0.420033 0.508323
O O6 0.000000 0.500000 0.500000
O O7 0.246650 0.503555 0.819730
O O8 0.394431 0.101330 0.634866
O O9 0.500000 0.000000 0.500000
O O10 0.411083 0.927086 0.670260
O O11 0.502979 0.756700 0.686953
O O12 0.673927 0.660477 0.639170
O O13 0.755234 0.746256 0.952655
O O14 0.328881 0.802047 0.779157
O O15 0.253025 0.811045 0.429273
#
# Coordination Sequence:
#
# PCOD8127141 Si02
#       7
#     4   4   4   4   4   4   4
#     4  11  20  40  66  96 132 181 226 274 347 422
#     4  12  26  43  69 108 144 183 237 299 360 428
#     4  12  26  46  69 103 146 187 239 301 360 424
#     4  12  24  45  76 102 139 195 243 293 357 435
#     4  11  24  44  67 102 139 181 236 295 357 422
#     4  10  22  39  68  95 138 181 224 286 358 417
#     4  12  22  43  70 102 135 186 240 283 350 425
#
# _framework density 22.305783999999999
#
# number of rings (size 3 to 8) (size 9 to 14) (size 15 to 20)
#    0.000    0.571    4.286    4.286    2.000    2.286 
#    0.000    6.429    0.000    0.000    0.000    0.000 
#    0.000    0.000    0.000    0.000    0.000    0.000 
#
# Total GULP energy -346976.547786 kJ/mol
# GULP energy per Si atom -12392.019564 kJ/mol
# Density = 2.225502 g / cm^3
# Si number density = 22.305784 Si / 1000 Ang^3
#
#
#
# Elastic Constant Matrix: (Units=GPa)
#
#
# Indices 1 2 3 4 5 6 
#
# 1 156.1374 38.3515 33.2931 0.0000 -20.6192 0.0000
# 2 38.3515 99.7355 32.3552 0.0000 -3.0383 0.0000
# 3 33.2931 32.3552 75.8113 0.0000 0.1620 0.0000
# 4 0.0000 0.0000 0.0000 32.9578 0.0000 1.6754
# 5 -20.6192 -3.0383 0.1620 0.0000 46.2489 0.0000
# 6 0.0000 0.0000 0.0000 1.6754 0.0000 35.3395
#
#
#
# Elastic Compliance Matrix: (Units=1/GPa)
#
#
# Indices 1 2 3 4 5 6 
#
# 1 0.007923 -0.002103 -0.002589 0.000000 0.003403 0.000000
# 2 -0.002103 0.012224 -0.004293 0.000000 -0.000119 0.000000
# 3 -0.002589 -0.004293 0.016163 0.000000 -0.001493 0.000000
# 4 0.000000 0.000000 0.000000 0.030415 0.000000 -0.001442
# 5 0.003403 -0.000119 -0.001493 0.000000 0.023137 0.000000
# 6 0.000000 0.000000 0.000000 -0.001442 0.000000 0.028365
#
#
# Mechanical properties :
#
#
# Convention : Reuss Voigt Hill
#
# Bulk Modulus (GPa) = 54.52738 59.96485 57.24612
# Shear Modulus (GPa) = 35.13428 38.08821 36.61125
#
# Velocity S-wave (km/s) = 3.97308 4.13673 4.05573
# Velocity P-wave (km/s) = 6.74875 7.05395 6.90304
#
# Compressibility (1/GPa) = 0.01833941
#
# Stress axis : x y z
#
# Youngs Moduli (GPa) = 126.22099 81.80393 61.86891
#
# Poissons Ratio (x) = 0.17203 0.16018
# Poissons Ratio (y) = 0.26543 0.26563
# Poissons Ratio (z) = 0.32679 0.35122
#
# Static dielectric constant tensor:
#      x y z
#    x 4.314680 0.000000 -0.104600 
#    y 0.000000 3.524240 0.000000 
#    z -0.104600 0.000000 4.332710 
# 
# 
# High freq. dielectric constant tensor:
#      x y z
#    x 1.901100 0.000000 0.002590 
#    y 0.000000 1.847230 0.000000 
#    z 0.002590 0.000000 1.889750 
# 
# From -- ./inp_files/13427.got.cif
#   From: 2010.03.12/outbox.cif.g09.slc.cpg/sg14_7_cif.got.tgz:13427.got - 2010.03.31 13:35:05.
