data_PCOD8127232
_publ_section_title
;
Structure prediction by ZEFSAII (Michael W. Deem and Ramdas Pophale) SiO2 
 PCOD8127232
Probable space group: P 21/C
;
_chemical_formula_sum "Si O2"
_cell_formula_units_Z 20
_cell_length_a 26.716160
_cell_length_b 5.070219
_cell_length_c 18.739124
_cell_angle_alpha 90.000000
_cell_angle_beta 17.437704
_cell_angle_gamma 90.000000
_cell_volume 760.661412
_symmetry_space_group_name_H-M "P 21/C"
_symmetry_group_IT_number 14
_symmetry_cell_setting 'monoclinic'
loop_
_space_group_symop_operation_xyz
x,y,z
-x,1/2+y,1/2-z
-x,-y,-z
x,1/2-y,1/2+z
loop_
_atom_site_type_symbol
_atom_site_label
_atom_site_fract_x
_atom_site_fract_y
_atom_site_fract_z
Si Si1 0.183022 0.550978 0.051833
Si Si2 0.405923 0.889835 0.899568
Si Si3 0.133439 0.258338 0.255986
Si Si4 0.769808 0.398719 0.746899
Si Si5 0.788481 0.948491 0.067973
O O1 0.217593 0.473088 0.087539
O O2 0.986256 0.547520 0.308298
O O3 0.263580 0.828638 0.919222
O O4 0.269832 0.331039 0.883333
O O5 0.494422 0.670016 0.729475
O O6 0.380967 0.767442 0.012664
O O7 0.220320 0.972920 0.123308
O O8 0.174490 0.353977 0.280104
O O9 0.936293 0.216056 0.510886
O O10 0.703733 0.498911 0.760302
#
# Coordination Sequence:
#
# PCOD8127232 Si02
#       5
#     4   4   4   4   4
#     4   9  19  34  56  89 127 159 192 248 316 368
#     4  12  25  42  61  90 128 168 206 260 317 370
#     4  10  22  40  67  98 125 159 213 265 306 363
#     4  10  22  40  67  98 125 159 213 265 306 363
#     4   9  19  34  56  89 127 159 192 248 316 368
#
# _framework density 26.292905999999999
#
# number of rings (size 3 to 8) (size 9 to 14) (size 15 to 20)
#    0.000    2.000    2.000    0.600    5.600    0.000 
#    0.000    0.000    0.000    7.200    0.000    0.000 
#    0.000    0.000    0.000    0.000    0.000    0.000 
#
# Total GULP energy -247925.914726 kJ/mol
# GULP energy per Si atom -12396.295736 kJ/mol
# Density = 2.623306 g / cm^3
# Si number density = 26.292906 Si / 1000 Ang^3
#
#
#
# Elastic Constant Matrix: (Units=GPa)
#
#
# Indices 1 2 3 4 5 6 
#
# 1 66.1861 -9.0081 7.4904 0.0000 33.9323 0.0000
# 2 -9.0081 93.1473 9.8583 0.0000 0.0829 0.0000
# 3 7.4904 9.8583 70.4977 0.0000 16.4082 0.0000
# 4 0.0000 0.0000 0.0000 35.9002 0.0000 2.4429
# 5 33.9323 0.0829 16.4082 0.0000 33.7004 0.0000
# 6 0.0000 0.0000 0.0000 2.4429 0.0000 29.1255
#
#
#
# Elastic Compliance Matrix: (Units=1/GPa)
#
#
# Indices 1 2 3 4 5 6 
#
# 1 0.033253 0.002785 0.004367 0.000000 -0.035614 0.000000
# 2 0.002785 0.011150 -0.001349 0.000000 -0.002175 0.000000
# 3 0.004367 -0.001349 0.016840 0.000000 -0.012593 0.000000
# 4 0.000000 0.000000 0.000000 0.028015 0.000000 -0.002350
# 5 -0.035614 -0.002175 -0.012593 0.000000 0.071669 0.000000
# 6 0.000000 0.000000 0.000000 -0.002350 0.000000 0.034531
#
#
# Mechanical properties :
#
#
# Convention : Reuss Voigt Hill
#
# Bulk Modulus (GPa) = 13.72702 27.39024 20.55863
# Shear Modulus (GPa) = 24.02289 34.51125 29.26707
#
# Velocity S-wave (km/s) = 3.02597 3.62687 3.33996
# Velocity P-wave (km/s) = 4.17622 5.28951 4.76548
#
# Compressibility (1/GPa) = 0.07284904
#
# Stress axis : x y z
#
# Youngs Moduli (GPa) = 30.07286 89.68818 59.38081
#
# Poissons Ratio (x) = -0.24982 -0.25929
# Poissons Ratio (y) = -0.08376 0.08009
# Poissons Ratio (z) = -0.13132 0.12097
#
# Static dielectric constant tensor:
#      x y z
#    x 4.571380 0.000000 0.316950 
#    y 0.000000 4.843420 0.000000 
#    z 0.316950 0.000000 4.876790 
# 
# 
# High freq. dielectric constant tensor:
#      x y z
#    x 2.031620 0.000000 0.018680 
#    y 0.000000 2.058100 0.000000 
#    z 0.018680 0.000000 2.041210 
# 
# From -- ./inp_files/56642.got.cif
#   From: 2010.03.12/outbox.cif.g09.slc.cpg/sg14_29_cif.got.tgz:56642.got - 2010.03.31 13:35:05.
