data_PCOD8127844
_publ_section_title
;
Structure prediction by ZEFSAII (Michael W. Deem and Ramdas Pophale) SiO2 
 PCOD8127844
Probable space group: P 21/C
;
_chemical_formula_sum "Si O2"
_cell_formula_units_Z 32
_cell_length_a 8.469747
_cell_length_b 30.880586
_cell_length_c 5.233380
_cell_angle_alpha 90.000000
_cell_angle_beta 93.121195
_cell_angle_gamma 90.000000
_cell_volume 1366.763994
_symmetry_space_group_name_H-M "P 21/C"
_symmetry_group_IT_number 14
_symmetry_cell_setting 'monoclinic'
loop_
_space_group_symop_operation_xyz
x,y,z
-x,1/2+y,1/2-z
-x,-y,-z
x,1/2-y,1/2+z
loop_
_atom_site_type_symbol
_atom_site_label
_atom_site_fract_x
_atom_site_fract_y
_atom_site_fract_z
Si Si1 0.831382 0.275579 0.096395
Si Si2 0.796662 0.725797 0.831502
Si Si3 0.249855 0.056626 0.594045
Si Si4 0.884180 0.447974 0.104544
Si Si5 0.532869 0.923304 0.797290
Si Si6 0.312636 0.632166 0.921295
Si Si7 0.273416 0.981933 0.924333
Si Si8 0.372130 0.138317 0.805551
O O1 0.776818 0.257306 0.367149
O O2 0.756270 0.321209 0.009677
O O3 0.017859 0.282414 0.142043
O O4 0.745941 0.761861 0.615395
O O5 0.707624 0.684410 0.714768
O O6 0.364627 0.042523 0.367864
O O7 0.287045 0.108047 0.588862
O O8 0.065331 0.048853 0.535157
O O9 0.303137 0.033465 0.868223
O O10 0.833755 0.398789 0.172232
O O11 0.850603 0.476192 0.356671
O O12 0.790160 0.468274 0.862003
O O13 0.402834 0.892803 0.651482
O O14 0.433006 0.954225 0.985457
O O15 0.652579 0.888457 0.935717
O O16 0.437894 0.641163 0.707208
#
# Coordination Sequence:
#
# PCOD8127844 Si02
#       8
#     4   4   4   4   4   4   4   4
#     4  10  23  42  67  96 125 162 212 265 328 388
#     4  10  24  45  67  96 129 165 210 269 324 387
#     4  11  25  40  67  98 129 177 224 274 332 387
#     4  11  24  43  66  96 130 174 224 278 325 388
#     4  10  24  43  62  96 134 178 221 267 327 393
#     4  10  23  43  62  93 131 171 213 269 324 389
#     4  11  24  44  66  94 135 175 222 279 326 388
#     4  11  24  42  66  94 133 173 217 263 329 393
#
# _framework density 23.412966999999998
#
# number of rings (size 3 to 8) (size 9 to 14) (size 15 to 20)
#    0.000    1.500    1.250    1.875    8.750    1.500 
#    2.250    0.000    0.000    0.000    0.000    0.000 
#    0.000    0.000    0.000    0.000    0.000    0.000 
#
# Total GULP energy -396485.502396 kJ/mol
# GULP energy per Si atom -12390.171950 kJ/mol
# Density = 2.335968 g / cm^3
# Si number density = 23.412967 Si / 1000 Ang^3
#
#
#
# Elastic Constant Matrix: (Units=GPa)
#
#
# Indices 1 2 3 4 5 6 
#
# 1 88.4100 38.9291 24.6978 0.0000 -3.6228 0.0000
# 2 38.9291 120.6470 4.9511 0.0000 -0.4011 0.0000
# 3 24.6978 4.9511 91.3096 0.0000 -12.7018 0.0000
# 4 0.0000 0.0000 0.0000 27.7581 0.0000 2.3540
# 5 -3.6228 -0.4011 -12.7018 0.0000 27.2411 0.0000
# 6 0.0000 0.0000 0.0000 2.3540 0.0000 40.0597
#
#
#
# Elastic Compliance Matrix: (Units=1/GPa)
#
#
# Indices 1 2 3 4 5 6 
#
# 1 0.014288 -0.004462 -0.003601 0.000000 0.000155 0.000000
# 2 -0.004462 0.009701 0.000661 0.000000 -0.000142 0.000000
# 3 -0.003601 0.000661 0.012645 0.000000 0.005427 0.000000
# 4 0.000000 0.000000 0.000000 0.036206 0.000000 -0.002128
# 5 0.000155 -0.000142 0.005427 0.000000 0.039258 0.000000
# 6 0.000000 0.000000 0.000000 -0.002128 0.000000 0.025088
#
#
# Mechanical properties :
#
#
# Convention : Reuss Voigt Hill
#
# Bulk Modulus (GPa) = 45.80937 48.61362 47.21150
# Shear Modulus (GPa) = 31.39399 34.46435 32.92917
#
# Velocity S-wave (km/s) = 3.66578 3.84085 3.75434
# Velocity P-wave (km/s) = 6.12581 6.36224 6.24514
#
# Compressibility (1/GPa) = 0.02182959
#
# Stress axis : x y z
#
# Youngs Moduli (GPa) = 69.98859 103.08429 79.08357
#
# Poissons Ratio (x) = 0.45996 0.28479
# Poissons Ratio (y) = 0.31229 -0.05228
# Poissons Ratio (z) = 0.25204 -0.06815
#
# Static dielectric constant tensor:
#      x y z
#    x 4.164410 0.000000 -0.024240 
#    y 0.000000 4.342120 0.000000 
#    z -0.024240 0.000000 4.332830 
# 
# 
# High freq. dielectric constant tensor:
#      x y z
#    x 1.926350 0.000000 0.004020 
#    y 0.000000 1.934060 0.000000 
#    z 0.004020 0.000000 1.930390 
# 
# From -- ./inp_files/2229.got.cif
#   From: 2010.03.12/outbox.cif.g09.slc.cpg/sg14_2_cif.got.tgz:2229.got - 2010.03.31 13:35:05.
