data_PCOD8127840
_publ_section_title
;
Structure prediction by ZEFSAII (Michael W. Deem and Ramdas Pophale) SiO2 
 PCOD8127840
Probable space group: P 21/C
;
_chemical_formula_sum "Si O2"
_cell_formula_units_Z 28
_cell_length_a 21.486526
_cell_length_b 4.901863
_cell_length_c 21.002166
_cell_angle_alpha 90.000000
_cell_angle_beta 154.011721
_cell_angle_gamma 90.000000
_cell_volume 969.284386
_symmetry_space_group_name_H-M "P 21/C"
_symmetry_group_IT_number 14
_symmetry_cell_setting 'monoclinic'
loop_
_space_group_symop_operation_xyz
x,y,z
-x,1/2+y,1/2-z
-x,-y,-z
x,1/2-y,1/2+z
loop_
_atom_site_type_symbol
_atom_site_label
_atom_site_fract_x
_atom_site_fract_y
_atom_site_fract_z
Si Si1 0.677441 0.067688 0.268861
Si Si2 0.734161 0.824984 0.715703
Si Si3 0.505792 0.525368 0.844619
Si Si4 0.712482 0.781912 0.431054
Si Si5 0.043036 0.844982 0.968316
Si Si6 0.305497 0.821207 0.905079
Si Si7 0.997173 0.837587 0.650252
O O1 0.703450 0.007258 0.367150
O O2 0.811292 0.244003 0.363497
O O3 0.654473 0.794183 0.205127
O O4 0.539610 0.265306 0.140906
O O5 0.681061 0.122002 0.644335
O O6 0.698709 0.628131 0.623444
O O7 0.905038 0.831130 0.888256
O O8 0.371376 0.481827 0.673822
O O9 0.639998 0.643980 0.930456
O O10 0.560029 0.236407 0.924709
O O11 0.883846 0.755377 0.602505
O O12 0.063047 0.155202 0.963771
O O13 0.010704 0.652910 0.877528
O O14 0.161489 0.756628 0.813900
#
# Coordination Sequence:
#
# PCOD8127840 Si02
#       7
#     4   4   4   4   4   4   4
#     4  11  23  39  67  97 131 178 218 278 330 394
#     4  10  23  42  66  98 137 172 221 269 336 401
#     4  12  25  43  67  94 137 174 224 279 330 397
#     4  11  24  44  65  97 127 177 228 277 326 392
#     4   9  18  37  64  97 127 168 217 271 319 385
#     4  10  25  44  66  99 134 175 213 276 335 402
#     4   9  19  41  66  90 129 166 218 265 326 389
#
# _framework density 28.88729
#
# number of rings (size 3 to 8) (size 9 to 14) (size 15 to 20)
#    0.000    1.714    2.857    0.429    4.000    1.143 
#    0.000   14.286    0.000    0.000    0.000    0.000 
#    0.000    0.000    0.000    0.000    0.000    0.000 
#
# Total GULP energy -347058.524293 kJ/mol
# GULP energy per Si atom -12394.947296 kJ/mol
# Density = 2.882154 g / cm^3
# Si number density = 28.887290 Si / 1000 Ang^3
#
#
#
# Elastic Constant Matrix: (Units=GPa)
#
#
# Indices 1 2 3 4 5 6 
#
# 1 84.3280 -14.8964 23.0260 0.0000 34.4152 0.0000
# 2 -14.8964 47.4207 -12.5598 0.0000 4.4359 0.0000
# 3 23.0260 -12.5598 90.1970 0.0000 18.9106 0.0000
# 4 0.0000 0.0000 0.0000 35.3174 0.0000 9.4876
# 5 34.4152 4.4359 18.9106 0.0000 38.8011 0.0000
# 6 0.0000 0.0000 0.0000 9.4876 0.0000 33.2696
#
#
#
# Elastic Compliance Matrix: (Units=1/GPa)
#
#
# Indices 1 2 3 4 5 6 
#
# 1 0.021625 0.008650 -0.000097 0.000000 -0.020122 0.000000
# 2 0.008650 0.026065 0.004071 0.000000 -0.012636 0.000000
# 3 -0.000097 0.004071 0.013096 0.000000 -0.006762 0.000000
# 4 0.000000 0.000000 0.000000 0.030664 0.000000 -0.008744
# 5 -0.020122 -0.012636 -0.006762 0.000000 0.048360 0.000000
# 6 0.000000 0.000000 0.000000 -0.008744 0.000000 0.032551
#
#
# Mechanical properties :
#
#
# Convention : Reuss Voigt Hill
#
# Bulk Modulus (GPa) = 11.62358 23.67614 17.64986
# Shear Modulus (GPa) = 28.44256 36.56934 32.50595
#
# Velocity S-wave (km/s) = 3.14125 3.56185 3.35814
# Velocity P-wave (km/s) = 4.14597 5.01294 4.59993
#
# Compressibility (1/GPa) = 0.08603201
#
# Stress axis : x y z
#
# Youngs Moduli (GPa) = 46.24272 38.36554 76.35811
#
# Poissons Ratio (x) = -0.33185 0.00743
# Poissons Ratio (y) = -0.39998 -0.31082
# Poissons Ratio (z) = 0.00450 -0.15617
#
# Static dielectric constant tensor:
#      x y z
#    x 4.935810 0.000000 0.763620 
#    y 0.000000 5.272820 0.000000 
#    z 0.763620 0.000000 5.500160 
# 
# 
# High freq. dielectric constant tensor:
#      x y z
#    x 2.154210 0.000000 0.038310 
#    y 0.000000 2.181780 0.000000 
#    z 0.038310 0.000000 2.176480 
# 
# From -- ./inp_files/74505.got.cif
#   From: 2010.03.12/outbox.cif.g09.slc.cpg/sg14_38_cif.got.tgz:74505.got - 2010.03.31 13:35:05.
