data_PCOD8127293
_publ_section_title
;
Structure prediction by ZEFSAII (Michael W. Deem and Ramdas Pophale) SiO2 
 PCOD8127293
Probable space group: P 21/C
;
_chemical_formula_sum "Si O2"
_cell_formula_units_Z 28
_cell_length_a 5.166003
_cell_length_b 14.165989
_cell_length_c 18.538538
_cell_angle_alpha 90.000000
_cell_angle_beta 100.945570
_cell_angle_gamma 90.000000
_cell_volume 1331.998098
_symmetry_space_group_name_H-M "P 21/C"
_symmetry_group_IT_number 14
_symmetry_cell_setting 'monoclinic'
loop_
_space_group_symop_operation_xyz
x,y,z
-x,1/2+y,1/2-z
-x,-y,-z
x,1/2-y,1/2+z
loop_
_atom_site_type_symbol
_atom_site_label
_atom_site_fract_x
_atom_site_fract_y
_atom_site_fract_z
Si Si1 0.002471 0.246701 0.433048
Si Si2 0.468784 0.179907 0.357618
Si Si3 0.115603 0.307558 0.595325
Si Si4 0.308588 0.178692 0.733727
Si Si5 0.370438 0.918796 0.868670
Si Si6 0.569641 0.514165 0.242211
Si Si7 0.026680 0.081199 0.841897
O O1 0.760253 0.175127 0.407139
O O2 0.923028 0.351459 0.400214
O O3 0.264045 0.211948 0.407131
O O4 0.055868 0.249616 0.520366
O O5 0.487052 0.252562 0.291765
O O6 0.375561 0.076198 0.325838
O O7 0.213422 0.233214 0.658980
O O8 0.339638 0.386276 0.589374
O O9 0.843976 0.348451 0.610922
O O10 0.071553 0.143224 0.772126
O O11 0.470754 0.088735 0.713627
O O12 0.364363 0.924529 0.780225
O O13 0.290866 0.027315 0.885878
O O14 0.820989 0.500952 0.308727
#
# Coordination Sequence:
#
# PCOD8127293 Si02
#       7
#     4   4   4   4   4   4   4
#     4  11  26  43  63  95 139 173 208 264 337 385
#     4  11  23  43  67  90 131 172 217 269 317 387
#     4  12  25  43  64  98 135 176 209 264 329 394
#     4  10  23  38  70  94 128 168 224 265 318 382
#     4  11  23  39  66  96 128 164 218 269 326 376
#     4  11  22  41  69 100 122 167 229 274 314 373
#     4  10  22  41  65 100 125 167 221 276 321 381
#
# _framework density 21.021049999999999
#
# number of rings (size 3 to 8) (size 9 to 14) (size 15 to 20)
#    0.000    1.143    4.286    0.857   10.000    1.143 
#    0.000    1.429    0.000    0.000    0.000    0.000 
#    0.000    0.000    0.000    0.000    0.000    0.000 
#
# Total GULP energy -347054.220559 kJ/mol
# GULP energy per Si atom -12394.793591 kJ/mol
# Density = 2.097320 g / cm^3
# Si number density = 21.021050 Si / 1000 Ang^3
#
#
#
# Elastic Constant Matrix: (Units=GPa)
#
#
# Indices 1 2 3 4 5 6 
#
# 1 94.6192 18.7616 23.7062 0.0000 2.3592 0.0000
# 2 18.7616 39.6356 11.2088 0.0000 -13.2409 0.0000
# 3 23.7062 11.2088 101.3543 0.0000 -4.9130 0.0000
# 4 0.0000 0.0000 0.0000 -3.3008 0.0000 -2.2141
# 5 2.3592 -13.2409 -4.9130 0.0000 22.9978 0.0000
# 6 0.0000 0.0000 0.0000 -2.2141 0.0000 26.1052
#
#
#
# Elastic Compliance Matrix: (Units=1/GPa)
#
#
# Indices 1 2 3 4 5 6 
#
# 1 0.012808 -0.007403 -0.002473 0.000000 -0.006104 0.000000
# 2 -0.007403 0.036215 -0.001239 0.000000 0.021345 0.000000
# 3 -0.002473 -0.001239 0.010670 0.000000 0.001820 0.000000
# 4 0.000000 0.000000 0.000000 -0.286651 0.000000 -0.024312
# 5 -0.006104 0.021345 0.001820 0.000000 0.056787 0.000000
# 6 0.000000 0.000000 0.000000 -0.024312 0.000000 0.036245
#
#
# Mechanical properties :
#
#
# Convention : Reuss Voigt Hill
#
# Bulk Modulus (GPa) = 26.69224 38.10694 32.39959
# Shear Modulus (GPa) = -50.39852 21.28929 -14.55462
#
# Velocity S-wave (km/s) = -4.90177 3.18584 -2.63417
# Velocity P-wave (km/s) = 4.39443 5.63029 2.48889
#
# Compressibility (1/GPa) = 0.03746407
#
# Stress axis : x y z
#
# Youngs Moduli (GPa) = 78.07419 27.61287 93.72047
#
# Poissons Ratio (x) = 0.20441 0.23177
# Poissons Ratio (y) = 0.57796 0.11611
# Poissons Ratio (z) = 0.19308 0.03421
#
# Static dielectric constant tensor:
#      x y z
#    x 4.096040 0.000000 -0.015490 
#    y 0.000000 3.864130 0.000000 
#    z -0.015490 0.000000 3.537620 
# 
# 
# High freq. dielectric constant tensor:
#      x y z
#    x 1.833710 0.000000 -0.004420 
#    y 0.000000 1.820560 0.000000 
#    z -0.004420 0.000000 1.796600 
# 
# From -- ./inp_files/53330.got.cif
#   From: 2010.03.12/outbox.cif.g09.slc.cpg/sg14_27_cif.got.tgz:53330.got - 2010.03.31 13:35:05.
