data_PCOD8127479
_publ_section_title
;
Structure prediction by ZEFSAII (Michael W. Deem and Ramdas Pophale) SiO2 
 PCOD8127479
Probable space group: P 21/C
;
_chemical_formula_sum "Si O2"
_cell_formula_units_Z 24
_cell_length_a 14.489377
_cell_length_b 11.036897
_cell_length_c 14.648460
_cell_angle_alpha 90.000000
_cell_angle_beta 27.997111
_cell_angle_gamma 90.000000
_cell_volume 1099.655816
_symmetry_space_group_name_H-M "P 21/C"
_symmetry_group_IT_number 14
_symmetry_cell_setting 'monoclinic'
loop_
_space_group_symop_operation_xyz
x,y,z
-x,1/2+y,1/2-z
-x,-y,-z
x,1/2-y,1/2+z
loop_
_atom_site_type_symbol
_atom_site_label
_atom_site_fract_x
_atom_site_fract_y
_atom_site_fract_z
Si Si1 0.794645 0.249082 0.100825
Si Si2 0.052925 0.379915 0.506835
Si Si3 0.585823 0.005924 0.247278
Si Si4 0.229103 0.514698 0.786366
Si Si5 0.230024 0.841492 0.578058
Si Si6 0.416981 0.904246 0.948507
O O1 0.995224 0.226403 0.985482
O O2 0.687217 0.361762 0.241519
O O3 0.851366 0.291157 0.948331
O O4 0.645431 0.134553 0.242307
O O5 0.000000 0.500000 0.500000
O O6 0.283306 0.393090 0.330005
O O7 0.944026 0.366792 0.699367
O O8 0.358667 0.965855 0.458659
O O9 0.631759 0.029307 0.102395
O O10 0.350990 0.408382 0.729447
O O11 0.280492 0.517994 0.635351
O O12 0.000000 0.500000 0.000000
O O13 0.367516 0.736571 0.496945
#
# Coordination Sequence:
#
# PCOD8127479 Si02
#       6
#     4   4   4   4   4   4
#     4  10  22  43  62  98 132 163 225 267 320 407
#     4  10  23  43  64  97 130 171 226 271 325 396
#     4  10  23  41  67  95 130 175 218 270 334 388
#     4  11  23  41  65  92 135 172 217 269 338 389
#     4  11  22  42  68  93 137 169 218 278 329 394
#     4  10  23  41  63  98 130 174 221 272 325 406
#
# _framework density 21.825009999999999
#
# number of rings (size 3 to 8) (size 9 to 14) (size 15 to 20)
#    0.000    1.667    3.333    0.000    4.667    2.667 
#    0.000   11.667    0.000    0.000    0.000    0.000 
#    0.000    0.000    0.000    0.000    0.000    0.000 
#
# Total GULP energy -297341.858214 kJ/mol
# GULP energy per Si atom -12389.244092 kJ/mol
# Density = 2.177533 g / cm^3
# Si number density = 21.825010 Si / 1000 Ang^3
#
#
#
# Elastic Constant Matrix: (Units=GPa)
#
#
# Indices 1 2 3 4 5 6 
#
# 1 74.9498 16.9068 31.6352 0.0000 7.0333 0.0000
# 2 16.9068 65.6475 11.0104 0.0000 -0.3137 0.0000
# 3 31.6352 11.0104 80.8364 0.0000 -10.0326 0.0000
# 4 0.0000 0.0000 0.0000 26.4260 0.0000 4.7308
# 5 7.0333 -0.3137 -10.0326 0.0000 26.9506 0.0000
# 6 0.0000 0.0000 0.0000 4.7308 0.0000 35.4549
#
#
#
# Elastic Compliance Matrix: (Units=1/GPa)
#
#
# Indices 1 2 3 4 5 6 
#
# 1 0.017987 -0.003409 -0.007510 0.000000 -0.007529 0.000000
# 2 -0.003409 0.016246 -0.000781 0.000000 0.000788 0.000000
# 3 -0.007510 -0.000781 0.016416 0.000000 0.008062 0.000000
# 4 0.000000 0.000000 0.000000 0.038768 0.000000 -0.005173
# 5 -0.007529 0.000788 0.008062 0.000000 0.042080 0.000000
# 6 0.000000 0.000000 0.000000 -0.005173 0.000000 0.028895
#
#
# Mechanical properties :
#
#
# Convention : Reuss Voigt Hill
#
# Bulk Modulus (GPa) = 36.69621 37.83762 37.26692
# Shear Modulus (GPa) = 25.92359 28.55838 27.24099
#
# Velocity S-wave (km/s) = 3.45018 3.62127 3.53676
# Velocity P-wave (km/s) = 5.72031 5.90417 5.81297
#
# Compressibility (1/GPa) = 0.02725077
#
# Stress axis : x y z
#
# Youngs Moduli (GPa) = 55.59425 61.55531 60.91461
#
# Poissons Ratio (x) = 0.20984 0.45744
# Poissons Ratio (y) = 0.18952 0.04756
# Poissons Ratio (z) = 0.41749 0.04806
#
# Static dielectric constant tensor:
#      x y z
#    x 4.522550 0.000000 -0.015960 
#    y 0.000000 4.311730 0.000000 
#    z -0.015960 0.000000 3.667230 
# 
# 
# High freq. dielectric constant tensor:
#      x y z
#    x 1.878640 0.000000 0.009160 
#    y 0.000000 1.862670 0.000000 
#    z 0.009160 0.000000 1.829380 
# 
# From -- ./inp_files/47044.got.cif
#   From: 2010.03.12/outbox.cif.g09.slc.cpg/sg14_24_cif.got.tgz:47044.got - 2010.03.31 13:35:05.
