data_PCOD8127102
_publ_section_title
;
Structure prediction by ZEFSAII (Michael W. Deem and Ramdas Pophale) SiO2 
 PCOD8127102
Probable space group: P 21/C
;
_chemical_formula_sum "Si O2"
_cell_formula_units_Z 32
_cell_length_a 9.257960
_cell_length_b 19.334445
_cell_length_c 9.803434
_cell_angle_alpha 90.000000
_cell_angle_beta 63.401319
_cell_angle_gamma 90.000000
_cell_volume 1569.071321
_symmetry_space_group_name_H-M "P 21/C"
_symmetry_group_IT_number 14
_symmetry_cell_setting 'monoclinic'
loop_
_space_group_symop_operation_xyz
x,y,z
-x,1/2+y,1/2-z
-x,-y,-z
x,1/2-y,1/2+z
loop_
_atom_site_type_symbol
_atom_site_label
_atom_site_fract_x
_atom_site_fract_y
_atom_site_fract_z
Si Si1 0.580523 0.395311 0.609212
Si Si2 0.231585 0.315032 0.444414
Si Si3 0.744353 0.681980 0.254273
Si Si4 0.910444 0.927675 0.513057
Si Si5 0.906322 0.183843 0.988105
Si Si6 0.874111 0.188620 0.695982
Si Si7 0.563900 0.110230 0.811130
Si Si8 0.579921 0.510839 0.110389
O O1 0.444279 0.336952 0.674785
O O2 0.752915 0.364136 0.579619
O O3 0.579919 0.425541 0.454450
O O4 0.547366 0.454913 0.731997
O O5 0.236095 0.243939 0.359099
O O6 0.214910 0.294368 0.609981
O O7 0.383828 0.364276 0.354055
O O8 0.072151 0.356647 0.458279
O O9 0.861758 0.616602 0.168823
O O10 0.023453 0.881430 0.369663
O O11 0.739267 0.944053 0.513613
O O12 0.000000 0.000000 0.500000
O O13 0.918047 0.251399 0.075768
O O14 0.909893 0.212982 0.833807
O O15 0.683230 0.175491 0.759804
O O16 0.626219 0.060779 0.664149
O O17 0.500000 0.500000 0.000000
#
# Coordination Sequence:
#
# PCOD8127102 Si02
#       8
#     4   4   4   4   4   4   4   4
#     4   9  22  42  60  86 125 166 202 249 310 369
#     4  11  22  37  62  93 124 155 205 254 311 361
#     4  10  22  39  63  91 122 165 199 255 309 365
#     4  11  23  42  65  89 125 166 210 248 311 368
#     4  11  23  38  63  93 126 154 206 257 309 367
#     4  11  23  41  65  92 123 165 202 259 312 367
#     4  10  22  41  62  87 124 168 204 250 312 372
#     4  11  24  39  63  91 125 165 210 257 300 370
#
# _framework density 20.39423
#
# number of rings (size 3 to 8) (size 9 to 14) (size 15 to 20)
#    0.000    1.500    2.500    1.875    1.750    3.000 
#    0.000    0.625    0.000    0.000    0.000    0.000 
#    0.000    0.000    0.000    0.000    0.000    0.000 
#
# Total GULP energy -396711.071762 kJ/mol
# GULP energy per Si atom -12397.220993 kJ/mol
# Density = 2.034781 g / cm^3
# Si number density = 20.394230 Si / 1000 Ang^3
#
#
#
# Elastic Constant Matrix: (Units=GPa)
#
#
# Indices 1 2 3 4 5 6 
#
# 1 144.8941 25.1239 43.1821 0.0000 2.9641 0.0000
# 2 25.1239 51.2528 24.1551 0.0000 11.0051 0.0000
# 3 43.1821 24.1551 109.6281 0.0000 18.6583 0.0000
# 4 0.0000 0.0000 0.0000 19.4333 0.0000 -0.4513
# 5 2.9641 11.0051 18.6583 0.0000 36.9077 0.0000
# 6 0.0000 0.0000 0.0000 -0.4513 0.0000 23.9568
#
#
#
# Elastic Compliance Matrix: (Units=1/GPa)
#
#
# Indices 1 2 3 4 5 6 
#
# 1 0.008251 -0.003059 -0.002865 0.000000 0.001698 0.000000
# 2 -0.003059 0.023595 -0.003106 0.000000 -0.005220 0.000000
# 3 -0.002865 -0.003106 0.011749 0.000000 -0.004783 0.000000
# 4 0.000000 0.000000 0.000000 0.051481 0.000000 0.000970
# 5 0.001698 -0.005220 -0.004783 0.000000 0.030933 0.000000
# 6 0.000000 0.000000 0.000000 0.000970 0.000000 0.041760
#
#
# Mechanical properties :
#
#
# Convention : Reuss Voigt Hill
#
# Bulk Modulus (GPa) = 39.16079 54.52189 46.84134
# Shear Modulus (GPa) = 25.72820 30.28050 28.00435
#
# Velocity S-wave (km/s) = 3.55567 3.85744 3.70962
# Velocity P-wave (km/s) = 6.00838 6.82875 6.43166
#
# Compressibility (1/GPa) = 0.02553575
#
# Stress axis : x y z
#
# Youngs Moduli (GPa) = 121.19556 42.38171 85.11620
#
# Poissons Ratio (x) = 0.12964 0.24386
# Poissons Ratio (y) = 0.37073 0.26433
# Poissons Ratio (z) = 0.34723 0.13162
#
# Static dielectric constant tensor:
#      x y z
#    x 4.087700 0.000000 -0.242440 
#    y 0.000000 3.473450 0.000000 
#    z -0.242440 0.000000 3.860680 
# 
# 
# High freq. dielectric constant tensor:
#      x y z
#    x 1.817410 0.000000 -0.012610 
#    y 0.000000 1.777720 0.000000 
#    z -0.012610 0.000000 1.805880 
# 
# From -- ./inp_files/10218.got.cif
#   From: 2010.03.12/outbox.cif.g09.slc.cpg/sg14_6_cif.got.tgz:10218.got - 2010.03.31 13:35:05.
