data_PCOD8127727
_publ_section_title
;
Structure prediction by ZEFSAII (Michael W. Deem and Ramdas Pophale) SiO2 
 PCOD8127727
Probable space group: P 21/C
;
_chemical_formula_sum "Si O2"
_cell_formula_units_Z 20
_cell_length_a 14.130707
_cell_length_b 12.590214
_cell_length_c 5.262852
_cell_angle_alpha 90.000000
_cell_angle_beta 121.404382
_cell_angle_gamma 90.000000
_cell_volume 799.148073
_symmetry_space_group_name_H-M "P 21/C"
_symmetry_group_IT_number 14
_symmetry_cell_setting 'monoclinic'
loop_
_space_group_symop_operation_xyz
x,y,z
-x,1/2+y,1/2-z
-x,-y,-z
x,1/2-y,1/2+z
loop_
_atom_site_type_symbol
_atom_site_label
_atom_site_fract_x
_atom_site_fract_y
_atom_site_fract_z
Si Si1 0.193757 0.978916 0.027558
Si Si2 0.035010 0.695755 0.410868
Si Si3 0.203644 0.217095 0.953942
Si Si4 0.459159 0.319936 0.504658
Si Si5 0.669251 0.462284 0.764672
O O1 0.273142 0.970040 0.380574
O O2 0.160280 0.099496 0.921211
O O3 0.076034 0.923584 0.919032
O O4 0.249511 0.930018 0.853479
O O5 0.083761 0.733395 0.748583
O O6 0.900983 0.702441 0.225372
O O7 0.274427 0.260770 0.294438
O O8 0.440598 0.267280 0.756942
O O9 0.582777 0.366371 0.658600
O O10 0.379591 0.422684 0.372419
#
# Coordination Sequence:
#
# PCOD8127727 Si02
#       5
#     4   4   4   4   4
#     4  12  24  41  65  94 133 166 217 275 301 378
#     4  10  23  40  61  89 123 169 218 263 323 369
#     4  10  23  40  61  89 123 169 218 263 323 369
#     4  11  24  45  70  94 134 169 200 263 328 388
#     4  11  26  42  65 102 127 166 217 256 325 385
#
# _framework density 25.026648999999999
#
# number of rings (size 3 to 8) (size 9 to 14) (size 15 to 20)
#    0.000    1.200    0.000    4.800    0.000   19.200 
#    0.000    0.000    0.000    0.000    0.000    0.000 
#    0.000    0.000    0.000    0.000    0.000    0.000 
#
# Total GULP energy -247963.564687 kJ/mol
# GULP energy per Si atom -12398.178234 kJ/mol
# Density = 2.496969 g / cm^3
# Si number density = 25.026649 Si / 1000 Ang^3
#
#
#
# Elastic Constant Matrix: (Units=GPa)
#
#
# Indices 1 2 3 4 5 6 
#
# 1 106.9139 37.1595 63.6044 0.0000 -28.0958 0.0000
# 2 37.1595 88.4415 36.0400 0.0000 -13.4129 0.0000
# 3 63.6044 36.0400 129.9962 0.0000 -41.9545 0.0000
# 4 0.0000 0.0000 0.0000 27.8175 0.0000 -1.2340
# 5 -28.0958 -13.4129 -41.9545 0.0000 60.0900 0.0000
# 6 0.0000 0.0000 0.0000 -1.2340 0.0000 53.3180
#
#
#
# Elastic Compliance Matrix: (Units=1/GPa)
#
#
# Indices 1 2 3 4 5 6 
#
# 1 0.014318 -0.003514 -0.005323 0.000000 0.002193 0.000000
# 2 -0.003514 0.013620 -0.002073 0.000000 -0.000050 0.000000
# 3 -0.005323 -0.002073 0.012805 0.000000 0.005988 0.000000
# 4 0.000000 0.000000 0.000000 0.035986 0.000000 0.000833
# 5 0.002193 -0.000050 0.005988 0.000000 0.021837 0.000000
# 6 0.000000 0.000000 0.000000 0.000833 0.000000 0.018775
#
#
# Mechanical properties :
#
#
# Convention : Reuss Voigt Hill
#
# Bulk Modulus (GPa) = 52.84749 66.55106 59.69927
# Shear Modulus (GPa) = 34.37175 40.81495 37.59335
#
# Velocity S-wave (km/s) = 3.70997 4.04277 3.87994
# Velocity P-wave (km/s) = 6.28603 6.96001 6.63159
#
# Compressibility (1/GPa) = 0.01892238
#
# Stress axis : x y z
#
# Youngs Moduli (GPa) = 69.84222 73.41889 78.09750
#
# Poissons Ratio (x) = 0.25799 0.41574
# Poissons Ratio (y) = 0.24542 0.16190
# Poissons Ratio (z) = 0.37180 0.15220
#
# Static dielectric constant tensor:
#      x y z
#    x 5.218330 0.000000 -0.684920 
#    y 0.000000 4.469920 0.000000 
#    z -0.684920 0.000000 5.183460 
# 
# 
# High freq. dielectric constant tensor:
#      x y z
#    x 2.026830 0.000000 -0.021130 
#    y 0.000000 1.997180 0.000000 
#    z -0.021130 0.000000 2.017870 
# 
# From -- ./inp_files/4073.got.cif
#   From: 2010.03.12/outbox.cif.g09.slc.cpg/sg14_3_cif.got.tgz:4073.got - 2010.03.31 13:35:05.
