data_PCOD8127140
_publ_section_title
;
Structure prediction by ZEFSAII (Michael W. Deem and Ramdas Pophale) SiO2 
 PCOD8127140
Probable space group: P 21/C
;
_chemical_formula_sum "Si O2"
_cell_formula_units_Z 28
_cell_length_a 9.110810
_cell_length_b 14.428015
_cell_length_c 12.899746
_cell_angle_alpha 90.000000
_cell_angle_beta 129.384132
_cell_angle_gamma 90.000000
_cell_volume 1310.609419
_symmetry_space_group_name_H-M "P 21/C"
_symmetry_group_IT_number 14
_symmetry_cell_setting 'monoclinic'
loop_
_space_group_symop_operation_xyz
x,y,z
-x,1/2+y,1/2-z
-x,-y,-z
x,1/2-y,1/2+z
loop_
_atom_site_type_symbol
_atom_site_label
_atom_site_fract_x
_atom_site_fract_y
_atom_site_fract_z
Si Si1 0.019395 0.994482 0.885079
Si Si2 0.606394 0.739237 0.096085
Si Si3 0.255023 0.056692 0.413296
Si Si4 0.291072 0.867939 0.517750
Si Si5 0.004600 0.190413 0.778636
Si Si6 0.364771 0.913957 0.931240
Si Si7 0.094757 0.631934 0.140565
O O1 0.069480 0.095921 0.862836
O O2 0.192538 0.923791 0.937096
O O3 0.828077 0.957846 0.741607
O O4 0.000000 0.000000 0.000000
O O5 0.620839 0.650628 0.023705
O O6 0.477219 0.694548 0.131277
O O7 0.819933 0.773502 0.216134
O O8 0.485601 0.821756 0.996297
O O9 0.078415 0.063591 0.413319
O O10 0.368133 0.968140 0.510638
O O11 0.138478 0.871053 0.539526
O O12 0.181474 0.819904 0.373462
O O13 0.956751 0.264514 0.845811
O O14 0.279740 0.909998 0.778511
O O15 0.500000 0.000000 0.000000
#
# Coordination Sequence:
#
# PCOD8127140 Si02
#       7
#     4   4   4   4   4   4   4
#     4  10  22  39  68  90 125 171 214 259 320 382
#     4  11  22  41  64  90 130 165 206 268 320 378
#     4   9  22  42  63  92 128 164 211 268 320 377
#     4  11  22  42  66  91 128 169 217 260 322 389
#     4  10  22  41  61  94 130 168 210 272 317 375
#     4  11  22  42  62  92 133 163 212 268 319 378
#     4  10  22  40  65  93 127 173 213 262 326 382
#
# _framework density 21.364104999999999
#
# number of rings (size 3 to 8) (size 9 to 14) (size 15 to 20)
#    0.000    1.714    2.857    0.857    2.000    1.143 
#    5.143    0.000    0.000    0.000    0.000    0.000 
#    0.000    0.000    0.000    0.000    0.000    0.000 
#
# Total GULP energy -346928.571021 kJ/mol
# GULP energy per Si atom -12390.306108 kJ/mol
# Density = 2.131548 g / cm^3
# Si number density = 21.364105 Si / 1000 Ang^3
#
#
#
# Elastic Constant Matrix: (Units=GPa)
#
#
# Indices 1 2 3 4 5 6 
#
# 1 73.2680 37.3650 35.9420 0.0000 -2.5602 0.0000
# 2 37.3650 136.3437 39.3273 0.0000 13.8978 0.0000
# 3 35.9420 39.3273 47.3741 0.0000 -8.0200 0.0000
# 4 0.0000 0.0000 0.0000 24.3790 0.0000 10.7620
# 5 -2.5602 13.8978 -8.0200 0.0000 35.4834 0.0000
# 6 0.0000 0.0000 0.0000 10.7620 0.0000 48.9079
#
#
#
# Elastic Compliance Matrix: (Units=1/GPa)
#
#
# Indices 1 2 3 4 5 6 
#
# 1 0.022068 -0.001306 -0.015911 0.000000 -0.001492 0.000000
# 2 -0.001306 0.011028 -0.009266 0.000000 -0.006508 0.000000
# 3 -0.015911 -0.009266 0.042935 0.000000 0.012185 0.000000
# 4 0.000000 0.000000 0.000000 0.045432 0.000000 -0.009997
# 5 -0.001492 -0.006508 0.012185 0.000000 0.033378 0.000000
# 6 0.000000 0.000000 0.000000 -0.009997 0.000000 0.022646
#
#
# Mechanical properties :
#
#
# Convention : Reuss Voigt Hill
#
# Bulk Modulus (GPa) = 43.35547 53.58380 48.46964
# Shear Modulus (GPa) = 20.99596 31.37748 26.18672
#
# Velocity S-wave (km/s) = 3.13831 3.83652 3.50485
# Velocity P-wave (km/s) = 5.78530 6.69036 6.25422
#
# Compressibility (1/GPa) = 0.02306514
#
# Stress axis : x y z
#
# Youngs Moduli (GPa) = 45.31541 90.67462 23.29117
#
# Poissons Ratio (x) = 0.11844 0.37058
# Poissons Ratio (y) = 0.05919 0.21582
# Poissons Ratio (z) = 0.72100 0.84019
#
# Static dielectric constant tensor:
#      x y z
#    x 3.599110 0.000000 0.282300 
#    y 0.000000 4.005040 0.000000 
#    z 0.282300 0.000000 3.474000 
# 
# 
# High freq. dielectric constant tensor:
#      x y z
#    x 1.850470 0.000000 0.024870 
#    y 0.000000 1.867880 0.000000 
#    z 0.024870 0.000000 1.793710 
# 
# From -- ./inp_files/25376.got.cif
#   From: 2010.03.12/outbox.cif.g09.slc.cpg/sg14_13_cif.got.tgz:25376.got - 2010.03.31 13:35:05.
