data_PCOD8127763
_publ_section_title
;
Structure prediction by ZEFSAII (Michael W. Deem and Ramdas Pophale) SiO2 
 PCOD8127763
Probable space group: P 21/C
;
_chemical_formula_sum "Si O2"
_cell_formula_units_Z 20
_cell_length_a 8.098908
_cell_length_b 24.038095
_cell_length_c 5.466567
_cell_angle_alpha 90.000000
_cell_angle_beta 59.768051
_cell_angle_gamma 90.000000
_cell_volume 919.500571
_symmetry_space_group_name_H-M "P 21/C"
_symmetry_group_IT_number 14
_symmetry_cell_setting 'monoclinic'
loop_
_space_group_symop_operation_xyz
x,y,z
-x,1/2+y,1/2-z
-x,-y,-z
x,1/2-y,1/2+z
loop_
_atom_site_type_symbol
_atom_site_label
_atom_site_fract_x
_atom_site_fract_y
_atom_site_fract_z
Si Si1 0.976242 0.217807 0.729985
Si Si2 0.328561 0.872328 0.980853
Si Si3 0.528999 0.452031 0.287017
Si Si4 0.784148 0.483803 0.698084
Si Si5 0.421682 0.282524 0.907139
O O1 0.922258 0.253166 0.528391
O O2 0.856914 0.161524 0.796990
O O3 0.199103 0.202651 0.566425
O O4 0.466006 0.889005 0.108390
O O5 0.260060 0.932269 0.944686
O O6 0.455033 0.839140 0.687567
O O7 0.500000 0.500000 0.500000
O O8 0.347377 0.460634 0.242651
O O9 0.735070 0.462402 0.005546
O O10 0.000000 0.500000 0.500000
O O11 0.478424 0.249952 0.613244
#
# Coordination Sequence:
#
# PCOD8127763 Si02
#       5
#     4   4   4   4   4
#     4  10  23  41  62  98 133 165 215 265 319 392
#     4  11  23  37  68  90 122 171 210 260 330 383
#     4   9  22  41  60  90 124 162 211 263 320 385
#     4  10  23  42  63  92 128 164 216 273 322 387
#     4  10  23  42  64  95 133 168 211 268 318 387
#
# _framework density 21.750938000000001
#
# number of rings (size 3 to 8) (size 9 to 14) (size 15 to 20)
#    0.000    2.000    0.000    1.200    5.600    9.600 
#    3.600    0.000    0.000    0.000    0.000    0.000 
#    0.000    0.000    0.000    0.000    0.000    0.000 
#
# Total GULP energy -247823.755473 kJ/mol
# GULP energy per Si atom -12391.187774 kJ/mol
# Density = 2.170143 g / cm^3
# Si number density = 21.750938 Si / 1000 Ang^3
#
#
#
# Elastic Constant Matrix: (Units=GPa)
#
#
# Indices 1 2 3 4 5 6 
#
# 1 70.9284 43.5103 35.2882 0.0000 -4.4064 0.0000
# 2 43.5103 96.2611 34.5258 0.0000 -14.9969 0.0000
# 3 35.2882 34.5258 132.7070 0.0000 -4.6590 0.0000
# 4 0.0000 0.0000 0.0000 26.4579 0.0000 -7.0246
# 5 -4.4064 -14.9969 -4.6590 0.0000 39.1942 0.0000
# 6 0.0000 0.0000 0.0000 -7.0246 0.0000 35.6673
#
#
#
# Elastic Compliance Matrix: (Units=1/GPa)
#
#
# Indices 1 2 3 4 5 6 
#
# 1 0.020875 -0.008413 -0.003407 0.000000 -0.001277 0.000000
# 2 -0.008413 0.015525 -0.001633 0.000000 0.004800 0.000000
# 3 -0.003407 -0.001633 0.008868 0.000000 0.000046 0.000000
# 4 0.000000 0.000000 0.000000 0.039881 0.000000 0.007855
# 5 -0.001277 0.004800 0.000046 0.000000 0.027213 0.000000
# 6 0.000000 0.000000 0.000000 0.007855 0.000000 0.029584
#
#
# Mechanical properties :
#
#
# Convention : Reuss Voigt Hill
#
# Bulk Modulus (GPa) = 54.46179 58.50500 56.48340
# Shear Modulus (GPa) = 28.57599 32.70201 30.63900
#
# Velocity S-wave (km/s) = 3.62855 3.88167 3.75724
# Velocity P-wave (km/s) = 6.53057 6.85901 6.69680
#
# Compressibility (1/GPa) = 0.01836150
#
# Stress axis : x y z
#
# Youngs Moduli (GPa) = 47.90407 64.41378 112.76538
#
# Poissons Ratio (x) = 0.54188 0.38420
# Poissons Ratio (y) = 0.40299 0.18420
# Poissons Ratio (z) = 0.16321 0.10522
#
# Static dielectric constant tensor:
#      x y z
#    x 4.506400 0.000000 0.289760 
#    y 0.000000 4.060420 0.000000 
#    z 0.289760 0.000000 4.252610 
# 
# 
# High freq. dielectric constant tensor:
#      x y z
#    x 1.851810 0.000000 0.001540 
#    y 0.000000 1.846950 0.000000 
#    z 0.001540 0.000000 1.874220 
# 
# From -- ./inp_files/1364.got.cif
#   From: 2010.03.12/outbox.cif.g09.slc.cpg/sg14_1_cif.got.tgz:1364.got - 2010.03.31 13:35:05.
