data_PCOD8127050
_publ_section_title
;
Structure prediction by ZEFSAII (Michael W. Deem and Ramdas Pophale) SiO2 
 PCOD8127050
Probable space group: P 21/C
;
_chemical_formula_sum "Si O2"
_cell_formula_units_Z 28
_cell_length_a 12.828243
_cell_length_b 6.695186
_cell_length_c 19.138804
_cell_angle_alpha 90.000000
_cell_angle_beta 133.788181
_cell_angle_gamma 90.000000
_cell_volume 1186.652229
_symmetry_space_group_name_H-M "P 21/C"
_symmetry_group_IT_number 14
_symmetry_cell_setting 'monoclinic'
loop_
_space_group_symop_operation_xyz
x,y,z
-x,1/2+y,1/2-z
-x,-y,-z
x,1/2-y,1/2+z
loop_
_atom_site_type_symbol
_atom_site_label
_atom_site_fract_x
_atom_site_fract_y
_atom_site_fract_z
Si Si1 0.757412 0.521649 0.382863
Si Si2 0.956799 0.077902 0.316838
Si Si3 0.749663 0.513212 0.094960
Si Si4 0.972475 0.296100 0.561897
Si Si5 0.300344 0.641390 0.785086
Si Si6 0.824508 0.449125 0.615279
Si Si7 0.402851 0.301334 0.563671
O O1 0.894327 0.654664 0.425708
O O2 0.663537 0.470052 0.270766
O O3 0.657530 0.654823 0.387124
O O4 0.820437 0.319080 0.448662
O O5 0.996710 0.927476 0.397635
O O6 0.877198 0.969351 0.214626
O O7 0.111353 0.160108 0.357968
O O8 0.855197 0.254043 0.297395
O O9 0.701294 0.525140 0.153754
O O10 0.370636 0.420837 0.017289
O O11 0.795825 0.287301 0.104686
O O12 0.951799 0.460507 0.615505
O O13 0.422918 0.811276 0.855064
O O14 0.670863 0.548488 0.525614
#
# Coordination Sequence:
#
# PCOD8127050 Si02
#       7
#     4   4   4   4   4   4   4
#     4  10  23  42  64  94 140 178 230 275 342 413
#     4  10  22  38  69 102 128 173 228 289 337 395
#     4  10  23  42  70 100 130 175 230 285 333 401
#     4   9  20  40  62  99 130 177 220 289 334 399
#     4  11  25  44  67 104 137 177 236 277 344 422
#     4   9  21  40  66  99 133 169 231 276 334 405
#     4  11  25  45  66  93 141 186 214 283 349 398
#
# _framework density 23.595794000000001
#
# number of rings (size 3 to 8) (size 9 to 14) (size 15 to 20)
#    0.000    2.000    0.000    1.286   14.000    4.000 
#   15.429    0.000    0.000    0.000    0.000    0.000 
#    0.000    0.000    0.000    0.000    0.000    0.000 
#
# Total GULP energy -346926.160440 kJ/mol
# GULP energy per Si atom -12390.220016 kJ/mol
# Density = 2.354209 g / cm^3
# Si number density = 23.595794 Si / 1000 Ang^3
#
#
#
# Elastic Constant Matrix: (Units=GPa)
#
#
# Indices 1 2 3 4 5 6 
#
# 1 101.1962 32.5023 57.4879 0.0000 -17.7014 0.0000
# 2 32.5023 39.6650 27.4851 0.0000 -1.0099 0.0000
# 3 57.4879 27.4851 109.0486 0.0000 -11.6337 0.0000
# 4 0.0000 0.0000 0.0000 43.5196 0.0000 -5.6845
# 5 -17.7014 -1.0099 -11.6337 0.0000 46.0122 0.0000
# 6 0.0000 0.0000 0.0000 -5.6845 0.0000 30.4295
#
#
#
# Elastic Compliance Matrix: (Units=1/GPa)
#
#
# Indices 1 2 3 4 5 6 
#
# 1 0.017419 -0.009873 -0.006169 0.000000 0.004925 0.000000
# 2 -0.009873 0.036220 -0.004362 0.000000 -0.004106 0.000000
# 3 -0.006169 -0.004362 0.013626 0.000000 0.000976 0.000000
# 4 0.000000 0.000000 0.000000 0.023553 0.000000 0.004400
# 5 0.004925 -0.004106 0.000976 0.000000 0.023785 0.000000
# 6 0.000000 0.000000 0.000000 0.004400 0.000000 0.033685
#
#
# Mechanical properties :
#
#
# Convention : Reuss Voigt Hill
#
# Bulk Modulus (GPa) = 37.79893 53.87339 45.83616
# Shear Modulus (GPa) = 25.26356 32.82123 29.04239
#
# Velocity S-wave (km/s) = 3.27568 3.73363 3.51212
# Velocity P-wave (km/s) = 5.51007 6.43956 5.99286
#
# Compressibility (1/GPa) = 0.02645577
#
# Stress axis : x y z
#
# Youngs Moduli (GPa) = 57.40927 27.60941 73.38970
#
# Poissons Ratio (x) = 0.27260 0.45273
# Poissons Ratio (y) = 0.56682 0.32013
# Poissons Ratio (z) = 0.35415 0.12043
#
# Static dielectric constant tensor:
#      x y z
#    x 4.610940 0.000000 -0.342980 
#    y 0.000000 3.937470 0.000000 
#    z -0.342980 0.000000 4.378700 
# 
# 
# High freq. dielectric constant tensor:
#      x y z
#    x 1.940480 0.000000 -0.013460 
#    y 0.000000 1.911680 0.000000 
#    z -0.013460 0.000000 1.936430 
# 
# From -- ./inp_files/66888.got.cif
#   From: 2010.03.12/outbox.cif.g09.slc.cpg/sg14_34_cif.got.tgz:66888.got - 2010.03.31 13:35:05.
