data_PCOD8127865
_publ_section_title
;
Structure prediction by ZEFSAII (Michael W. Deem and Ramdas Pophale) SiO2 
 PCOD8127865
Probable space group: P 21/C
;
_chemical_formula_sum "Si O2"
_cell_formula_units_Z 28
_cell_length_a 19.945045
_cell_length_b 8.022062
_cell_length_c 9.422667
_cell_angle_alpha 90.000000
_cell_angle_beta 47.777788
_cell_angle_gamma 90.000000
_cell_volume 1116.466827
_symmetry_space_group_name_H-M "P 21/C"
_symmetry_group_IT_number 14
_symmetry_cell_setting 'monoclinic'
loop_
_space_group_symop_operation_xyz
x,y,z
-x,1/2+y,1/2-z
-x,-y,-z
x,1/2-y,1/2+z
loop_
_atom_site_type_symbol
_atom_site_label
_atom_site_fract_x
_atom_site_fract_y
_atom_site_fract_z
Si Si1 0.229525 0.622151 0.762705
Si Si2 0.795651 0.801537 0.511717
Si Si3 0.969727 0.975362 0.201756
Si Si4 0.512740 0.694259 0.005210
Si Si5 0.869697 0.316565 0.382513
Si Si6 0.600900 0.272061 0.078144
Si Si7 0.693750 0.621445 0.872435
O O1 0.227052 0.449603 0.848072
O O2 0.157520 0.630022 0.736390
O O3 0.327983 0.625983 0.551057
O O4 0.213588 0.783504 0.889300
O O5 0.901274 0.816312 0.316457
O O6 0.771633 0.631962 0.636048
O O7 0.733615 0.802849 0.459994
O O8 0.059183 0.954468 0.168570
O O9 0.916896 0.136965 0.326252
O O10 0.000000 0.000000 0.000000
O O11 0.431481 0.770981 0.214826
O O12 0.500000 0.500000 0.000000
O O13 0.490685 0.770108 0.881731
O O14 0.611479 0.736132 0.927083
O O15 0.655113 0.439721 0.960488
#
# Coordination Sequence:
#
# PCOD8127865 Si02
#       7
#     4   4   4   4   4   4   4
#     4  11  24  44  68 105 136 187 236 296 355 437
#     4  11  27  43  66 100 140 182 235 297 365 426
#     4  11  25  46  71 101 140 188 236 301 366 438
#     4  10  23  42  70 104 140 189 238 296 359 429
#     4  11  24  43  73 101 141 182 242 294 367 434
#     4  11  22  43  72 100 140 188 239 290 362 423
#     4  11  25  45  67 103 143 182 242 300 359 432
#
# _framework density 25.079115999999999
#
# number of rings (size 3 to 8) (size 9 to 14) (size 15 to 20)
#    0.000    1.143    1.429    4.286    2.000    9.143 
#    0.000    5.000    0.000    0.000    0.000    0.000 
#    0.000    0.000    0.000    0.000    0.000    0.000 
#
# Total GULP energy -347010.377516 kJ/mol
# GULP energy per Si atom -12393.227768 kJ/mol
# Density = 2.502204 g / cm^3
# Si number density = 25.079116 Si / 1000 Ang^3
#
#
#
# Elastic Constant Matrix: (Units=GPa)
#
#
# Indices 1 2 3 4 5 6 
#
# 1 104.6672 22.1648 12.1757 0.0000 25.8833 0.0000
# 2 22.1648 35.9964 11.6777 0.0000 1.1042 0.0000
# 3 12.1757 11.6777 114.3246 0.0000 8.7417 0.0000
# 4 0.0000 0.0000 0.0000 39.7135 0.0000 2.1188
# 5 25.8833 1.1042 8.7417 0.0000 47.7085 0.0000
# 6 0.0000 0.0000 0.0000 2.1188 0.0000 32.2836
#
#
#
# Elastic Compliance Matrix: (Units=1/GPa)
#
#
# Indices 1 2 3 4 5 6 
#
# 1 0.012871 -0.007696 -0.000065 0.000000 -0.006793 0.000000
# 2 -0.007696 0.033335 -0.002886 0.000000 0.003933 0.000000
# 3 -0.000065 -0.002886 0.009169 0.000000 -0.001578 0.000000
# 4 0.000000 0.000000 0.000000 0.025269 0.000000 -0.001658
# 5 -0.006793 0.003933 -0.001578 0.000000 0.024844 0.000000
# 6 0.000000 0.000000 0.000000 -0.001658 0.000000 0.031084
#
#
# Mechanical properties :
#
#
# Convention : Reuss Voigt Hill
#
# Bulk Modulus (GPa) = 29.34180 38.55829 33.95005
# Shear Modulus (GPa) = 29.54599 37.87247 33.70923
#
# Velocity S-wave (km/s) = 3.43609 3.89024 3.67020
# Velocity P-wave (km/s) = 5.24093 5.96546 5.61489
#
# Compressibility (1/GPa) = 0.03408107
#
# Stress axis : x y z
#
# Youngs Moduli (GPa) = 77.69248 29.99857 109.05808
#
# Poissons Ratio (x) = 0.23087 0.00712
# Poissons Ratio (y) = 0.59791 0.31475
# Poissons Ratio (z) = 0.00507 0.08658
#
# Static dielectric constant tensor:
#      x y z
#    x 5.245700 0.000000 0.021660 
#    y 0.000000 4.229800 0.000000 
#    z 0.021660 0.000000 4.495250 
# 
# 
# High freq. dielectric constant tensor:
#      x y z
#    x 2.017210 0.000000 0.001260 
#    y 0.000000 1.981120 0.000000 
#    z 0.001260 0.000000 2.015020 
# 
# From -- ./inp_files/18703.got.cif
#   From: 2010.03.12/outbox.cif.g09.slc.cpg/sg14_10_cif.got.tgz:18703.got - 2010.03.31 13:35:05.
