data_PCOD8127661
_publ_section_title
;
Structure prediction by ZEFSAII (Michael W. Deem and Ramdas Pophale) SiO2 
 PCOD8127661
Probable space group: P 21/C
;
_chemical_formula_sum "Si O2"
_cell_formula_units_Z 24
_cell_length_a 11.808918
_cell_length_b 18.609645
_cell_length_c 14.243473
_cell_angle_alpha 90.000000
_cell_angle_beta 159.805297
_cell_angle_gamma 90.000000
_cell_volume 1080.560938
_symmetry_space_group_name_H-M "P 21/C"
_symmetry_group_IT_number 14
_symmetry_cell_setting 'monoclinic'
loop_
_space_group_symop_operation_xyz
x,y,z
-x,1/2+y,1/2-z
-x,-y,-z
x,1/2-y,1/2+z
loop_
_atom_site_type_symbol
_atom_site_label
_atom_site_fract_x
_atom_site_fract_y
_atom_site_fract_z
Si Si1 0.297824 0.776384 0.280190
Si Si2 0.847670 0.535473 0.791475
Si Si3 0.383011 0.005280 0.564325
Si Si4 0.677227 0.145016 0.873071
Si Si5 0.629686 0.600329 0.121291
Si Si6 0.312694 0.310469 0.268453
O O1 0.482598 0.798559 0.325818
O O2 0.301305 0.852149 0.342601
O O3 0.517723 0.721262 0.508158
O O4 0.942090 0.741166 0.984354
O O5 0.500000 0.500000 0.500000
O O6 0.856867 0.619356 0.822099
O O7 0.000000 0.500000 0.000000
O O8 0.061857 0.522842 0.865851
O O9 0.568716 0.062208 0.774793
O O10 0.281470 0.040786 0.387198
O O11 0.602745 0.936347 0.703575
O O12 0.598402 0.168533 0.917041
O O13 0.059252 0.153683 0.141348
#
# Coordination Sequence:
#
# PCOD8127661 Si02
#       6
#     4   4   4   4   4   4
#     4  11  26  45  66 104 136 190 231 281 350 427
#     4  12  25  46  69 106 137 185 235 288 355 416
#     4  10  23  41  74 104 140 185 237 299 345 418
#     4  11  23  45  73  98 149 180 239 293 358 418
#     4  10  22  46  71 107 137 188 235 292 349 420
#     4  12  26  44  73 101 145 184 235 288 364 423
#
# _framework density 22.210687
#
# number of rings (size 3 to 8) (size 9 to 14) (size 15 to 20)
#    0.000    1.000    3.333    2.500    4.667    2.667 
#    0.000    0.000    0.000    0.000    0.000    0.000 
#    0.000    0.000    0.000    0.000    0.000    0.000 
#
# Total GULP energy -297373.265196 kJ/mol
# GULP energy per Si atom -12390.552716 kJ/mol
# Density = 2.216013 g / cm^3
# Si number density = 22.210687 Si / 1000 Ang^3
#
#
#
# Elastic Constant Matrix: (Units=GPa)
#
#
# Indices 1 2 3 4 5 6 
#
# 1 123.7357 65.7944 51.1550 0.0000 13.0196 0.0000
# 2 65.7944 117.3971 44.7126 0.0000 6.7478 0.0000
# 3 51.1550 44.7126 119.6158 0.0000 3.2545 0.0000
# 4 0.0000 0.0000 0.0000 36.3812 0.0000 -1.2008
# 5 13.0196 6.7478 3.2545 0.0000 36.5550 0.0000
# 6 0.0000 0.0000 0.0000 -1.2008 0.0000 33.2920
#
#
#
# Elastic Compliance Matrix: (Units=1/GPa)
#
#
# Indices 1 2 3 4 5 6 
#
# 1 0.012828 -0.005770 -0.003242 0.000000 -0.003215 0.000000
# 2 -0.005770 0.012611 -0.002244 0.000000 -0.000073 0.000000
# 3 -0.003242 -0.002244 0.010568 0.000000 0.000628 0.000000
# 4 0.000000 0.000000 0.000000 0.027520 0.000000 0.000993
# 5 -0.003215 -0.000073 0.000628 0.000000 0.028459 0.000000
# 6 0.000000 0.000000 0.000000 0.000993 0.000000 0.030073
#
#
# Mechanical properties :
#
#
# Convention : Reuss Voigt Hill
#
# Bulk Modulus (GPa) = 74.10096 76.00808 75.05452
# Shear Modulus (GPa) = 33.54126 34.51807 34.02966
#
# Velocity S-wave (km/s) = 3.89027 3.94651 3.91849
# Velocity P-wave (km/s) = 7.32216 7.42040 7.37144
#
# Compressibility (1/GPa) = 0.01349510
#
# Stress axis : x y z
#
# Youngs Moduli (GPa) = 77.95154 79.29651 94.62188
#
# Poissons Ratio (x) = 0.45755 0.30675
# Poissons Ratio (y) = 0.44979 0.21236
# Poissons Ratio (z) = 0.25271 0.17797
#
# Static dielectric constant tensor:
#      x y z
#    x 3.644800 0.000000 -0.639790 
#    y 0.000000 4.305070 0.000000 
#    z -0.639790 0.000000 3.267870 
# 
# 
# High freq. dielectric constant tensor:
#      x y z
#    x 1.875900 0.000000 -0.015180 
#    y 0.000000 1.890320 0.000000 
#    z -0.015180 0.000000 1.864400 
# 
# From -- ./inp_files/45553.got.cif
#   From: 2010.03.12/outbox.cif.g09.slc.cpg/sg14_23_cif.got.tgz:45553.got - 2010.03.31 13:35:05.
