data_PCOD8127924
_publ_section_title
;
Structure prediction by ZEFSAII (Michael W. Deem and Ramdas Pophale) SiO2 
 PCOD8127924
Probable space group: P 21/C
;
_chemical_formula_sum "Si O2"
_cell_formula_units_Z 24
_cell_length_a 29.395510
_cell_length_b 4.971652
_cell_length_c 14.723946
_cell_angle_alpha 90.000000
_cell_angle_beta 151.419283
_cell_angle_gamma 90.000000
_cell_volume 1029.422815
_symmetry_space_group_name_H-M "P 21/C"
_symmetry_group_IT_number 14
_symmetry_cell_setting 'monoclinic'
loop_
_space_group_symop_operation_xyz
x,y,z
-x,1/2+y,1/2-z
-x,-y,-z
x,1/2-y,1/2+z
loop_
_atom_site_type_symbol
_atom_site_label
_atom_site_fract_x
_atom_site_fract_y
_atom_site_fract_z
Si Si1 0.895706 0.571521 0.368020
Si Si2 0.285218 0.161274 0.996977
Si Si3 0.999962 0.241790 0.694234
Si Si4 0.100620 0.926446 0.723241
Si Si5 0.564300 0.752355 0.089997
Si Si6 0.560204 0.840116 0.876805
O O1 0.916807 0.398864 0.494176
O O2 0.941670 0.878122 0.436464
O O3 0.931357 0.388954 0.342082
O O4 0.781953 0.600466 0.160937
O O5 0.341931 0.261814 0.184309
O O6 0.353103 0.061149 0.034797
O O7 0.214630 0.922199 0.906627
O O8 0.047777 0.490438 0.834359
O O9 0.082846 0.088046 0.784488
O O10 0.500000 0.500000 0.000000
O O11 0.595218 0.756950 0.038480
O O12 0.500000 0.000000 0.000000
O O13 0.513964 0.584074 0.745676
#
# Coordination Sequence:
#
# PCOD8127924 Si02
#       6
#     4   4   4   4   4   4
#     4  10  23  43  68  93 137 178 226 276 353 412
#     4  10  26  41  72  99 138 177 238 280 360 387
#     4  12  24  42  70 103 136 176 230 281 347 423
#     4  10  23  43  68  92 137 178 223 274 355 409
#     4  12  24  43  68  96 134 181 233 283 341 413
#     4  12  24  43  68  95 134 182 231 284 343 408
#
# _framework density 23.314036999999999
#
# number of rings (size 3 to 8) (size 9 to 14) (size 15 to 20)
#    1.000    0.000    3.333    3.000    4.667    1.333 
#    0.000    0.000    0.000    0.000    0.000    0.000 
#    0.000    0.000    0.000    0.000    0.000    0.000 
#
# Total GULP energy -297355.001204 kJ/mol
# GULP energy per Si atom -12389.791717 kJ/mol
# Density = 2.326097 g / cm^3
# Si number density = 23.314037 Si / 1000 Ang^3
#
#
#
# Elastic Constant Matrix: (Units=GPa)
#
#
# Indices 1 2 3 4 5 6 
#
# 1 105.5835 40.8374 61.2953 0.0000 -20.6326 0.0000
# 2 40.8374 174.2533 38.9799 0.0000 0.3396 0.0000
# 3 61.2953 38.9799 80.5121 0.0000 5.2730 0.0000
# 4 0.0000 0.0000 0.0000 27.7833 0.0000 -12.2397
# 5 -20.6326 0.3396 5.2730 0.0000 26.9464 0.0000
# 6 0.0000 0.0000 0.0000 -12.2397 0.0000 37.9933
#
#
#
# Elastic Compliance Matrix: (Units=1/GPa)
#
#
# Indices 1 2 3 4 5 6 
#
# 1 0.028132 -0.001651 -0.022316 0.000000 0.025928 0.000000
# 2 -0.001651 0.006540 -0.001845 0.000000 -0.000986 0.000000
# 3 -0.022316 -0.001845 0.031828 0.000000 -0.023292 0.000000
# 4 0.000000 0.000000 0.000000 0.041946 0.000000 0.013513
# 5 0.025928 -0.000986 -0.023292 0.000000 0.061534 0.000000
# 6 0.000000 0.000000 0.000000 0.013513 0.000000 0.030674
#
#
# Mechanical properties :
#
#
# Convention : Reuss Voigt Hill
#
# Bulk Modulus (GPa) = 67.21864 71.39713 69.30789
# Shear Modulus (GPa) = 19.43734 33.16037 26.29885
#
# Velocity S-wave (km/s) = 2.89055 3.77548 3.36225
# Velocity P-wave (km/s) = 6.32731 7.04955 6.69817
#
# Compressibility (1/GPa) = 0.01487683
#
# Stress axis : x y z
#
# Youngs Moduli (GPa) = 35.54699 152.89666 31.41839
#
# Poissons Ratio (x) = 0.25250 0.70113
# Poissons Ratio (y) = 0.05870 0.05796
# Poissons Ratio (z) = 0.79326 0.28205
#
# Static dielectric constant tensor:
#      x y z
#    x 4.730260 0.000000 -0.658820 
#    y 0.000000 4.429330 0.000000 
#    z -0.658820 0.000000 4.969020 
# 
# 
# High freq. dielectric constant tensor:
#      x y z
#    x 1.920400 0.000000 0.001010 
#    y 0.000000 1.947530 0.000000 
#    z 0.001010 0.000000 1.918660 
# 
# From -- ./inp_files/52134.got.cif
#   From: 2010.03.12/outbox.cif.g09.slc.cpg/sg14_27_cif.got.tgz:52134.got - 2010.03.31 13:35:05.
