data_PCOD8127263
_publ_section_title
;
Structure prediction by ZEFSAII (Michael W. Deem and Ramdas Pophale) SiO2 
 PCOD8127263
Probable space group: P 21/C
;
_chemical_formula_sum "Si O2"
_cell_formula_units_Z 28
_cell_length_a 7.997441
_cell_length_b 25.213360
_cell_length_c 8.851302
_cell_angle_alpha 90.000000
_cell_angle_beta 130.298472
_cell_angle_gamma 90.000000
_cell_volume 1361.239249
_symmetry_space_group_name_H-M "P 21/C"
_symmetry_group_IT_number 14
_symmetry_cell_setting 'monoclinic'
loop_
_space_group_symop_operation_xyz
x,y,z
-x,1/2+y,1/2-z
-x,-y,-z
x,1/2-y,1/2+z
loop_
_atom_site_type_symbol
_atom_site_label
_atom_site_fract_x
_atom_site_fract_y
_atom_site_fract_z
Si Si1 0.988820 0.363491 0.514776
Si Si2 0.245518 0.309790 0.242188
Si Si3 0.749426 0.936907 0.620558
Si Si4 0.067208 0.255338 0.399032
Si Si5 0.720676 0.326703 0.630958
Si Si6 0.240697 0.944479 0.338272
Si Si7 0.958964 0.403600 0.980784
O O1 0.796076 0.342046 0.507608
O O2 0.907892 0.408368 0.353635
O O3 0.176052 0.389062 0.728424
O O4 0.081404 0.313716 0.477883
O O5 0.114413 0.262720 0.250118
O O6 0.252311 0.284751 0.077219
O O7 0.464925 0.317462 0.464528
O O8 0.112663 0.364178 0.165447
O O9 0.490505 0.928240 0.448443
O O10 0.879575 0.935898 0.536707
O O11 0.794493 0.993838 0.724329
O O12 0.831081 0.226319 0.265591
O O13 0.769792 0.374581 0.774029
O O14 0.171755 0.939074 0.474397
#
# Coordination Sequence:
#
# PCOD8127263 Si02
#       7
#     4   4   4   4   4   4   4
#     4  11  22  41  59  85 121 154 198 248 292 352
#     4  11  23  39  59  87 120 157 198 239 296 356
#     4  10  24  41  60  92 121 154 200 252 301 353
#     4  11  23  38  57  87 117 156 199 239 289 355
#     4  10  24  40  58  88 123 157 195 246 295 352
#     4  11  22  40  67  87 116 161 201 245 307 353
#     4  10  22  41  62  91 122 154 201 247 295 359
#
# _framework density 20.569492
#
# number of rings (size 3 to 8) (size 9 to 14) (size 15 to 20)
#    0.000    1.429    2.857    1.714    4.000    1.143 
#    0.000    0.000    0.000    9.429    0.000    0.000 
#    0.000    0.000    0.000    0.000    0.000    0.000 
#
# Total GULP energy -347079.973213 kJ/mol
# GULP energy per Si atom -12395.713329 kJ/mol
# Density = 2.052268 g / cm^3
# Si number density = 20.569492 Si / 1000 Ang^3
#
#
#
# Elastic Constant Matrix: (Units=GPa)
#
#
# Indices 1 2 3 4 5 6 
#
# 1 64.6533 16.0809 19.5770 0.0000 -0.3061 0.0000
# 2 16.0809 70.8389 22.7197 0.0000 3.2962 0.0000
# 3 19.5770 22.7197 89.7560 0.0000 9.7661 0.0000
# 4 0.0000 0.0000 0.0000 21.0383 0.0000 -11.4637
# 5 -0.3061 3.2962 9.7661 0.0000 31.7604 0.0000
# 6 0.0000 0.0000 0.0000 -11.4637 0.0000 29.5167
#
#
#
# Elastic Compliance Matrix: (Units=1/GPa)
#
#
# Indices 1 2 3 4 5 6 
#
# 1 0.017163 -0.002952 -0.003153 0.000000 0.001441 0.000000
# 2 -0.002952 0.015877 -0.003303 0.000000 -0.000661 0.000000
# 3 -0.003153 -0.003303 0.013068 0.000000 -0.003706 0.000000
# 4 0.000000 0.000000 0.000000 0.060292 0.000000 0.023416
# 5 0.001441 -0.000661 -0.003706 0.000000 0.032708 0.000000
# 6 0.000000 0.000000 0.000000 0.023416 0.000000 0.042974
#
#
# Mechanical properties :
#
#
# Convention : Reuss Voigt Hill
#
# Bulk Modulus (GPa) = 36.64097 38.00038 37.32068
# Shear Modulus (GPa) = 23.81009 27.58776 25.69893
#
# Velocity S-wave (km/s) = 3.40596 3.66621 3.53848
# Velocity P-wave (km/s) = 5.77229 6.03620 5.90572
#
# Compressibility (1/GPa) = 0.02729186
#
# Stress axis : x y z
#
# Youngs Moduli (GPa) = 58.26518 62.98509 76.52046
#
# Poissons Ratio (x) = 0.18593 0.24128
# Poissons Ratio (y) = 0.17199 0.25276
# Poissons Ratio (z) = 0.18372 0.20805
#
# Static dielectric constant tensor:
#      x y z
#    x 3.693460 0.000000 -0.203780 
#    y 0.000000 3.760860 0.000000 
#    z -0.203780 0.000000 3.613950 
# 
# 
# High freq. dielectric constant tensor:
#      x y z
#    x 1.797240 0.000000 -0.014170 
#    y 0.000000 1.814710 0.000000 
#    z -0.014170 0.000000 1.808540 
# 
# From -- ./inp_files/7023.got.cif
#   From: 2010.03.12/outbox.cif.g09.slc.cpg/sg14_4_cif.got.tgz:7023.got - 2010.03.31 13:35:05.
