data_PCOD8127507
_publ_section_title
;
Structure prediction by ZEFSAII (Michael W. Deem and Ramdas Pophale) SiO2 
 PCOD8127507
Probable space group: P 21/C
;
_chemical_formula_sum "Si O2"
_cell_formula_units_Z 32
_cell_length_a 9.525245
_cell_length_b 23.341317
_cell_length_c 9.646628
_cell_angle_alpha 90.000000
_cell_angle_beta 43.960261
_cell_angle_gamma 90.000000
_cell_volume 1488.799386
_symmetry_space_group_name_H-M "P 21/C"
_symmetry_group_IT_number 14
_symmetry_cell_setting 'monoclinic'
loop_
_space_group_symop_operation_xyz
x,y,z
-x,1/2+y,1/2-z
-x,-y,-z
x,1/2-y,1/2+z
loop_
_atom_site_type_symbol
_atom_site_label
_atom_site_fract_x
_atom_site_fract_y
_atom_site_fract_z
Si Si1 0.901241 0.728078 0.920266
Si Si2 0.982988 0.457408 0.386440
Si Si3 0.487986 0.095051 0.994184
Si Si4 0.165976 0.735748 0.991390
Si Si5 0.805385 0.497832 0.234931
Si Si6 0.670974 0.139537 0.136377
Si Si7 0.301412 0.127835 0.593135
Si Si8 0.580446 0.677863 0.697087
O O1 0.853489 0.667975 0.881236
O O2 0.000248 0.715181 0.998137
O O3 0.061569 0.763212 0.715215
O O4 0.693773 0.762935 0.083195
O O5 0.869954 0.492153 0.347825
O O6 0.859755 0.401947 0.522653
O O7 0.000000 0.500000 0.500000
O O8 0.201473 0.434985 0.179288
O O9 0.583135 0.136749 0.042605
O O10 0.320086 0.056462 0.190892
O O11 0.660643 0.055716 0.799395
O O12 0.379623 0.132540 0.953560
O O13 0.257288 0.796653 0.882671
O O14 0.341685 0.688898 0.874713
O O15 0.000000 0.500000 0.000000
O O16 0.508416 0.119885 0.364688
O O17 0.336494 0.154006 0.718913
#
# Coordination Sequence:
#
# PCOD8127507 Si02
#       8
#     4   4   4   4   4   4   4   4
#     4  12  25  42  63  96 134 177 224 274 331 405
#     4  11  24  43  70  97 134 174 226 283 336 403
#     4  10  24  41  67  98 135 172 228 277 331 399
#     4  12  25  41  67  94 137 179 224 270 338 400
#     4  10  22  43  67  99 131 175 223 279 339 393
#     4  11  23  43  67  95 134 176 221 278 335 397
#     4  12  25  43  66  98 135 177 224 278 343 396
#     4  12  26  42  66  99 135 180 224 277 333 406
#
# _framework density 21.493828000000001
#
# number of rings (size 3 to 8) (size 9 to 14) (size 15 to 20)
#    0.000    0.750    3.750    3.000    5.250    2.500 
#    0.000    0.000    0.000    0.000    0.000    0.000 
#    0.000    0.000    0.000    0.000    0.000    0.000 
#
# Total GULP energy -397062.434238 kJ/mol
# GULP energy per Si atom -12408.201070 kJ/mol
# Density = 2.144491 g / cm^3
# Si number density = 21.493828 Si / 1000 Ang^3
#
#
#
# Elastic Constant Matrix: (Units=GPa)
#
#
# Indices 1 2 3 4 5 6 
#
# 1 85.1320 24.7040 -2.3415 0.0000 -0.2409 0.0000
# 2 24.7040 51.0367 -9.2805 0.0000 7.0827 0.0000
# 3 -2.3415 -9.2805 84.3112 0.0000 -13.9798 0.0000
# 4 0.0000 0.0000 0.0000 25.7124 0.0000 2.3828
# 5 -0.2409 7.0827 -13.9798 0.0000 32.1715 0.0000
# 6 0.0000 0.0000 0.0000 2.3828 0.0000 31.4652
#
#
#
# Elastic Compliance Matrix: (Units=1/GPa)
#
#
# Indices 1 2 3 4 5 6 
#
# 1 0.013748 -0.006894 -0.000117 0.000000 0.001570 0.000000
# 2 -0.006894 0.023871 0.001677 0.000000 -0.004578 0.000000
# 3 -0.000117 0.001677 0.012911 0.000000 0.005240 0.000000
# 4 0.000000 0.000000 0.000000 0.039167 0.000000 -0.002966
# 5 0.001570 -0.004578 0.005240 0.000000 0.034380 0.000000
# 6 0.000000 0.000000 0.000000 -0.002966 0.000000 0.032006
#
#
# Mechanical properties :
#
#
# Convention : Reuss Voigt Hill
#
# Bulk Modulus (GPa) = 25.08581 27.40488 26.24534
# Shear Modulus (GPa) = 27.77198 31.69634 29.73416
#
# Velocity S-wave (km/s) = 3.59847 3.84431 3.72342
# Velocity P-wave (km/s) = 5.38162 5.69937 5.54277
#
# Compressibility (1/GPa) = 0.03986318
#
# Stress axis : x y z
#
# Youngs Moduli (GPa) = 72.73685 41.89194 77.45283
#
# Poissons Ratio (x) = 0.28880 0.00904
# Poissons Ratio (y) = 0.50144 -0.12989
# Poissons Ratio (z) = 0.00849 -0.07025
#
# Static dielectric constant tensor:
#      x y z
#    x 3.978050 0.000000 -0.111210 
#    y 0.000000 3.825250 0.000000 
#    z -0.111210 0.000000 4.027110 
# 
# 
# High freq. dielectric constant tensor:
#      x y z
#    x 1.855280 0.000000 -0.005290 
#    y 0.000000 1.838460 0.000000 
#    z -0.005290 0.000000 1.853280 
# 
# From -- ./inp_files/11056.got.cif
#   From: 2010.03.12/outbox.cif.g09.slc.cpg/sg14_6_cif.got.tgz:11056.got - 2010.03.31 13:35:05.
