data_PCOD8127069
_publ_section_title
;
Structure prediction by ZEFSAII (Michael W. Deem and Ramdas Pophale) SiO2 
 PCOD8127069
Probable space group: P 21/C
;
_chemical_formula_sum "Si O2"
_cell_formula_units_Z 28
_cell_length_a 8.773246
_cell_length_b 21.174947
_cell_length_c 14.620448
_cell_angle_alpha 90.000000
_cell_angle_beta 153.050212
_cell_angle_gamma 90.000000
_cell_volume 1230.955361
_symmetry_space_group_name_H-M "P 21/C"
_symmetry_group_IT_number 14
_symmetry_cell_setting 'monoclinic'
loop_
_space_group_symop_operation_xyz
x,y,z
-x,1/2+y,1/2-z
-x,-y,-z
x,1/2-y,1/2+z
loop_
_atom_site_type_symbol
_atom_site_label
_atom_site_fract_x
_atom_site_fract_y
_atom_site_fract_z
Si Si1 0.846903 0.528416 0.222826
Si Si2 0.114267 0.888538 0.006762
Si Si3 0.850959 0.570639 0.906156
Si Si4 0.962425 0.342483 0.154945
Si Si5 0.121943 0.098153 0.920166
Si Si6 0.305265 0.788353 0.973691
Si Si7 0.872477 0.121643 0.270315
O O1 0.807008 0.577978 0.286019
O O2 0.086154 0.476439 0.395476
O O3 0.057480 0.560954 0.255135
O O4 0.500000 0.500000 0.000000
O O5 0.173634 0.819816 0.996179
O O6 0.451909 0.931493 0.173681
O O7 0.018277 0.876503 0.059428
O O8 0.057386 0.604129 0.934149
O O9 0.000000 0.500000 0.000000
O O10 0.879699 0.616140 0.010778
O O11 0.895135 0.374579 0.216617
O O12 0.317286 0.307957 0.343752
O O13 0.690316 0.286455 0.004795
O O14 0.504450 0.117584 0.115690
O O15 0.089220 0.813870 0.769379
#
# Coordination Sequence:
#
# PCOD8127069 Si02
#       7
#     4   4   4   4   4   4   4
#     4  11  22  38  60  89 122 161 202 251 308 368
#     4  10  23  41  61  90 128 161 204 262 310 377
#     4  11  22  41  66  94 126 168 212 263 325 380
#     4  10  23  40  63  87 122 165 208 262 315 381
#     4  11  22  38  60  90 119 157 202 251 311 369
#     4   9  22  43  60  85 120 161 208 255 314 374
#     4  10  22  39  60  85 122 161 199 254 309 373
#
# _framework density 22.746559000000001
#
# number of rings (size 3 to 8) (size 9 to 14) (size 15 to 20)
#    0.000    1.714    0.000    4.286    0.000    8.000 
#    0.000    5.714    0.000    0.000    0.000    0.000 
#    0.000    0.000    0.000    0.000    0.000    0.000 
#
# Total GULP energy -347058.889931 kJ/mol
# GULP energy per Si atom -12394.960355 kJ/mol
# Density = 2.269479 g / cm^3
# Si number density = 22.746559 Si / 1000 Ang^3
#
#
#
# Elastic Constant Matrix: (Units=GPa)
#
#
# Indices 1 2 3 4 5 6 
#
# 1 158.4808 38.4585 16.3299 0.0000 -27.9684 0.0000
# 2 38.4585 92.9615 8.8123 0.0000 -4.2640 0.0000
# 3 16.3299 8.8123 48.8112 0.0000 -18.2655 0.0000
# 4 0.0000 0.0000 0.0000 33.1482 0.0000 1.0360
# 5 -27.9684 -4.2640 -18.2655 0.0000 37.8341 0.0000
# 6 0.0000 0.0000 0.0000 1.0360 0.0000 23.4698
#
#
#
# Elastic Compliance Matrix: (Units=1/GPa)
#
#
# Indices 1 2 3 4 5 6 
#
# 1 0.008043 -0.003067 -0.000051 0.000000 0.005576 0.000000
# 2 -0.003067 0.012118 -0.001830 0.000000 -0.001785 0.000000
# 3 -0.000051 -0.001830 0.025317 0.000000 0.011979 0.000000
# 4 0.000000 0.000000 0.000000 0.030209 0.000000 -0.001333
# 5 0.005576 -0.001785 0.011979 0.000000 0.036135 0.000000
# 6 0.000000 0.000000 0.000000 -0.001333 0.000000 0.042667
#
#
# Mechanical properties :
#
#
# Convention : Reuss Voigt Hill
#
# Bulk Modulus (GPa) = 28.10298 47.49498 37.79898
# Shear Modulus (GPa) = 28.36967 34.66727 31.51847
#
# Velocity S-wave (km/s) = 3.53541 3.90816 3.72645
# Velocity P-wave (km/s) = 5.38954 6.42576 5.93033
#
# Compressibility (1/GPa) = 0.03558342
#
# Stress axis : x y z
#
# Youngs Moduli (GPa) = 124.32506 82.52493 39.49928
#
# Poissons Ratio (x) = 0.25311 0.00200
# Poissons Ratio (y) = 0.38131 0.07226
# Poissons Ratio (z) = 0.00630 0.15098
#
# Static dielectric constant tensor:
#      x y z
#    x 4.154130 0.000000 -0.273220 
#    y 0.000000 4.296020 0.000000 
#    z -0.273220 0.000000 4.204480 
# 
# 
# High freq. dielectric constant tensor:
#      x y z
#    x 1.907400 0.000000 -0.008170 
#    y 0.000000 1.888860 0.000000 
#    z -0.008170 0.000000 1.896580 
# 
# From -- ./inp_files/42032.got.cif
#   From: 2010.03.12/outbox.cif.g09.slc.cpg/sg14_22_cif.got.tgz:42032.got - 2010.03.31 13:35:05.
