data_PCOD8127328
_publ_section_title
;
Structure prediction by ZEFSAII (Michael W. Deem and Ramdas Pophale) SiO2 
 PCOD8127328
Probable space group: P 21/C
;
_chemical_formula_sum "Si O2"
_cell_formula_units_Z 32
_cell_length_a 8.067892
_cell_length_b 20.040311
_cell_length_c 8.486406
_cell_angle_alpha 90.000000
_cell_angle_beta 80.777974
_cell_angle_gamma 90.000000
_cell_volume 1354.373263
_symmetry_space_group_name_H-M "P 21/C"
_symmetry_group_IT_number 14
_symmetry_cell_setting 'monoclinic'
loop_
_space_group_symop_operation_xyz
x,y,z
-x,1/2+y,1/2-z
-x,-y,-z
x,1/2-y,1/2+z
loop_
_atom_site_type_symbol
_atom_site_label
_atom_site_fract_x
_atom_site_fract_y
_atom_site_fract_z
Si Si1 0.532866 0.457222 0.762578
Si Si2 0.582868 0.411877 0.093434
Si Si3 0.860414 0.190968 0.960522
Si Si4 0.479238 0.173420 0.092239
Si Si5 0.032556 0.304948 0.128420
Si Si6 0.088862 0.944520 0.884177
Si Si7 0.370107 0.295925 0.272560
Si Si8 0.037149 0.573869 0.048124
O O1 0.441353 0.529481 0.770312
O O2 0.464887 0.404469 0.643783
O O3 0.728736 0.469813 0.699060
O O4 0.492287 0.429887 0.943186
O O5 0.504669 0.344120 0.169706
O O6 0.776613 0.401410 0.023178
O O7 0.873245 0.191032 0.769469
O O8 0.665739 0.199672 0.027577
O O9 0.917123 0.119054 0.006657
O O10 0.986714 0.245626 0.015705
O O11 0.425624 0.218900 0.247856
O O12 0.359313 0.186132 0.959599
O O13 0.190598 0.297655 0.218235
O O14 0.076236 0.371955 0.023629
O O15 0.991522 0.924458 0.739510
O O16 0.000000 0.000000 0.000000
O O17 0.000000 0.500000 0.000000
#
# Coordination Sequence:
#
# PCOD8127328 Si02
#       8
#     4   4   4   4   4   4   4   4
#     4   9  22  41  71  98 134 174 234 276 349 403
#     4  10  22  43  70  98 134 182 222 290 339 421
#     4  11  23  43  71  96 135 181 232 281 342 423
#     4  11  23  45  68 100 133 186 227 285 346 417
#     4  12  26  44  67 105 137 181 231 289 348 412
#     4  10  22  41  69 101 137 176 224 286 345 411
#     4  12  26  42  70  98 143 175 233 289 351 412
#     4  11  24  43  69  99 135 185 231 280 347 418
#
# _framework density 23.627165000000002
#
# number of rings (size 3 to 8) (size 9 to 14) (size 15 to 20)
#    0.000    1.250    0.000    5.250    7.000    3.500 
#    4.500    0.000    0.000    0.000    0.000    0.000 
#    0.000    0.000    0.000    0.000    0.000    0.000 
#
# Total GULP energy -396733.395096 kJ/mol
# GULP energy per Si atom -12397.918597 kJ/mol
# Density = 2.357339 g / cm^3
# Si number density = 23.627165 Si / 1000 Ang^3
#
#
#
# Elastic Constant Matrix: (Units=GPa)
#
#
# Indices 1 2 3 4 5 6 
#
# 1 57.3293 27.0930 17.3917 0.0000 12.8275 0.0000
# 2 27.0930 111.3312 41.3584 0.0000 -0.4679 0.0000
# 3 17.3917 41.3584 132.3304 0.0000 6.1965 0.0000
# 4 0.0000 0.0000 0.0000 51.3067 0.0000 -4.2391
# 5 12.8275 -0.4679 6.1965 0.0000 34.4490 0.0000
# 6 0.0000 0.0000 0.0000 -4.2391 0.0000 32.3631
#
#
#
# Elastic Compliance Matrix: (Units=1/GPa)
#
#
# Indices 1 2 3 4 5 6 
#
# 1 0.021899 -0.005016 -0.000933 0.000000 -0.008055 0.000000
# 2 -0.005016 0.011329 -0.003001 0.000000 0.002562 0.000000
# 3 -0.000933 -0.003001 0.008676 0.000000 -0.001254 0.000000
# 4 0.000000 0.000000 0.000000 0.019704 0.000000 0.002581
# 5 -0.008055 0.002562 -0.001254 0.000000 0.032288 0.000000
# 6 0.000000 0.000000 0.000000 0.002581 0.000000 0.031237
#
#
# Mechanical properties :
#
#
# Convention : Reuss Voigt Hill
#
# Bulk Modulus (GPa) = 41.66277 52.51969 47.09123
# Shear Modulus (GPa) = 33.10471 37.96695 35.53583
#
# Velocity S-wave (km/s) = 3.74723 4.01299 3.88238
# Velocity P-wave (km/s) = 6.03274 6.61429 6.33020
#
# Compressibility (1/GPa) = 0.02400225
#
# Stress axis : x y z
#
# Youngs Moduli (GPa) = 45.66396 88.27124 115.25745
#
# Poissons Ratio (x) = 0.44281 0.10755
# Poissons Ratio (y) = 0.22907 0.34592
# Poissons Ratio (z) = 0.04261 0.26493
#
# Static dielectric constant tensor:
#      x y z
#    x 4.551520 0.000000 0.340810 
#    y 0.000000 4.314770 0.000000 
#    z 0.340810 0.000000 4.923800 
# 
# 
# High freq. dielectric constant tensor:
#      x y z
#    x 1.928590 0.000000 -0.004190 
#    y 0.000000 1.945080 0.000000 
#    z -0.004190 0.000000 1.948930 
# 
# From -- ./inp_files/10189.got.cif
#   From: 2010.03.12/outbox.cif.g09.slc.cpg/sg14_6_cif.got.tgz:10189.got - 2010.03.31 13:35:05.
