data_PCOD8127241
_publ_section_title
;
Structure prediction by ZEFSAII (Michael W. Deem and Ramdas Pophale) SiO2 
 PCOD8127241
Probable space group: P 21/C
;
_chemical_formula_sum "Si O2"
_cell_formula_units_Z 28
_cell_length_a 8.394650
_cell_length_b 21.265699
_cell_length_c 9.222860
_cell_angle_alpha 90.000000
_cell_angle_beta 128.429368
_cell_angle_gamma 90.000000
_cell_volume 1289.785724
_symmetry_space_group_name_H-M "P 21/C"
_symmetry_group_IT_number 14
_symmetry_cell_setting 'monoclinic'
loop_
_space_group_symop_operation_xyz
x,y,z
-x,1/2+y,1/2-z
-x,-y,-z
x,1/2-y,1/2+z
loop_
_atom_site_type_symbol
_atom_site_label
_atom_site_fract_x
_atom_site_fract_y
_atom_site_fract_z
Si Si1 0.311373 0.428505 0.000870
Si Si2 0.164199 0.688120 0.045082
Si Si3 0.734987 0.854163 0.240459
Si Si4 0.596906 0.432313 0.900458
Si Si5 0.210633 0.054552 0.986076
Si Si6 0.312461 0.802575 0.949929
Si Si7 0.930532 0.081754 0.087575
O O1 0.345179 0.384145 0.156458
O O2 0.291062 0.500810 0.037613
O O3 0.506983 0.419149 0.009065
O O4 0.106178 0.408669 0.804584
O O5 0.234885 0.618185 0.045746
O O6 0.285016 0.737336 0.016500
O O7 0.205437 0.703001 0.235115
O O8 0.923291 0.692503 0.877828
O O9 0.805338 0.909237 0.173226
O O10 0.553817 0.813466 0.067874
O O11 0.421571 0.429525 0.681777
O O12 0.200964 0.980108 0.950130
O O13 0.020568 0.076052 0.976964
O O14 0.216690 0.858723 0.990265
#
# Coordination Sequence:
#
# PCOD8127241 Si02
#       7
#     4   4   4   4   4   4   4
#     4  10  22  40  73 106 137 179 219 288 346 411
#     4  12  29  48  69  99 137 186 232 284 334 408
#     4  12  26  44  76 102 134 178 230 286 346 408
#     4  10  22  44  67 103 144 176 226 279 350 403
#     4  10  22  40  73 106 137 179 219 288 346 411
#     4  12  29  48  69  99 137 186 232 284 334 408
#     4  10  22  44  67 103 144 176 226 279 350 403
#
# _framework density 21.709033000000002
#
# number of rings (size 3 to 8) (size 9 to 14) (size 15 to 20)
#    0.000    1.143    2.857    1.714    6.000    8.000 
#    0.000    0.000    0.000    0.000    0.000    0.000 
#    0.000    0.000    0.000    0.000    0.000    0.000 
#
# Total GULP energy -347432.621321 kJ/mol
# GULP energy per Si atom -12408.307904 kJ/mol
# Density = 2.165962 g / cm^3
# Si number density = 21.709033 Si / 1000 Ang^3
#
#
#
# Elastic Constant Matrix: (Units=GPa)
#
#
# Indices 1 2 3 4 5 6 
#
# 1 58.6635 12.3215 23.8784 0.0000 7.8166 0.0000
# 2 12.3215 53.3594 9.1706 0.0000 2.8135 0.0000
# 3 23.8784 9.1706 72.8610 0.0000 1.4547 0.0000
# 4 0.0000 0.0000 0.0000 23.4135 0.0000 -1.2424
# 5 7.8166 2.8135 1.4547 0.0000 45.4801 0.0000
# 6 0.0000 0.0000 0.0000 -1.2424 0.0000 38.0579
#
#
#
# Elastic Compliance Matrix: (Units=1/GPa)
#
#
# Indices 1 2 3 4 5 6 
#
# 1 0.020775 -0.003549 -0.006299 0.000000 -0.003150 0.000000
# 2 -0.003549 0.019817 -0.001320 0.000000 -0.000574 0.000000
# 3 -0.006299 -0.001320 0.015942 0.000000 0.000654 0.000000
# 4 0.000000 0.000000 0.000000 0.042784 0.000000 0.001397
# 5 -0.003150 -0.000574 0.000654 0.000000 0.022544 0.000000
# 6 0.000000 0.000000 0.000000 0.001397 0.000000 0.026321
#
#
# Mechanical properties :
#
#
# Convention : Reuss Voigt Hill
#
# Bulk Modulus (GPa) = 29.24003 30.62501 29.93252
# Shear Modulus (GPa) = 27.48469 30.69119 29.08794
#
# Velocity S-wave (km/s) = 3.56202 3.76407 3.66444
# Velocity P-wave (km/s) = 5.51503 5.74705 5.63224
#
# Compressibility (1/GPa) = 0.03419969
#
# Stress axis : x y z
#
# Youngs Moduli (GPa) = 48.13391 50.46081 62.72660
#
# Poissons Ratio (x) = 0.17907 0.39512
# Poissons Ratio (y) = 0.17081 0.08279
# Poissons Ratio (z) = 0.30320 0.06660
#
# Static dielectric constant tensor:
#      x y z
#    x 3.899540 0.000000 -0.019000 
#    y 0.000000 3.810510 0.000000 
#    z -0.019000 0.000000 4.031630 
# 
# 
# High freq. dielectric constant tensor:
#      x y z
#    x 1.857290 0.000000 0.001230 
#    y 0.000000 1.843290 0.000000 
#    z 0.001230 0.000000 1.870130 
# 
# From -- ./inp_files/10448.got.cif
#   From: 2010.03.12/outbox.cif.g09.slc.cpg/sg14_6_cif.got.tgz:10448.got - 2010.03.31 13:35:05.
