data_PCOD8127137
_publ_section_title
;
Structure prediction by ZEFSAII (Michael W. Deem and Ramdas Pophale) SiO2 
 PCOD8127137
Probable space group: P 21/C
;
_chemical_formula_sum "Si O2"
_cell_formula_units_Z 28
_cell_length_a 8.044774
_cell_length_b 8.738173
_cell_length_c 27.646611
_cell_angle_alpha 90.000000
_cell_angle_beta 41.952568
_cell_angle_gamma 90.000000
_cell_volume 1299.234830
_symmetry_space_group_name_H-M "P 21/C"
_symmetry_group_IT_number 14
_symmetry_cell_setting 'monoclinic'
loop_
_space_group_symop_operation_xyz
x,y,z
-x,1/2+y,1/2-z
-x,-y,-z
x,1/2-y,1/2+z
loop_
_atom_site_type_symbol
_atom_site_label
_atom_site_fract_x
_atom_site_fract_y
_atom_site_fract_z
Si Si1 0.889034 0.560656 0.580485
Si Si2 0.777235 0.252809 0.334839
Si Si3 0.824014 0.606975 0.817237
Si Si4 0.137047 0.298555 0.836245
Si Si5 0.985826 0.621671 0.890830
Si Si6 0.246653 0.325909 0.485150
Si Si7 0.543599 0.207506 0.170992
O O1 0.776764 0.668575 0.645921
O O2 0.937704 0.661844 0.521627
O O3 0.671231 0.436609 0.618120
O O4 0.152215 0.474483 0.537236
O O5 0.513700 0.328938 0.402735
O O6 0.912381 0.350402 0.263992
O O7 0.916538 0.278923 0.354607
O O8 0.768801 0.073238 0.322609
O O9 0.595557 0.694723 0.840713
O O10 0.859129 0.653852 0.865937
O O11 0.032416 0.442563 0.888272
O O12 0.349844 0.351213 0.753165
O O13 0.249755 0.701768 0.842843
O O14 0.791379 0.674023 0.974563
#
# Coordination Sequence:
#
# PCOD8127137 Si02
#       7
#     4   4   4   4   4   4   4
#     4  10  23  44  62  95 134 172 217 266 330 395
#     4  10  24  43  65  99 129 170 219 273 336 388
#     4  10  24  42  67 100 130 170 222 277 324 394
#     4  10  22  39  67  97 125 168 222 273 325 388
#     4  10  23  43  64  95 129 172 219 268 328 393
#     4  10  24  44  61  94 132 177 217 260 336 394
#     4  10  22  42  66  98 128 171 218 270 332 387
#
# _framework density 21.551144000000001
#
# number of rings (size 3 to 8) (size 9 to 14) (size 15 to 20)
#    0.000    2.000    0.000    0.857   10.000    8.000 
#   12.857    0.000    0.000    0.000    0.000    0.000 
#    0.000    0.000    0.000    0.000    0.000    0.000 
#
# Total GULP energy -346899.992402 kJ/mol
# GULP energy per Si atom -12389.285443 kJ/mol
# Density = 2.150209 g / cm^3
# Si number density = 21.551144 Si / 1000 Ang^3
#
#
#
# Elastic Constant Matrix: (Units=GPa)
#
#
# Indices 1 2 3 4 5 6 
#
# 1 75.0038 21.6396 33.6990 0.0000 18.6615 0.0000
# 2 21.6396 28.2472 65.9628 0.0000 39.1171 0.0000
# 3 33.6990 65.9628 120.6143 0.0000 -0.3548 0.0000
# 4 0.0000 0.0000 0.0000 22.3151 0.0000 4.4148
# 5 18.6615 39.1171 -0.3548 0.0000 10.0331 0.0000
# 6 0.0000 0.0000 0.0000 4.4148 0.0000 33.9076
#
#
#
# Elastic Compliance Matrix: (Units=1/GPa)
#
#
# Indices 1 2 3 4 5 6 
#
# 1 0.016383 -0.007115 -0.000694 0.000000 -0.002754 0.000000
# 2 -0.007115 -0.003087 0.003751 0.000000 0.025404 0.000000
# 3 -0.000694 0.003751 0.006395 0.000000 -0.013108 0.000000
# 4 0.000000 0.000000 0.000000 0.045998 0.000000 -0.005989
# 5 -0.002754 0.025404 -0.013108 0.000000 0.005283 0.000000
# 6 0.000000 0.000000 0.000000 -0.005989 0.000000 0.030272
#
#
# Mechanical properties :
#
#
# Convention : Reuss Voigt Hill
#
# Bulk Modulus (GPa) = 86.40335 51.82980 69.11658
# Shear Modulus (GPa) = 44.16306 20.08875 32.12591
#
# Velocity S-wave (km/s) = 4.53174 3.05641 3.86512
# Velocity P-wave (km/s) = 8.21958 6.04628 7.21523
#
# Compressibility (1/GPa) = 0.01157363
#
# Stress axis : x y z
#
# Youngs Moduli (GPa) = 61.04002 -323.90001 156.37898
#
# Poissons Ratio (x) = -2.30469 0.10852
# Poissons Ratio (y) = 0.43433 -0.58661
# Poissons Ratio (z) = 0.04236 1.21502
#
# Static dielectric constant tensor:
#      x y z
#    x 3.922160 0.000000 -0.014510 
#    y 0.000000 3.907590 0.000000 
#    z -0.014510 0.000000 3.936480 
# 
# 
# High freq. dielectric constant tensor:
#      x y z
#    x 1.841860 0.000000 0.002840 
#    y 0.000000 1.845280 0.000000 
#    z 0.002840 0.000000 1.856610 
# 
# From -- ./inp_files/79461.got.cif
#   From: 2010.03.12/outbox.cif.g09.slc.cpg/sg14_40_cif.got.tgz:79461.got - 2010.03.31 13:35:05.
