data_PCOD8127843
_publ_section_title
;
Structure prediction by ZEFSAII (Michael W. Deem and Ramdas Pophale) SiO2 
 PCOD8127843
Probable space group: P 21/C
;
_chemical_formula_sum "Si O2"
_cell_formula_units_Z 20
_cell_length_a 9.572946
_cell_length_b 10.144544
_cell_length_c 13.891600
_cell_angle_alpha 90.000000
_cell_angle_beta 139.049534
_cell_angle_gamma 90.000000
_cell_volume 884.180698
_symmetry_space_group_name_H-M "P 21/C"
_symmetry_group_IT_number 14
_symmetry_cell_setting 'monoclinic'
loop_
_space_group_symop_operation_xyz
x,y,z
-x,1/2+y,1/2-z
-x,-y,-z
x,1/2-y,1/2+z
loop_
_atom_site_type_symbol
_atom_site_label
_atom_site_fract_x
_atom_site_fract_y
_atom_site_fract_z
Si Si1 0.472945 0.783935 0.156691
Si Si2 0.956718 0.327571 0.083566
Si Si3 0.073847 0.117173 0.450368
Si Si4 0.577826 0.416019 0.701857
Si Si5 0.711971 0.712878 0.595444
O O1 0.510627 0.687737 0.266422
O O2 0.586248 0.723995 0.120486
O O3 0.549540 0.932480 0.220731
O O4 0.218917 0.786375 0.000594
O O5 0.841632 0.466287 0.993129
O O6 0.077959 0.351986 0.246827
O O7 0.113663 0.301140 0.072129
O O8 0.820015 0.116874 0.295953
O O9 0.212511 0.174453 0.436942
O O10 0.429712 0.397328 0.530152
#
# Coordination Sequence:
#
# PCOD8127843 Si02
#       5
#     4   4   4   4   4
#     4  11  25  46  69 100 137 181 226 281 337 406
#     4  10  23  42  67  94 140 174 223 275 342 393
#     4  10  23  45  68  94 139 182 215 284 343 393
#     4  11  25  47  71  98 140 183 223 280 345 399
#     4  12  23  40  73 101 128 180 233 274 332 408
#
# _framework density 22.619810999999999
#
# number of rings (size 3 to 8) (size 9 to 14) (size 15 to 20)
#    0.000    1.200    2.000    3.000    8.400    0.800 
#    7.200    5.000    0.000    0.000    0.000    0.000 
#    0.000    0.000    0.000    0.000    0.000    0.000 
#
# Total GULP energy -247873.195051 kJ/mol
# GULP energy per Si atom -12393.659753 kJ/mol
# Density = 2.256833 g / cm^3
# Si number density = 22.619811 Si / 1000 Ang^3
#
#
#
# Elastic Constant Matrix: (Units=GPa)
#
#
# Indices 1 2 3 4 5 6 
#
# 1 116.8440 47.6555 18.0116 0.0000 -14.7168 0.0000
# 2 47.6555 76.0438 26.5080 0.0000 1.2404 0.0000
# 3 18.0116 26.5080 108.2985 0.0000 -14.0128 0.0000
# 4 0.0000 0.0000 0.0000 39.2297 0.0000 0.1823
# 5 -14.7168 1.2404 -14.0128 0.0000 33.3815 0.0000
# 6 0.0000 0.0000 0.0000 0.1823 0.0000 33.2139
#
#
#
# Elastic Compliance Matrix: (Units=1/GPa)
#
#
# Indices 1 2 3 4 5 6 
#
# 1 0.012582 -0.008236 0.000720 0.000000 0.006155 0.000000
# 2 -0.008236 0.019913 -0.004304 0.000000 -0.006178 0.000000
# 3 0.000720 -0.004304 0.010817 0.000000 0.005018 0.000000
# 4 0.000000 0.000000 0.000000 0.025492 0.000000 -0.000140
# 5 0.006155 -0.006178 0.005018 0.000000 0.035006 0.000000
# 6 0.000000 0.000000 0.000000 -0.000140 0.000000 0.030109
#
#
# Mechanical properties :
#
#
# Convention : Reuss Voigt Hill
#
# Bulk Modulus (GPa) = 50.83497 53.94851 52.39174
# Shear Modulus (GPa) = 30.46649 35.09910 32.78279
#
# Velocity S-wave (km/s) = 3.67399 3.94343 3.81109
# Velocity P-wave (km/s) = 6.36553 6.68103 6.52519
#
# Compressibility (1/GPa) = 0.01967150
#
# Stress axis : x y z
#
# Youngs Moduli (GPa) = 79.47923 50.21906 92.45009
#
# Poissons Ratio (x) = 0.41361 -0.06655
# Poissons Ratio (y) = 0.65461 0.39786
# Poissons Ratio (z) = -0.05721 0.21612
#
# Static dielectric constant tensor:
#      x y z
#    x 4.187180 0.000000 -0.012740 
#    y 0.000000 3.724370 0.000000 
#    z -0.012740 0.000000 4.623550 
# 
# 
# High freq. dielectric constant tensor:
#      x y z
#    x 1.895860 0.000000 -0.001810 
#    y 0.000000 1.858330 0.000000 
#    z -0.001810 0.000000 1.933240 
# 
# From -- ./inp_files/39477.got.cif
#   From: 2010.03.12/outbox.cif.g09.slc.cpg/sg14_20_cif.got.tgz:39477.got - 2010.03.31 13:35:05.
