data_PCOD8127249
_publ_section_title
;
Structure prediction by ZEFSAII (Michael W. Deem and Ramdas Pophale) SiO2 
 PCOD8127249
Probable space group: P 21/C
;
_chemical_formula_sum "Si O2"
_cell_formula_units_Z 24
_cell_length_a 15.224733
_cell_length_b 13.947245
_cell_length_c 9.493681
_cell_angle_alpha 90.000000
_cell_angle_beta 142.372999
_cell_angle_gamma 90.000000
_cell_volume 1230.754848
_symmetry_space_group_name_H-M "P 21/C"
_symmetry_group_IT_number 14
_symmetry_cell_setting 'monoclinic'
loop_
_space_group_symop_operation_xyz
x,y,z
-x,1/2+y,1/2-z
-x,-y,-z
x,1/2-y,1/2+z
loop_
_atom_site_type_symbol
_atom_site_label
_atom_site_fract_x
_atom_site_fract_y
_atom_site_fract_z
Si Si1 0.272924 0.198151 0.550226
Si Si2 0.096567 0.931442 0.216093
Si Si3 0.078206 0.249680 0.064086
Si Si4 0.384792 0.473078 0.044843
Si Si5 0.035867 0.066926 0.672276
Si Si6 0.352050 0.407994 0.688310
O O1 0.187643 0.186909 0.294823
O O2 0.163063 0.199070 0.542964
O O3 0.370773 0.101942 0.659544
O O4 0.368404 0.294895 0.672581
O O5 0.078903 0.961604 0.355719
O O6 0.262478 0.944734 0.387917
O O7 0.048722 0.820130 0.147804
O O8 0.000000 0.000000 0.000000
O O9 0.010400 0.326312 0.083596
O O10 0.380995 0.418919 0.890511
O O11 0.534307 0.529527 0.255897
O O12 0.194373 0.056164 0.941460
O O13 0.000000 0.000000 0.500000
#
# Coordination Sequence:
#
# PCOD8127249 Si02
#       6
#     4   4   4   4   4   4
#     4  11  18  40  62  88 117 170 199 246 316 370
#     4  12  20  39  62  95 115 161 211 251 310 364
#     4  11  21  36  63  87 124 159 209 248 303 381
#     4  11  22  39  68  87 128 164 206 260 303 381
#     4  11  23  39  62  92 125 158 210 260 307 368
#     4  10  22  41  60  94 119 169 209 242 320 374
#
# _framework density 19.500228
#
# number of rings (size 3 to 8) (size 9 to 14) (size 15 to 20)
#    0.000    1.000    8.333    1.000    0.000    0.000 
#    3.000    9.167    0.000    0.000    0.000    0.000 
#    0.000    0.000    0.000    0.000    0.000    0.000 
#
# Total GULP energy -297459.314028 kJ/mol
# GULP energy per Si atom -12394.138084 kJ/mol
# Density = 1.945584 g / cm^3
# Si number density = 19.500228 Si / 1000 Ang^3
#
#
#
# Elastic Constant Matrix: (Units=GPa)
#
#
# Indices 1 2 3 4 5 6 
#
# 1 94.9755 36.0381 12.4002 0.0000 -3.3985 0.0000
# 2 36.0381 79.1600 17.1391 0.0000 5.9783 0.0000
# 3 12.4002 17.1391 45.9996 0.0000 -3.0843 0.0000
# 4 0.0000 0.0000 0.0000 32.0362 0.0000 -1.2375
# 5 -3.3985 5.9783 -3.0843 0.0000 31.5277 0.0000
# 6 0.0000 0.0000 0.0000 -1.2375 0.0000 42.4724
#
#
#
# Elastic Compliance Matrix: (Units=1/GPa)
#
#
# Indices 1 2 3 4 5 6 
#
# 1 0.012982 -0.005839 -0.001164 0.000000 0.002393 0.000000
# 2 -0.005839 0.016681 -0.004928 0.000000 -0.004274 0.000000
# 3 -0.001164 -0.004928 0.024101 0.000000 0.003167 0.000000
# 4 0.000000 0.000000 0.000000 0.031250 0.000000 0.000910
# 5 0.002393 -0.004274 0.003167 0.000000 0.033096 0.000000
# 6 0.000000 0.000000 0.000000 0.000910 0.000000 0.023571
#
#
# Mechanical properties :
#
#
# Convention : Reuss Voigt Hill
#
# Bulk Modulus (GPa) = 33.44084 39.03224 36.23654
# Shear Modulus (GPa) = 28.48841 31.51110 29.99976
#
# Velocity S-wave (km/s) = 3.82635 4.02423 3.92654
# Velocity P-wave (km/s) = 6.05867 6.45386 6.25939
#
# Compressibility (1/GPa) = 0.02990355
#
# Stress axis : x y z
#
# Youngs Moduli (GPa) = 77.02880 59.94989 41.49149
#
# Poissons Ratio (x) = 0.35005 0.04828
# Poissons Ratio (y) = 0.44977 0.20446
# Poissons Ratio (z) = 0.08963 0.29541
#
# Static dielectric constant tensor:
#      x y z
#    x 3.594150 0.000000 -0.172900 
#    y 0.000000 3.473040 0.000000 
#    z -0.172900 0.000000 3.460170 
# 
# 
# High freq. dielectric constant tensor:
#      x y z
#    x 1.766200 0.000000 -0.019090 
#    y 0.000000 1.766210 0.000000 
#    z -0.019090 0.000000 1.735890 
# 
# From -- ./inp_files/8426.got.cif
#   From: 2010.03.12/outbox.cif.g09.slc.cpg/sg14_5_cif.got.tgz:8426.got - 2010.03.31 13:35:05.
