data_PCOD8127573
_publ_section_title
;
Structure prediction by ZEFSAII (Michael W. Deem and Ramdas Pophale) SiO2 
 PCOD8127573
Probable space group: P 21/C
;
_chemical_formula_sum "Si O2"
_cell_formula_units_Z 32
_cell_length_a 13.853700
_cell_length_b 22.371613
_cell_length_c 8.729083
_cell_angle_alpha 90.000000
_cell_angle_beta 147.814893
_cell_angle_gamma 90.000000
_cell_volume 1441.049079
_symmetry_space_group_name_H-M "P 21/C"
_symmetry_group_IT_number 14
_symmetry_cell_setting 'monoclinic'
loop_
_space_group_symop_operation_xyz
x,y,z
-x,1/2+y,1/2-z
-x,-y,-z
x,1/2-y,1/2+z
loop_
_atom_site_type_symbol
_atom_site_label
_atom_site_fract_x
_atom_site_fract_y
_atom_site_fract_z
Si Si1 0.653898 0.038523 0.124186
Si Si2 0.150843 0.316935 0.332810
Si Si3 0.689181 0.018081 0.825726
Si Si4 0.008427 0.932317 0.222840
Si Si5 0.475435 0.827252 0.045825
Si Si6 0.111236 0.195619 0.438556
Si Si7 0.436507 0.711727 0.164426
Si Si8 0.167671 0.872175 0.138784
O O1 0.837297 0.035718 0.468619
O O2 0.688860 0.008228 0.007651
O O3 0.595794 0.106823 0.018675
O O4 0.500000 0.000000 0.000000
O O5 0.089476 0.264619 0.364110
O O6 0.367559 0.316230 0.608853
O O7 0.085403 0.378875 0.312199
O O8 0.052661 0.308340 0.037147
O O9 0.717360 0.086909 0.821033
O O10 0.500000 0.000000 0.500000
O O11 0.852468 0.979657 0.973071
O O12 0.096402 0.910585 0.184622
O O13 0.688671 0.829805 0.310477
O O14 0.430056 0.783184 0.126681
O O15 0.382716 0.800390 0.768003
O O16 0.997648 0.153477 0.177783
O O17 0.292847 0.681521 0.861194
#
# Coordination Sequence:
#
# PCOD8127573 Si02
#       8
#     4   4   4   4   4   4   4   4
#     4  12  28  47  74 101 142 192 239 294 358 426
#     4  10  22  44  66  99 137 185 226 283 357 415
#     4  12  29  47  71 103 138 187 241 295 352 420
#     4  12  26  46  72  99 143 186 241 289 350 424
#     4  10  24  44  72 101 140 183 229 284 357 423
#     4  10  23  39  70  99 140 174 226 286 351 422
#     4  10  23  44  70 102 141 179 227 290 354 423
#     4  12  25  43  71 105 139 178 233 298 351 420
#
# _framework density 22.206046000000001
#
# number of rings (size 3 to 8) (size 9 to 14) (size 15 to 20)
#    0.000    1.000    1.250    3.750   10.500    2.000 
#    0.000    0.000    0.000    0.000    0.000    0.000 
#    0.000    0.000    0.000    0.000    0.000    0.000 
#
# Total GULP energy -396999.732331 kJ/mol
# GULP energy per Si atom -12406.241635 kJ/mol
# Density = 2.215550 g / cm^3
# Si number density = 22.206046 Si / 1000 Ang^3
#
#
#
# Elastic Constant Matrix: (Units=GPa)
#
#
# Indices 1 2 3 4 5 6 
#
# 1 66.6547 17.0743 14.6200 0.0000 -13.2289 0.0000
# 2 17.0743 88.4870 38.3966 0.0000 9.6704 0.0000
# 3 14.6200 38.3966 141.8901 0.0000 -6.5594 0.0000
# 4 0.0000 0.0000 0.0000 -112.1226 0.0000 -36.9355
# 5 -13.2289 9.6704 -6.5594 0.0000 33.3192 0.0000
# 6 0.0000 0.0000 0.0000 -36.9355 0.0000 27.5221
#
#
#
# Elastic Compliance Matrix: (Units=1/GPa)
#
#
# Indices 1 2 3 4 5 6 
#
# 1 0.017775 -0.004189 -0.000318 0.000000 0.008210 0.000000
# 2 -0.004189 0.014477 -0.003792 0.000000 -0.006611 0.000000
# 3 -0.000318 -0.003792 0.008226 0.000000 0.002594 0.000000
# 4 0.000000 0.000000 0.000000 -0.006185 0.000000 -0.008300
# 5 0.008210 -0.006611 0.002594 0.000000 0.035702 0.000000
# 6 0.000000 0.000000 0.000000 -0.008300 0.000000 0.025196
#
#
# Mechanical properties :
#
#
# Convention : Reuss Voigt Hill
#
# Bulk Modulus (GPa) = 41.87475 48.57927 45.22701
# Shear Modulus (GPa) = 41.75362 4.87314 23.31338
#
# Velocity S-wave (km/s) = 4.34093 1.48299 3.24368
# Velocity P-wave (km/s) = 6.63499 4.98562 5.86854
#
# Compressibility (1/GPa) = 0.02388074
#
# Stress axis : x y z
#
# Youngs Moduli (GPa) = 56.25849 69.07400 121.55895
#
# Poissons Ratio (x) = 0.28935 0.03870
# Poissons Ratio (y) = 0.23567 0.46091
# Poissons Ratio (z) = 0.01791 0.26191
#
# Static dielectric constant tensor:
#      x y z
#    x 4.092280 0.000000 -0.102360 
#    y 0.000000 3.937770 0.000000 
#    z -0.102360 0.000000 4.206610 
# 
# 
# High freq. dielectric constant tensor:
#      x y z
#    x 1.881280 0.000000 -0.002820 
#    y 0.000000 1.880750 0.000000 
#    z -0.002820 0.000000 1.892000 
# 
# From -- ./inp_files/17015.got.cif
#   From: 2010.03.12/outbox.cif.g09.slc.cpg/sg14_9_cif.got.tgz:17015.got - 2010.03.31 13:35:05.
