data_PCOD8127335
_publ_section_title
;
Structure prediction by ZEFSAII (Michael W. Deem and Ramdas Pophale) SiO2 
 PCOD8127335
Probable space group: P 21/C
;
_chemical_formula_sum "Si O2"
_cell_formula_units_Z 28
_cell_length_a 21.314836
_cell_length_b 5.147022
_cell_length_c 14.933298
_cell_angle_alpha 90.000000
_cell_angle_beta 128.498283
_cell_angle_gamma 90.000000
_cell_volume 1282.178452
_symmetry_space_group_name_H-M "P 21/C"
_symmetry_group_IT_number 14
_symmetry_cell_setting 'monoclinic'
loop_
_space_group_symop_operation_xyz
x,y,z
-x,1/2+y,1/2-z
-x,-y,-z
x,1/2-y,1/2+z
loop_
_atom_site_type_symbol
_atom_site_label
_atom_site_fract_x
_atom_site_fract_y
_atom_site_fract_z
Si Si1 0.817400 0.193348 0.960109
Si Si2 0.838130 0.167483 0.282937
Si Si3 0.659758 0.600604 0.265128
Si Si4 0.549555 0.305571 0.278583
Si Si5 0.311446 0.014847 0.564885
Si Si6 0.263512 0.167565 0.340398
Si Si7 0.948728 0.362655 0.717785
O O1 0.861115 0.294731 0.908095
O O2 0.749378 0.990719 0.871166
O O3 0.775420 0.425202 0.977685
O O4 0.881079 0.063660 0.084156
O O5 0.773551 0.379104 0.194361
O O6 0.915422 0.187191 0.288162
O O7 0.802541 0.880914 0.239784
O O8 0.589506 0.387900 0.217969
O O9 0.662745 0.685463 0.164304
O O10 0.640991 0.842377 0.312754
O O11 0.510582 0.563121 0.288245
O O12 0.626651 0.217462 0.407601
O O13 0.299284 0.209048 0.470956
O O14 0.009600 0.600219 0.778290
#
# Coordination Sequence:
#
# PCOD8127335 Si02
#       7
#     4   4   4   4   4   4   4
#     4  10  23  41  67  94 125 170 221 266 320 373
#     4  11  23  42  65  94 129 166 213 274 316 377
#     4  10  22  41  69  98 125 169 217 270 310 377
#     4  11  23  41  65  92 135 178 206 253 323 383
#     4  11  21  41  70  95 124 172 214 267 317 371
#     4  11  23  38  69 101 123 158 227 271 310 369
#     4  12  27  42  63  94 134 174 210 265 322 389
#
# _framework density 21.837831999999999
#
# number of rings (size 3 to 8) (size 9 to 14) (size 15 to 20)
#    0.000    1.143    4.286    1.714    4.000    1.143 
#    0.000    1.429    0.000    0.000    0.000    0.000 
#    0.000    0.000    0.000    0.000    0.000    0.000 
#
# Total GULP energy -347081.749635 kJ/mol
# GULP energy per Si atom -12395.776773 kJ/mol
# Density = 2.178813 g / cm^3
# Si number density = 21.837832 Si / 1000 Ang^3
#
#
#
# Elastic Constant Matrix: (Units=GPa)
#
#
# Indices 1 2 3 4 5 6 
#
# 1 111.8447 24.7341 26.3001 0.0000 2.6192 0.0000
# 2 24.7341 85.6767 0.9057 0.0000 3.5223 0.0000
# 3 26.3001 0.9057 30.5041 0.0000 -8.7661 0.0000
# 4 0.0000 0.0000 0.0000 25.5706 0.0000 3.9271
# 5 2.6192 3.5223 -8.7661 0.0000 26.1711 0.0000
# 6 0.0000 0.0000 0.0000 3.9271 0.0000 40.3405
#
#
#
# Elastic Compliance Matrix: (Units=1/GPa)
#
#
# Indices 1 2 3 4 5 6 
#
# 1 0.012670 -0.003326 -0.012239 0.000000 -0.004920 0.000000
# 2 -0.003326 0.012632 0.002323 0.000000 -0.000589 0.000000
# 3 -0.012239 0.002323 0.048164 0.000000 0.017045 0.000000
# 4 0.000000 0.000000 0.000000 0.039701 0.000000 -0.003865
# 5 -0.004920 -0.000589 0.017045 0.000000 0.044491 0.000000
# 6 0.000000 0.000000 0.000000 -0.003865 0.000000 0.025165
#
#
# Mechanical properties :
#
#
# Convention : Reuss Voigt Hill
#
# Bulk Modulus (GPa) = 21.28456 36.87837 29.08146
# Shear Modulus (GPa) = 22.22564 30.15546 26.19055
#
# Velocity S-wave (km/s) = 3.19369 3.72005 3.46688
# Velocity P-wave (km/s) = 4.83398 5.94775 5.41955
#
# Compressibility (1/GPa) = 0.04698242
#
# Stress axis : x y z
#
# Youngs Moduli (GPa) = 78.92921 79.16637 20.76254
#
# Poissons Ratio (x) = 0.26331 0.25410
# Poissons Ratio (y) = 0.26252 -0.04824
# Poissons Ratio (z) = 0.96598 -0.18393
#
# Static dielectric constant tensor:
#      x y z
#    x 4.326540 0.000000 -0.214480 
#    y 0.000000 4.003280 0.000000 
#    z -0.214480 0.000000 3.652620 
# 
# 
# High freq. dielectric constant tensor:
#      x y z
#    x 1.873710 0.000000 -0.010840 
#    y 0.000000 1.868850 0.000000 
#    z -0.010840 0.000000 1.821150 
# 
# From -- ./inp_files/48210.got.cif
#   From: 2010.03.12/outbox.cif.g09.slc.cpg/sg14_25_cif.got.tgz:48210.got - 2010.03.31 13:35:05.
