data_PCOD8127549
_publ_section_title
;
Structure prediction by ZEFSAII (Michael W. Deem and Ramdas Pophale) SiO2 
 PCOD8127549
Probable space group: P 21/C
;
_chemical_formula_sum "Si O2"
_cell_formula_units_Z 16
_cell_length_a 6.935031
_cell_length_b 6.742458
_cell_length_c 26.052824
_cell_angle_alpha 90.000000
_cell_angle_beta 40.564840
_cell_angle_gamma 90.000000
_cell_volume 792.210633
_symmetry_space_group_name_H-M "P 21/C"
_symmetry_group_IT_number 14
_symmetry_cell_setting 'monoclinic'
loop_
_space_group_symop_operation_xyz
x,y,z
-x,1/2+y,1/2-z
-x,-y,-z
x,1/2-y,1/2+z
loop_
_atom_site_type_symbol
_atom_site_label
_atom_site_fract_x
_atom_site_fract_y
_atom_site_fract_z
Si Si1 0.869487 0.096421 0.159772
Si Si2 0.124625 0.705028 0.068790
Si Si3 0.571963 0.443692 0.167687
Si Si4 0.328088 0.395078 0.108149
O O1 0.719316 0.228058 0.145550
O O2 0.068703 0.234429 0.155735
O O3 0.618959 0.988987 0.243403
O O4 0.075827 0.935305 0.090559
O O5 0.239260 0.596059 0.096828
O O6 0.822316 0.609460 0.109019
O O7 0.365579 0.691885 0.975254
O O8 0.360568 0.444356 0.161265
#
# Coordination Sequence:
#
# PCOD8127549 Si02
#       4
#     4   4   4   4
#     4  11  23  38  60  89 123 154 200 245 289 353
#     4  10  22  44  60  89 123 150 201 249 290 356
#     4  11  23  39  61  90 121 159 196 245 296 347
#     4  10  24  39  65  88 117 160 197 243 299 349
#
# _framework density 20.196650000000002
#
# number of rings (size 3 to 8) (size 9 to 14) (size 15 to 20)
#    0.000    1.500    2.500    1.500    3.500    3.000 
#    0.000    0.000    0.000    0.000    0.000    0.000 
#    0.000    0.000    0.000    0.000    0.000    0.000 
#
# Total GULP energy -198526.774378 kJ/mol
# GULP energy per Si atom -12407.923399 kJ/mol
# Density = 2.015068 g / cm^3
# Si number density = 20.196650 Si / 1000 Ang^3
#
#
#
# Elastic Constant Matrix: (Units=GPa)
#
#
# Indices 1 2 3 4 5 6 
#
# 1 94.8543 24.5876 -4.4080 0.0000 6.4975 0.0000
# 2 24.5876 79.8268 6.7706 0.0000 5.3597 0.0000
# 3 -4.4080 6.7706 52.1181 0.0000 -12.0052 0.0000
# 4 0.0000 0.0000 0.0000 37.6860 0.0000 -8.5361
# 5 6.4975 5.3597 -12.0052 0.0000 27.9011 0.0000
# 6 0.0000 0.0000 0.0000 -8.5361 0.0000 15.1444
#
#
#
# Elastic Compliance Matrix: (Units=1/GPa)
#
#
# Indices 1 2 3 4 5 6 
#
# 1 0.011624 -0.003569 0.001089 0.000000 -0.001553 0.000000
# 2 -0.003569 0.014075 -0.002844 0.000000 -0.003096 0.000000
# 3 0.001089 -0.002844 0.021885 0.000000 0.009709 0.000000
# 4 0.000000 0.000000 0.000000 0.030419 0.000000 0.017145
# 5 -0.001553 -0.003096 0.009709 0.000000 0.040975 0.000000
# 6 0.000000 0.000000 0.000000 0.017145 0.000000 0.075695
#
#
# Mechanical properties :
#
#
# Convention : Reuss Voigt Hill
#
# Bulk Modulus (GPa) = 27.07174 31.18884 29.13029
# Shear Modulus (GPa) = 22.97447 29.46957 26.22202
#
# Velocity S-wave (km/s) = 3.37640 3.82400 3.60715
# Velocity P-wave (km/s) = 5.35101 5.91383 5.63945
#
# Compressibility (1/GPa) = 0.03693890
#
# Stress axis : x y z
#
# Youngs Moduli (GPa) = 86.02521 71.04614 45.69291
#
# Poissons Ratio (x) = 0.25353 -0.04976
# Poissons Ratio (y) = 0.30699 0.12993
# Poissons Ratio (z) = -0.09369 0.20202
#
# Static dielectric constant tensor:
#      x y z
#    x 3.568320 0.000000 -0.234680 
#    y 0.000000 3.688940 0.000000 
#    z -0.234680 0.000000 3.612960 
# 
# 
# High freq. dielectric constant tensor:
#      x y z
#    x 1.786880 0.000000 -0.016270 
#    y 0.000000 1.795010 0.000000 
#    z -0.016270 0.000000 1.794220 
# 
# From -- ./inp_files/52395.got.cif
#   From: 2010.03.12/outbox.cif.g09.slc.cpg/sg14_27_cif.got.tgz:52395.got - 2010.03.31 13:35:05.
