data_PCOD8127499
_publ_section_title
;
Structure prediction by ZEFSAII (Michael W. Deem and Ramdas Pophale) SiO2 
 PCOD8127499
Probable space group: P 21/C
;
_chemical_formula_sum "Si O2"
_cell_formula_units_Z 28
_cell_length_a 19.760040
_cell_length_b 8.190921
_cell_length_c 10.069798
_cell_angle_alpha 90.000000
_cell_angle_beta 127.582581
_cell_angle_gamma 90.000000
_cell_volume 1291.596745
_symmetry_space_group_name_H-M "P 21/C"
_symmetry_group_IT_number 14
_symmetry_cell_setting 'monoclinic'
loop_
_space_group_symop_operation_xyz
x,y,z
-x,1/2+y,1/2-z
-x,-y,-z
x,1/2-y,1/2+z
loop_
_atom_site_type_symbol
_atom_site_label
_atom_site_fract_x
_atom_site_fract_y
_atom_site_fract_z
Si Si1 0.120768 0.322751 0.349813
Si Si2 0.863528 0.166424 0.727340
Si Si3 0.229519 0.529939 0.301004
Si Si4 0.245450 0.068203 0.538273
Si Si5 0.047325 0.854589 0.890784
Si Si6 0.587758 0.106323 0.957865
Si Si7 0.580389 0.086134 0.257188
O O1 0.158206 0.399008 0.259323
O O2 0.207183 0.249557 0.523023
O O3 0.074381 0.463901 0.378794
O O4 0.054897 0.174162 0.240239
O O5 0.789401 0.296221 0.659799
O O6 0.912264 0.213250 0.650551
O O7 0.811123 0.998140 0.652394
O O8 0.929550 0.164831 0.927511
O O9 0.327606 0.493190 0.461693
O O10 0.224361 0.547112 0.137291
O O11 0.346721 0.054237 0.632787
O O12 0.594768 0.268188 0.877571
O O13 0.508515 0.999575 0.814209
O O14 0.579605 0.153338 0.104633
#
# Coordination Sequence:
#
# PCOD8127499 Si02
#       7
#     4   4   4   4   4   4   4
#     4  11  27  42  66  96 130 173 220 279 325 399
#     4  11  22  43  68  93 124 175 217 269 319 396
#     4  10  23  43  66  95 131 171 219 271 324 386
#     4  11  23  42  65  96 131 173 215 274 320 388
#     4  11  26  42  67  94 128 171 223 268 336 381
#     4  10  22  43  67 100 133 173 211 268 323 393
#     4  10  23  42  70  97 137 170 215 263 329 389
#
# _framework density 21.678591999999998
#
# number of rings (size 3 to 8) (size 9 to 14) (size 15 to 20)
#    0.000    1.429    2.857    0.857    6.000    2.857 
#    0.000    0.000    0.000    0.000    0.000    0.000 
#    0.000    0.000    0.000    0.000    0.000    0.000 
#
# Total GULP energy -346954.280403 kJ/mol
# GULP energy per Si atom -12391.224300 kJ/mol
# Density = 2.162925 g / cm^3
# Si number density = 21.678592 Si / 1000 Ang^3
#
#
#
# Elastic Constant Matrix: (Units=GPa)
#
#
# Indices 1 2 3 4 5 6 
#
# 1 100.6259 45.0893 38.0745 0.0000 26.2296 0.0000
# 2 45.0893 73.3344 35.0186 0.0000 15.5224 0.0000
# 3 38.0745 35.0186 101.4466 0.0000 16.7630 0.0000
# 4 0.0000 0.0000 0.0000 25.3902 0.0000 15.5541
# 5 26.2296 15.5224 16.7630 0.0000 33.5097 0.0000
# 6 0.0000 0.0000 0.0000 15.5541 0.0000 28.9792
#
#
#
# Elastic Compliance Matrix: (Units=1/GPa)
#
#
# Indices 1 2 3 4 5 6 
#
# 1 0.016101 -0.007095 -0.002239 0.000000 -0.008196 0.000000
# 2 -0.007095 0.020320 -0.004048 0.000000 -0.001834 0.000000
# 3 -0.002239 -0.004048 0.012532 0.000000 -0.002641 0.000000
# 4 0.000000 0.000000 0.000000 0.058679 0.000000 -0.031495
# 5 -0.008196 -0.001834 -0.002641 0.000000 0.038428 0.000000
# 6 0.000000 0.000000 0.000000 -0.031495 0.000000 0.051412
#
#
# Mechanical properties :
#
#
# Convention : Reuss Voigt Hill
#
# Bulk Modulus (GPa) = 45.07260 56.86353 50.96806
# Shear Modulus (GPa) = 21.58587 28.05745 24.82166
#
# Velocity S-wave (km/s) = 3.15893 3.60147 3.38743
# Velocity P-wave (km/s) = 5.84308 6.60161 6.23389
#
# Compressibility (1/GPa) = 0.02218643
#
# Stress axis : x y z
#
# Youngs Moduli (GPa) = 62.10833 49.21256 79.79781
#
# Poissons Ratio (x) = 0.34918 0.17869
# Poissons Ratio (y) = 0.44069 0.32305
# Poissons Ratio (z) = 0.13908 0.19923
#
# Static dielectric constant tensor:
#      x y z
#    x 4.166390 0.000000 0.151770 
#    y 0.000000 3.796470 0.000000 
#    z 0.151770 0.000000 3.862010 
# 
# 
# High freq. dielectric constant tensor:
#      x y z
#    x 1.869200 0.000000 0.012660 
#    y 0.000000 1.838540 0.000000 
#    z 0.012660 0.000000 1.849360 
# 
# From -- ./inp_files/18771.got.cif
#   From: 2010.03.12/outbox.cif.g09.slc.cpg/sg14_10_cif.got.tgz:18771.got - 2010.03.31 13:35:05.
