data_PCOD8127107
_publ_section_title
;
Structure prediction by ZEFSAII (Michael W. Deem and Ramdas Pophale) SiO2 
 PCOD8127107
Probable space group: P 21/C
;
_chemical_formula_sum "Si O2"
_cell_formula_units_Z 28
_cell_length_a 6.472074
_cell_length_b 17.157334
_cell_length_c 14.418759
_cell_angle_alpha 90.000000
_cell_angle_beta 123.488237
_cell_angle_gamma 90.000000
_cell_volume 1335.324307
_symmetry_space_group_name_H-M "P 21/C"
_symmetry_group_IT_number 14
_symmetry_cell_setting 'monoclinic'
loop_
_space_group_symop_operation_xyz
x,y,z
-x,1/2+y,1/2-z
-x,-y,-z
x,1/2-y,1/2+z
loop_
_atom_site_type_symbol
_atom_site_label
_atom_site_fract_x
_atom_site_fract_y
_atom_site_fract_z
Si Si1 0.687940 0.418234 0.604031
Si Si2 0.885264 0.072148 0.341060
Si Si3 0.288047 0.398979 0.183573
Si Si4 0.279290 0.839807 0.085312
Si Si5 0.799396 0.166830 0.488594
Si Si6 0.560986 0.583741 0.976326
Si Si7 0.131455 0.054380 0.958890
O O1 0.811375 0.384127 0.727436
O O2 0.741838 0.367860 0.526390
O O3 0.807917 0.505008 0.619258
O O4 0.399478 0.418904 0.561112
O O5 0.738048 0.101576 0.395258
O O6 0.159825 0.101044 0.427329
O O7 0.846585 0.979492 0.321348
O O8 0.452293 0.364982 0.308488
O O9 0.472303 0.414099 0.142988
O O10 0.075179 0.337755 0.100893
O O11 0.247284 0.747885 0.074557
O O12 0.058611 0.873106 0.097369
O O13 0.607196 0.152400 0.523847
O O14 0.500000 0.500000 0.000000
O O15 0.000000 0.000000 0.000000
#
# Coordination Sequence:
#
# PCOD8127107 Si02
#       7
#     4   4   4   4   4   4   4
#     4  10  22  39  63  96 129 165 218 260 314 395
#     4  11  22  39  68  96 125 165 224 276 314 388
#     4  11  23  42  66  94 125 171 223 269 318 391
#     4  11  26  41  64  97 137 175 206 271 340 393
#     4  11  25  43  62  96 135 165 221 272 328 387
#     4  11  21  40  68  93 117 169 223 271 320 377
#     4   9  19  38  59  87 124 166 207 251 309 382
#
# _framework density 20.968688
#
# number of rings (size 3 to 8) (size 9 to 14) (size 15 to 20)
#    0.000    1.429    2.857    3.429    2.000    9.143 
#    0.000    0.000    0.000    0.000    0.000    0.000 
#    0.000    0.000    0.000    0.000    0.000    0.000 
#
# Total GULP energy -347033.585944 kJ/mol
# GULP energy per Si atom -12394.056641 kJ/mol
# Density = 2.092096 g / cm^3
# Si number density = 20.968688 Si / 1000 Ang^3
#
#
#
# Elastic Constant Matrix: (Units=GPa)
#
#
# Indices 1 2 3 4 5 6 
#
# 1 101.6833 23.9638 25.5353 0.0000 5.5561 0.0000
# 2 23.9638 90.1800 20.6662 0.0000 15.4007 0.0000
# 3 25.5353 20.6662 124.6989 0.0000 -8.9787 0.0000
# 4 0.0000 0.0000 0.0000 26.0552 0.0000 0.9693
# 5 5.5561 15.4007 -8.9787 0.0000 23.2699 0.0000
# 6 0.0000 0.0000 0.0000 0.9693 0.0000 25.7320
#
#
#
# Elastic Compliance Matrix: (Units=1/GPa)
#
#
# Indices 1 2 3 4 5 6 
#
# 1 0.010951 -0.002099 -0.002040 0.000000 -0.002013 0.000000
# 2 -0.002099 0.013889 -0.002569 0.000000 -0.009682 0.000000
# 3 -0.002040 -0.002569 0.009278 0.000000 0.005767 0.000000
# 4 0.000000 0.000000 0.000000 0.038434 0.000000 -0.001448
# 5 -0.002013 -0.009682 0.005767 0.000000 0.052088 0.000000
# 6 0.000000 0.000000 0.000000 -0.001448 0.000000 0.038917
#
#
# Mechanical properties :
#
#
# Convention : Reuss Voigt Hill
#
# Bulk Modulus (GPa) = 48.30263 50.76587 49.53425
# Shear Modulus (GPa) = 27.19265 31.43786 29.31526
#
# Velocity S-wave (km/s) = 3.60505 3.87625 3.74311
# Velocity P-wave (km/s) = 6.35721 6.65557 6.50810
#
# Compressibility (1/GPa) = 0.02070281
#
# Stress axis : x y z
#
# Youngs Moduli (GPa) = 91.31332 71.99948 107.78159
#
# Poissons Ratio (x) = 0.15113 0.21983
# Poissons Ratio (y) = 0.19167 0.27691
# Poissons Ratio (z) = 0.18624 0.18498
#
# Static dielectric constant tensor:
#      x y z
#    x 4.978100 0.000000 -0.104870 
#    y 0.000000 3.701150 0.000000 
#    z -0.104870 0.000000 3.812100 
# 
# 
# High freq. dielectric constant tensor:
#      x y z
#    x 1.835530 0.000000 -0.004890 
#    y 0.000000 1.795580 0.000000 
#    z -0.004890 0.000000 1.821120 
# 
# From -- ./inp_files/37897.got.cif
#   From: 2010.03.12/outbox.cif.g09.slc.cpg/sg14_19_cif.got.tgz:37897.got - 2010.03.31 13:35:05.
