data_PCOD8127710
_publ_section_title
;
Structure prediction by ZEFSAII (Michael W. Deem and Ramdas Pophale) SiO2 
 PCOD8127710
Probable space group: P 21/C
;
_chemical_formula_sum "Si O2"
_cell_formula_units_Z 28
_cell_length_a 14.062295
_cell_length_b 7.396369
_cell_length_c 13.667486
_cell_angle_alpha 90.000000
_cell_angle_beta 59.154285
_cell_angle_gamma 90.000000
_cell_volume 1220.476857
_symmetry_space_group_name_H-M "P 21/C"
_symmetry_group_IT_number 14
_symmetry_cell_setting 'monoclinic'
loop_
_space_group_symop_operation_xyz
x,y,z
-x,1/2+y,1/2-z
-x,-y,-z
x,1/2-y,1/2+z
loop_
_atom_site_type_symbol
_atom_site_label
_atom_site_fract_x
_atom_site_fract_y
_atom_site_fract_z
Si Si1 0.173869 0.209579 0.555152
Si Si2 0.421939 0.382634 0.608601
Si Si3 0.582876 0.783853 0.582038
Si Si4 0.804389 0.481566 0.314885
Si Si5 0.204292 0.793803 0.504544
Si Si6 0.040773 0.823082 0.428925
Si Si7 0.552203 0.154849 0.686177
O O1 0.292537 0.254445 0.441428
O O2 0.158272 0.319618 0.665541
O O3 0.071504 0.282493 0.542282
O O4 0.170490 0.989444 0.569233
O O5 0.500000 0.500000 0.500000
O O6 0.401942 0.216186 0.543134
O O7 0.306910 0.488038 0.690807
O O8 0.474558 0.311821 0.681184
O O9 0.495210 0.638126 0.676357
O O10 0.530542 0.974870 0.637278
O O11 0.780364 0.353429 0.419837
O O12 0.894028 0.380342 0.202874
O O13 0.115689 0.721368 0.470406
O O14 0.319009 0.799024 0.384421
O O15 0.000000 0.000000 0.500000
#
# Coordination Sequence:
#
# PCOD8127710 Si02
#       7
#     4   4   4   4   4   4   4
#     4   9  23  44  64  95 134 168 220 271 325 385
#     4  11  22  39  62  93 125 167 216 262 328 392
#     4  10  23  39  63  94 131 169 211 270 324 389
#     4  11  24  43  70  93 129 177 216 271 334 393
#     4  10  23  43  66  99 131 168 221 271 326 392
#     4  10  24  43  68  97 131 171 222 277 327 384
#     4  11  22  38  66  92 132 167 213 266 323 395
#
# _framework density 22.941851
#
# number of rings (size 3 to 8) (size 9 to 14) (size 15 to 20)
#    0.000    1.714    1.429    1.286   14.000    0.571 
#    0.000    2.857    0.000    0.000    0.000    0.000 
#    0.000    0.000    0.000    0.000    0.000    0.000 
#
# Total GULP energy -346889.115743 kJ/mol
# GULP energy per Si atom -12388.896991 kJ/mol
# Density = 2.288963 g / cm^3
# Si number density = 22.941851 Si / 1000 Ang^3
#
#
#
# Elastic Constant Matrix: (Units=GPa)
#
#
# Indices 1 2 3 4 5 6 
#
# 1 102.1881 7.0305 2.9641 0.0000 -14.4966 0.0000
# 2 7.0305 54.5108 -3.4648 0.0000 -0.8187 0.0000
# 3 2.9641 -3.4648 83.7408 0.0000 -0.2477 0.0000
# 4 0.0000 0.0000 0.0000 26.7350 0.0000 2.6411
# 5 -14.4966 -0.8187 -0.2477 0.0000 32.6325 0.0000
# 6 0.0000 0.0000 0.0000 2.6411 0.0000 30.2770
#
#
#
# Elastic Compliance Matrix: (Units=1/GPa)
#
#
# Indices 1 2 3 4 5 6 
#
# 1 0.010548 -0.001317 -0.000414 0.000000 0.004650 0.000000
# 2 -0.001317 0.018565 0.000814 0.000000 -0.000113 0.000000
# 3 -0.000414 0.000814 0.011990 0.000000 -0.000073 0.000000
# 4 0.000000 0.000000 0.000000 0.037729 0.000000 -0.003291
# 5 0.004650 -0.000113 -0.000073 0.000000 0.032707 0.000000
# 6 0.000000 0.000000 0.000000 -0.003291 0.000000 0.033315
#
#
# Mechanical properties :
#
#
# Convention : Reuss Voigt Hill
#
# Bulk Modulus (GPa) = 25.46505 28.16660 26.81582
# Shear Modulus (GPa) = 31.29359 33.52288 32.40824
#
# Velocity S-wave (km/s) = 3.69730 3.82673 3.76257
# Velocity P-wave (km/s) = 5.41762 5.64173 5.53081
#
# Compressibility (1/GPa) = 0.03926951
#
# Stress axis : x y z
#
# Youngs Moduli (GPa) = 94.80373 53.86509 83.40463
#
# Poissons Ratio (x) = 0.07094 0.03454
# Poissons Ratio (y) = 0.12485 -0.06793
# Poissons Ratio (z) = 0.03926 -0.04387
#
# Static dielectric constant tensor:
#      x y z
#    x 6.285930 0.000000 0.825410 
#    y 0.000000 4.196580 0.000000 
#    z 0.825410 0.000000 5.094250 
# 
# 
# High freq. dielectric constant tensor:
#      x y z
#    x 1.920540 0.000000 -0.007600 
#    y 0.000000 1.898540 0.000000 
#    z -0.007600 0.000000 1.902070 
# 
# From -- ./inp_files/46441.got.cif
#   From: 2010.03.12/outbox.cif.g09.slc.cpg/sg14_24_cif.got.tgz:46441.got - 2010.03.31 13:35:05.
