data_PCOD8127016
_publ_section_title
;
Structure prediction by ZEFSAII (Michael W. Deem and Ramdas Pophale) SiO2 
 PCOD8127016
Probable space group: P 21/C
;
_chemical_formula_sum "Si O2"
_cell_formula_units_Z 32
_cell_length_a 11.473781
_cell_length_b 15.947299
_cell_length_c 8.817563
_cell_angle_alpha 90.000000
_cell_angle_beta 104.964867
_cell_angle_gamma 90.000000
_cell_volume 1558.681249
_symmetry_space_group_name_H-M "P 21/C"
_symmetry_group_IT_number 14
_symmetry_cell_setting 'monoclinic'
loop_
_space_group_symop_operation_xyz
x,y,z
-x,1/2+y,1/2-z
-x,-y,-z
x,1/2-y,1/2+z
loop_
_atom_site_type_symbol
_atom_site_label
_atom_site_fract_x
_atom_site_fract_y
_atom_site_fract_z
Si Si1 0.241975 0.760982 0.849407
Si Si2 0.451441 0.499661 0.757520
Si Si3 0.141968 0.353515 0.043473
Si Si4 0.301602 0.997170 0.488194
Si Si5 0.597860 0.184050 0.831436
Si Si6 0.868969 0.353272 0.957661
Si Si7 0.405004 0.179517 0.153012
Si Si8 0.248752 0.256986 0.341143
O O1 0.294205 0.688320 0.756419
O O2 0.178157 0.832566 0.727050
O O3 0.353261 0.799395 0.982825
O O4 0.141535 0.726030 0.932460
O O5 0.572588 0.482761 0.888173
O O6 0.459506 0.590831 0.680449
O O7 0.442310 0.418074 0.645993
O O8 0.331417 0.499334 0.820558
O O9 0.239962 0.418499 0.020213
O O10 0.179516 0.329509 0.226470
O O11 0.150615 0.277391 0.927128
O O12 0.005478 0.386774 0.996325
O O13 0.213279 0.922580 0.495820
O O14 0.507135 0.257687 0.750195
O O15 0.295894 0.187128 0.238148
O O16 0.364210 0.207104 0.971449
#
# Coordination Sequence:
#
# PCOD8127016 Si02
#       8
#     4   4   4   4   4   4   4   4
#     4  10  22  38  60  91 120 157 211 243 309 364
#     4  11  22  39  62  88 129 158 195 255 320 367
#     4  11  22  41  62  86 121 161 208 256 296 358
#     4  11  23  37  60  92 116 161 204 245 312 371
#     4  11  22  38  62  92 128 162 197 252 309 376
#     4  11  22  41  62  86 121 161 208 256 296 358
#     4  11  22  38  62  92 128 162 197 252 309 376
#     4  10  22  38  60  91 120 157 211 243 309 364
#
# _framework density 20.530176999999998
#
# number of rings (size 3 to 8) (size 9 to 14) (size 15 to 20)
#    0.000    1.250    2.500    4.875    3.500    1.000 
#    0.000    3.750    0.000    1.500    0.000    0.000 
#    0.000    0.000    0.000    0.000    0.000    0.000 
#
# Total GULP energy -396687.739404 kJ/mol
# GULP energy per Si atom -12396.491856 kJ/mol
# Density = 2.048345 g / cm^3
# Si number density = 20.530177 Si / 1000 Ang^3
#
#
#
# Elastic Constant Matrix: (Units=GPa)
#
#
# Indices 1 2 3 4 5 6 
#
# 1 84.3607 16.4819 22.8602 0.0000 6.1417 0.0000
# 2 16.4819 104.2002 26.0993 0.0000 2.5027 0.0000
# 3 22.8602 26.0993 110.3699 0.0000 2.8337 0.0000
# 4 0.0000 0.0000 0.0000 25.5160 0.0000 0.7533
# 5 6.1417 2.5027 2.8337 0.0000 28.3180 0.0000
# 6 0.0000 0.0000 0.0000 0.7533 0.0000 44.6723
#
#
#
# Elastic Compliance Matrix: (Units=1/GPa)
#
#
# Indices 1 2 3 4 5 6 
#
# 1 0.012926 -0.001415 -0.002280 0.000000 -0.002450 0.000000
# 2 -0.001415 0.010368 -0.002149 0.000000 -0.000395 0.000000
# 3 -0.002280 -0.002149 0.010049 0.000000 -0.000321 0.000000
# 4 0.000000 0.000000 0.000000 0.039211 0.000000 -0.000661
# 5 -0.002450 -0.000395 -0.000321 0.000000 0.035912 0.000000
# 6 0.000000 0.000000 0.000000 -0.000661 0.000000 0.022396
#
#
# Mechanical properties :
#
#
# Convention : Reuss Voigt Hill
#
# Bulk Modulus (GPa) = 46.17407 47.75709 46.96558
# Shear Modulus (GPa) = 33.38495 35.26724 34.32609
#
# Velocity S-wave (km/s) = 4.03692 4.14916 4.09342
# Velocity P-wave (km/s) = 6.65346 6.80194 6.72811
#
# Compressibility (1/GPa) = 0.02165718
#
# Stress axis : x y z
#
# Youngs Moduli (GPa) = 77.36067 96.44738 99.51228
#
# Poissons Ratio (x) = 0.13645 0.22688
# Poissons Ratio (y) = 0.10944 0.21382
# Poissons Ratio (z) = 0.17638 0.20723
#
# Static dielectric constant tensor:
#      x y z
#    x 3.736160 0.000000 -0.158320 
#    y 0.000000 3.792460 0.000000 
#    z -0.158320 0.000000 3.791420 
# 
# 
# High freq. dielectric constant tensor:
#      x y z
#    x 1.803740 0.000000 -0.012150 
#    y 0.000000 1.794550 0.000000 
#    z -0.012150 0.000000 1.804820 
# 
# From -- ./inp_files/13377.got.cif
#   From: 2010.03.12/outbox.cif.g09.slc.cpg/sg14_7_cif.got.tgz:13377.got - 2010.03.31 13:35:05.
