data_PCOD8127852
_publ_section_title
;
Structure prediction by ZEFSAII (Michael W. Deem and Ramdas Pophale) SiO2 
 PCOD8127852
Probable space group: P 21/C
;
_chemical_formula_sum "Si O2"
_cell_formula_units_Z 32
_cell_length_a 7.424939
_cell_length_b 16.442042
_cell_length_c 13.683317
_cell_angle_alpha 90.000000
_cell_angle_beta 111.302766
_cell_angle_gamma 90.000000
_cell_volume 1556.337791
_symmetry_space_group_name_H-M "P 21/C"
_symmetry_group_IT_number 14
_symmetry_cell_setting 'monoclinic'
loop_
_space_group_symop_operation_xyz
x,y,z
-x,1/2+y,1/2-z
-x,-y,-z
x,1/2-y,1/2+z
loop_
_atom_site_type_symbol
_atom_site_label
_atom_site_fract_x
_atom_site_fract_y
_atom_site_fract_z
Si Si1 0.625307 0.579753 0.009416
Si Si2 0.755985 0.170013 0.587704
Si Si3 0.994370 0.910778 0.706045
Si Si4 0.330212 0.818412 0.041976
Si Si5 0.122297 0.769135 0.189709
Si Si6 0.126668 0.526041 0.434176
Si Si7 0.246297 0.363392 0.363998
Si Si8 0.123489 0.427828 0.136474
O O1 0.467118 0.650567 0.977578
O O2 0.743282 0.578525 0.931842
O O3 0.500000 0.500000 0.000000
O O4 0.770735 0.594037 0.128659
O O5 0.785671 0.261306 0.555603
O O6 0.797531 0.172411 0.710110
O O7 0.908708 0.107141 0.568576
O O8 0.105740 0.825907 0.712708
O O9 0.997534 0.936002 0.820933
O O10 0.104925 0.978028 0.662940
O O11 0.276085 0.783588 0.136321
O O12 0.559623 0.814234 0.077876
O O13 0.275230 0.910449 0.008666
O O14 0.914354 0.805138 0.119318
O O15 0.247797 0.450033 0.418057
O O16 0.000000 0.500000 0.500000
O O17 0.216825 0.374789 0.241764
#
# Coordination Sequence:
#
# PCOD8127852 Si02
#       8
#     4   4   4   4   4   4   4   4
#     4  12  24  39  67  96 128 172 221 265 328 396
#     4  11  24  43  64  97 131 171 217 271 333 391
#     4  11  23  43  67  99 134 173 225 270 332 403
#     4  12  23  41  69  94 132 171 220 274 333 389
#     4  11  23  42  67  94 134 171 216 275 330 391
#     4  11  23  45  70  97 131 180 221 275 334 396
#     4  10  23  42  68  95 128 173 221 270 325 400
#     4  10  23  43  66  91 136 172 213 273 332 388
#
# _framework density 20.56109
#
# number of rings (size 3 to 8) (size 9 to 14) (size 15 to 20)
#    0.000    1.000    3.750    3.000    1.750    1.000 
#    0.000    2.500    0.000    0.000    0.000    0.000 
#    0.000    0.000    0.000    0.000    0.000    0.000 
#
# Total GULP energy -396814.235390 kJ/mol
# GULP energy per Si atom -12400.444856 kJ/mol
# Density = 2.051429 g / cm^3
# Si number density = 20.561090 Si / 1000 Ang^3
#
#
#
# Elastic Constant Matrix: (Units=GPa)
#
#
# Indices 1 2 3 4 5 6 
#
# 1 117.1423 32.6474 40.7183 0.0000 -8.2127 0.0000
# 2 32.6474 108.3302 18.2181 0.0000 -5.6800 0.0000
# 3 40.7183 18.2181 72.8664 0.0000 -8.8257 0.0000
# 4 0.0000 0.0000 0.0000 36.5204 0.0000 1.2334
# 5 -8.2127 -5.6800 -8.8257 0.0000 30.1517 0.0000
# 6 0.0000 0.0000 0.0000 1.2334 0.0000 29.5888
#
#
#
# Elastic Compliance Matrix: (Units=1/GPa)
#
#
# Indices 1 2 3 4 5 6 
#
# 1 0.011198 -0.002392 -0.005541 0.000000 0.000978 0.000000
# 2 -0.002392 0.010186 -0.001096 0.000000 0.000947 0.000000
# 3 -0.005541 -0.001096 0.017507 0.000000 0.003409 0.000000
# 4 0.000000 0.000000 0.000000 0.027421 0.000000 -0.001143
# 5 0.000978 0.000947 0.003409 0.000000 0.034608 0.000000
# 6 0.000000 0.000000 0.000000 -0.001143 0.000000 0.033844
#
#
# Mechanical properties :
#
#
# Convention : Reuss Voigt Hill
#
# Bulk Modulus (GPa) = 47.99834 53.50072 50.74953
# Shear Modulus (GPa) = 31.29613 33.03583 32.16598
#
# Velocity S-wave (km/s) = 3.90565 4.01273 3.95955
# Velocity P-wave (km/s) = 6.61315 6.89538 6.75574
#
# Compressibility (1/GPa) = 0.02083405
#
# Stress axis : x y z
#
# Youngs Moduli (GPa) = 89.30384 98.17731 57.12029
#
# Poissons Ratio (x) = 0.23480 0.31651
# Poissons Ratio (y) = 0.21357 0.06258
# Poissons Ratio (z) = 0.49484 0.10756
#
# Static dielectric constant tensor:
#      x y z
#    x 3.747060 0.000000 0.202970 
#    y 0.000000 3.913850 0.000000 
#    z 0.202970 0.000000 4.181730 
# 
# 
# High freq. dielectric constant tensor:
#      x y z
#    x 1.799050 0.000000 0.000470 
#    y 0.000000 1.820570 0.000000 
#    z 0.000470 0.000000 1.809080 
# 
# From -- ./inp_files/37895.got.cif
#   From: 2010.03.12/outbox.cif.g09.slc.cpg/sg14_19_cif.got.tgz:37895.got - 2010.03.31 13:35:05.
