data_PCOD8127331
_publ_section_title
;
Structure prediction by ZEFSAII (Michael W. Deem and Ramdas Pophale) SiO2 
 PCOD8127331
Probable space group: P 21/C
;
_chemical_formula_sum "Si O2"
_cell_formula_units_Z 28
_cell_length_a 11.968520
_cell_length_b 15.355713
_cell_length_c 9.052738
_cell_angle_alpha 90.000000
_cell_angle_beta 126.848461
_cell_angle_gamma 90.000000
_cell_volume 1331.380502
_symmetry_space_group_name_H-M "P 21/C"
_symmetry_group_IT_number 14
_symmetry_cell_setting 'monoclinic'
loop_
_space_group_symop_operation_xyz
x,y,z
-x,1/2+y,1/2-z
-x,-y,-z
x,1/2-y,1/2+z
loop_
_atom_site_type_symbol
_atom_site_label
_atom_site_fract_x
_atom_site_fract_y
_atom_site_fract_z
Si Si1 0.819888 0.811691 0.336363
Si Si2 0.454761 0.756029 0.869075
Si Si3 0.003317 0.756278 0.737103
Si Si4 0.613476 0.832511 0.727606
Si Si5 0.818612 0.329687 0.369534
Si Si6 0.458636 0.086577 0.882487
Si Si7 0.600826 0.475100 0.211961
O O1 0.751778 0.715348 0.281039
O O2 0.706707 0.890062 0.242414
O O3 0.914396 0.818938 0.558025
O O4 0.911319 0.812551 0.259145
O O5 0.560075 0.773243 0.819694
O O6 0.299172 0.742440 0.688335
O O7 0.502348 0.670442 0.002294
O O8 0.450844 0.837192 0.975684
O O9 0.105348 0.694897 0.722553
O O10 0.080130 0.823931 0.908616
O O11 0.645519 0.929545 0.810561
O O12 0.745185 0.424282 0.290799
O O13 0.509370 0.079985 0.754714
O O14 0.500000 0.000000 0.000000
O O15 0.500000 0.500000 0.000000
#
# Coordination Sequence:
#
# PCOD8127331 Si02
#       7
#     4   4   4   4   4   4   4
#     4  10  22  41  69  91 126 175 225 247 321 393
#     4  11  21  39  66  98 126 169 212 270 333 382
#     4  10  23  41  67  91 127 191 215 249 297 413
#     4  11  22  38  68  98 127 163 212 277 332 380
#     4  11  22  42  66  93 131 171 221 259 322 384
#     4  11  23  40  66  99 128 160 207 284 332 372
#     4  12  25  39  65 106 133 157 209 290 338 365
#
# _framework density 21.030802000000001
#
# number of rings (size 3 to 8) (size 9 to 14) (size 15 to 20)
#    0.000    1.143    2.857    5.143    2.000    0.000 
#    0.000    2.857    6.286    3.429    0.000    0.000 
#    0.000    0.000    0.000    0.000    0.000    0.000 
#
# Total GULP energy -347131.632078 kJ/mol
# GULP energy per Si atom -12397.558288 kJ/mol
# Density = 2.098293 g / cm^3
# Si number density = 21.030802 Si / 1000 Ang^3
#
#
#
# Elastic Constant Matrix: (Units=GPa)
#
#
# Indices 1 2 3 4 5 6 
#
# 1 132.2530 55.3271 44.0432 0.0000 -5.8368 0.0000
# 2 55.3271 102.6724 35.5827 0.0000 10.9668 0.0000
# 3 44.0432 35.5827 111.8224 0.0000 1.2064 0.0000
# 4 0.0000 0.0000 0.0000 31.1153 0.0000 -0.2779
# 5 -5.8368 10.9668 1.2064 0.0000 38.7851 0.0000
# 6 0.0000 0.0000 0.0000 -0.2779 0.0000 29.3820
#
#
#
# Elastic Compliance Matrix: (Units=1/GPa)
#
#
# Indices 1 2 3 4 5 6 
#
# 1 0.010759 -0.005234 -0.002606 0.000000 0.003180 0.000000
# 2 -0.005234 0.013851 -0.002296 0.000000 -0.004633 0.000000
# 3 -0.002606 -0.002296 0.010701 0.000000 -0.000076 0.000000
# 4 0.000000 0.000000 0.000000 0.032141 0.000000 0.000304
# 5 0.003180 -0.004633 -0.000076 0.000000 0.027574 0.000000
# 6 0.000000 0.000000 0.000000 0.000304 0.000000 0.034037
#
#
# Mechanical properties :
#
#
# Convention : Reuss Voigt Hill
#
# Bulk Modulus (GPa) = 66.49953 68.51709 67.50831
# Shear Modulus (GPa) = 32.39408 33.97615 33.18511
#
# Velocity S-wave (km/s) = 3.92894 4.02374 3.97663
# Velocity P-wave (km/s) = 7.22986 7.36461 7.29754
#
# Compressibility (1/GPa) = 0.01503770
#
# Stress axis : x y z
#
# Youngs Moduli (GPa) = 92.94227 72.19796 93.45149
#
# Poissons Ratio (x) = 0.37790 0.24358
# Poissons Ratio (y) = 0.48649 0.21455
# Poissons Ratio (z) = 0.24225 0.16575
#
# Static dielectric constant tensor:
#      x y z
#    x 3.859840 0.000000 0.435720 
#    y 0.000000 4.112370 0.000000 
#    z 0.435720 0.000000 -15.016000 
# 
# 
# High freq. dielectric constant tensor:
#      x y z
#    x 1.827220 0.000000 -0.013330 
#    y 0.000000 1.810190 0.000000 
#    z -0.013330 0.000000 1.842780 
# 
# From -- ./inp_files/13178.got.cif
#   From: 2010.03.12/outbox.cif.g09.slc.cpg/sg14_7_cif.got.tgz:13178.got - 2010.03.31 13:35:05.
