data_PCOD8127240
_publ_section_title
;
Structure prediction by ZEFSAII (Michael W. Deem and Ramdas Pophale) SiO2 
 PCOD8127240
Probable space group: P 21/C
;
_chemical_formula_sum "Si O2"
_cell_formula_units_Z 32
_cell_length_a 15.501366
_cell_length_b 7.478917
_cell_length_c 19.576420
_cell_angle_alpha 90.000000
_cell_angle_beta 144.281098
_cell_angle_gamma 90.000000
_cell_volume 1324.990636
_symmetry_space_group_name_H-M "P 21/C"
_symmetry_group_IT_number 14
_symmetry_cell_setting 'monoclinic'
loop_
_space_group_symop_operation_xyz
x,y,z
-x,1/2+y,1/2-z
-x,-y,-z
x,1/2-y,1/2+z
loop_
_atom_site_type_symbol
_atom_site_label
_atom_site_fract_x
_atom_site_fract_y
_atom_site_fract_z
Si Si1 0.912460 0.468499 0.694285
Si Si2 0.912005 0.433692 0.016213
Si Si3 0.606678 0.559427 0.195181
Si Si4 0.697491 0.226864 0.484025
Si Si5 0.684629 0.160572 0.262467
Si Si6 0.607689 0.584687 0.354230
Si Si7 0.878424 0.765520 0.579907
Si Si8 0.216189 0.354593 0.260183
O O1 0.796780 0.306760 0.609072
O O2 0.945884 0.569881 0.643545
O O3 0.830149 0.611960 0.691190
O O4 0.066964 0.398479 0.824013
O O5 0.939605 0.649718 0.047700
O O6 0.066716 0.332453 0.119772
O O7 0.801846 0.399282 0.007461
O O8 0.844084 0.375647 0.900408
O O9 0.434046 0.603383 0.070952
O O10 0.655739 0.355787 0.212894
O O11 0.645624 0.608674 0.298735
O O12 0.695810 0.672856 0.196271
O O13 0.637725 0.382550 0.396129
O O14 0.563723 0.122330 0.243001
O O15 0.679036 0.019403 0.196976
O O16 0.702149 0.729222 0.458743
#
# Coordination Sequence:
#
# PCOD8127240 Si02
#       8
#     4   4   4   4   4   4   4   4
#     4  10  23  46  65 101 140 186 237 287 345 412
#     4  11  22  43  67 102 136 176 237 292 350 407
#     4  12  23  43  70 102 140 184 231 285 354 425
#     4  11  22  43  75  96 135 185 235 286 337 417
#     4  12  24  42  68 105 139 182 227 290 358 413
#     4  11  21  41  71 102 133 174 236 292 341 410
#     4  10  22  40  72  96 130 184 232 287 337 410
#     4  11  26  44  63 101 149 181 225 295 354 408
#
# _framework density 24.151112999999999
#
# number of rings (size 3 to 8) (size 9 to 14) (size 15 to 20)
#    0.000    1.000    3.750    3.375    0.000    2.000 
#   15.750    0.625    0.000    0.000    0.000    0.000 
#    0.000    0.000    0.000    0.000    0.000    0.000 
#
# Total GULP energy -396448.729832 kJ/mol
# GULP energy per Si atom -12389.022807 kJ/mol
# Density = 2.409614 g / cm^3
# Si number density = 24.151113 Si / 1000 Ang^3
#
#
#
# Elastic Constant Matrix: (Units=GPa)
#
#
# Indices 1 2 3 4 5 6 
#
# 1 56.5445 14.7899 8.6587 0.0000 1.1087 0.0000
# 2 14.7899 116.2940 26.4627 0.0000 -7.8745 0.0000
# 3 8.6587 26.4627 80.7518 0.0000 2.1114 0.0000
# 4 0.0000 0.0000 0.0000 75.2263 0.0000 130.3609
# 5 1.1087 -7.8745 2.1114 0.0000 16.7442 0.0000
# 6 0.0000 0.0000 0.0000 130.3609 0.0000 462.3615
#
#
#
# Elastic Compliance Matrix: (Units=1/GPa)
#
#
# Indices 1 2 3 4 5 6 
#
# 1 0.018492 -0.002222 -0.001199 0.000000 -0.002118 0.000000
# 2 -0.002222 0.009955 -0.003161 0.000000 0.005227 0.000000
# 3 -0.001199 -0.003161 0.013630 0.000000 -0.003126 0.000000
# 4 0.000000 0.000000 0.000000 0.025993 0.000000 -0.007329
# 5 -0.002118 0.005227 -0.003126 0.000000 0.062715 0.000000
# 6 0.000000 0.000000 0.000000 -0.007329 0.000000 0.004229
#
#
# Mechanical properties :
#
#
# Convention : Reuss Voigt Hill
#
# Bulk Modulus (GPa) = 34.58780 39.26811 36.92795
# Shear Modulus (GPa) = 31.68277 124.44500 78.06389
#
# Velocity S-wave (km/s) = 3.62588 7.18606 5.69151
# Velocity P-wave (km/s) = 5.64640 9.22753 7.64948
#
# Compressibility (1/GPa) = 0.02891193
#
# Stress axis : x y z
#
# Youngs Moduli (GPa) = 54.07859 100.45557 73.36943
#
# Poissons Ratio (x) = 0.22324 0.08798
# Poissons Ratio (y) = 0.12018 0.23189
# Poissons Ratio (z) = 0.06485 0.31750
#
# Static dielectric constant tensor:
#      x y z
#    x 4.104980 0.000000 0.052710 
#    y 0.000000 4.613620 0.000000 
#    z 0.052710 0.000000 4.505400 
# 
# 
# High freq. dielectric constant tensor:
#      x y z
#    x 1.932540 0.000000 0.006840 
#    y 0.000000 1.967230 0.000000 
#    z 0.006840 0.000000 1.966210 
# 
# From -- ./inp_files/68226.got.cif
#   From: 2010.03.12/outbox.cif.g09.slc.cpg/sg14_35_cif.got.tgz:68226.got - 2010.03.31 13:35:05.
