data_PCOD8127732
_publ_section_title
;
Structure prediction by ZEFSAII (Michael W. Deem and Ramdas Pophale) SiO2 
 PCOD8127732
Probable space group: P 21/C
;
_chemical_formula_sum "Si O2"
_cell_formula_units_Z 16
_cell_length_a 12.792887
_cell_length_b 4.888238
_cell_length_c 13.073181
_cell_angle_alpha 90.000000
_cell_angle_beta 56.010500
_cell_angle_gamma 90.000000
_cell_volume 677.844485
_symmetry_space_group_name_H-M "P 21/C"
_symmetry_group_IT_number 14
_symmetry_cell_setting 'monoclinic'
loop_
_space_group_symop_operation_xyz
x,y,z
-x,1/2+y,1/2-z
-x,-y,-z
x,1/2-y,1/2+z
loop_
_atom_site_type_symbol
_atom_site_label
_atom_site_fract_x
_atom_site_fract_y
_atom_site_fract_z
Si Si1 0.596502 0.229428 0.513234
Si Si2 0.914516 0.814967 0.810479
Si Si3 0.322268 0.349128 0.686934
Si Si4 0.297424 0.274475 0.433280
O O1 0.445609 0.167279 0.588027
O O2 0.653351 0.348729 0.375195
O O3 0.615968 0.459201 0.592794
O O4 0.668012 0.955874 0.502927
O O5 0.808826 0.731141 0.784349
O O6 0.027464 0.602905 0.753592
O O7 0.847978 0.846956 0.958640
O O8 0.312259 0.353493 0.814140
#
# Coordination Sequence:
#
# PCOD8127732 Si02
#       4
#     4   4   4   4
#     4  10  23  40  64 100 125 149 202 255 310 377
#     4  11  25  42  59  88 126 165 214 251 287 360
#     4  10  23  41  67  91 126 164 195 255 315 355
#     4  11  23  41  66  93 123 160 203 252 310 369
#
# _framework density 23.604234000000002
#
# number of rings (size 3 to 8) (size 9 to 14) (size 15 to 20)
#    0.000    1.500    0.000    4.500    0.000   19.000 
#    0.000    0.000    0.000    0.000    0.000    0.000 
#    0.000    0.000    0.000    0.000    0.000    0.000 
#
# Total GULP energy -198340.299936 kJ/mol
# GULP energy per Si atom -12396.268746 kJ/mol
# Density = 2.355051 g / cm^3
# Si number density = 23.604234 Si / 1000 Ang^3
#
#
#
# Elastic Constant Matrix: (Units=GPa)
#
#
# Indices 1 2 3 4 5 6 
#
# 1 110.8122 18.4015 58.7094 0.0000 -10.9753 0.0000
# 2 18.4015 64.5525 -10.2654 0.0000 -11.7801 0.0000
# 3 58.7094 -10.2654 144.9469 0.0000 5.4966 0.0000
# 4 0.0000 0.0000 0.0000 28.5388 0.0000 -10.6014
# 5 -10.9753 -11.7801 5.4966 0.0000 41.9039 0.0000
# 6 0.0000 0.0000 0.0000 -10.6014 0.0000 33.2445
#
#
#
# Elastic Compliance Matrix: (Units=1/GPa)
#
#
# Indices 1 2 3 4 5 6 
#
# 1 0.012998 -0.004057 -0.005666 0.000000 0.003007 0.000000
# 2 -0.004057 0.017737 0.002765 0.000000 0.003561 0.000000
# 3 -0.005666 0.002765 0.009464 0.000000 -0.001948 0.000000
# 4 0.000000 0.000000 0.000000 0.039749 0.000000 0.012676
# 5 0.003007 0.003561 -0.001948 0.000000 0.025908 0.000000
# 6 0.000000 0.000000 0.000000 0.012676 0.000000 0.034122
#
#
# Mechanical properties :
#
#
# Convention : Reuss Voigt Hill
#
# Bulk Modulus (GPa) = 38.05016 50.44472 44.24744
# Shear Modulus (GPa) = 30.73964 37.63517 34.18740
#
# Velocity S-wave (km/s) = 3.61265 3.99736 3.80986
# Velocity P-wave (km/s) = 5.79281 6.53625 6.17573
#
# Compressibility (1/GPa) = 0.02628110
#
# Stress axis : x y z
#
# Youngs Moduli (GPa) = 76.93611 56.37806 105.66660
#
# Poissons Ratio (x) = 0.22875 0.59871
# Poissons Ratio (y) = 0.31217 -0.29213
# Poissons Ratio (z) = 0.43592 -0.15586
#
# Static dielectric constant tensor:
#      x y z
#    x 4.299280 0.000000 -0.149380 
#    y 0.000000 4.223320 0.000000 
#    z -0.149380 0.000000 4.222590 
# 
# 
# High freq. dielectric constant tensor:
#      x y z
#    x 1.937980 0.000000 -0.010010 
#    y 0.000000 1.942570 0.000000 
#    z -0.010010 0.000000 1.934270 
# 
# From -- ./inp_files/27348.got.cif
#   From: 2010.03.12/outbox.cif.g09.slc.cpg/sg14_14_cif.got.tgz:27348.got - 2010.03.31 13:35:05.
