data_PCOD8127033
_publ_section_title
;
Structure prediction by ZEFSAII (Michael W. Deem and Ramdas Pophale) SiO2 
 PCOD8127033
Probable space group: P 21/C
;
_chemical_formula_sum "Si O2"
_cell_formula_units_Z 28
_cell_length_a 13.048628
_cell_length_b 9.980200
_cell_length_c 14.459335
_cell_angle_alpha 90.000000
_cell_angle_beta 133.476113
_cell_angle_gamma 90.000000
_cell_volume 1366.426794
_symmetry_space_group_name_H-M "P 21/C"
_symmetry_group_IT_number 14
_symmetry_cell_setting 'monoclinic'
loop_
_space_group_symop_operation_xyz
x,y,z
-x,1/2+y,1/2-z
-x,-y,-z
x,1/2-y,1/2+z
loop_
_atom_site_type_symbol
_atom_site_label
_atom_site_fract_x
_atom_site_fract_y
_atom_site_fract_z
Si Si1 0.226649 0.366697 0.124232
Si Si2 0.932960 0.812541 0.303386
Si Si3 0.341604 0.982936 0.173935
Si Si4 0.112552 0.373257 0.430402
Si Si5 0.509749 0.268770 0.801746
Si Si6 0.830325 0.519107 0.255298
Si Si7 0.239814 0.915886 0.479517
O O1 0.129747 0.404453 0.152522
O O2 0.372606 0.306915 0.257576
O O3 0.149513 0.259757 0.010113
O O4 0.257547 0.498346 0.083935
O O5 0.859668 0.852399 0.161358
O O6 0.903585 0.661190 0.313843
O O7 0.100104 0.827517 0.400440
O O8 0.408638 0.835350 0.213800
O O9 0.454869 0.097805 0.214622
O O10 0.296843 0.004417 0.252154
O O11 0.207690 0.000868 0.022699
O O12 0.948108 0.405463 0.346495
O O13 0.624838 0.317730 0.948767
O O14 0.765647 0.511199 0.112707
#
# Coordination Sequence:
#
# PCOD8127033 Si02
#       7
#     4   4   4   4   4   4   4
#     4  11  22  42  62  89 130 170 206 271 324 373
#     4  11  22  40  66  94 126 168 216 269 328 374
#     4  11  23  43  68  89 132 170 215 264 322 383
#     4  10  22  38  63  94 124 161 216 271 311 379
#     4  11  23  42  64  94 127 173 214 261 317 387
#     4  11  22  40  67  97 121 172 219 261 325 388
#     4  11  24  41  64  96 134 161 219 270 322 387
#
# _framework density 20.491401
#
# number of rings (size 3 to 8) (size 9 to 14) (size 15 to 20)
#    0.000    1.143    5.714    1.714    2.000    0.571 
#    5.143    0.714    0.000    0.000    0.000    0.000 
#    0.000    0.000    0.000    0.000    0.000    0.000 
#
# Total GULP energy -347110.655566 kJ/mol
# GULP energy per Si atom -12396.809127 kJ/mol
# Density = 2.044476 g / cm^3
# Si number density = 20.491401 Si / 1000 Ang^3
#
#
#
# Elastic Constant Matrix: (Units=GPa)
#
#
# Indices 1 2 3 4 5 6 
#
# 1 86.2973 36.7328 56.4593 0.0000 -9.7081 0.0000
# 2 36.7328 84.5186 18.3765 0.0000 1.2252 0.0000
# 3 56.4593 18.3765 96.4162 0.0000 3.2116 0.0000
# 4 0.0000 0.0000 0.0000 28.0510 0.0000 5.5484
# 5 -9.7081 1.2252 3.2116 0.0000 32.4974 0.0000
# 6 0.0000 0.0000 0.0000 5.5484 0.0000 31.6572
#
#
#
# Elastic Compliance Matrix: (Units=1/GPa)
#
#
# Indices 1 2 3 4 5 6 
#
# 1 0.024618 -0.007960 -0.013197 0.000000 0.008958 0.000000
# 2 -0.007960 0.014919 0.001922 0.000000 -0.003130 0.000000
# 3 -0.013197 0.001922 0.017926 0.000000 -0.005786 0.000000
# 4 0.000000 0.000000 0.000000 0.036930 0.000000 -0.006473
# 5 0.008958 -0.003130 -0.005786 0.000000 0.034138 0.000000
# 6 0.000000 0.000000 0.000000 -0.006473 0.000000 0.032723
#
#
# Mechanical properties :
#
#
# Convention : Reuss Voigt Hill
#
# Bulk Modulus (GPa) = 52.65148 54.48546 53.56847
# Shear Modulus (GPa) = 24.26561 28.81868 26.54214
#
# Velocity S-wave (km/s) = 3.44493 3.75424 3.60291
# Velocity P-wave (km/s) = 6.44776 6.74089 6.59595
#
# Compressibility (1/GPa) = 0.01899282
#
# Stress axis : x y z
#
# Youngs Moduli (GPa) = 40.62117 67.03041 55.78489
#
# Poissons Ratio (x) = 0.53354 0.73619
# Poissons Ratio (y) = 0.32333 -0.10721
# Poissons Ratio (z) = 0.53608 -0.12882
#
# Static dielectric constant tensor:
#      x y z
#    x 3.749790 0.000000 0.139050 
#    y 0.000000 3.721990 0.000000 
#    z 0.139050 0.000000 3.871300 
# 
# 
# High freq. dielectric constant tensor:
#      x y z
#    x 1.793100 0.000000 0.016500 
#    y 0.000000 1.800000 0.000000 
#    z 0.016500 0.000000 1.804030 
# 
# From -- ./inp_files/44443.got.cif
#   From: 2010.03.12/outbox.cif.g09.slc.cpg/sg14_23_cif.got.tgz:44443.got - 2010.03.31 13:35:05.
