data_PCOD8127229
_publ_section_title
;
Structure prediction by ZEFSAII (Michael W. Deem and Ramdas Pophale) SiO2 
 PCOD8127229
Probable space group: P 21/C
;
_chemical_formula_sum "Si O2"
_cell_formula_units_Z 28
_cell_length_a 11.931743
_cell_length_b 10.915851
_cell_length_c 13.226521
_cell_angle_alpha 90.000000
_cell_angle_beta 49.055679
_cell_angle_gamma 90.000000
_cell_volume 1301.228275
_symmetry_space_group_name_H-M "P 21/C"
_symmetry_group_IT_number 14
_symmetry_cell_setting 'monoclinic'
loop_
_space_group_symop_operation_xyz
x,y,z
-x,1/2+y,1/2-z
-x,-y,-z
x,1/2-y,1/2+z
loop_
_atom_site_type_symbol
_atom_site_label
_atom_site_fract_x
_atom_site_fract_y
_atom_site_fract_z
Si Si1 0.802319 0.062883 0.772578
Si Si2 0.777951 0.681065 0.407790
Si Si3 0.197813 0.679531 0.525368
Si Si4 0.317556 0.567799 0.866950
Si Si5 0.101410 0.141125 0.517720
Si Si6 0.858144 0.814733 0.178168
Si Si7 0.351092 0.450445 0.343690
O O1 0.774829 0.173232 0.869001
O O2 0.675376 0.060468 0.761252
O O3 0.944705 0.075338 0.616634
O O4 0.830067 0.943198 0.824051
O O5 0.904883 0.741578 0.403421
O O6 0.751062 0.783528 0.337454
O O7 0.645364 0.646503 0.563636
O O8 0.239739 0.811152 0.456596
O O9 0.309653 0.585487 0.405270
O O10 0.024895 0.643176 0.609105
O O11 0.487723 0.556503 0.802517
O O12 0.233336 0.452681 0.966382
O O13 0.127120 0.186410 0.389034
O O14 0.774739 0.917961 0.163934
#
# Coordination Sequence:
#
# PCOD8127229 Si02
#       7
#     4   4   4   4   4   4   4
#     4  11  22  41  68  96 127 168 220 270 320 380
#     4  10  22  40  67  93 125 168 217 269 322 376
#     4  11  24  42  67  99 127 172 222 265 319 386
#     4  12  25  43  67  97 135 173 213 265 330 392
#     4  11  22  39  69  98 124 167 222 268 318 386
#     4  11  20  44  69  93 130 167 218 274 317 378
#     4  10  27  41  65  94 136 174 210 265 331 392
#
# _framework density 21.518131
#
# number of rings (size 3 to 8) (size 9 to 14) (size 15 to 20)
#    0.000    1.143    4.286    1.714    4.000    3.429 
#    2.571    0.714    0.000    0.000    0.000    0.000 
#    0.000    0.000    0.000    0.000    0.000    0.000 
#
# Total GULP energy -346931.661577 kJ/mol
# GULP energy per Si atom -12390.416485 kJ/mol
# Density = 2.146915 g / cm^3
# Si number density = 21.518131 Si / 1000 Ang^3
#
#
#
# Elastic Constant Matrix: (Units=GPa)
#
#
# Indices 1 2 3 4 5 6 
#
# 1 74.4798 23.6935 19.8486 0.0000 0.6435 0.0000
# 2 23.6935 65.3628 17.2432 0.0000 3.0007 0.0000
# 3 19.8486 17.2432 54.9414 0.0000 3.6300 0.0000
# 4 0.0000 0.0000 0.0000 34.0278 0.0000 5.1810
# 5 0.6435 3.0007 3.6300 0.0000 43.0857 0.0000
# 6 0.0000 0.0000 0.0000 5.1810 0.0000 25.2509
#
#
#
# Elastic Compliance Matrix: (Units=1/GPa)
#
#
# Indices 1 2 3 4 5 6 
#
# 1 0.016080 -0.004698 -0.004365 0.000000 0.000455 0.000000
# 2 -0.004698 0.018076 -0.003919 0.000000 -0.000859 0.000000
# 3 -0.004365 -0.003919 0.021103 0.000000 -0.001440 0.000000
# 4 0.000000 0.000000 0.000000 0.030335 0.000000 -0.006224
# 5 0.000455 -0.000859 -0.001440 0.000000 0.023384 0.000000
# 6 0.000000 0.000000 0.000000 -0.006224 0.000000 0.040880
#
#
# Mechanical properties :
#
#
# Convention : Reuss Voigt Hill
#
# Bulk Modulus (GPa) = 34.13559 35.15054 34.64306
# Shear Modulus (GPa) = 26.94150 29.40613 28.17381
#
# Velocity S-wave (km/s) = 3.54225 3.70073 3.62236
# Velocity P-wave (km/s) = 5.71211 5.88484 5.79911
#
# Compressibility (1/GPa) = 0.02929494
#
# Stress axis : x y z
#
# Youngs Moduli (GPa) = 62.18752 55.32315 47.38627
#
# Poissons Ratio (x) = 0.25993 0.20683
# Poissons Ratio (y) = 0.29218 0.18570
# Poissons Ratio (z) = 0.27144 0.21680
#
# Static dielectric constant tensor:
#      x y z
#    x 3.767340 0.000000 0.319550 
#    y 0.000000 3.904920 0.000000 
#    z 0.319550 0.000000 3.982160 
# 
# 
# High freq. dielectric constant tensor:
#      x y z
#    x 1.829660 0.000000 0.020200 
#    y 0.000000 1.845730 0.000000 
#    z 0.020200 0.000000 1.848660 
# 
# From -- ./inp_files/44318.got.cif
#   From: 2010.03.12/outbox.cif.g09.slc.cpg/sg14_23_cif.got.tgz:44318.got - 2010.03.31 13:35:05.
