data_PCOD8127795
_publ_section_title
;
Structure prediction by ZEFSAII (Michael W. Deem and Ramdas Pophale) SiO2 
 PCOD8127795
Probable space group: P 21/C
;
_chemical_formula_sum "Si O2"
_cell_formula_units_Z 32
_cell_length_a 11.379008
_cell_length_b 8.786714
_cell_length_c 28.153515
_cell_angle_alpha 90.000000
_cell_angle_beta 151.073973
_cell_angle_gamma 90.000000
_cell_volume 1361.512601
_symmetry_space_group_name_H-M "P 21/C"
_symmetry_group_IT_number 14
_symmetry_cell_setting 'monoclinic'
loop_
_space_group_symop_operation_xyz
x,y,z
-x,1/2+y,1/2-z
-x,-y,-z
x,1/2-y,1/2+z
loop_
_atom_site_type_symbol
_atom_site_label
_atom_site_fract_x
_atom_site_fract_y
_atom_site_fract_z
Si Si1 0.681375 0.457630 0.326947
Si Si2 0.394037 0.348685 0.999267
Si Si3 0.772543 0.807372 0.371317
Si Si4 0.721260 0.652150 0.629516
Si Si5 0.835335 0.781718 0.995939
Si Si6 0.866461 0.302338 0.672439
Si Si7 0.459021 0.468546 0.344509
Si Si8 0.965290 0.097631 0.627762
O O1 0.698234 0.638251 0.329836
O O2 0.477495 0.404427 0.217336
O O3 0.603407 0.395929 0.351558
O O4 0.946488 0.391876 0.412155
O O5 0.394184 0.218821 0.958653
O O6 0.304021 0.521011 0.954490
O O7 0.188558 0.327707 0.967501
O O8 0.657910 0.319940 0.114586
O O9 0.883851 0.809746 0.463973
O O10 0.973222 0.876417 0.406046
O O11 0.802804 0.478790 0.650361
O O12 0.531203 0.645490 0.606636
O O13 0.931987 0.769919 0.716859
O O14 0.582225 0.872645 0.901989
O O15 0.957395 0.260960 0.651296
O O16 0.179409 0.500140 0.229234
#
# Coordination Sequence:
#
# PCOD8127795 Si02
#       8
#     4   4   4   4   4   4   4   4
#     4  10  23  41  68  96 127 179 217 272 340 392
#     4  12  26  40  68  98 133 176 221 272 333 401
#     4  10  23  45  66  94 137 171 224 277 325 400
#     4  11  23  43  69  93 138 170 222 277 329 398
#     4  11  24  39  68  97 129 175 219 264 337 395
#     4  11  24  44  66 101 128 177 221 274 339 386
#     4   9  19  41  62  92 127 169 214 268 320 386
#     4  10  24  43  65  94 135 174 220 279 327 390
#
# _framework density 23.503271000000002
#
# number of rings (size 3 to 8) (size 9 to 14) (size 15 to 20)
#    0.000    1.500    1.250    3.750    7.000    1.500 
#    0.000    2.500    0.000    0.000    0.000    0.000 
#    0.000    0.000    0.000    0.000    0.000    0.000 
#
# Total GULP energy -396584.116310 kJ/mol
# GULP energy per Si atom -12393.253635 kJ/mol
# Density = 2.344978 g / cm^3
# Si number density = 23.503271 Si / 1000 Ang^3
#
#
#
# Elastic Constant Matrix: (Units=GPa)
#
#
# Indices 1 2 3 4 5 6 
#
# 1 79.2358 1.6915 -0.6683 0.0000 -9.2985 0.0000
# 2 1.6915 65.8203 -8.3268 0.0000 -1.0920 0.0000
# 3 -0.6683 -8.3268 36.7664 0.0000 2.7277 0.0000
# 4 0.0000 0.0000 0.0000 24.8877 0.0000 2.1289
# 5 -9.2985 -1.0920 2.7277 0.0000 30.0910 0.0000
# 6 0.0000 0.0000 0.0000 2.1289 0.0000 36.7264
#
#
#
# Elastic Compliance Matrix: (Units=1/GPa)
#
#
# Indices 1 2 3 4 5 6 
#
# 1 0.013101 -0.000286 -0.000127 0.000000 0.004049 0.000000
# 2 -0.000286 0.015649 0.003527 0.000000 0.000160 0.000000
# 3 -0.000127 0.003527 0.028178 0.000000 -0.002466 0.000000
# 4 0.000000 0.000000 0.000000 0.040381 0.000000 -0.002341
# 5 0.004049 0.000160 -0.002466 0.000000 0.034713 0.000000
# 6 0.000000 0.000000 0.000000 -0.002341 0.000000 0.027364
#
#
# Mechanical properties :
#
#
# Convention : Reuss Voigt Hill
#
# Bulk Modulus (GPa) = 15.83348 18.57948 17.20648
# Shear Modulus (GPa) = 28.70113 30.94943 29.82528
#
# Velocity S-wave (km/s) = 3.49829 3.63273 3.56615
# Velocity P-wave (km/s) = 4.80299 5.05152 4.92882
#
# Compressibility (1/GPa) = 0.06315730
#
# Stress axis : x y z
#
# Youngs Moduli (GPa) = 76.33130 63.90149 35.48845
#
# Poissons Ratio (x) = 0.01825 0.00451
# Poissons Ratio (y) = 0.02180 -0.12517
# Poissons Ratio (z) = 0.00969 -0.22539
#
# Static dielectric constant tensor:
#      x y z
#    x 4.607080 0.000000 -0.016900 
#    y 0.000000 3.940820 0.000000 
#    z -0.016900 0.000000 4.215890 
# 
# 
# High freq. dielectric constant tensor:
#      x y z
#    x 1.946080 0.000000 0.003260 
#    y 0.000000 1.915560 0.000000 
#    z 0.003260 0.000000 1.931630 
# 
# From -- ./inp_files/80039.got.cif
#   From: 2010.03.12/outbox.cif.g09.slc.cpg/sg14_41_cif.got.tgz:80039.got - 2010.03.31 13:35:05.
