data_PCOD8127829
_publ_section_title
;
Structure prediction by ZEFSAII (Michael W. Deem and Ramdas Pophale) SiO2 
 PCOD8127829
Probable space group: P 21/C
;
_chemical_formula_sum "Si O2"
_cell_formula_units_Z 24
_cell_length_a 18.954096
_cell_length_b 7.754590
_cell_length_c 16.799129
_cell_angle_alpha 90.000000
_cell_angle_beta 156.491206
_cell_angle_gamma 90.000000
_cell_volume 984.921534
_symmetry_space_group_name_H-M "P 21/C"
_symmetry_group_IT_number 14
_symmetry_cell_setting 'monoclinic'
loop_
_space_group_symop_operation_xyz
x,y,z
-x,1/2+y,1/2-z
-x,-y,-z
x,1/2-y,1/2+z
loop_
_atom_site_type_symbol
_atom_site_label
_atom_site_fract_x
_atom_site_fract_y
_atom_site_fract_z
Si Si1 0.645381 0.267704 0.143988
Si Si2 0.297794 0.633409 0.455713
Si Si3 0.034924 0.181196 0.830743
Si Si4 0.608437 0.723872 0.364328
Si Si5 0.043282 0.698163 0.415142
Si Si6 0.320240 0.129805 0.401464
O O1 0.778541 0.253771 0.355272
O O2 0.693456 0.435052 0.141781
O O3 0.664730 0.112946 0.100272
O O4 0.446848 0.266828 0.972127
O O5 0.094826 0.689743 0.256898
O O6 0.348603 0.456775 0.549666
O O7 0.424530 0.778399 0.626846
O O8 0.971727 0.166715 0.673014
O O9 0.042897 0.995102 0.879681
O O10 0.233042 0.262365 0.034564
O O11 0.603799 0.867344 0.429686
O O12 0.875349 0.716348 0.300881
#
# Coordination Sequence:
#
# PCOD8127829 Si02
#       6
#     4   4   4   4   4   4
#     4  11  24  41  66  95 135 174 216 268 329 391
#     4  12  25  42  69  98 134 176 219 276 328 388
#     4  11  24  42  69  97 129 174 224 273 326 390
#     4  11  26  44  68 100 133 175 226 269 325 394
#     4  11  23  43  66  96 129 171 223 268 327 393
#     4  10  23  42  65  97 131 174 218 264 328 392
#
# _framework density 24.367421
#
# number of rings (size 3 to 8) (size 9 to 14) (size 15 to 20)
#    0.000    1.000    3.333    2.500    7.000    0.667 
#    0.000    5.000    0.000    0.000    0.000    0.000 
#    0.000    0.000    0.000    0.000    0.000    0.000 
#
# Total GULP energy -297550.573616 kJ/mol
# GULP energy per Si atom -12397.940567 kJ/mol
# Density = 2.431196 g / cm^3
# Si number density = 24.367421 Si / 1000 Ang^3
#
#
#
# Elastic Constant Matrix: (Units=GPa)
#
#
# Indices 1 2 3 4 5 6 
#
# 1 131.0064 0.6242 23.2322 0.0000 20.5934 0.0000
# 2 0.6242 35.7274 13.0028 0.0000 -7.3235 0.0000
# 3 23.2322 13.0028 59.0757 0.0000 -8.4374 0.0000
# 4 0.0000 0.0000 0.0000 25.6123 0.0000 -9.9714
# 5 20.5934 -7.3235 -8.4374 0.0000 37.2307 0.0000
# 6 0.0000 0.0000 0.0000 -9.9714 0.0000 35.6315
#
#
#
# Elastic Compliance Matrix: (Units=1/GPa)
#
#
# Indices 1 2 3 4 5 6 
#
# 1 0.009436 0.000254 -0.004656 0.000000 -0.006225 0.000000
# 2 0.000254 0.031222 -0.006319 0.000000 0.004569 0.000000
# 3 -0.004656 -0.006319 0.021020 0.000000 0.006096 0.000000
# 4 0.000000 0.000000 0.000000 0.043818 0.000000 0.012262
# 5 -0.006225 0.004569 0.006096 0.000000 0.032583 0.000000
# 6 0.000000 0.000000 0.000000 0.012262 0.000000 0.031497
#
#
# Mechanical properties :
#
#
# Convention : Reuss Voigt Hill
#
# Bulk Modulus (GPa) = 24.85390 33.28089 29.06739
# Shear Modulus (GPa) = 24.45837 32.29160 28.37498
#
# Velocity S-wave (km/s) = 3.17161 3.64427 3.41613
# Velocity P-wave (km/s) = 4.86147 5.60314 5.24543
#
# Compressibility (1/GPa) = 0.04023514
#
# Stress axis : x y z
#
# Youngs Moduli (GPa) = 105.97599 32.02902 47.57410
#
# Poissons Ratio (x) = -0.00812 0.22149
# Poissons Ratio (y) = -0.02688 0.30063
# Poissons Ratio (z) = 0.49339 0.20240
#
# Static dielectric constant tensor:
#      x y z
#    x 4.821120 0.000000 0.159480 
#    y 0.000000 4.177190 0.000000 
#    z 0.159480 0.000000 4.560590 
# 
# 
# High freq. dielectric constant tensor:
#      x y z
#    x 1.987800 0.000000 0.014430 
#    y 0.000000 1.950520 0.000000 
#    z 0.014430 0.000000 1.960990 
# 
# From -- ./inp_files/48647.got.cif
#   From: 2010.03.12/outbox.cif.g09.slc.cpg/sg14_25_cif.got.tgz:48647.got - 2010.03.31 13:35:05.
