data_PCOD8127593
_publ_section_title
;
Structure prediction by ZEFSAII (Michael W. Deem and Ramdas Pophale) SiO2 
 PCOD8127593
Probable space group: P 21/C
;
_chemical_formula_sum "Si O2"
_cell_formula_units_Z 28
_cell_length_a 14.912917
_cell_length_b 9.570198
_cell_length_c 14.797326
_cell_angle_alpha 90.000000
_cell_angle_beta 36.629571
_cell_angle_gamma 90.000000
_cell_volume 1260.023093
_symmetry_space_group_name_H-M "P 21/C"
_symmetry_group_IT_number 14
_symmetry_cell_setting 'monoclinic'
loop_
_space_group_symop_operation_xyz
x,y,z
-x,1/2+y,1/2-z
-x,-y,-z
x,1/2-y,1/2+z
loop_
_atom_site_type_symbol
_atom_site_label
_atom_site_fract_x
_atom_site_fract_y
_atom_site_fract_z
Si Si1 0.600021 0.284331 0.421456
Si Si2 0.233409 0.939962 0.816711
Si Si3 0.972844 0.969062 0.162496
Si Si4 0.663954 0.193017 0.566620
Si Si5 0.419658 0.499324 0.318874
Si Si6 0.990634 0.688973 0.223933
Si Si7 0.305215 0.083030 0.102743
O O1 0.674267 0.202033 0.277958
O O2 0.634263 0.196306 0.483565
O O3 0.677620 0.436089 0.360473
O O4 0.420111 0.304016 0.553060
O O5 0.336544 0.044769 0.792474
O O6 0.089131 0.906194 0.995681
O O7 0.184768 0.010846 0.761859
O O8 0.956227 0.855900 0.257249
O O9 0.026021 0.115131 0.164609
O O10 0.590562 0.332987 0.667278
O O11 0.838743 0.172065 0.448138
O O12 0.588323 0.057852 0.674333
O O13 0.339028 0.431099 0.469249
O O14 0.869290 0.629537 0.249442
#
# Coordination Sequence:
#
# PCOD8127593 Si02
#       7
#     4   4   4   4   4   4   4
#     4  10  22  44  69  97 141 177 228 279 341 402
#     4  11  22  43  66 101 135 181 220 288 333 407
#     4  11  25  41  72  94 144 172 227 282 350 387
#     4  11  24  43  68 100 135 179 224 278 338 403
#     4  11  23  44  66  97 136 176 224 276 337 404
#     4  12  23  47  68 106 129 188 224 283 336 421
#     4  10  23  42  73  98 137 182 223 282 341 403
#
# _framework density 22.221817000000001
#
# number of rings (size 3 to 8) (size 9 to 14) (size 15 to 20)
#    0.000    1.143    4.286    1.714    2.000    2.857 
#    0.000    0.714    0.000    0.000    0.000    0.000 
#    0.000    0.000    0.000    0.000    0.000    0.000 
#
# Total GULP energy -347000.625911 kJ/mol
# GULP energy per Si atom -12392.879497 kJ/mol
# Density = 2.217124 g / cm^3
# Si number density = 22.221817 Si / 1000 Ang^3
#
#
#
# Elastic Constant Matrix: (Units=GPa)
#
#
# Indices 1 2 3 4 5 6 
#
# 1 144.4747 47.3006 42.6027 0.0000 -23.2406 0.0000
# 2 47.3006 83.1857 66.2584 0.0000 -7.3491 0.0000
# 3 42.6027 66.2584 93.1514 0.0000 -25.2728 0.0000
# 4 0.0000 0.0000 0.0000 33.2694 0.0000 1.7772
# 5 -23.2406 -7.3491 -25.2728 0.0000 42.5400 0.0000
# 6 0.0000 0.0000 0.0000 1.7772 0.0000 29.8474
#
#
#
# Elastic Compliance Matrix: (Units=1/GPa)
#
#
# Indices 1 2 3 4 5 6 
#
# 1 0.009224 -0.005742 0.001149 0.000000 0.004730 0.000000
# 2 -0.005742 0.033978 -0.024798 0.000000 -0.012000 0.000000
# 3 0.001149 -0.024798 0.032017 0.000000 0.015365 0.000000
# 4 0.000000 0.000000 0.000000 0.030154 0.000000 -0.001795
# 5 0.004730 -0.012000 0.015365 0.000000 0.033147 0.000000
# 6 0.000000 0.000000 0.000000 -0.001795 0.000000 0.033611
#
#
# Mechanical properties :
#
#
# Convention : Reuss Voigt Hill
#
# Bulk Modulus (GPa) = 60.83867 70.34836 65.59352
# Shear Modulus (GPa) = 21.15144 32.10803 26.62974
#
# Velocity S-wave (km/s) = 3.08853 3.80529 3.46549
# Velocity P-wave (km/s) = 6.33688 7.14374 6.75237
#
# Compressibility (1/GPa) = 0.01643691
#
# Stress axis : x y z
#
# Youngs Moduli (GPa) = 108.41808 29.43063 31.23336
#
# Poissons Ratio (x) = 0.16900 -0.03590
# Poissons Ratio (y) = 0.62256 0.77453
# Poissons Ratio (z) = -0.12460 0.72982
#
# Static dielectric constant tensor:
#      x y z
#    x 4.441260 0.000000 -0.117410 
#    y 0.000000 3.896780 0.000000 
#    z -0.117410 0.000000 3.797540 
# 
# 
# High freq. dielectric constant tensor:
#      x y z
#    x 1.898250 0.000000 -0.010230 
#    y 0.000000 1.860260 0.000000 
#    z -0.010230 0.000000 1.853170 
# 
# From -- ./inp_files/46683.got.cif
#   From: 2010.03.12/outbox.cif.g09.slc.cpg/sg14_24_cif.got.tgz:46683.got - 2010.03.31 13:35:05.
