data_PCOD8127872
_publ_section_title
;
Structure prediction by ZEFSAII (Michael W. Deem and Ramdas Pophale) SiO2 
 PCOD8127872
Probable space group: P 21/C
;
_chemical_formula_sum "Si O2"
_cell_formula_units_Z 28
_cell_length_a 11.554813
_cell_length_b 14.744541
_cell_length_c 8.800504
_cell_angle_alpha 90.000000
_cell_angle_beta 117.460403
_cell_angle_gamma 90.000000
_cell_volume 1330.413854
_symmetry_space_group_name_H-M "P 21/C"
_symmetry_group_IT_number 14
_symmetry_cell_setting 'monoclinic'
loop_
_space_group_symop_operation_xyz
x,y,z
-x,1/2+y,1/2-z
-x,-y,-z
x,1/2-y,1/2+z
loop_
_atom_site_type_symbol
_atom_site_label
_atom_site_fract_x
_atom_site_fract_y
_atom_site_fract_z
Si Si1 0.704648 0.135319 0.633236
Si Si2 0.842829 0.257251 0.472260
Si Si3 0.231237 0.446542 0.941881
Si Si4 0.307127 0.517037 0.304578
Si Si5 0.551328 0.634580 0.435976
Si Si6 0.578155 0.820070 0.608122
Si Si7 0.053462 0.874076 0.707187
O O1 0.752216 0.193923 0.519513
O O2 0.746349 0.180307 0.816171
O O3 0.548545 0.128392 0.533331
O O4 0.763738 0.034737 0.662702
O O5 0.937054 0.320252 0.628923
O O6 0.936480 0.196294 0.425503
O O7 0.295911 0.361816 0.897013
O O8 0.082089 0.425208 0.887233
O O9 0.306968 0.465785 0.143983
O O10 0.399748 0.605227 0.346904
O O11 0.358242 0.450428 0.466261
O O12 0.164860 0.550136 0.265601
O O13 0.570808 0.713521 0.570113
O O14 0.593591 0.669132 0.297106
#
# Coordination Sequence:
#
# PCOD8127872 Si02
#       7
#     4   4   4   4   4   4   4
#     4  11  22  42  69  98 128 174 223 276 329 392
#     4  10  23  42  71  96 126 177 227 269 330 394
#     4  12  26  42  67  99 139 175 216 274 338 395
#     4  11  24  44  69 101 129 178 221 279 333 392
#     4  11  25  43  71  98 134 171 227 277 337 384
#     4  12  24  44  65 100 134 174 218 280 330 398
#     4  11  24  45  66  97 136 176 221 273 326 404
#
# _framework density 21.046081999999998
#
# number of rings (size 3 to 8) (size 9 to 14) (size 15 to 20)
#    0.000    0.857    2.857    4.286    2.000    4.000 
#    2.571    0.000    0.000    0.000    0.000    0.000 
#    0.000    0.000    0.000    0.000    0.000    0.000 
#
# Total GULP energy -347460.541406 kJ/mol
# GULP energy per Si atom -12409.305050 kJ/mol
# Density = 2.099818 g / cm^3
# Si number density = 21.046082 Si / 1000 Ang^3
#
#
#
# Elastic Constant Matrix: (Units=GPa)
#
#
# Indices 1 2 3 4 5 6 
#
# 1 110.3776 50.7456 35.6088 0.0000 3.0834 0.0000
# 2 50.7456 101.0391 50.3618 0.0000 -1.4290 0.0000
# 3 35.6088 50.3618 99.9590 0.0000 -15.1787 0.0000
# 4 0.0000 0.0000 0.0000 28.4068 0.0000 8.6094
# 5 3.0834 -1.4290 -15.1787 0.0000 26.8457 0.0000
# 6 0.0000 0.0000 0.0000 8.6094 0.0000 21.5727
#
#
#
# Elastic Compliance Matrix: (Units=1/GPa)
#
#
# Indices 1 2 3 4 5 6 
#
# 1 0.012184 -0.005041 -0.002247 0.000000 -0.002938 0.000000
# 2 -0.005041 0.015583 -0.006390 0.000000 -0.002204 0.000000
# 3 -0.002247 -0.006390 0.015327 0.000000 0.008584 0.000000
# 4 0.000000 0.000000 0.000000 0.040047 0.000000 -0.015982
# 5 -0.002938 -0.002204 0.008584 0.000000 0.042324 0.000000
# 6 0.000000 0.000000 0.000000 -0.015982 0.000000 0.052733
#
#
# Mechanical properties :
#
#
# Convention : Reuss Voigt Hill
#
# Bulk Modulus (GPa) = 63.53697 64.97869 64.25783
# Shear Modulus (GPa) = 23.71916 27.00898 25.36407
#
# Velocity S-wave (km/s) = 3.36074 3.58624 3.47532
# Velocity P-wave (km/s) = 6.73160 6.93467 6.83389
#
# Compressibility (1/GPa) = 0.01573887
#
# Stress axis : x y z
#
# Youngs Moduli (GPa) = 82.07251 64.17329 65.24267
#
# Poissons Ratio (x) = 0.32350 0.14659
# Poissons Ratio (y) = 0.41374 0.41690
# Poissons Ratio (z) = 0.18440 0.41006
#
# Static dielectric constant tensor:
#      x y z
#    x 3.640560 0.000000 -0.112510 
#    y 0.000000 3.913780 0.000000 
#    z -0.112510 0.000000 3.942140 
# 
# 
# High freq. dielectric constant tensor:
#      x y z
#    x 1.819300 0.000000 -0.007630 
#    y 0.000000 1.837230 0.000000 
#    z -0.007630 0.000000 1.833360 
# 
# From -- ./inp_files/12986.got.cif
#   From: 2010.03.12/outbox.cif.g09.slc.cpg/sg14_7_cif.got.tgz:12986.got - 2010.03.31 13:35:05.
