data_PCOD8127031
_publ_section_title
;
Structure prediction by ZEFSAII (Michael W. Deem and Ramdas Pophale) SiO2 
 PCOD8127031
Probable space group: P 21/C
;
_chemical_formula_sum "Si O2"
_cell_formula_units_Z 24
_cell_length_a 11.160263
_cell_length_b 8.013224
_cell_length_c 12.728860
_cell_angle_alpha 90.000000
_cell_angle_beta 68.475191
_cell_angle_gamma 90.000000
_cell_volume 1058.948898
_symmetry_space_group_name_H-M "P 21/C"
_symmetry_group_IT_number 14
_symmetry_cell_setting 'monoclinic'
loop_
_space_group_symop_operation_xyz
x,y,z
-x,1/2+y,1/2-z
-x,-y,-z
x,1/2-y,1/2+z
loop_
_atom_site_type_symbol
_atom_site_label
_atom_site_fract_x
_atom_site_fract_y
_atom_site_fract_z
Si Si1 0.454724 0.489553 0.247274
Si Si2 0.863160 0.856572 0.318265
Si Si3 0.643482 0.838418 0.804551
Si Si4 0.953010 0.546657 0.398842
Si Si5 0.335889 0.953398 0.006492
Si Si6 0.369288 0.909622 0.572171
O O1 0.452978 0.315703 0.185378
O O2 0.605896 0.534958 0.221524
O O3 0.373641 0.480027 0.380329
O O4 0.382756 0.623628 0.193973
O O5 0.790747 0.723348 0.262739
O O6 0.942072 0.747698 0.379789
O O7 0.954457 0.970037 0.219074
O O8 0.755208 0.970963 0.410105
O O9 0.595604 0.927440 0.928084
O O10 0.815276 0.466911 0.426458
O O11 0.000000 0.500000 0.500000
O O12 0.362255 0.759450 0.011016
O O13 0.500000 0.000000 0.500000
#
# Coordination Sequence:
#
# PCOD8127031 Si02
#       6
#     4   4   4   4   4   4
#     4  11  22  40  63  94 133 173 212 263 332 397
#     4  10  23  43  65  97 132 171 225 275 326 391
#     4  10  22  38  63  93 129 170 214 263 321 388
#     4  11  23  43  69  93 130 178 222 276 327 385
#     4  11  23  41  66  97 132 171 217 273 328 390
#     4  11  24  43  67  98 134 171 215 274 335 399
#
# _framework density 22.663983000000002
#
# number of rings (size 3 to 8) (size 9 to 14) (size 15 to 20)
#    0.000    1.333    0.000    6.500    0.000    6.667 
#    0.000    6.667    0.000    0.000    0.000    0.000 
#    0.000    0.000    0.000    0.000    0.000    0.000 
#
# Total GULP energy -297341.710100 kJ/mol
# GULP energy per Si atom -12389.237921 kJ/mol
# Density = 2.261240 g / cm^3
# Si number density = 22.663983 Si / 1000 Ang^3
#
#
#
# Elastic Constant Matrix: (Units=GPa)
#
#
# Indices 1 2 3 4 5 6 
#
# 1 74.8637 63.2325 43.6290 0.0000 1.7023 0.0000
# 2 63.2325 143.0627 65.8577 0.0000 -2.5704 0.0000
# 3 43.6290 65.8577 110.8469 0.0000 -3.6016 0.0000
# 4 0.0000 0.0000 0.0000 35.7878 0.0000 3.7255
# 5 1.7023 -2.5704 -3.6016 0.0000 46.5868 0.0000
# 6 0.0000 0.0000 0.0000 3.7255 0.0000 57.2787
#
#
#
# Elastic Compliance Matrix: (Units=1/GPa)
#
#
# Indices 1 2 3 4 5 6 
#
# 1 0.022693 -0.008153 -0.004140 0.000000 -0.001599 0.000000
# 2 -0.008153 0.012551 -0.004226 0.000000 0.000664 0.000000
# 3 -0.004140 -0.004226 0.013192 0.000000 0.000938 0.000000
# 4 0.000000 0.000000 0.000000 0.028133 0.000000 -0.001830
# 5 -0.001599 0.000664 0.000938 0.000000 0.021633 0.000000
# 6 0.000000 0.000000 0.000000 -0.001830 0.000000 0.017578
#
#
# Mechanical properties :
#
#
# Convention : Reuss Voigt Hill
#
# Bulk Modulus (GPa) = 64.94441 74.91242 69.92842
# Shear Modulus (GPa) = 32.47787 38.33427 35.40607
#
# Velocity S-wave (km/s) = 3.78963 4.11715 3.95678
# Velocity P-wave (km/s) = 6.91852 7.46502 7.19696
#
# Compressibility (1/GPa) = 0.01539778
#
# Stress axis : x y z
#
# Youngs Moduli (GPa) = 44.06650 79.67461 75.80129
#
# Poissons Ratio (x) = 0.64960 0.31380
# Poissons Ratio (y) = 0.35928 0.32037
# Poissons Ratio (z) = 0.18243 0.33674
#
# Static dielectric constant tensor:
#      x y z
#    x 4.722220 0.000000 0.611370 
#    y 0.000000 4.411230 0.000000 
#    z 0.611370 0.000000 4.543820 
# 
# 
# High freq. dielectric constant tensor:
#      x y z
#    x 1.901710 0.000000 0.006790 
#    y 0.000000 1.901690 0.000000 
#    z 0.006790 0.000000 1.890880 
# 
# From -- ./inp_files/28029.got.cif
#   From: 2010.03.12/outbox.cif.g09.slc.cpg/sg14_15_cif.got.tgz:28029.got - 2010.03.31 13:35:05.
