data_PCOD8127213
_publ_section_title
;
Structure prediction by ZEFSAII (Michael W. Deem and Ramdas Pophale) SiO2 
 PCOD8127213
Probable space group: P 21/C
;
_chemical_formula_sum "Si O2"
_cell_formula_units_Z 32
_cell_length_a 16.822312
_cell_length_b 11.691433
_cell_length_c 14.661984
_cell_angle_alpha 90.000000
_cell_angle_beta 150.068602
_cell_angle_gamma 90.000000
_cell_volume 1438.845858
_symmetry_space_group_name_H-M "P 21/C"
_symmetry_group_IT_number 14
_symmetry_cell_setting 'monoclinic'
loop_
_space_group_symop_operation_xyz
x,y,z
-x,1/2+y,1/2-z
-x,-y,-z
x,1/2-y,1/2+z
loop_
_atom_site_type_symbol
_atom_site_label
_atom_site_fract_x
_atom_site_fract_y
_atom_site_fract_z
Si Si1 0.600844 0.474037 0.313608
Si Si2 0.273508 0.111573 0.410464
Si Si3 0.549773 0.418070 0.668342
Si Si4 0.903774 0.662695 0.765065
Si Si5 0.292888 0.113659 0.768490
Si Si6 0.784532 0.249338 0.985108
Si Si7 0.959614 0.084166 0.773406
Si Si8 0.754884 0.865056 0.826888
O O1 0.580348 0.524153 0.394563
O O2 0.747675 0.384317 0.461092
O O3 0.633566 0.574268 0.274538
O O4 0.439281 0.412743 0.123084
O O5 0.234663 0.244110 0.391238
O O6 0.280814 0.088978 0.309546
O O7 0.136718 0.032952 0.318078
O O8 0.693525 0.507103 0.787343
O O9 0.460696 0.377501 0.488856
O O10 0.625184 0.308378 0.790384
O O11 0.856255 0.595534 0.810271
O O12 0.916944 0.577647 0.690865
O O13 0.071189 0.731892 0.944336
O O14 0.270650 0.229181 0.688816
O O15 0.837911 0.309381 0.133941
O O16 0.061323 0.106565 0.965448
#
# Coordination Sequence:
#
# PCOD8127213 Si02
#       8
#     4   4   4   4   4   4   4   4
#     4  12  24  42  73  96 134 177 220 276 336 395
#     4  11  22  42  66  99 131 168 227 275 328 391
#     4  11  24  43  68  96 139 172 229 269 328 403
#     4   9  21  41  63  93 131 170 223 267 326 397
#     4  10  24  44  65 101 128 178 219 280 331 386
#     4  10  23  41  64 101 129 177 220 270 321 404
#     4  10  22  40  65  93 133 176 218 264 337 393
#     4  11  24  41  69  97 134 173 219 279 332 391
#
# _framework density 22.240047000000001
#
# number of rings (size 3 to 8) (size 9 to 14) (size 15 to 20)
#    0.750    0.750    1.250    3.750    3.500    1.500 
#    0.000    6.250    0.000    0.000    0.000    0.000 
#    0.000    0.000    0.000    0.000    0.000    0.000 
#
# Total GULP energy -396793.853587 kJ/mol
# GULP energy per Si atom -12399.807925 kJ/mol
# Density = 2.218943 g / cm^3
# Si number density = 22.240047 Si / 1000 Ang^3
#
#
#
# Elastic Constant Matrix: (Units=GPa)
#
#
# Indices 1 2 3 4 5 6 
#
# 1 102.4004 31.8866 -18.0440 0.0000 3.5771 0.0000
# 2 31.8866 71.7448 -14.2552 0.0000 -1.6622 0.0000
# 3 -18.0440 -14.2552 45.1572 0.0000 2.4842 0.0000
# 4 0.0000 0.0000 0.0000 27.5565 0.0000 7.3985
# 5 3.5771 -1.6622 2.4842 0.0000 29.2730 0.0000
# 6 0.0000 0.0000 0.0000 7.3985 0.0000 44.9780
#
#
#
# Elastic Compliance Matrix: (Units=1/GPa)
#
#
# Indices 1 2 3 4 5 6 
#
# 1 0.011882 -0.004654 0.003389 0.000000 -0.002004 0.000000
# 2 -0.004654 0.016700 0.003344 0.000000 0.001233 0.000000
# 3 0.003389 0.003344 0.024682 0.000000 -0.002319 0.000000
# 4 0.000000 0.000000 0.000000 0.037966 0.000000 -0.006245
# 5 -0.002004 0.001233 -0.002319 0.000000 0.034673 0.000000
# 6 0.000000 0.000000 0.000000 -0.006245 0.000000 0.023260
#
#
# Mechanical properties :
#
#
# Convention : Reuss Voigt Hill
#
# Bulk Modulus (GPa) = 17.41477 24.27523 20.84500
# Shear Modulus (GPa) = 30.46085 35.00919 32.73502
#
# Velocity S-wave (km/s) = 3.70488 3.97186 3.84069
# Velocity P-wave (km/s) = 5.11360 5.65447 5.39082
#
# Compressibility (1/GPa) = 0.05742254
#
# Stress axis : x y z
#
# Youngs Moduli (GPa) = 84.16139 59.88108 40.51489
#
# Poissons Ratio (x) = 0.27868 -0.13730
# Poissons Ratio (y) = 0.39168 -0.13549
# Poissons Ratio (z) = -0.28521 -0.20026
#
# Static dielectric constant tensor:
#      x y z
#    x 4.032450 0.000000 0.082040 
#    y 0.000000 3.904150 0.000000 
#    z 0.082040 0.000000 3.894160 
# 
# 
# High freq. dielectric constant tensor:
#      x y z
#    x 1.868920 0.000000 0.009880 
#    y 0.000000 1.875150 0.000000 
#    z 0.009880 0.000000 1.878410 
# 
# From -- ./inp_files/49025.got.cif
#   From: 2010.03.12/outbox.cif.g09.slc.cpg/sg14_25_cif.got.tgz:49025.got - 2010.03.31 13:35:05.
