data_PCOD8127500
_publ_section_title
;
Structure prediction by ZEFSAII (Michael W. Deem and Ramdas Pophale) SiO2 
 PCOD8127500
Probable space group: P 21/C
;
_chemical_formula_sum "Si O2"
_cell_formula_units_Z 28
_cell_length_a 15.423848
_cell_length_b 7.902385
_cell_length_c 9.184388
_cell_angle_alpha 90.000000
_cell_angle_beta 99.793797
_cell_angle_gamma 90.000000
_cell_volume 1103.126459
_symmetry_space_group_name_H-M "P 21/C"
_symmetry_group_IT_number 14
_symmetry_cell_setting 'monoclinic'
loop_
_space_group_symop_operation_xyz
x,y,z
-x,1/2+y,1/2-z
-x,-y,-z
x,1/2-y,1/2+z
loop_
_atom_site_type_symbol
_atom_site_label
_atom_site_fract_x
_atom_site_fract_y
_atom_site_fract_z
Si Si1 0.659290 0.208422 0.202704
Si Si2 0.230066 0.891080 0.032636
Si Si3 0.948163 0.357829 0.394485
Si Si4 0.095503 0.114214 0.349706
Si Si5 0.608851 0.858499 0.301731
Si Si6 0.200426 0.240898 0.626083
Si Si7 0.494593 0.298014 0.488488
O O1 0.693833 0.346222 0.327365
O O2 0.585297 0.286575 0.071455
O O3 0.611285 0.061019 0.282081
O O4 0.739670 0.147377 0.123228
O O5 0.139037 0.794379 0.044330
O O6 0.207295 0.087198 0.036323
O O7 0.921054 0.432142 0.228001
O O8 0.000000 0.500000 0.500000
O O9 0.005790 0.191044 0.388574
O O10 0.166110 0.098072 0.502087
O O11 0.131827 0.242490 0.237500
O O12 0.705538 0.802523 0.280109
O O13 0.588390 0.792006 0.456712
O O14 0.530626 0.767039 0.186842
O O15 0.500000 0.500000 0.500000
#
# Coordination Sequence:
#
# PCOD8127500 Si02
#       7
#     4   4   4   4   4   4   4
#     4  11  25  44  69 101 137 185 236 289 358 415
#     4  11  25  44  67  97 144 176 233 295 354 420
#     4  11  25  45  69 101 142 184 235 299 360 423
#     4  11  23  43  67  96 139 179 233 289 358 421
#     4  11  23  42  72 100 137 183 236 284 349 415
#     4  11  23  42  65  98 136 179 227 291 345 422
#     4  10  22  43  67 101 142 184 232 292 345 416
#
# _framework density 25.382400000000001
#
# number of rings (size 3 to 8) (size 9 to 14) (size 15 to 20)
#    0.000    1.143    2.857    4.286    2.000    5.143 
#    0.000    4.286    0.000    0.000    0.000    0.000 
#    0.000    0.000    0.000    0.000    0.000    0.000 
#
# Total GULP energy -347094.287752 kJ/mol
# GULP energy per Si atom -12396.224563 kJ/mol
# Density = 2.532463 g / cm^3
# Si number density = 25.382400 Si / 1000 Ang^3
#
#
#
# Elastic Constant Matrix: (Units=GPa)
#
#
# Indices 1 2 3 4 5 6 
#
# 1 98.6684 18.5748 0.0917 0.0000 5.2370 0.0000
# 2 18.5748 39.5189 7.8576 0.0000 -3.4609 0.0000
# 3 0.0917 7.8576 74.7269 0.0000 8.2794 0.0000
# 4 0.0000 0.0000 0.0000 35.5117 0.0000 0.4062
# 5 5.2370 -3.4609 8.2794 0.0000 41.1684 0.0000
# 6 0.0000 0.0000 0.0000 0.4062 0.0000 34.0090
#
#
#
# Elastic Compliance Matrix: (Units=1/GPa)
#
#
# Indices 1 2 3 4 5 6 
#
# 1 0.011310 -0.005659 0.000811 0.000000 -0.002078 0.000000
# 2 -0.005659 0.028992 -0.003469 0.000000 0.003855 0.000000
# 3 0.000811 -0.003469 0.014104 0.000000 -0.003231 0.000000
# 4 0.000000 0.000000 0.000000 0.028164 0.000000 -0.000336
# 5 -0.002078 0.003855 -0.003231 0.000000 0.025529 0.000000
# 6 0.000000 0.000000 0.000000 -0.000336 0.000000 0.029408
#
#
# Mechanical properties :
#
#
# Convention : Reuss Voigt Hill
#
# Bulk Modulus (GPa) = 26.47440 29.55140 28.01290
# Shear Modulus (GPa) = 29.98879 34.56385 32.27632
#
# Velocity S-wave (km/s) = 3.44100 3.69416 3.56982
# Velocity P-wave (km/s) = 5.12251 5.46475 5.29640
#
# Compressibility (1/GPa) = 0.03777233
#
# Stress axis : x y z
#
# Youngs Moduli (GPa) = 88.41856 34.49283 70.90286
#
# Poissons Ratio (x) = 0.19520 -0.05753
# Poissons Ratio (y) = 0.50038 0.24594
# Poissons Ratio (z) = -0.07174 0.11964
#
# Static dielectric constant tensor:
#      x y z
#    x 4.947040 0.000000 0.141820 
#    y 0.000000 4.161870 0.000000 
#    z 0.141820 0.000000 4.860640 
# 
# 
# High freq. dielectric constant tensor:
#      x y z
#    x 2.029370 0.000000 0.003860 
#    y 0.000000 1.979310 0.000000 
#    z 0.003860 0.000000 2.023850 
# 
# From -- ./inp_files/17596.got.cif
#   From: 2010.03.12/outbox.cif.g09.slc.cpg/sg14_9_cif.got.tgz:17596.got - 2010.03.31 13:35:05.
