data_PCOD8127778
_publ_section_title
;
Structure prediction by ZEFSAII (Michael W. Deem and Ramdas Pophale) SiO2 
 PCOD8127778
Probable space group: P 21/C
;
_chemical_formula_sum "Si O2"
_cell_formula_units_Z 28
_cell_length_a 7.262948
_cell_length_b 19.095809
_cell_length_c 9.553286
_cell_angle_alpha 90.000000
_cell_angle_beta 77.598902
_cell_angle_gamma 90.000000
_cell_volume 1294.049256
_symmetry_space_group_name_H-M "P 21/C"
_symmetry_group_IT_number 14
_symmetry_cell_setting 'monoclinic'
loop_
_space_group_symop_operation_xyz
x,y,z
-x,1/2+y,1/2-z
-x,-y,-z
x,1/2-y,1/2+z
loop_
_atom_site_type_symbol
_atom_site_label
_atom_site_fract_x
_atom_site_fract_y
_atom_site_fract_z
Si Si1 0.248820 0.215755 0.152792
Si Si2 0.417322 0.483432 0.164420
Si Si3 0.446670 0.887948 0.866131
Si Si4 0.356168 0.760733 0.345189
Si Si5 0.674307 0.392593 0.307212
Si Si6 0.972921 0.707255 0.035205
Si Si7 0.041313 0.061222 0.601700
O O1 0.337279 0.137180 0.139261
O O2 0.426442 0.270186 0.137319
O O3 0.089118 0.221032 0.297021
O O4 0.137098 0.232178 0.030495
O O5 0.440060 0.551363 0.255879
O O6 0.520259 0.419601 0.222683
O O7 0.202815 0.461684 0.181734
O O8 0.500000 0.500000 0.000000
O O9 0.326884 0.822432 0.821177
O O10 0.362680 0.913900 0.027293
O O11 0.326401 0.807613 0.209799
O O12 0.199988 0.785973 0.484309
O O13 0.870264 0.426663 0.234149
O O14 0.905865 0.631199 0.992405
O O15 0.000000 0.000000 0.500000
#
# Coordination Sequence:
#
# PCOD8127778 Si02
#       7
#     4   4   4   4   4   4   4
#     4  10  23  41  65  96 133 166 223 272 340 405
#     4  12  24  44  70  95 135 187 227 278 349 408
#     4  10  25  44  67 104 139 176 231 288 346 402
#     4   9  24  40  67  98 135 169 224 282 345 397
#     4  11  23  46  68  96 141 175 231 286 337 417
#     4  11  23  41  68  95 132 179 220 280 345 404
#     4  11  25  42  66  98 132 180 235 276 338 417
#
# _framework density 21.637506999999999
#
# number of rings (size 3 to 8) (size 9 to 14) (size 15 to 20)
#    0.857    0.571    1.429    3.000    4.000    2.857 
#    0.000    0.000    0.000    0.000    0.000    0.000 
#    0.000    0.000    0.000    0.000    0.000    0.000 
#
# Total GULP energy -347062.390695 kJ/mol
# GULP energy per Si atom -12395.085382 kJ/mol
# Density = 2.158826 g / cm^3
# Si number density = 21.637507 Si / 1000 Ang^3
#
#
#
# Elastic Constant Matrix: (Units=GPa)
#
#
# Indices 1 2 3 4 5 6 
#
# 1 101.3739 28.3211 34.6849 0.0000 -10.9051 0.0000
# 2 28.3211 90.7547 37.9437 0.0000 4.2717 0.0000
# 3 34.6849 37.9437 133.9254 0.0000 -11.8125 0.0000
# 4 0.0000 0.0000 0.0000 32.5865 0.0000 2.9177
# 5 -10.9051 4.2717 -11.8125 0.0000 32.3881 0.0000
# 6 0.0000 0.0000 0.0000 2.9177 0.0000 32.8498
#
#
#
# Elastic Compliance Matrix: (Units=1/GPa)
#
#
# Indices 1 2 3 4 5 6 
#
# 1 0.011751 -0.003067 -0.001849 0.000000 0.003687 0.000000
# 2 -0.003067 0.013596 -0.003417 0.000000 -0.004072 0.000000
# 3 -0.001849 -0.003417 0.009194 0.000000 0.003181 0.000000
# 4 0.000000 0.000000 0.000000 0.030934 0.000000 -0.002747
# 5 0.003687 -0.004072 0.003181 0.000000 0.033814 0.000000
# 6 0.000000 0.000000 0.000000 -0.002747 0.000000 0.030686
#
#
# Mechanical properties :
#
#
# Convention : Reuss Voigt Hill
#
# Bulk Modulus (GPa) = 55.94506 58.66148 57.30327
# Shear Modulus (GPa) = 32.76556 34.57183 33.66870
#
# Velocity S-wave (km/s) = 3.89562 4.00155 3.94894
# Velocity P-wave (km/s) = 6.79310 6.96561 6.87990
#
# Compressibility (1/GPa) = 0.01787468
#
# Stress axis : x y z
#
# Youngs Moduli (GPa) = 85.10176 73.55028 108.76210
#
# Poissons Ratio (x) = 0.22561 0.20111
# Poissons Ratio (y) = 0.26104 0.37162
# Poissons Ratio (z) = 0.15736 0.25131
#
# Static dielectric constant tensor:
#      x y z
#    x 4.014380 0.000000 -0.192020 
#    y 0.000000 3.927150 0.000000 
#    z -0.192020 0.000000 3.704530 
# 
# 
# High freq. dielectric constant tensor:
#      x y z
#    x 1.852020 0.000000 -0.014120 
#    y 0.000000 1.850550 0.000000 
#    z -0.014120 0.000000 1.848200 
# 
# From -- ./inp_files/9878.got.cif
#   From: 2010.03.12/outbox.cif.g09.slc.cpg/sg14_5_cif.got.tgz:9878.got - 2010.03.31 13:35:05.
