data_PCOD8127357
_publ_section_title
;
Structure prediction by ZEFSAII (Michael W. Deem and Ramdas Pophale) SiO2 
 PCOD8127357
Probable space group: P 21/C
;
_chemical_formula_sum "Si O2"
_cell_formula_units_Z 28
_cell_length_a 22.847305
_cell_length_b 9.079110
_cell_length_c 10.017931
_cell_angle_alpha 90.000000
_cell_angle_beta 138.521835
_cell_angle_gamma 90.000000
_cell_volume 1376.365323
_symmetry_space_group_name_H-M "P 21/C"
_symmetry_group_IT_number 14
_symmetry_cell_setting 'monoclinic'
loop_
_space_group_symop_operation_xyz
x,y,z
-x,1/2+y,1/2-z
-x,-y,-z
x,1/2-y,1/2+z
loop_
_atom_site_type_symbol
_atom_site_label
_atom_site_fract_x
_atom_site_fract_y
_atom_site_fract_z
Si Si1 0.921244 0.659208 0.242768
Si Si2 0.274549 0.081672 0.581675
Si Si3 0.238573 0.964533 0.233619
Si Si4 0.051122 0.094956 0.914438
Si Si5 0.376577 0.137047 0.300547
Si Si6 0.657305 0.191375 0.164325
Si Si7 0.561822 0.357410 0.234812
O O1 0.936881 0.686445 0.427287
O O2 0.963254 0.793097 0.231898
O O3 0.964191 0.504777 0.272799
O O4 0.817716 0.653866 0.031762
O O5 0.348372 0.207916 0.687482
O O6 0.263690 0.987843 0.429779
O O7 0.305296 0.971883 0.750968
O O8 0.260776 0.796943 0.232676
O O9 0.292346 0.077413 0.235227
O O10 0.134979 0.989356 0.032768
O O11 0.456537 0.156134 0.541486
O O12 0.406255 0.025154 0.234867
O O13 0.607550 0.247264 0.209809
O O14 0.585642 0.191282 0.924091
#
# Coordination Sequence:
#
# PCOD8127357 Si02
#       7
#     4   4   4   4   4   4   4
#     4  10  23  41  64  95 124 162 202 254 308 372
#     4  11  23  39  66  91 121 167 208 252 313 367
#     4  10  22  42  61  89 128 160 207 262 300 372
#     4  10  22  43  64  93 128 158 204 253 311 370
#     4  10  23  40  63  90 123 163 207 262 300 377
#     4  11  23  42  59  92 123 170 202 259 306 371
#     4  10  24  41  61  90 127 160 211 252 318 356
#
# _framework density 20.343436000000001
#
# number of rings (size 3 to 8) (size 9 to 14) (size 15 to 20)
#    0.000    1.714    2.857    0.000    6.000    3.429 
#    0.000    0.000    0.000    0.000    0.000    0.000 
#    0.000    0.000    0.000    0.000    0.000    0.000 
#
# Total GULP energy -347341.054902 kJ/mol
# GULP energy per Si atom -12405.037675 kJ/mol
# Density = 2.029713 g / cm^3
# Si number density = 20.343436 Si / 1000 Ang^3
#
#
#
# Elastic Constant Matrix: (Units=GPa)
#
#
# Indices 1 2 3 4 5 6 
#
# 1 54.4932 27.1193 13.7516 0.0000 11.1597 0.0000
# 2 27.1193 94.8977 35.8760 0.0000 6.3483 0.0000
# 3 13.7516 35.8760 78.9839 0.0000 6.8757 0.0000
# 4 0.0000 0.0000 0.0000 24.9725 0.0000 3.6946
# 5 11.1597 6.3483 6.8757 0.0000 20.5788 0.0000
# 6 0.0000 0.0000 0.0000 3.6946 0.0000 26.8935
#
#
#
# Elastic Compliance Matrix: (Units=1/GPa)
#
#
# Indices 1 2 3 4 5 6 
#
# 1 0.023597 -0.005822 -0.000521 0.000000 -0.010826 0.000000
# 2 -0.005822 0.014244 -0.005509 0.000000 0.000604 0.000000
# 3 -0.000521 -0.005509 0.015533 0.000000 -0.003208 0.000000
# 4 0.000000 0.000000 0.000000 0.040875 0.000000 -0.005615
# 5 -0.010826 0.000604 -0.003208 0.000000 0.055350 0.000000
# 6 0.000000 0.000000 0.000000 -0.005615 0.000000 0.037955
#
#
# Mechanical properties :
#
#
# Convention : Reuss Voigt Hill
#
# Bulk Modulus (GPa) = 33.70482 42.42983 38.06733
# Shear Modulus (GPa) = 22.60931 24.59748 23.60340
#
# Velocity S-wave (km/s) = 3.33736 3.48100 3.40993
# Velocity P-wave (km/s) = 5.60843 6.08757 5.85291
#
# Compressibility (1/GPa) = 0.02966934
#
# Stress axis : x y z
#
# Youngs Moduli (GPa) = 42.37815 70.20701 64.37926
#
# Poissons Ratio (x) = 0.40875 0.03357
# Poissons Ratio (y) = 0.24673 0.35464
# Poissons Ratio (z) = 0.02210 0.38674
#
# Static dielectric constant tensor:
#      x y z
#    x 3.704730 0.000000 0.072050 
#    y 0.000000 3.666730 0.000000 
#    z 0.072050 0.000000 3.587870 
# 
# 
# High freq. dielectric constant tensor:
#      x y z
#    x 1.800100 0.000000 0.004230 
#    y 0.000000 1.794660 0.000000 
#    z 0.004230 0.000000 1.792020 
# 
# From -- ./inp_files/17569.got.cif
#   From: 2010.03.12/outbox.cif.g09.slc.cpg/sg14_9_cif.got.tgz:17569.got - 2010.03.31 13:35:05.
