data_PCOD8127398
_publ_section_title
;
Structure prediction by ZEFSAII (Michael W. Deem and Ramdas Pophale) SiO2 
 PCOD8127398
Probable space group: P 21/C
;
_chemical_formula_sum "Si O2"
_cell_formula_units_Z 24
_cell_length_a 10.843188
_cell_length_b 15.383187
_cell_length_c 14.146390
_cell_angle_alpha 90.000000
_cell_angle_beta 30.159817
_cell_angle_gamma 90.000000
_cell_volume 1185.524120
_symmetry_space_group_name_H-M "P 21/C"
_symmetry_group_IT_number 14
_symmetry_cell_setting 'monoclinic'
loop_
_space_group_symop_operation_xyz
x,y,z
-x,1/2+y,1/2-z
-x,-y,-z
x,1/2-y,1/2+z
loop_
_atom_site_type_symbol
_atom_site_label
_atom_site_fract_x
_atom_site_fract_y
_atom_site_fract_z
Si Si1 0.976313 0.412883 0.955274
Si Si2 0.184395 0.358842 0.506209
Si Si3 0.473316 0.565466 0.875179
Si Si4 0.560840 0.600203 0.467778
Si Si5 0.338968 0.601137 0.170441
Si Si6 0.177810 0.718470 0.788036
O O1 0.237851 0.378305 0.744640
O O2 0.803034 0.430496 0.980561
O O3 0.861715 0.336685 0.092270
O O4 0.000000 0.500000 0.000000
O O5 0.345471 0.374929 0.306025
O O6 0.348557 0.378906 0.487219
O O7 0.947835 0.422906 0.659606
O O8 0.080190 0.258719 0.579386
O O9 0.553821 0.463927 0.821782
O O10 0.488395 0.597721 0.973022
O O11 0.500000 0.500000 0.500000
O O12 0.314312 0.658822 0.617741
O O13 0.355856 0.700250 0.198030
#
# Coordination Sequence:
#
# PCOD8127398 Si02
#       6
#     4   4   4   4   4   4
#     4  12  23  41  66  95 130 175 216 264 333 388
#     4  10  22  42  65  95 134 165 220 267 326 390
#     4  11  20  43  67  93 132 171 211 273 324 397
#     4  12  23  45  65  94 137 172 218 272 332 389
#     4   9  23  40  66  96 129 167 219 264 330 379
#     4  10  24  40  62  97 126 172 215 271 314 392
#
# _framework density 20.244209999999999
#
# number of rings (size 3 to 8) (size 9 to 14) (size 15 to 20)
#    1.000    0.333    5.000    0.500    2.333    1.333 
#    0.000    3.333    0.000    0.000    0.000    0.000 
#    0.000    0.000    0.000    0.000    0.000    0.000 
#
# Total GULP energy -297439.487098 kJ/mol
# GULP energy per Si atom -12393.311962 kJ/mol
# Density = 2.019813 g / cm^3
# Si number density = 20.244210 Si / 1000 Ang^3
#
#
#
# Elastic Constant Matrix: (Units=GPa)
#
#
# Indices 1 2 3 4 5 6 
#
# 1 71.2646 40.5246 25.2115 0.0000 3.3336 0.0000
# 2 40.5246 151.4599 54.4461 0.0000 0.2645 0.0000
# 3 25.2115 54.4461 154.3787 0.0000 12.8190 0.0000
# 4 0.0000 0.0000 0.0000 43.2497 0.0000 -7.2913
# 5 3.3336 0.2645 12.8190 0.0000 24.4349 0.0000
# 6 0.0000 0.0000 0.0000 -7.2913 0.0000 26.9252
#
#
#
# Elastic Compliance Matrix: (Units=1/GPa)
#
#
# Indices 1 2 3 4 5 6 
#
# 1 0.016846 -0.004082 -0.001176 0.000000 -0.001637 0.000000
# 2 -0.004082 0.008595 -0.002513 0.000000 0.001782 0.000000
# 3 -0.001176 -0.002513 0.007884 0.000000 -0.003948 0.000000
# 4 0.000000 0.000000 0.000000 0.024228 0.000000 0.006561
# 5 -0.001637 0.001782 -0.003948 0.000000 0.043201 0.000000
# 6 0.000000 0.000000 0.000000 0.006561 0.000000 0.038917
#
#
# Mechanical properties :
#
#
# Convention : Reuss Voigt Hill
#
# Bulk Modulus (GPa) = 56.22978 68.60754 62.41866
# Shear Modulus (GPa) = 31.02961 36.05002 33.53982
#
# Velocity S-wave (km/s) = 3.91930 4.22448 4.07475
# Velocity P-wave (km/s) = 6.95106 7.59990 7.28271
#
# Compressibility (1/GPa) = 0.01778417
#
# Stress axis : x y z
#
# Youngs Moduli (GPa) = 59.36196 116.35200 126.84700
#
# Poissons Ratio (x) = 0.47493 0.14912
# Poissons Ratio (y) = 0.24230 0.31870
# Poissons Ratio (z) = 0.06978 0.29233
#
# Static dielectric constant tensor:
#      x y z
#    x 3.234380 0.000000 -0.276090 
#    y 0.000000 3.777110 0.000000 
#    z -0.276090 0.000000 3.815250 
# 
# 
# High freq. dielectric constant tensor:
#      x y z
#    x 1.761590 0.000000 -0.002340 
#    y 0.000000 1.787680 0.000000 
#    z -0.002340 0.000000 1.814150 
# 
# From -- ./inp_files/45021.got.cif
#   From: 2010.03.12/outbox.cif.g09.slc.cpg/sg14_23_cif.got.tgz:45021.got - 2010.03.31 13:35:05.
