data_PCOD8127062
_publ_section_title
;
Structure prediction by ZEFSAII (Michael W. Deem and Ramdas Pophale) SiO2 
 PCOD8127062
Probable space group: P 21/C
;
_chemical_formula_sum "Si O2"
_cell_formula_units_Z 28
_cell_length_a 9.834722
_cell_length_b 5.031965
_cell_length_c 25.425627
_cell_angle_alpha 90.000000
_cell_angle_beta 75.682263
_cell_angle_gamma 90.000000
_cell_volume 1219.180218
_symmetry_space_group_name_H-M "P 21/C"
_symmetry_group_IT_number 14
_symmetry_cell_setting 'monoclinic'
loop_
_space_group_symop_operation_xyz
x,y,z
-x,1/2+y,1/2-z
-x,-y,-z
x,1/2-y,1/2+z
loop_
_atom_site_type_symbol
_atom_site_label
_atom_site_fract_x
_atom_site_fract_y
_atom_site_fract_z
Si Si1 0.319307 0.236556 0.028895
Si Si2 0.382206 0.738075 0.958296
Si Si3 0.937058 0.602367 0.876506
Si Si4 0.067788 0.892473 0.192372
Si Si5 0.254247 0.816974 0.361149
Si Si6 0.215699 0.561682 0.255894
Si Si7 0.505612 0.557668 0.217389
O O1 0.447719 0.241659 0.058606
O O2 0.171361 0.311429 0.068581
O O3 0.344609 0.438756 0.978490
O O4 0.312600 0.940036 0.006496
O O5 0.315682 0.810788 0.908344
O O6 0.899181 0.313039 0.857832
O O7 0.094511 0.585729 0.885524
O O8 0.923235 0.808680 0.829765
O O9 0.169842 0.835701 0.231499
O O10 0.910229 0.846782 0.230994
O O11 0.256670 0.608456 0.313251
O O12 0.365740 0.053456 0.335990
O O13 0.352512 0.445579 0.211853
O O14 0.464402 0.859061 0.236638
#
# Coordination Sequence:
#
# PCOD8127062 Si02
#       7
#     4   4   4   4   4   4   4
#     4  10  23  45  65  92 124 163 208 266 321 387
#     4  10  23  43  67  91 125 162 209 262 326 378
#     4  11  24  41  67  95 128 165 217 259 318 374
#     4  11  23  39  64  94 131 176 207 258 308 376
#     4  10  23  41  63  98 125 166 211 262 311 378
#     4  10  22  42  61  94 135 173 215 260 309 382
#     4  10  22  39  59  87 130 169 205 259 312 370
#
# _framework density 22.966249999999999
#
# number of rings (size 3 to 8) (size 9 to 14) (size 15 to 20)
#    0.000    1.714    0.000    3.429    2.000    9.143 
#    5.143    0.000    0.000    0.000    0.000    0.000 
#    0.000    0.000    0.000    0.000    0.000    0.000 
#
# Total GULP energy -346922.116146 kJ/mol
# GULP energy per Si atom -12390.075577 kJ/mol
# Density = 2.291398 g / cm^3
# Si number density = 22.966250 Si / 1000 Ang^3
#
#
#
# Elastic Constant Matrix: (Units=GPa)
#
#
# Indices 1 2 3 4 5 6 
#
# 1 151.2895 2.3289 70.8950 0.0000 -17.1011 0.0000
# 2 2.3289 57.0491 5.4145 0.0000 4.3812 0.0000
# 3 70.8950 5.4145 89.9006 0.0000 9.2960 0.0000
# 4 0.0000 0.0000 0.0000 21.8679 0.0000 -4.1928
# 5 -17.1011 4.3812 9.2960 0.0000 46.6310 0.0000
# 6 0.0000 0.0000 0.0000 -4.1928 0.0000 29.4798
#
#
#
# Elastic Compliance Matrix: (Units=1/GPa)
#
#
# Indices 1 2 3 4 5 6 
#
# 1 0.012149 -0.000022 -0.010251 0.000000 0.006501 0.000000
# 2 -0.000022 0.017730 -0.000896 0.000000 -0.001495 0.000000
# 3 -0.010251 -0.000896 0.020055 0.000000 -0.007673 0.000000
# 4 0.000000 0.000000 0.000000 0.047011 0.000000 0.006686
# 5 0.006501 -0.001495 -0.007673 0.000000 0.025499 0.000000
# 6 0.000000 0.000000 0.000000 0.006686 0.000000 0.034872
#
#
# Mechanical properties :
#
#
# Convention : Reuss Voigt Hill
#
# Bulk Modulus (GPa) = 36.23875 50.61290 43.42583
# Shear Modulus (GPa) = 26.47555 34.23579 30.35567
#
# Velocity S-wave (km/s) = 3.39898 3.86515 3.63953
# Velocity P-wave (km/s) = 5.58726 6.48112 6.05072
#
# Compressibility (1/GPa) = 0.02759477
#
# Stress axis : x y z
#
# Youngs Moduli (GPa) = 82.31164 56.40310 49.86277
#
# Poissons Ratio (x) = 0.00125 0.51117
# Poissons Ratio (y) = 0.00183 0.04466
# Poissons Ratio (z) = 0.84382 0.05052
#
# Static dielectric constant tensor:
#      x y z
#    x 4.738150 0.000000 -0.222110 
#    y 0.000000 3.941060 0.000000 
#    z -0.222110 0.000000 3.804600 
# 
# 
# High freq. dielectric constant tensor:
#      x y z
#    x 1.929610 0.000000 -0.010380 
#    y 0.000000 1.901240 0.000000 
#    z -0.010380 0.000000 1.878730 
# 
# From -- ./inp_files/76023.got.cif
#   From: 2010.03.12/outbox.cif.g09.slc.cpg/sg14_39_cif.got.tgz:76023.got - 2010.03.31 13:35:05.
