data_PCOD8127685
_publ_section_title
;
Structure prediction by ZEFSAII (Michael W. Deem and Ramdas Pophale) SiO2 
 PCOD8127685
Probable space group: P 21/C
;
_chemical_formula_sum "Si O2"
_cell_formula_units_Z 28
_cell_length_a 13.276949
_cell_length_b 20.644082
_cell_length_c 13.059056
_cell_angle_alpha 90.000000
_cell_angle_beta 157.972900
_cell_angle_gamma 90.000000
_cell_volume 1342.422234
_symmetry_space_group_name_H-M "P 21/C"
_symmetry_group_IT_number 14
_symmetry_cell_setting 'monoclinic'
loop_
_space_group_symop_operation_xyz
x,y,z
-x,1/2+y,1/2-z
-x,-y,-z
x,1/2-y,1/2+z
loop_
_atom_site_type_symbol
_atom_site_label
_atom_site_fract_x
_atom_site_fract_y
_atom_site_fract_z
Si Si1 0.763645 0.223511 0.287553
Si Si2 0.727503 0.473978 0.288805
Si Si3 0.054999 0.357168 0.572129
Si Si4 0.239797 0.081350 0.037804
Si Si5 0.183615 0.779070 0.891772
Si Si6 0.225841 0.858229 0.515981
Si Si7 0.378992 0.305629 0.042756
O O1 0.976901 0.282013 0.493579
O O2 0.864985 0.165551 0.456828
O O3 0.746648 0.196691 0.156416
O O4 0.473397 0.247087 0.056455
O O5 0.776606 0.396302 0.335701
O O6 0.700645 0.505955 0.376687
O O7 0.000000 0.500000 0.500000
O O8 0.500000 0.500000 0.000000
O O9 0.200097 0.378583 0.605376
O O10 0.273832 0.365108 0.871558
O O11 0.487134 0.107924 0.206480
O O12 0.979591 0.088547 0.721401
O O13 0.254149 0.702969 0.966151
O O14 0.366940 0.821340 0.143311
O O15 0.869062 0.784818 0.619513
#
# Coordination Sequence:
#
# PCOD8127685 Si02
#       7
#     4   4   4   4   4   4   4
#     4  11  24  36  59  86 120 156 188 239 291 344
#     4  10  23  37  55  85 113 154 197 228 289 353
#     4  11  22  37  59  83 119 153 188 238 288 344
#     4  11  22  37  57  81 119 154 181 238 283 345
#     4  11  23  36  54  81 120 150 188 233 286 342
#     4  11  21  36  55  83 114 151 194 221 292 351
#     4  11  23  37  53  85 112 154 196 224 289 352
#
# _framework density 20.857818999999999
#
# number of rings (size 3 to 8) (size 9 to 14) (size 15 to 20)
#    0.000    1.143    4.286    4.286    6.000    0.000 
#    0.000    0.000    0.000    0.000    0.000    6.000 
#    0.000    0.000    0.000    0.000    0.000    0.000 
#
# Total GULP energy -347002.175097 kJ/mol
# GULP energy per Si atom -12392.934825 kJ/mol
# Density = 2.081035 g / cm^3
# Si number density = 20.857819 Si / 1000 Ang^3
#
#
#
# Elastic Constant Matrix: (Units=GPa)
#
#
# Indices 1 2 3 4 5 6 
#
# 1 126.5610 2.7831 33.8130 0.0000 -11.4771 0.0000
# 2 2.7831 22.0597 6.9336 0.0000 -9.5200 0.0000
# 3 33.8130 6.9336 125.4264 0.0000 -8.3131 0.0000
# 4 0.0000 0.0000 0.0000 29.0545 0.0000 -8.2024
# 5 -11.4771 -9.5200 -8.3131 0.0000 36.0199 0.0000
# 6 0.0000 0.0000 0.0000 -8.2024 0.0000 24.3909
#
#
#
# Elastic Compliance Matrix: (Units=1/GPa)
#
#
# Indices 1 2 3 4 5 6 
#
# 1 0.008701 0.000650 -0.002220 0.000000 0.002432 0.000000
# 2 0.000650 0.051696 -0.002146 0.000000 0.013375 0.000000
# 3 -0.002220 -0.002146 0.008739 0.000000 0.000742 0.000000
# 4 0.000000 0.000000 0.000000 0.038028 0.000000 0.012789
# 5 0.002432 0.013375 0.000742 0.000000 0.032243 0.000000
# 6 0.000000 0.000000 0.000000 0.012789 0.000000 0.045300
#
#
# Mechanical properties :
#
#
# Convention : Reuss Voigt Hill
#
# Bulk Modulus (GPa) = 16.20699 40.12296 28.16498
# Shear Modulus (GPa) = 23.50624 33.26086 28.38355
#
# Velocity S-wave (km/s) = 3.36069 3.99764 3.69292
# Velocity P-wave (km/s) = 4.77975 6.37074 5.63171
#
# Compressibility (1/GPa) = 0.06170176
#
# Stress axis : x y z
#
# Youngs Moduli (GPa) = 114.93259 19.34377 114.42674
#
# Poissons Ratio (x) = -0.01256 0.25407
# Poissons Ratio (y) = -0.07465 0.24561
# Poissons Ratio (z) = 0.25519 0.04152
#
# Static dielectric constant tensor:
#      x y z
#    x 3.773090 0.000000 -0.088050 
#    y 0.000000 5.517150 0.000000 
#    z -0.088050 0.000000 4.010000 
# 
# 
# High freq. dielectric constant tensor:
#      x y z
#    x 1.802530 0.000000 0.006160 
#    y 0.000000 1.771530 0.000000 
#    z 0.006160 0.000000 1.840930 
# 
# From -- ./inp_files/47594.got.cif
#   From: 2010.03.12/outbox.cif.g09.slc.cpg/sg14_24_cif.got.tgz:47594.got - 2010.03.31 13:35:05.
