data_PCOD8127589
_publ_section_title
;
Structure prediction by ZEFSAII (Michael W. Deem and Ramdas Pophale) SiO2 
 PCOD8127589
Probable space group: P 21/C
;
_chemical_formula_sum "Si O2"
_cell_formula_units_Z 20
_cell_length_a 7.603085
_cell_length_b 6.458965
_cell_length_c 20.277266
_cell_angle_alpha 90.000000
_cell_angle_beta 119.023520
_cell_angle_gamma 90.000000
_cell_volume 870.728109
_symmetry_space_group_name_H-M "P 21/C"
_symmetry_group_IT_number 14
_symmetry_cell_setting 'monoclinic'
loop_
_space_group_symop_operation_xyz
x,y,z
-x,1/2+y,1/2-z
-x,-y,-z
x,1/2-y,1/2+z
loop_
_atom_site_type_symbol
_atom_site_label
_atom_site_fract_x
_atom_site_fract_y
_atom_site_fract_z
Si Si1 0.884732 0.005183 0.631524
Si Si2 0.765709 0.248335 0.985804
Si Si3 0.026922 0.386382 0.421527
Si Si4 0.738116 0.735318 0.319065
Si Si5 0.534032 0.951625 0.659899
O O1 0.737722 0.046001 0.666312
O O2 0.922712 0.758729 0.631383
O O3 0.785943 0.078114 0.545187
O O4 0.091651 0.123441 0.684424
O O5 0.954702 0.257312 0.969434
O O6 0.558993 0.288750 0.909359
O O7 0.776082 0.021138 0.022602
O O8 0.840106 0.535839 0.370183
O O9 0.577132 0.669773 0.235044
O O10 0.622502 0.863324 0.354728
#
# Coordination Sequence:
#
# PCOD8127589 Si02
#       5
#     4   4   4   4   4
#     4  11  25  46  71 100 138 180 229 285 345 409
#     4  10  22  44  69 105 136 177 225 285 344 409
#     4  10  22  44  73  96 142 181 218 285 353 398
#     4  11  27  46  65 102 138 183 229 286 342 410
#     4  12  26  45  72  98 141 180 235 282 344 412
#
# _framework density 22.969282
#
# number of rings (size 3 to 8) (size 9 to 14) (size 15 to 20)
#    0.000    1.200    2.000    2.400    8.400    0.800 
#   10.800    0.000    0.000    0.000    0.000    0.000 
#    0.000    0.000    0.000    0.000    0.000    0.000 
#
# Total GULP energy -248049.840286 kJ/mol
# GULP energy per Si atom -12402.492014 kJ/mol
# Density = 2.291700 g / cm^3
# Si number density = 22.969282 Si / 1000 Ang^3
#
#
#
# Elastic Constant Matrix: (Units=GPa)
#
#
# Indices 1 2 3 4 5 6 
#
# 1 128.4771 43.6160 3.2383 0.0000 -8.7443 0.0000
# 2 43.6160 96.3742 27.6298 0.0000 -1.0471 0.0000
# 3 3.2383 27.6298 91.9893 0.0000 10.0044 0.0000
# 4 0.0000 0.0000 0.0000 33.0301 0.0000 9.7302
# 5 -8.7443 -1.0471 10.0044 0.0000 23.1406 0.0000
# 6 0.0000 0.0000 0.0000 9.7302 0.0000 23.5609
#
#
#
# Elastic Compliance Matrix: (Units=1/GPa)
#
#
# Indices 1 2 3 4 5 6 
#
# 1 0.009489 -0.004452 0.000666 0.000000 0.003096 0.000000
# 2 -0.004452 0.013539 -0.003981 0.000000 0.000651 0.000000
# 3 0.000666 -0.003981 0.012629 0.000000 -0.005388 0.000000
# 4 0.000000 0.000000 0.000000 0.034469 0.000000 -0.014235
# 5 0.003096 0.000651 -0.005388 0.000000 0.046743 0.000000
# 6 0.000000 0.000000 0.000000 -0.014235 0.000000 0.048322
#
#
# Mechanical properties :
#
#
# Convention : Reuss Voigt Hill
#
# Bulk Modulus (GPa) = 49.69001 51.75656 50.72328
# Shear Modulus (GPa) = 26.67642 32.10341 29.38992
#
# Velocity S-wave (km/s) = 3.41162 3.74259 3.58093
# Velocity P-wave (km/s) = 6.09911 6.42323 6.26327
#
# Compressibility (1/GPa) = 0.02012477
#
# Stress axis : x y z
#
# Youngs Moduli (GPa) = 105.38859 73.85927 79.18265
#
# Poissons Ratio (x) = 0.32880 -0.05276
# Poissons Ratio (y) = 0.46916 0.31521
# Poissons Ratio (z) = -0.07023 0.29402
#
# Static dielectric constant tensor:
#      x y z
#    x 3.916830 0.000000 0.033040 
#    y 0.000000 4.186860 0.000000 
#    z 0.033040 0.000000 4.056520 
# 
# 
# High freq. dielectric constant tensor:
#      x y z
#    x 1.892510 0.000000 0.001810 
#    y 0.000000 1.910180 0.000000 
#    z 0.001810 0.000000 1.908920 
# 
# From -- ./inp_files/64226.got.cif
#   From: 2010.03.12/outbox.cif.g09.slc.cpg/sg14_33_cif.got.tgz:64226.got - 2010.03.31 13:35:05.
