data_PCOD8127174
_publ_section_title
;
Structure prediction by ZEFSAII (Michael W. Deem and Ramdas Pophale) SiO2 
 PCOD8127174
Probable space group: P 21/C
;
_chemical_formula_sum "Si O2"
_cell_formula_units_Z 28
_cell_length_a 8.698509
_cell_length_b 8.965734
_cell_length_c 24.928496
_cell_angle_alpha 90.000000
_cell_angle_beta 42.560701
_cell_angle_gamma 90.000000
_cell_volume 1314.957371
_symmetry_space_group_name_H-M "P 21/C"
_symmetry_group_IT_number 14
_symmetry_cell_setting 'monoclinic'
loop_
_space_group_symop_operation_xyz
x,y,z
-x,1/2+y,1/2-z
-x,-y,-z
x,1/2-y,1/2+z
loop_
_atom_site_type_symbol
_atom_site_label
_atom_site_fract_x
_atom_site_fract_y
_atom_site_fract_z
Si Si1 0.063157 0.897390 0.716004
Si Si2 0.812007 0.668656 0.110398
Si Si3 0.223527 0.902700 0.145592
Si Si4 0.014630 0.972154 0.091808
Si Si5 0.969422 0.582898 0.876713
Si Si6 0.698614 0.339739 0.739229
Si Si7 0.722398 0.725689 0.520682
O O1 0.031647 0.725206 0.706032
O O2 0.251791 0.909490 0.714587
O O3 0.823600 0.961452 0.800679
O O4 0.141651 0.989256 0.643214
O O5 0.971634 0.808393 0.081583
O O6 0.928789 0.520377 0.102546
O O7 0.567101 0.687743 0.201254
O O8 0.785441 0.663889 0.053068
O O9 0.463863 0.825428 0.093419
O O10 0.201383 0.965320 0.091425
O O11 0.780243 0.044204 0.173046
O O12 0.123025 0.076270 0.017758
O O13 0.169739 0.683793 0.800818
O O14 0.770196 0.684914 0.953253
#
# Coordination Sequence:
#
# PCOD8127174 Si02
#       7
#     4   4   4   4   4   4   4
#     4  11  20  41  64  89 116 154 203 256 293 352
#     4  12  21  40  61  87 121 164 203 242 294 354
#     4  11  22  42  66  89 119 154 201 255 301 348
#     4  10  23  40  64  90 121 157 204 242 301 360
#     4  11  23  39  60  90 122 159 203 246 299 359
#     4  10  22  40  63  89 121 156 200 258 297 345
#     4  11  24  42  58  88 129 162 191 247 304 356
#
# _framework density 21.293465999999999
#
# number of rings (size 3 to 8) (size 9 to 14) (size 15 to 20)
#    0.000    1.143    4.286    2.143    0.000    0.571 
#    0.000    0.000    0.000    0.000    0.000    0.000 
#    0.000    0.000    0.000    0.000    0.000    0.000 
#
# Total GULP energy -347178.697314 kJ/mol
# GULP energy per Si atom -12399.239190 kJ/mol
# Density = 2.124500 g / cm^3
# Si number density = 21.293466 Si / 1000 Ang^3
#
#
#
# Elastic Constant Matrix: (Units=GPa)
#
#
# Indices 1 2 3 4 5 6 
#
# 1 69.0181 28.1268 38.6185 0.0000 3.1861 0.0000
# 2 28.1268 101.1911 43.5159 0.0000 -5.3098 0.0000
# 3 38.6185 43.5159 99.1669 0.0000 -2.1709 0.0000
# 4 0.0000 0.0000 0.0000 32.4172 0.0000 4.9828
# 5 3.1861 -5.3098 -2.1709 0.0000 21.5539 0.0000
# 6 0.0000 0.0000 0.0000 4.9828 0.0000 34.6573
#
#
#
# Elastic Compliance Matrix: (Units=1/GPa)
#
#
# Indices 1 2 3 4 5 6 
#
# 1 0.019436 -0.002871 -0.006402 0.000000 -0.004225 0.000000
# 2 -0.002871 0.012737 -0.004403 0.000000 0.003119 0.000000
# 3 -0.006402 -0.004403 0.014538 0.000000 0.001326 0.000000
# 4 0.000000 0.000000 0.000000 0.031545 0.000000 -0.004535
# 5 -0.004225 0.003119 0.001326 0.000000 0.047922 0.000000
# 6 0.000000 0.000000 0.000000 -0.004535 0.000000 0.029506
#
#
# Mechanical properties :
#
#
# Convention : Reuss Voigt Hill
#
# Bulk Modulus (GPa) = 51.65255 54.43319 53.04287
# Shear Modulus (GPa) = 26.38674 28.33334 27.36004
#
# Velocity S-wave (km/s) = 3.52404 3.65171 3.58844
# Velocity P-wave (km/s) = 6.39285 6.58778 6.49105
#
# Compressibility (1/GPa) = 0.01936013
#
# Stress axis : x y z
#
# Youngs Moduli (GPa) = 51.45087 78.50860 68.78493
#
# Poissons Ratio (x) = 0.22541 0.44033
# Poissons Ratio (y) = 0.14773 0.30286
# Poissons Ratio (z) = 0.32936 0.34567
#
# Static dielectric constant tensor:
#      x y z
#    x 3.638920 0.000000 0.260900 
#    y 0.000000 4.006660 0.000000 
#    z 0.260900 0.000000 3.844040 
# 
# 
# High freq. dielectric constant tensor:
#      x y z
#    x 1.817200 0.000000 0.022310 
#    y 0.000000 1.846970 0.000000 
#    z 0.022310 0.000000 1.832700 
# 
# From -- ./inp_files/76304.got.cif
#   From: 2010.03.12/outbox.cif.g09.slc.cpg/sg14_39_cif.got.tgz:76304.got - 2010.03.31 13:35:05.
