data_PCOD8127878
_publ_section_title
;
Structure prediction by ZEFSAII (Michael W. Deem and Ramdas Pophale) SiO2 
 PCOD8127878
Probable space group: P 21/C
;
_chemical_formula_sum "Si O2"
_cell_formula_units_Z 20
_cell_length_a 16.540361
_cell_length_b 9.180897
_cell_length_c 9.751241
_cell_angle_alpha 90.000000
_cell_angle_beta 142.937521
_cell_angle_gamma 90.000000
_cell_volume 892.443575
_symmetry_space_group_name_H-M "P 21/C"
_symmetry_group_IT_number 14
_symmetry_cell_setting 'monoclinic'
loop_
_space_group_symop_operation_xyz
x,y,z
-x,1/2+y,1/2-z
-x,-y,-z
x,1/2-y,1/2+z
loop_
_atom_site_type_symbol
_atom_site_label
_atom_site_fract_x
_atom_site_fract_y
_atom_site_fract_z
Si Si1 0.821345 0.921166 0.372165
Si Si2 0.877161 0.423734 0.662393
Si Si3 0.700455 0.616950 0.252876
Si Si4 0.549188 0.131506 0.412566
Si Si5 0.317084 0.678024 0.178207
O O1 0.746151 0.768360 0.248729
O O2 0.965137 0.894496 0.637066
O O3 0.838488 0.002955 0.252898
O O4 0.733039 0.016812 0.355933
O O5 0.832228 0.527831 0.476850
O O6 0.805576 0.267989 0.552669
O O7 0.613452 0.528666 0.023129
O O8 0.607996 0.633305 0.263911
O O9 0.563714 0.169711 0.272212
O O10 0.626044 0.248794 0.608945
#
# Coordination Sequence:
#
# PCOD8127878 Si02
#       5
#     4   4   4   4   4
#     4  11  23  39  68  92 126 178 213 262 327 375
#     4  10  23  43  60  95 133 163 223 268 307 393
#     4  10  24  42  64  95 129 169 215 270 315 388
#     4  10  24  42  66  93 134 163 216 264 330 376
#     4  11  22  44  63  95 127 174 208 273 317 388
#
# _framework density 22.410381999999998
#
# number of rings (size 3 to 8) (size 9 to 14) (size 15 to 20)
#    0.000    1.600    2.000    1.200    5.600    4.000 
#    0.000    3.000    0.000    0.000    0.000    0.000 
#    0.000    0.000    0.000    0.000    0.000    0.000 
#
# Total GULP energy -248093.031364 kJ/mol
# GULP energy per Si atom -12404.651568 kJ/mol
# Density = 2.235937 g / cm^3
# Si number density = 22.410382 Si / 1000 Ang^3
#
#
#
# Elastic Constant Matrix: (Units=GPa)
#
#
# Indices 1 2 3 4 5 6 
#
# 1 83.5054 16.6796 -7.1037 0.0000 5.0676 0.0000
# 2 16.6796 116.3083 13.0930 0.0000 10.1117 0.0000
# 3 -7.1037 13.0930 60.7354 0.0000 15.4823 0.0000
# 4 0.0000 0.0000 0.0000 17.7939 0.0000 15.5449
# 5 5.0676 10.1117 15.4823 0.0000 25.2772 0.0000
# 6 0.0000 0.0000 0.0000 15.5449 0.0000 26.6137
#
#
#
# Elastic Compliance Matrix: (Units=1/GPa)
#
#
# Indices 1 2 3 4 5 6 
#
# 1 0.012796 -0.001842 0.002796 0.000000 -0.003541 0.000000
# 2 -0.001842 0.009247 -0.001612 0.000000 -0.002343 0.000000
# 3 0.002796 -0.001612 0.020285 0.000000 -0.012341 0.000000
# 4 0.000000 0.000000 0.000000 0.114756 0.000000 -0.067028
# 5 -0.003541 -0.002343 -0.012341 0.000000 0.048767 0.000000
# 6 0.000000 0.000000 0.000000 -0.067028 0.000000 0.076726
#
#
# Mechanical properties :
#
#
# Convention : Reuss Voigt Hill
#
# Bulk Modulus (GPa) = 24.38201 33.98742 29.18471
# Shear Modulus (GPa) = 16.80319 29.79563 23.29941
#
# Velocity S-wave (km/s) = 2.74121 3.65025 3.22789
# Velocity P-wave (km/s) = 4.57410 5.74148 5.19071
#
# Compressibility (1/GPa) = 0.04101385
#
# Stress axis : x y z
#
# Youngs Moduli (GPa) = 78.14945 108.14205 49.29712
#
# Poissons Ratio (x) = 0.19920 -0.13786
# Poissons Ratio (y) = 0.14395 0.07945
# Poissons Ratio (z) = -0.21854 0.17429
#
# Static dielectric constant tensor:
#      x y z
#    x 3.804900 0.000000 0.152980 
#    y 0.000000 4.073570 0.000000 
#    z 0.152980 0.000000 4.078520 
# 
# 
# High freq. dielectric constant tensor:
#      x y z
#    x 1.871410 0.000000 0.004990 
#    y 0.000000 1.891780 0.000000 
#    z 0.004990 0.000000 1.888030 
# 
# From -- ./inp_files/11847.got.cif
#   From: 2010.03.12/outbox.cif.g09.slc.cpg/sg14_6_cif.got.tgz:11847.got - 2010.03.31 13:35:05.
