data_PCOD8127472
_publ_section_title
;
Structure prediction by ZEFSAII (Michael W. Deem and Ramdas Pophale) SiO2 
 PCOD8127472
Probable space group: P 21/C
;
_chemical_formula_sum "Si O2"
_cell_formula_units_Z 20
_cell_length_a 17.727470
_cell_length_b 9.097634
_cell_length_c 10.426705
_cell_angle_alpha 90.000000
_cell_angle_beta 149.494797
_cell_angle_gamma 90.000000
_cell_volume 853.607312
_symmetry_space_group_name_H-M "P 21/C"
_symmetry_group_IT_number 14
_symmetry_cell_setting 'monoclinic'
loop_
_space_group_symop_operation_xyz
x,y,z
-x,1/2+y,1/2-z
-x,-y,-z
x,1/2-y,1/2+z
loop_
_atom_site_type_symbol
_atom_site_label
_atom_site_fract_x
_atom_site_fract_y
_atom_site_fract_z
Si Si1 0.483752 0.166322 0.436346
Si Si2 0.652491 0.237217 0.423500
Si Si3 0.832665 0.480178 0.800107
Si Si4 0.829291 0.768195 0.462057
Si Si5 0.099369 0.566722 0.833952
O O1 0.556659 0.197322 0.406391
O O2 0.309750 0.201628 0.166733
O O3 0.500000 0.000000 0.500000
O O4 0.553763 0.267817 0.650675
O O5 0.724645 0.401315 0.540528
O O6 0.786330 0.119279 0.608256
O O7 0.773987 0.643373 0.753183
O O8 0.837774 0.377979 0.935749
O O9 0.000000 0.500000 0.000000
O O10 0.911762 0.887773 0.677020
O O11 0.937699 0.637484 0.575897
#
# Coordination Sequence:
#
# PCOD8127472 Si02
#       5
#     4   4   4   4   4
#     4  12  31  45  76 112 158 195 255 311 389 452
#     4  12  25  51  71 113 151 203 250 315 377 459
#     4  10  22  42  78 102 145 195 246 308 369 440
#     4  10  25  46  75 110 148 200 246 314 376 450
#     4  10  23  45  78 106 142 197 253 304 374 446
#
# _framework density 23.429976
#
# number of rings (size 3 to 8) (size 9 to 14) (size 15 to 20)
#    1.200    0.000    4.000    0.000   11.200    1.600 
#    0.000    2.000    0.000    0.000    0.000    0.000 
#    0.000    0.000    0.000    0.000    0.000    0.000 
#
# Total GULP energy -247833.509253 kJ/mol
# GULP energy per Si atom -12391.675463 kJ/mol
# Density = 2.337665 g / cm^3
# Si number density = 23.429976 Si / 1000 Ang^3
#
#
#
# Elastic Constant Matrix: (Units=GPa)
#
#
# Indices 1 2 3 4 5 6 
#
# 1 173.0063 37.4317 56.4212 0.0000 35.6664 0.0000
# 2 37.4317 118.9357 38.2170 0.0000 28.1532 0.0000
# 3 56.4212 38.2170 90.1171 0.0000 30.6179 0.0000
# 4 0.0000 0.0000 0.0000 35.7843 0.0000 2.0682
# 5 35.6664 28.1532 30.6179 0.0000 53.5488 0.0000
# 6 0.0000 0.0000 0.0000 2.0682 0.0000 24.1882
#
#
#
# Elastic Compliance Matrix: (Units=1/GPa)
#
#
# Indices 1 2 3 4 5 6 
#
# 1 0.007647 -0.000605 -0.003610 0.000000 -0.002711 0.000000
# 2 -0.000605 0.010315 -0.002842 0.000000 -0.003395 0.000000
# 3 -0.003610 -0.002842 0.016429 0.000000 -0.005495 0.000000
# 4 0.000000 0.000000 0.000000 0.028084 0.000000 -0.002401
# 5 -0.002711 -0.003395 -0.005495 0.000000 0.025407 0.000000
# 6 0.000000 0.000000 0.000000 -0.002401 0.000000 0.041548
#
#
# Mechanical properties :
#
#
# Convention : Reuss Voigt Hill
#
# Bulk Modulus (GPa) = 49.31662 71.79986 60.55824
# Shear Modulus (GPa) = 33.26575 39.37019 36.31797
#
# Velocity S-wave (km/s) = 3.77210 4.10363 3.94136
# Velocity P-wave (km/s) = 6.32976 7.29137 6.82752
#
# Compressibility (1/GPa) = 0.02027714
#
# Stress axis : x y z
#
# Youngs Moduli (GPa) = 130.76456 96.94401 60.86704
#
# Poissons Ratio (x) = 0.05865 0.21974
# Poissons Ratio (y) = 0.07911 0.17300
# Poissons Ratio (z) = 0.47208 0.27553
#
# Static dielectric constant tensor:
#      x y z
#    x 4.348830 0.000000 -0.034430 
#    y 0.000000 3.832330 0.000000 
#    z -0.034430 0.000000 4.060820 
# 
# 
# High freq. dielectric constant tensor:
#      x y z
#    x 1.938620 0.000000 0.014490 
#    y 0.000000 1.920090 0.000000 
#    z 0.014490 0.000000 1.912650 
# 
# From -- ./inp_files/33633.got.cif
#   From: 2010.03.12/outbox.cif.g09.slc.cpg/sg14_17_cif.got.tgz:33633.got - 2010.03.31 13:35:05.
