data_PCOD8127781
_publ_section_title
;
Structure prediction by ZEFSAII (Michael W. Deem and Ramdas Pophale) SiO2 
 PCOD8127781
Probable space group: P 21/C
;
_chemical_formula_sum "Si O2"
_cell_formula_units_Z 28
_cell_length_a 15.794464
_cell_length_b 7.693431
_cell_length_c 22.156857
_cell_angle_alpha 90.000000
_cell_angle_beta 29.751967
_cell_angle_gamma 90.000000
_cell_volume 1336.073653
_symmetry_space_group_name_H-M "P 21/C"
_symmetry_group_IT_number 14
_symmetry_cell_setting 'monoclinic'
loop_
_space_group_symop_operation_xyz
x,y,z
-x,1/2+y,1/2-z
-x,-y,-z
x,1/2-y,1/2+z
loop_
_atom_site_type_symbol
_atom_site_label
_atom_site_fract_x
_atom_site_fract_y
_atom_site_fract_z
Si Si1 0.771103 0.900979 0.448023
Si Si2 0.946167 0.936885 0.789625
Si Si3 0.677178 0.449921 0.363474
Si Si4 0.416167 0.927727 0.611958
Si Si5 0.142247 0.119861 0.349515
Si Si6 0.949996 0.958298 0.143376
Si Si7 0.897068 0.804037 0.497769
O O1 0.857486 0.749075 0.353773
O O2 0.568645 0.918711 0.565836
O O3 0.786813 0.862362 0.508914
O O4 0.874698 0.071357 0.359669
O O5 0.822121 0.053217 0.825007
O O6 0.979338 0.029077 0.832815
O O7 0.500000 0.500000 0.500000
O O8 0.673221 0.257311 0.340430
O O9 0.707684 0.592484 0.291990
O O10 0.500000 0.000000 0.500000
O O11 0.257815 0.044009 0.731605
O O12 0.007395 0.267553 0.409991
O O13 0.212134 0.176758 0.372593
O O14 0.056916 0.930975 0.405457
O O15 0.035741 0.107136 0.049622
#
# Coordination Sequence:
#
# PCOD8127781 Si02
#       7
#     4   4   4   4   4   4   4
#     4  11  22  38  59  91 127 165 209 265 319 373
#     4  11  21  37  62  92 120 160 212 258 315 382
#     4  12  22  39  63  95 127 161 206 265 323 375
#     4  12  23  37  57  95 136 159 203 271 330 372
#     4  11  22  42  66  90 122 171 217 253 319 383
#     4  11  22  40  65  95 125 162 211 268 317 378
#     4  10  23  41  66  89 123 169 218 261 302 392
#
# _framework density 20.956927
#
# number of rings (size 3 to 8) (size 9 to 14) (size 15 to 20)
#    0.000    0.857    5.714    3.000    0.000    0.000 
#    0.000    1.429    3.143    0.000    0.000    0.000 
#    0.000    0.000    0.000    0.000    0.000    0.000 
#
# Total GULP energy -347065.797846 kJ/mol
# GULP energy per Si atom -12395.207066 kJ/mol
# Density = 2.090923 g / cm^3
# Si number density = 20.956927 Si / 1000 Ang^3
#
#
#
# Elastic Constant Matrix: (Units=GPa)
#
#
# Indices 1 2 3 4 5 6 
#
# 1 135.6009 22.9468 61.0266 0.0000 10.0259 0.0000
# 2 22.9468 80.5012 19.3839 0.0000 17.9455 0.0000
# 3 61.0266 19.3839 81.8192 0.0000 6.4214 0.0000
# 4 0.0000 0.0000 0.0000 28.6693 0.0000 5.2451
# 5 10.0259 17.9455 6.4214 0.0000 38.8416 0.0000
# 6 0.0000 0.0000 0.0000 5.2451 0.0000 25.8861
#
#
#
# Elastic Compliance Matrix: (Units=1/GPa)
#
#
# Indices 1 2 3 4 5 6 
#
# 1 0.011261 -0.001021 -0.008071 0.000000 -0.001101 0.000000
# 2 -0.001021 0.014612 -0.002220 0.000000 -0.006120 0.000000
# 3 -0.008071 -0.002220 0.018767 0.000000 0.000006 0.000000
# 4 0.000000 0.000000 0.000000 0.036223 0.000000 -0.007340
# 5 -0.001101 -0.006120 0.000006 0.000000 0.028856 0.000000
# 6 0.000000 0.000000 0.000000 -0.007340 0.000000 0.040118
#
#
# Mechanical properties :
#
#
# Convention : Reuss Voigt Hill
#
# Bulk Modulus (GPa) = 45.42003 56.07066 50.74534
# Shear Modulus (GPa) = 27.80848 31.65032 29.72940
#
# Velocity S-wave (km/s) = 3.64666 3.89042 3.77051
# Velocity P-wave (km/s) = 6.28100 6.85520 6.57437
#
# Compressibility (1/GPa) = 0.02201672
#
# Stress axis : x y z
#
# Youngs Moduli (GPa) = 88.80124 68.43621 53.28382
#
# Poissons Ratio (x) = 0.06989 0.43006
# Poissons Ratio (y) = 0.09068 0.11828
# Poissons Ratio (z) = 0.71672 0.15191
#
# Static dielectric constant tensor:
#      x y z
#    x 4.076440 0.000000 0.144990 
#    y 0.000000 4.533820 0.000000 
#    z 0.144990 0.000000 3.818180 
# 
# 
# High freq. dielectric constant tensor:
#      x y z
#    x 1.822910 0.000000 0.011960 
#    y 0.000000 1.837150 0.000000 
#    z 0.011960 0.000000 1.796370 
# 
# From -- ./inp_files/68157.got.cif
#   From: 2010.03.12/outbox.cif.g09.slc.cpg/sg14_35_cif.got.tgz:68157.got - 2010.03.31 13:35:05.
