data_PCOD8127798
_publ_section_title
;
Structure prediction by ZEFSAII (Michael W. Deem and Ramdas Pophale) SiO2 
 PCOD8127798
Probable space group: P 21/C
;
_chemical_formula_sum "Si O2"
_cell_formula_units_Z 28
_cell_length_a 14.362283
_cell_length_b 5.209522
_cell_length_c 17.466971
_cell_angle_alpha 90.000000
_cell_angle_beta 111.179416
_cell_angle_gamma 90.000000
_cell_volume 1218.614138
_symmetry_space_group_name_H-M "P 21/C"
_symmetry_group_IT_number 14
_symmetry_cell_setting 'monoclinic'
loop_
_space_group_symop_operation_xyz
x,y,z
-x,1/2+y,1/2-z
-x,-y,-z
x,1/2-y,1/2+z
loop_
_atom_site_type_symbol
_atom_site_label
_atom_site_fract_x
_atom_site_fract_y
_atom_site_fract_z
Si Si1 0.750046 0.135137 0.412013
Si Si2 0.278315 0.180522 0.801885
Si Si3 0.841903 0.641802 0.372833
Si Si4 0.438919 0.477862 0.237712
Si Si5 0.022501 0.404912 0.373520
Si Si6 0.121971 0.796337 0.777069
Si Si7 0.801775 0.921040 0.581101
O O1 0.786059 0.423145 0.405826
O O2 0.639715 0.077000 0.348364
O O3 0.824448 0.922858 0.400998
O O4 0.748423 0.104387 0.504039
O O5 0.206746 0.365498 0.727929
O O6 0.282727 0.286894 0.890641
O O7 0.387690 0.142299 0.798599
O O8 0.233347 0.894459 0.792065
O O9 0.964681 0.612892 0.409769
O O10 0.498024 0.231746 0.220663
O O11 0.925446 0.236087 0.321363
O O12 0.058515 0.484137 0.299832
O O13 0.119959 0.272332 0.441056
O O14 0.124709 0.568259 0.839517
#
# Coordination Sequence:
#
# PCOD8127798 Si02
#       7
#     4   4   4   4   4   4   4
#     4  11  27  45  64 101 136 170 209 284 343 371
#     4  10  23  41  69  97 124 178 219 265 326 396
#     4  11  23  42  67  92 140 181 227 259 311 387
#     4  11  24  46  76  96 121 163 221 270 333 420
#     4  11  20  35  61  94 128 189 231 260 292 376
#     4  11  20  36  63  94 132 174 230 266 303 376
#     4  11  25  39  64  95 142 174 218 275 321 370
#
# _framework density 22.976918000000001
#
# number of rings (size 3 to 8) (size 9 to 14) (size 15 to 20)
#    0.000    1.143    2.857    4.286    8.000    1.143 
#    0.000    1.429    0.000    0.000    0.000    0.000 
#    0.000    0.000    0.000    0.000    0.000    0.000 
#
# Total GULP energy -346899.124453 kJ/mol
# GULP energy per Si atom -12389.254445 kJ/mol
# Density = 2.292462 g / cm^3
# Si number density = 22.976918 Si / 1000 Ang^3
#
#
#
# Elastic Constant Matrix: (Units=GPa)
#
#
# Indices 1 2 3 4 5 6 
#
# 1 101.1182 19.0788 8.5199 0.0000 0.9963 0.0000
# 2 19.0788 83.7495 0.6178 0.0000 2.1913 0.0000
# 3 8.5199 0.6178 48.8743 0.0000 -0.9034 0.0000
# 4 0.0000 0.0000 0.0000 21.3468 0.0000 2.1134
# 5 0.9963 2.1913 -0.9034 0.0000 18.6433 0.0000
# 6 0.0000 0.0000 0.0000 2.1134 0.0000 25.7292
#
#
#
# Elastic Compliance Matrix: (Units=1/GPa)
#
#
# Indices 1 2 3 4 5 6 
#
# 1 0.010492 -0.002367 -0.001806 0.000000 -0.000370 0.000000
# 2 -0.002367 0.012513 0.000230 0.000000 -0.001333 0.000000
# 3 -0.001806 0.000230 0.020792 0.000000 0.001077 0.000000
# 4 0.000000 0.000000 0.000000 0.047230 0.000000 -0.003879
# 5 -0.000370 -0.001333 0.001077 0.000000 0.053867 0.000000
# 6 0.000000 0.000000 0.000000 -0.003879 0.000000 0.039185
#
#
# Mechanical properties :
#
#
# Convention : Reuss Voigt Hill
#
# Bulk Modulus (GPa) = 27.84680 32.24166 30.04423
# Shear Modulus (GPa) = 24.51755 26.84555 25.68155
#
# Velocity S-wave (km/s) = 3.27012 3.42185 3.34685
# Velocity P-wave (km/s) = 5.13848 5.44745 5.29522
#
# Compressibility (1/GPa) = 0.03591077
#
# Stress axis : x y z
#
# Youngs Moduli (GPa) = 95.31211 79.91817 48.09438
#
# Poissons Ratio (x) = 0.18918 0.08685
# Poissons Ratio (y) = 0.22562 -0.01105
# Poissons Ratio (z) = 0.17212 -0.01837
#
# Static dielectric constant tensor:
#      x y z
#    x 4.091210 0.000000 -0.215210 
#    y 0.000000 4.265620 0.000000 
#    z -0.215210 0.000000 4.041610 
# 
# 
# High freq. dielectric constant tensor:
#      x y z
#    x 1.892800 0.000000 -0.022710 
#    y 0.000000 1.921450 0.000000 
#    z -0.022710 0.000000 1.884980 
# 
# From -- ./inp_files/58473.got.cif
#   From: 2010.03.12/outbox.cif.g09.slc.cpg/sg14_30_cif.got.tgz:58473.got - 2010.03.31 13:35:05.
