data_PCOD8127424
_publ_section_title
;
Structure prediction by ZEFSAII (Michael W. Deem and Ramdas Pophale) SiO2 
 PCOD8127424
Probable space group: P 21/C
;
_chemical_formula_sum "Si O2"
_cell_formula_units_Z 32
_cell_length_a 8.857538
_cell_length_b 10.908344
_cell_length_c 31.607116
_cell_angle_alpha 90.000000
_cell_angle_beta 149.095664
_cell_angle_gamma 90.000000
_cell_volume 1568.508824
_symmetry_space_group_name_H-M "P 21/C"
_symmetry_group_IT_number 14
_symmetry_cell_setting 'monoclinic'
loop_
_space_group_symop_operation_xyz
x,y,z
-x,1/2+y,1/2-z
-x,-y,-z
x,1/2-y,1/2+z
loop_
_atom_site_type_symbol
_atom_site_label
_atom_site_fract_x
_atom_site_fract_y
_atom_site_fract_z
Si Si1 0.654676 0.297685 0.726233
Si Si2 0.846438 0.875537 0.415628
Si Si3 0.757820 0.791772 0.165091
Si Si4 0.753772 0.204119 0.838035
Si Si5 0.277154 0.886159 0.441122
Si Si6 0.614503 0.635103 0.539022
Si Si7 0.313589 0.870960 0.598045
Si Si8 0.229938 0.430567 0.245034
O O1 0.340630 0.247241 0.636243
O O2 0.686441 0.298594 0.784394
O O3 0.712656 0.433515 0.725546
O O4 0.901672 0.216989 0.763375
O O5 0.065413 0.894725 0.429872
O O6 0.016831 0.862193 0.500127
O O7 0.635377 0.994611 0.369636
O O8 0.603383 0.854826 0.087382
O O9 0.592615 0.662696 0.135388
O O10 0.732216 0.864313 0.201789
O O11 0.750851 0.275130 0.880832
O O12 0.489026 0.105633 0.774631
O O13 0.061657 0.137784 0.903250
O O14 0.433422 0.752026 0.476438
O O15 0.087398 0.905762 0.352653
O O16 0.500000 0.000000 0.500000
O O17 0.500000 0.500000 0.500000
#
# Coordination Sequence:
#
# PCOD8127424 Si02
#       8
#     4   4   4   4   4   4   4   4
#     4  11  24  42  64  97 134 170 227 275 340 405
#     4  11  23  39  69  97 129 175 223 285 336 404
#     4  10  24  44  63  97 134 170 221 286 331 401
#     4  10  23  43  63  94 132 174 214 274 339 400
#     4  12  24  45  70 100 136 184 236 276 347 416
#     4  11  25  44  69  97 138 180 225 283 343 411
#     4  10  22  42  67  95 129 171 225 276 336 402
#     4  11  25  41  71  96 133 179 224 281 340 416
#
# _framework density 20.401541999999999
#
# number of rings (size 3 to 8) (size 9 to 14) (size 15 to 20)
#    0.000    1.250    2.500    3.000    3.500    4.000 
#    4.500    2.500    0.000    0.000    0.000    0.000 
#    0.000    0.000    0.000    0.000    0.000    0.000 
#
# Total GULP energy -396665.630030 kJ/mol
# GULP energy per Si atom -12395.800938 kJ/mol
# Density = 2.035511 g / cm^3
# Si number density = 20.401542 Si / 1000 Ang^3
#
#
#
# Elastic Constant Matrix: (Units=GPa)
#
#
# Indices 1 2 3 4 5 6 
#
# 1 95.4171 22.2850 41.8923 0.0000 -3.9692 0.0000
# 2 22.2850 122.2739 60.3574 0.0000 -0.7610 0.0000
# 3 41.8923 60.3574 111.5119 0.0000 10.1634 0.0000
# 4 0.0000 0.0000 0.0000 34.0734 0.0000 2.2848
# 5 -3.9692 -0.7610 10.1634 0.0000 19.3363 0.0000
# 6 0.0000 0.0000 0.0000 2.2848 0.0000 22.2591
#
#
#
# Elastic Compliance Matrix: (Units=1/GPa)
#
#
# Indices 1 2 3 4 5 6 
#
# 1 0.013110 0.000455 -0.005691 0.000000 0.005700 0.000000
# 2 0.000455 0.011448 -0.006740 0.000000 0.004087 0.000000
# 3 -0.005691 -0.006740 0.015633 0.000000 -0.009650 0.000000
# 4 0.000000 0.000000 0.000000 0.029552 0.000000 -0.003033
# 5 0.005700 0.004087 -0.009650 0.000000 0.058120 0.000000
# 6 0.000000 0.000000 0.000000 -0.003033 0.000000 0.045237
#
#
# Mechanical properties :
#
#
# Convention : Reuss Voigt Hill
#
# Bulk Modulus (GPa) = 61.57710 64.25248 62.91479
# Shear Modulus (GPa) = 24.69590 28.77831 26.73711
#
# Velocity S-wave (km/s) = 3.48299 3.75986 3.62407
# Velocity P-wave (km/s) = 6.81344 7.10007 6.95824
#
# Compressibility (1/GPa) = 0.01623980
#
# Stress axis : x y z
#
# Youngs Moduli (GPa) = 76.27963 87.35367 63.96648
#
# Poissons Ratio (x) = -0.03978 0.36403
# Poissons Ratio (y) = -0.03474 0.43112
# Poissons Ratio (z) = 0.43411 0.58874
#
# Static dielectric constant tensor:
#      x y z
#    x 3.985670 0.000000 0.145230 
#    y 0.000000 3.736350 0.000000 
#    z 0.145230 0.000000 3.896980 
# 
# 
# High freq. dielectric constant tensor:
#      x y z
#    x 1.815600 0.000000 -0.001590 
#    y 0.000000 1.795880 0.000000 
#    z -0.001590 0.000000 1.802470 
# 
# From -- ./inp_files/79647.got.cif
#   From: 2010.03.12/outbox.cif.g09.slc.cpg/sg14_40_cif.got.tgz:79647.got - 2010.03.31 13:35:05.
