data_PCOD8127413
_publ_section_title
;
Structure prediction by ZEFSAII (Michael W. Deem and Ramdas Pophale) SiO2 
 PCOD8127413
Probable space group: P 21/C
;
_chemical_formula_sum "Si O2"
_cell_formula_units_Z 28
_cell_length_a 19.872855
_cell_length_b 13.685129
_cell_length_c 5.168294
_cell_angle_alpha 90.000000
_cell_angle_beta 119.506758
_cell_angle_gamma 90.000000
_cell_volume 1223.275169
_symmetry_space_group_name_H-M "P 21/C"
_symmetry_group_IT_number 14
_symmetry_cell_setting 'monoclinic'
loop_
_space_group_symop_operation_xyz
x,y,z
-x,1/2+y,1/2-z
-x,-y,-z
x,1/2-y,1/2+z
loop_
_atom_site_type_symbol
_atom_site_label
_atom_site_fract_x
_atom_site_fract_y
_atom_site_fract_z
Si Si1 0.248750 0.691495 0.735912
Si Si2 0.604233 0.411585 0.992909
Si Si3 0.818518 0.481029 0.655572
Si Si4 0.928079 0.311238 0.943507
Si Si5 0.444739 0.314699 0.639005
Si Si6 0.659370 0.515296 0.596372
Si Si7 0.890833 0.688157 0.699496
O O1 0.218096 0.750449 0.425802
O O2 0.342227 0.685903 0.927807
O O3 0.216727 0.580547 0.653483
O O4 0.612715 0.451915 0.298497
O O5 0.515283 0.390512 0.771529
O O6 0.633983 0.488551 0.837248
O O7 0.751155 0.499312 0.738687
O O8 0.848864 0.583891 0.607966
O O9 0.886237 0.415464 0.912553
O O10 0.905264 0.231031 0.116971
O O11 0.018462 0.333592 0.131963
O O12 0.450867 0.252045 0.396619
O O13 0.363379 0.371825 0.489621
O O14 0.865617 0.751355 0.404164
#
# Coordination Sequence:
#
# PCOD8127413 Si02
#       7
#     4   4   4   4   4   4   4
#     4  11  22  37  59  94 127 155 199 256 313 375
#     4  11  22  42  63  87 122 165 207 256 315 376
#     4  11  24  41  66  94 130 172 203 256 326 376
#     4  10  22  42  66  97 127 160 208 262 314 378
#     4  12  24  41  64  88 118 163 212 262 310 366
#     4  11  25  40  61  91 125 161 206 257 313 379
#     4  10  24  43  65  91 126 170 219 259 298 366
#
# _framework density 22.889372000000002
#
# number of rings (size 3 to 8) (size 9 to 14) (size 15 to 20)
#    0.000    1.143    0.000    6.429    0.000    8.000 
#    0.000    4.286    0.000    0.000    0.000    0.000 
#    0.000    0.000    0.000    0.000    0.000    0.000 
#
# Total GULP energy -347280.657091 kJ/mol
# GULP energy per Si atom -12402.880610 kJ/mol
# Density = 2.283728 g / cm^3
# Si number density = 22.889372 Si / 1000 Ang^3
#
#
#
# Elastic Constant Matrix: (Units=GPa)
#
#
# Indices 1 2 3 4 5 6 
#
# 1 92.2672 63.3523 32.5675 0.0000 0.2514 0.0000
# 2 63.3523 129.1255 35.1268 0.0000 11.6831 0.0000
# 3 32.5675 35.1268 101.2073 0.0000 -12.9567 0.0000
# 4 0.0000 0.0000 0.0000 556.9314 0.0000 -148.4318
# 5 0.2514 11.6831 -12.9567 0.0000 26.2976 0.0000
# 6 0.0000 0.0000 0.0000 -148.4318 0.0000 93.5817
#
#
#
# Elastic Compliance Matrix: (Units=1/GPa)
#
#
# Indices 1 2 3 4 5 6 
#
# 1 0.017160 -0.007933 -0.002496 0.000000 0.002131 0.000000
# 2 -0.007933 0.013074 -0.002902 0.000000 -0.007162 0.000000
# 3 -0.002496 -0.002902 0.012657 0.000000 0.007549 0.000000
# 4 0.000000 0.000000 0.000000 0.003110 0.000000 0.004933
# 5 0.002131 -0.007162 0.007549 0.000000 0.044907 0.000000
# 6 0.000000 0.000000 0.000000 0.004933 0.000000 0.018511
#
#
# Mechanical properties :
#
#
# Convention : Reuss Voigt Hill
#
# Bulk Modulus (GPa) = 61.61336 64.96592 63.28964
# Shear Modulus (GPa) = 35.33771 148.13236 91.73504
#
# Velocity S-wave (km/s) = 3.93345 8.05339 6.33755
# Velocity P-wave (km/s) = 6.89968 10.72009 9.01460
#
# Compressibility (1/GPa) = 0.01623025
#
# Stress axis : x y z
#
# Youngs Moduli (GPa) = 58.27430 76.48771 79.00473
#
# Poissons Ratio (x) = 0.60678 0.19718
# Poissons Ratio (y) = 0.46229 0.22926
# Poissons Ratio (z) = 0.14544 0.22195
#
# Static dielectric constant tensor:
#      x y z
#    x 4.386130 0.000000 0.163950 
#    y 0.000000 4.073440 0.000000 
#    z 0.163950 0.000000 4.176340 
# 
# 
# High freq. dielectric constant tensor:
#      x y z
#    x 1.919400 0.000000 0.004270 
#    y 0.000000 1.896340 0.000000 
#    z 0.004270 0.000000 1.912190 
# 
# From -- ./inp_files/4379.got.cif
#   From: 2010.03.12/outbox.cif.g09.slc.cpg/sg14_3_cif.got.tgz:4379.got - 2010.03.31 13:35:05.
