data_PCOD8127327
_publ_section_title
;
Structure prediction by ZEFSAII (Michael W. Deem and Ramdas Pophale) SiO2 
 PCOD8127327
Probable space group: P 21/C
;
_chemical_formula_sum "Si O2"
_cell_formula_units_Z 28
_cell_length_a 12.826303
_cell_length_b 14.709831
_cell_length_c 8.722037
_cell_angle_alpha 90.000000
_cell_angle_beta 45.884336
_cell_angle_gamma 90.000000
_cell_volume 1181.443192
_symmetry_space_group_name_H-M "P 21/C"
_symmetry_group_IT_number 14
_symmetry_cell_setting 'monoclinic'
loop_
_space_group_symop_operation_xyz
x,y,z
-x,1/2+y,1/2-z
-x,-y,-z
x,1/2-y,1/2+z
loop_
_atom_site_type_symbol
_atom_site_label
_atom_site_fract_x
_atom_site_fract_y
_atom_site_fract_z
Si Si1 0.633004 0.350522 0.069550
Si Si2 0.806093 0.242599 0.650670
Si Si3 0.456136 0.050025 0.295290
Si Si4 0.961525 0.359188 0.252383
Si Si5 0.249771 0.142812 0.292453
Si Si6 0.773241 0.525952 0.473825
Si Si7 0.353646 0.161597 0.682443
O O1 0.739383 0.321963 0.823330
O O2 0.637289 0.459314 0.079066
O O3 0.678421 0.303784 0.182369
O O4 0.468381 0.318750 0.202571
O O5 0.929028 0.285113 0.415950
O O6 0.881628 0.165698 0.675319
O O7 0.399539 0.098743 0.199343
O O8 0.625733 0.030984 0.099130
O O9 0.440961 0.118095 0.452963
O O10 0.906517 0.457742 0.362220
O O11 0.134143 0.362025 0.050006
O O12 0.190247 0.087790 0.209494
O O13 0.274666 0.246286 0.214104
O O14 0.764523 0.589915 0.632608
#
# Coordination Sequence:
#
# PCOD8127327 Si02
#       7
#     4   4   4   4   4   4   4
#     4  10  22  41  69 100 128 175 222 281 333 398
#     4  10  23  41  70  96 134 174 229 274 335 393
#     4  11  24  44  67 102 135 173 224 274 341 397
#     4  11  25  45  68  97 138 179 226 272 332 402
#     4  12  27  42  69 100 138 178 223 277 335 396
#     4  11  24  46  68  98 136 178 225 277 331 400
#     4  11  25  41  70 100 140 170 224 279 340 386
#
# _framework density 23.699829999999999
#
# number of rings (size 3 to 8) (size 9 to 14) (size 15 to 20)
#    0.000    1.143    0.000    6.000   14.000    0.000 
#    2.571    1.429    0.000    0.000    0.000    0.000 
#    0.000    0.000    0.000    0.000    0.000    0.000 
#
# Total GULP energy -347437.718638 kJ/mol
# GULP energy per Si atom -12408.489951 kJ/mol
# Density = 2.364589 g / cm^3
# Si number density = 23.699830 Si / 1000 Ang^3
#
#
#
# Elastic Constant Matrix: (Units=GPa)
#
#
# Indices 1 2 3 4 5 6 
#
# 1 28.7083 15.2145 -5.2377 0.0000 5.1389 0.0000
# 2 15.2145 122.8290 34.4216 0.0000 -13.5956 0.0000
# 3 -5.2377 34.4216 91.2673 0.0000 -8.7105 0.0000
# 4 0.0000 0.0000 0.0000 38.7298 0.0000 -0.7733
# 5 5.1389 -13.5956 -8.7105 0.0000 35.8945 0.0000
# 6 0.0000 0.0000 0.0000 -0.7733 0.0000 17.2968
#
#
#
# Elastic Compliance Matrix: (Units=1/GPa)
#
#
# Indices 1 2 3 4 5 6 
#
# 1 0.040698 -0.007069 0.004290 0.000000 -0.007463 0.000000
# 2 -0.007069 0.010590 -0.004013 0.000000 0.004049 0.000000
# 3 0.004290 -0.004013 0.012810 0.000000 0.000974 0.000000
# 4 0.000000 0.000000 0.000000 0.025843 0.000000 0.001155
# 5 -0.007463 0.004049 0.000974 0.000000 0.030698 0.000000
# 6 0.000000 0.000000 0.000000 0.001155 0.000000 0.057866
#
#
# Mechanical properties :
#
#
# Convention : Reuss Voigt Hill
#
# Bulk Modulus (GPa) = 19.79745 36.84461 28.32103
# Shear Modulus (GPa) = 23.93168 31.61129 27.77149
#
# Velocity S-wave (km/s) = 3.18116 3.65611 3.42687
# Velocity P-wave (km/s) = 4.67595 5.77953 5.25678
#
# Compressibility (1/GPa) = 0.05051156
#
# Stress axis : x y z
#
# Youngs Moduli (GPa) = 24.57112 94.42910 78.06649
#
# Poissons Ratio (x) = 0.66756 -0.33487
# Poissons Ratio (y) = 0.17370 0.31330
# Poissons Ratio (z) = -0.10540 0.37897
#
# Static dielectric constant tensor:
#      x y z
#    x 4.097110 0.000000 0.076510 
#    y 0.000000 4.362660 0.000000 
#    z 0.076510 0.000000 4.219120 
# 
# 
# High freq. dielectric constant tensor:
#      x y z
#    x 1.921820 0.000000 0.008340 
#    y 0.000000 1.951000 0.000000 
#    z 0.008340 0.000000 1.946530 
# 
# From -- ./inp_files/13012.got.cif
#   From: 2010.03.12/outbox.cif.g09.slc.cpg/sg14_7_cif.got.tgz:13012.got - 2010.03.31 13:35:05.
