data_PCOD8127135
_publ_section_title
;
Structure prediction by ZEFSAII (Michael W. Deem and Ramdas Pophale) SiO2 
 PCOD8127135
Probable space group: P 21/C
;
_chemical_formula_sum "Si O2"
_cell_formula_units_Z 20
_cell_length_a 22.870929
_cell_length_b 8.458516
_cell_length_c 12.851068
_cell_angle_alpha 90.000000
_cell_angle_beta 22.343601
_cell_angle_gamma 90.000000
_cell_volume 945.113039
_symmetry_space_group_name_H-M "P 21/C"
_symmetry_group_IT_number 14
_symmetry_cell_setting 'monoclinic'
loop_
_space_group_symop_operation_xyz
x,y,z
-x,1/2+y,1/2-z
-x,-y,-z
x,1/2-y,1/2+z
loop_
_atom_site_type_symbol
_atom_site_label
_atom_site_fract_x
_atom_site_fract_y
_atom_site_fract_z
Si Si1 0.057045 0.774278 0.935361
Si Si2 0.331576 0.560033 0.466478
Si Si3 0.229763 0.170607 0.966793
Si Si4 0.137633 0.419687 0.405824
Si Si5 0.402094 0.206463 0.001318
O O1 0.892513 0.760479 0.261661
O O2 0.017028 0.836197 0.884786
O O3 0.153457 0.612011 0.775247
O O4 0.157966 0.903989 0.829401
O O5 0.337742 0.445384 0.356477
O O6 0.428701 0.717982 0.284397
O O7 0.395785 0.469084 0.462758
O O8 0.132073 0.072313 0.040787
O O9 0.342498 0.294460 0.720091
O O10 0.286957 0.318402 0.124131
#
# Coordination Sequence:
#
# PCOD8127135 Si02
#       5
#     4   4   4   4   4
#     4  11  22  40  67  95 127 161 208 265 311 372
#     4  12  23  43  65  91 129 170 207 260 321 359
#     4  10  22  39  67  91 123 166 210 254 309 380
#     4   9  23  39  64  94 130 158 208 256 315 371
#     4  10  24  40  62  89 127 168 209 255 309 378
#
# _framework density 21.161487999999999
#
# number of rings (size 3 to 8) (size 9 to 14) (size 15 to 20)
#    1.200    0.400    2.000    2.400    5.600    0.000 
#    0.000    1.000    0.000    0.000    0.000    0.000 
#    0.000    0.000    0.000    0.000    0.000    0.000 
#
# Total GULP energy -247874.728656 kJ/mol
# GULP energy per Si atom -12393.736433 kJ/mol
# Density = 2.111332 g / cm^3
# Si number density = 21.161488 Si / 1000 Ang^3
#
#
#
# Elastic Constant Matrix: (Units=GPa)
#
#
# Indices 1 2 3 4 5 6 
#
# 1 80.8902 19.5223 13.6411 0.0000 7.9693 0.0000
# 2 19.5223 61.5557 27.0762 0.0000 4.3226 0.0000
# 3 13.6411 27.0762 96.8920 0.0000 8.5295 0.0000
# 4 0.0000 0.0000 0.0000 36.6486 0.0000 -17.0651
# 5 7.9693 4.3226 8.5295 0.0000 25.1021 0.0000
# 6 0.0000 0.0000 0.0000 -17.0651 0.0000 29.4737
#
#
#
# Elastic Compliance Matrix: (Units=1/GPa)
#
#
# Indices 1 2 3 4 5 6 
#
# 1 0.013734 -0.003870 -0.000543 0.000000 -0.003509 0.000000
# 2 -0.003870 0.019666 -0.004908 0.000000 -0.000490 0.000000
# 3 -0.000543 -0.004908 0.012039 0.000000 -0.003073 0.000000
# 4 0.000000 0.000000 0.000000 0.037358 0.000000 0.021630
# 5 -0.003509 -0.000490 -0.003073 0.000000 0.042080 0.000000
# 6 0.000000 0.000000 0.000000 0.021630 0.000000 0.046452
#
#
# Mechanical properties :
#
#
# Convention : Reuss Voigt Hill
#
# Bulk Modulus (GPa) = 37.31755 39.97968 38.64862
# Shear Modulus (GPa) = 25.13780 30.18478 27.66129
#
# Velocity S-wave (km/s) = 3.45034 3.78087 3.61938
# Velocity P-wave (km/s) = 5.79189 6.16390 5.98079
#
# Compressibility (1/GPa) = 0.02679704
#
# Stress axis : x y z
#
# Youngs Moduli (GPa) = 72.81297 50.84912 83.06213
#
# Poissons Ratio (x) = 0.19680 0.04511
# Poissons Ratio (y) = 0.28181 0.40763
# Poissons Ratio (z) = 0.03954 0.24955
#
# Static dielectric constant tensor:
#      x y z
#    x 3.832490 0.000000 -0.035900 
#    y 0.000000 3.519550 0.000000 
#    z -0.035900 0.000000 3.474980 
# 
# 
# High freq. dielectric constant tensor:
#      x y z
#    x 1.833650 0.000000 -0.006970 
#    y 0.000000 1.814560 0.000000 
#    z -0.006970 0.000000 1.812800 
# 
# From -- ./inp_files/43253.got.cif
#   From: 2010.03.12/outbox.cif.g09.slc.cpg/sg14_22_cif.got.tgz:43253.got - 2010.03.31 13:35:05.
