data_PCOD8127049
_publ_section_title
;
Structure prediction by ZEFSAII (Michael W. Deem and Ramdas Pophale) SiO2 
 PCOD8127049
Probable space group: P 21/C
;
_chemical_formula_sum "Si O2"
_cell_formula_units_Z 28
_cell_length_a 8.372990
_cell_length_b 11.146059
_cell_length_c 25.361993
_cell_angle_alpha 90.000000
_cell_angle_beta 32.002219
_cell_angle_gamma 90.000000
_cell_volume 1254.359179
_symmetry_space_group_name_H-M "P 21/C"
_symmetry_group_IT_number 14
_symmetry_cell_setting 'monoclinic'
loop_
_space_group_symop_operation_xyz
x,y,z
-x,1/2+y,1/2-z
-x,-y,-z
x,1/2-y,1/2+z
loop_
_atom_site_type_symbol
_atom_site_label
_atom_site_fract_x
_atom_site_fract_y
_atom_site_fract_z
Si Si1 0.649780 0.778884 0.013739
Si Si2 0.604850 0.702563 0.810584
Si Si3 0.944834 0.007920 0.077323
Si Si4 0.037752 0.932317 0.435061
Si Si5 0.842037 0.059754 0.807605
Si Si6 0.461091 0.841966 0.954373
Si Si7 0.257651 0.048618 0.273376
O O1 0.387396 0.827904 0.125462
O O2 0.531755 0.768464 0.987056
O O3 0.939769 0.864832 0.933822
O O4 0.741502 0.647864 0.008353
O O5 0.334334 0.649384 0.852328
O O6 0.471452 0.752170 0.902620
O O7 0.753589 0.810159 0.735769
O O8 0.841926 0.596831 0.755305
O O9 0.594208 0.998493 0.188204
O O10 0.000000 0.000000 0.000000
O O11 0.126802 0.898923 0.053711
O O12 0.063935 0.027178 0.380065
O O13 0.000000 0.000000 0.500000
O O14 0.701927 0.949711 0.879820
O O15 0.891703 0.024791 0.732924
#
# Coordination Sequence:
#
# PCOD8127049 Si02
#       7
#     4   4   4   4   4   4   4
#     4  11  22  42  65 101 137 171 218 281 338 390
#     4  11  24  44  65  98 135 177 224 272 335 400
#     4  11  17  40  70 101 129 165 229 279 324 400
#     4  12  29  45  64  98 140 182 223 278 340 400
#     4  10  22  39  70 100 130 173 226 275 333 400
#     4  10  22  38  69 101 133 168 223 283 329 391
#     4  11  24  44  69  97 133 178 227 274 330 407
#
# _framework density 22.322156
#
# number of rings (size 3 to 8) (size 9 to 14) (size 15 to 20)
#    0.000    1.143    5.714    2.571    4.000    4.571 
#    0.000    2.143    0.000    0.000    0.000    0.000 
#    0.000    0.000    0.000    0.000    0.000    0.000 
#
# Total GULP energy -347338.718719 kJ/mol
# GULP energy per Si atom -12404.954240 kJ/mol
# Density = 2.227135 g / cm^3
# Si number density = 22.322156 Si / 1000 Ang^3
#
#
#
# Elastic Constant Matrix: (Units=GPa)
#
#
# Indices 1 2 3 4 5 6 
#
# 1 113.5478 42.8442 16.2940 0.0000 14.7993 0.0000
# 2 42.8442 69.0966 11.9579 0.0000 10.9914 0.0000
# 3 16.2940 11.9579 46.5822 0.0000 13.1757 0.0000
# 4 0.0000 0.0000 0.0000 23.2725 0.0000 -4.6407
# 5 14.7993 10.9914 13.1757 0.0000 47.6465 0.0000
# 6 0.0000 0.0000 0.0000 -4.6407 0.0000 50.6374
#
#
#
# Elastic Compliance Matrix: (Units=1/GPa)
#
#
# Indices 1 2 3 4 5 6 
#
# 1 0.011842 -0.006752 -0.001963 0.000000 -0.001578 0.000000
# 2 -0.006752 0.019304 -0.002091 0.000000 -0.001778 0.000000
# 3 -0.001963 -0.002091 0.024281 0.000000 -0.005622 0.000000
# 4 0.000000 0.000000 0.000000 0.043769 0.000000 0.004011
# 5 -0.001578 -0.001778 -0.005622 0.000000 0.023443 0.000000
# 6 0.000000 0.000000 0.000000 0.004011 0.000000 0.020116
#
#
# Mechanical properties :
#
#
# Convention : Reuss Voigt Hill
#
# Bulk Modulus (GPa) = 29.57201 41.26878 35.42039
# Shear Modulus (GPa) = 28.46779 34.85331 31.66055
#
# Velocity S-wave (km/s) = 3.57503 3.95571 3.77018
# Velocity P-wave (km/s) = 5.50615 6.27627 5.90378
#
# Compressibility (1/GPa) = 0.03381576
#
# Stress axis : x y z
#
# Youngs Moduli (GPa) = 84.44623 51.80324 41.18458
#
# Poissons Ratio (x) = 0.34978 0.08083
# Poissons Ratio (y) = 0.57019 0.08611
# Poissons Ratio (z) = 0.16573 0.10831
#
# Static dielectric constant tensor:
#      x y z
#    x 4.364780 0.000000 -0.334390 
#    y 0.000000 3.941890 0.000000 
#    z -0.334390 0.000000 4.165630 
# 
# 
# High freq. dielectric constant tensor:
#      x y z
#    x 1.894930 0.000000 -0.001540 
#    y 0.000000 1.870510 0.000000 
#    z -0.001540 0.000000 1.864080 
# 
# From -- ./inp_files/76642.got.cif
#   From: 2010.03.12/outbox.cif.g09.slc.cpg/sg14_39_cif.got.tgz:76642.got - 2010.03.31 13:35:05.
