data_PCOD8127764
_publ_section_title
;
Structure prediction by ZEFSAII (Michael W. Deem and Ramdas Pophale) SiO2 
 PCOD8127764
Probable space group: P 21/C
;
_chemical_formula_sum "Si O2"
_cell_formula_units_Z 20
_cell_length_a 8.034170
_cell_length_b 10.945422
_cell_length_c 9.300882
_cell_angle_alpha 90.000000
_cell_angle_beta 92.465433
_cell_angle_gamma 90.000000
_cell_volume 817.138125
_symmetry_space_group_name_H-M "P 21/C"
_symmetry_group_IT_number 14
_symmetry_cell_setting 'monoclinic'
loop_
_space_group_symop_operation_xyz
x,y,z
-x,1/2+y,1/2-z
-x,-y,-z
x,1/2-y,1/2+z
loop_
_atom_site_type_symbol
_atom_site_label
_atom_site_fract_x
_atom_site_fract_y
_atom_site_fract_z
Si Si1 0.387065 0.106978 0.645930
Si Si2 0.240486 0.240482 0.891900
Si Si3 0.108139 0.851648 0.998019
Si Si4 0.891313 0.960900 0.774485
Si Si5 0.740559 0.100366 0.541331
O O1 0.340178 0.136236 0.808722
O O2 0.339897 0.217464 0.536278
O O3 0.584610 0.085905 0.643506
O O4 0.288888 0.982458 0.600247
O O5 0.230519 0.353667 0.780684
O O6 0.059995 0.192056 0.929052
O O7 0.184768 0.963990 0.092291
O O8 0.237080 0.740680 0.001487
O O9 0.065844 0.900421 0.834877
O O10 0.904626 0.053440 0.637379
#
# Coordination Sequence:
#
# PCOD8127764 Si02
#       5
#     4   4   4   4   4
#     4  10  24  44  69  99 138 177 227 280 348 403
#     4  11  22  43  67  99 137 173 222 287 334 413
#     4  11  23  41  69  99 133 182 225 285 338 404
#     4  10  23  41  63 101 130 170 239 267 339 403
#     4  10  24  46  69  95 136 185 227 282 341 407
#
# _framework density 24.475663999999998
#
# number of rings (size 3 to 8) (size 9 to 14) (size 15 to 20)
#    0.000    1.600    2.000    1.200    5.600    1.600 
#    0.000    2.000    0.000    0.000    0.000    0.000 
#    0.000    0.000    0.000    0.000    0.000    0.000 
#
# Total GULP energy -247874.415498 kJ/mol
# GULP energy per Si atom -12393.720775 kJ/mol
# Density = 2.441996 g / cm^3
# Si number density = 24.475664 Si / 1000 Ang^3
#
#
#
# Elastic Constant Matrix: (Units=GPa)
#
#
# Indices 1 2 3 4 5 6 
#
# 1 54.0572 19.5130 23.1947 0.0000 -3.2573 0.0000
# 2 19.5130 71.9128 14.4223 0.0000 9.9968 0.0000
# 3 23.1947 14.4223 66.8277 0.0000 9.3084 0.0000
# 4 0.0000 0.0000 0.0000 32.2253 0.0000 -7.4443
# 5 -3.2573 9.9968 9.3084 0.0000 21.5534 0.0000
# 6 0.0000 0.0000 0.0000 -7.4443 0.0000 29.4439
#
#
#
# Elastic Compliance Matrix: (Units=1/GPa)
#
#
# Indices 1 2 3 4 5 6 
#
# 1 0.025321 -0.006582 -0.008859 0.000000 0.010706 0.000000
# 2 -0.006582 0.016943 -0.000148 0.000000 -0.008790 0.000000
# 3 -0.008859 -0.000148 0.019416 0.000000 -0.009656 0.000000
# 4 0.000000 0.000000 0.000000 0.032956 0.000000 0.008332
# 5 0.010706 -0.008790 -0.009656 0.000000 0.056261 0.000000
# 6 0.000000 0.000000 0.000000 0.008332 0.000000 0.036070
#
#
# Mechanical properties :
#
#
# Convention : Reuss Voigt Hill
#
# Bulk Modulus (GPa) = 32.78506 34.11753 33.45129
# Shear Modulus (GPa) = 21.89978 25.68902 23.79440
#
# Velocity S-wave (km/s) = 2.99449 3.24323 3.12134
# Velocity P-wave (km/s) = 5.03786 5.29097 5.16596
#
# Compressibility (1/GPa) = 0.03050170
#
# Stress axis : x y z
#
# Youngs Moduli (GPa) = 39.49249 59.02046 51.50517
#
# Poissons Ratio (x) = 0.38849 0.45630
# Poissons Ratio (y) = 0.25995 0.00761
# Poissons Ratio (z) = 0.34987 0.00872
#
# Static dielectric constant tensor:
#      x y z
#    x 3.965310 0.000000 0.253440 
#    y 0.000000 4.856370 0.000000 
#    z 0.253440 0.000000 4.464800 
# 
# 
# High freq. dielectric constant tensor:
#      x y z
#    x 1.930860 0.000000 0.016510 
#    y 0.000000 1.992230 0.000000 
#    z 0.016510 0.000000 1.974970 
# 
# From -- ./inp_files/7950.got.cif
#   From: 2010.03.12/outbox.cif.g09.slc.cpg/sg14_4_cif.got.tgz:7950.got - 2010.03.31 13:35:05.
