data_PCOD8127823
_publ_section_title
;
Structure prediction by ZEFSAII (Michael W. Deem and Ramdas Pophale) SiO2 
 PCOD8127823
Probable space group: P 21/C
;
_chemical_formula_sum "Si O2"
_cell_formula_units_Z 24
_cell_length_a 11.279625
_cell_length_b 8.570941
_cell_length_c 10.962662
_cell_angle_alpha 90.000000
_cell_angle_beta 80.403317
_cell_angle_gamma 90.000000
_cell_volume 1045.005587
_symmetry_space_group_name_H-M "P 21/C"
_symmetry_group_IT_number 14
_symmetry_cell_setting 'monoclinic'
loop_
_space_group_symop_operation_xyz
x,y,z
-x,1/2+y,1/2-z
-x,-y,-z
x,1/2-y,1/2+z
loop_
_atom_site_type_symbol
_atom_site_label
_atom_site_fract_x
_atom_site_fract_y
_atom_site_fract_z
Si Si1 0.103396 0.859055 0.085533
Si Si2 0.395239 0.258843 0.895806
Si Si3 0.741652 0.635785 0.382404
Si Si4 0.170858 0.132541 0.810434
Si Si5 0.409614 0.564731 0.774633
Si Si6 0.203652 0.783704 0.820097
O O1 0.143154 0.788017 0.208828
O O2 0.962370 0.888988 0.115032
O O3 0.175492 0.022230 0.048059
O O4 0.127123 0.757452 0.958757
O O5 0.254902 0.238595 0.882249
O O6 0.445072 0.436083 0.872171
O O7 0.473775 0.129869 0.812745
O O8 0.380842 0.212870 0.039547
O O9 0.828775 0.772250 0.317297
O O10 0.684173 0.528185 0.290722
O O11 0.227053 0.962543 0.781388
O O12 0.333324 0.711972 0.834726
#
# Coordination Sequence:
#
# PCOD8127823 Si02
#       6
#     4   4   4   4   4   4
#     4  11  24  43  70 100 144 178 229 280 341 407
#     4  11  22  42  67  92 137 170 230 277 345 399
#     4  10  23  42  65 100 133 181 225 285 333 408
#     4  11  23  40  67  99 131 184 223 275 345 399
#     4  10  24  43  64 100 128 178 227 285 341 403
#     4  11  24  44  69 100 137 182 228 282 338 405
#
# _framework density 22.966386
#
# number of rings (size 3 to 8) (size 9 to 14) (size 15 to 20)
#    0.000    1.333    1.667    3.000    4.667    0.000 
#    3.000    7.500    0.000    0.000    0.000    0.000 
#    0.000    0.000    0.000    0.000    0.000    0.000 
#
# Total GULP energy -297314.164210 kJ/mol
# GULP energy per Si atom -12388.090175 kJ/mol
# Density = 2.291411 g / cm^3
# Si number density = 22.966386 Si / 1000 Ang^3
#
#
#
# Elastic Constant Matrix: (Units=GPa)
#
#
# Indices 1 2 3 4 5 6 
#
# 1 61.0500 23.3151 32.1219 0.0000 -25.8430 0.0000
# 2 23.3151 108.7164 55.3193 0.0000 -16.6477 0.0000
# 3 32.1219 55.3193 124.3007 0.0000 -30.9301 0.0000
# 4 0.0000 0.0000 0.0000 29.5340 0.0000 -12.5720
# 5 -25.8430 -16.6477 -30.9301 0.0000 42.1479 0.0000
# 6 0.0000 0.0000 0.0000 -12.5720 0.0000 29.3357
#
#
#
# Elastic Compliance Matrix: (Units=1/GPa)
#
#
# Indices 1 2 3 4 5 6 
#
# 1 0.023351 -0.002096 -0.002135 0.000000 0.011923 0.000000
# 2 -0.002096 0.012113 -0.004867 0.000000 -0.000072 0.000000
# 3 -0.002135 -0.004867 0.012184 0.000000 0.005709 0.000000
# 4 0.000000 0.000000 0.000000 0.041414 0.000000 0.017748
# 5 0.011923 -0.000072 0.005709 0.000000 0.035198 0.000000
# 6 0.000000 0.000000 0.000000 0.017748 0.000000 0.041694
#
#
# Mechanical properties :
#
#
# Convention : Reuss Voigt Hill
#
# Bulk Modulus (GPa) = 33.95369 57.28665 45.62017
# Shear Modulus (GPa) = 25.77754 32.42425 29.10089
#
# Velocity S-wave (km/s) = 3.35386 3.76149 3.56351
# Velocity P-wave (km/s) = 5.46022 6.62291 6.06947
#
# Compressibility (1/GPa) = 0.02945188
#
# Stress axis : x y z
#
# Youngs Moduli (GPa) = 42.82519 82.55364 82.07778
#
# Poissons Ratio (x) = 0.17301 0.17522
# Poissons Ratio (y) = 0.08975 0.39951
# Poissons Ratio (z) = 0.09142 0.40182
#
# Static dielectric constant tensor:
#      x y z
#    x 4.030990 0.000000 0.048210 
#    y 0.000000 5.066410 0.000000 
#    z 0.048210 0.000000 4.469790 
# 
# 
# High freq. dielectric constant tensor:
#      x y z
#    x 1.901800 0.000000 -0.006560 
#    y 0.000000 1.914240 0.000000 
#    z -0.006560 0.000000 1.915880 
# 
# From -- ./inp_files/28021.got.cif
#   From: 2010.03.12/outbox.cif.g09.slc.cpg/sg14_15_cif.got.tgz:28021.got - 2010.03.31 13:35:05.
