data_PCOD8127058
_publ_section_title
;
Structure prediction by ZEFSAII (Michael W. Deem and Ramdas Pophale) SiO2 
 PCOD8127058
Probable space group: P 21/C
;
_chemical_formula_sum "Si O2"
_cell_formula_units_Z 32
_cell_length_a 18.644489
_cell_length_b 11.352715
_cell_length_c 14.055778
_cell_angle_alpha 90.000000
_cell_angle_beta 32.860323
_cell_angle_gamma 90.000000
_cell_volume 1614.281264
_symmetry_space_group_name_H-M "P 21/C"
_symmetry_group_IT_number 14
_symmetry_cell_setting 'monoclinic'
loop_
_space_group_symop_operation_xyz
x,y,z
-x,1/2+y,1/2-z
-x,-y,-z
x,1/2-y,1/2+z
loop_
_atom_site_type_symbol
_atom_site_label
_atom_site_fract_x
_atom_site_fract_y
_atom_site_fract_z
Si Si1 0.194604 0.316307 0.093167
Si Si2 0.006791 0.165282 0.423818
Si Si3 0.985769 0.590786 0.875113
Si Si4 0.728924 0.130369 0.015016
Si Si5 0.395388 0.387758 0.328089
Si Si6 0.469952 0.703191 0.427608
Si Si7 0.366861 0.003267 0.331533
Si Si8 0.724447 0.304741 0.187734
O O1 0.121091 0.352220 0.076883
O O2 0.089471 0.277030 0.290328
O O3 0.298346 0.210296 0.977482
O O4 0.284617 0.434584 0.011050
O O5 0.856380 0.208947 0.603044
O O6 0.060214 0.131846 0.468457
O O7 0.006733 0.051613 0.353219
O O8 0.125485 0.644929 0.689052
O O9 0.630039 0.180128 0.047170
O O10 0.711165 0.198618 0.131441
O O11 0.695893 0.999513 0.087631
O O12 0.465184 0.333363 0.156319
O O13 0.512685 0.421379 0.269909
O O14 0.583682 0.605252 0.294959
O O15 0.403112 0.695179 0.603680
O O16 0.266292 0.926465 0.381035
#
# Coordination Sequence:
#
# PCOD8127058 Si02
#       8
#     4   4   4   4   4   4   4   4
#     4  11  22  41  66  93 127 165 208 261 325 368
#     4  11  23  38  64  95 125 159 208 263 309 374
#     4  11  22  39  63  93 126 160 208 261 305 377
#     4  11  21  37  62  85 124 165 198 258 310 361
#     4  10  22  42  60  87 128 164 206 257 311 372
#     4  10  22  39  58  88 122 160 210 255 302 372
#     4  10  22  39  62  90 124 163 207 257 308 372
#     4  12  21  37  64  88 118 163 205 250 315 364
#
# _framework density 19.823063000000001
#
# number of rings (size 3 to 8) (size 9 to 14) (size 15 to 20)
#    0.000    1.250    6.250    0.375    0.000    0.500 
#    4.500    1.250    0.000    3.000    0.000    0.000 
#    0.000    0.000    0.000    0.000    0.000    0.000 
#
# Total GULP energy -396514.432701 kJ/mol
# GULP energy per Si atom -12391.076022 kJ/mol
# Density = 1.977795 g / cm^3
# Si number density = 19.823063 Si / 1000 Ang^3
#
#
#
# Elastic Constant Matrix: (Units=GPa)
#
#
# Indices 1 2 3 4 5 6 
#
# 1 46.0914 38.7196 -5.8209 0.0000 -16.5087 0.0000
# 2 38.7196 75.2547 63.1346 0.0000 12.8349 0.0000
# 3 -5.8209 63.1346 76.5017 0.0000 -13.1595 0.0000
# 4 0.0000 0.0000 0.0000 39.1362 0.0000 -5.8932
# 5 -16.5087 12.8349 -13.1595 0.0000 27.2450 0.0000
# 6 0.0000 0.0000 0.0000 -5.8932 0.0000 35.4904
#
#
#
# Elastic Compliance Matrix: (Units=1/GPa)
#
#
# Indices 1 2 3 4 5 6 
#
# 1 -0.000188 0.016735 -0.016578 0.000000 -0.016005 0.000000
# 2 0.016735 -0.009288 0.012472 0.000000 0.020540 0.000000
# 3 -0.016578 0.012472 -0.001332 0.000000 -0.016564 0.000000
# 4 0.000000 0.000000 0.000000 0.026207 0.000000 0.004352
# 5 -0.016005 0.020540 -0.016564 0.000000 0.009329 0.000000
# 6 0.000000 0.000000 0.000000 0.004352 0.000000 0.028899
#
#
# Mechanical properties :
#
#
# Convention : Reuss Voigt Hill
#
# Bulk Modulus (GPa) = 69.21071 43.32381 56.26726
# Shear Modulus (GPa) = 150.66165 27.16196 88.91180
#
# Velocity S-wave (km/s) = 8.72744 3.70566 6.70448
# Velocity P-wave (km/s) = 11.68536 6.34129 9.40105
#
# Compressibility (1/GPa) = 0.01444863
#
# Stress axis : x y z
#
# Youngs Moduli (GPa) = -5311.20039 -107.66266 -750.94871
#
# Poissons Ratio (x) = 1.80169 -12.44923
# Poissons Ratio (y) = 88.88084 9.36569
# Poissons Ratio (z) = -88.04907 1.34275
#
# Static dielectric constant tensor:
#      x y z
#    x 3.442930 0.000000 -0.296930 
#    y 0.000000 3.915620 0.000000 
#    z -0.296930 0.000000 3.801000 
# 
# 
# High freq. dielectric constant tensor:
#      x y z
#    x 1.754220 0.000000 -0.026590 
#    y 0.000000 1.777930 0.000000 
#    z -0.026590 0.000000 1.783160 
# 
# From -- ./inp_files/50377.got.cif
#   From: 2010.03.12/outbox.cif.g09.slc.cpg/sg14_26_cif.got.tgz:50377.got - 2010.03.31 13:35:05.
