data_PCOD8127426
_publ_section_title
;
Structure prediction by ZEFSAII (Michael W. Deem and Ramdas Pophale) SiO2 
 PCOD8127426
Probable space group: P 21/C
;
_chemical_formula_sum "Si O2"
_cell_formula_units_Z 28
_cell_length_a 5.204179
_cell_length_b 19.728057
_cell_length_c 12.433530
_cell_angle_alpha 90.000000
_cell_angle_beta 109.436947
_cell_angle_gamma 90.000000
_cell_volume 1203.778237
_symmetry_space_group_name_H-M "P 21/C"
_symmetry_group_IT_number 14
_symmetry_cell_setting 'monoclinic'
loop_
_space_group_symop_operation_xyz
x,y,z
-x,1/2+y,1/2-z
-x,-y,-z
x,1/2-y,1/2+z
loop_
_atom_site_type_symbol
_atom_site_label
_atom_site_fract_x
_atom_site_fract_y
_atom_site_fract_z
Si Si1 0.811093 0.063372 0.995894
Si Si2 0.724336 0.530598 0.660295
Si Si3 0.014927 0.058747 0.587257
Si Si4 0.829055 0.841680 0.041597
Si Si5 0.584475 0.217433 0.166921
Si Si6 0.474131 0.142833 0.543632
Si Si7 0.185019 0.287842 0.813752
O O1 0.937934 0.140510 0.015774
O O2 0.698558 0.043540 0.099611
O O3 0.578874 0.061427 0.871040
O O4 0.000000 0.000000 0.000000
O O5 0.875080 0.589472 0.614262
O O6 0.882804 0.520784 0.792400
O O7 0.714640 0.089232 0.560632
O O8 0.234261 0.115832 0.586824
O O9 0.000000 0.000000 0.500000
O O10 0.543893 0.833947 0.939121
O O11 0.882990 0.778607 0.125160
O O12 0.607437 0.290884 0.114976
O O13 0.382955 0.225613 0.240951
O O14 0.882441 0.188311 0.237090
O O15 0.334123 0.157043 0.408771
#
# Coordination Sequence:
#
# PCOD8127426 Si02
#       7
#     4   4   4   4   4   4   4
#     4   9  21  41  63 101 129 173 227 290 341 395
#     4  10  22  42  67  97 135 175 234 288 335 406
#     4  12  27  47  72  98 135 193 235 284 353 422
#     4  10  23  39  69  96 133 177 227 274 350 409
#     4  11  24  42  70 103 135 184 226 282 355 409
#     4  11  25  48  66 103 141 180 238 282 348 429
#     4  11  25  43  68 103 143 178 224 290 345 422
#
# _framework density 23.260097999999999
#
# number of rings (size 3 to 8) (size 9 to 14) (size 15 to 20)
#    0.000    1.429    0.000    3.857   10.000    3.429 
#   12.857    0.000    0.000    0.000    0.000    0.000 
#    0.000    0.000    0.000    0.000    0.000    0.000 
#
# Total GULP energy -346923.202720 kJ/mol
# GULP energy per Si atom -12390.114383 kJ/mol
# Density = 2.320716 g / cm^3
# Si number density = 23.260098 Si / 1000 Ang^3
#
#
#
# Elastic Constant Matrix: (Units=GPa)
#
#
# Indices 1 2 3 4 5 6 
#
# 1 118.2732 6.0960 44.3632 0.0000 21.4287 0.0000
# 2 6.0960 45.3030 34.9608 0.0000 0.5664 0.0000
# 3 44.3632 34.9608 168.6692 0.0000 20.4570 0.0000
# 4 0.0000 0.0000 0.0000 31.2955 0.0000 3.2269
# 5 21.4287 0.5664 20.4570 0.0000 38.1164 0.0000
# 6 0.0000 0.0000 0.0000 3.2269 0.0000 33.3098
#
#
#
# Elastic Compliance Matrix: (Units=1/GPa)
#
#
# Indices 1 2 3 4 5 6 
#
# 1 0.010068 0.000386 -0.002183 0.000000 -0.004494 0.000000
# 2 0.000386 0.026556 -0.005917 0.000000 0.002564 0.000000
# 3 -0.002183 -0.005917 0.008097 0.000000 -0.003030 0.000000
# 4 0.000000 0.000000 0.000000 0.032276 0.000000 -0.003127
# 5 -0.004494 0.002564 -0.003030 0.000000 0.030350 0.000000
# 6 0.000000 0.000000 0.000000 -0.003127 0.000000 0.030324
#
#
# Mechanical properties :
#
#
# Convention : Reuss Voigt Hill
#
# Bulk Modulus (GPa) = 34.13763 55.89839 45.01801
# Shear Modulus (GPa) = 30.70063 36.99937 33.85000
#
# Velocity S-wave (km/s) = 3.63696 3.99266 3.81895
# Velocity P-wave (km/s) = 5.68727 6.73344 6.23234
#
# Compressibility (1/GPa) = 0.02929319
#
# Stress axis : x y z
#
# Youngs Moduli (GPa) = 99.32227 37.65676 123.50409
#
# Poissons Ratio (x) = -0.01454 0.26962
# Poissons Ratio (y) = -0.03835 0.73075
# Poissons Ratio (z) = 0.21683 0.22281
#
# Static dielectric constant tensor:
#      x y z
#    x 4.647460 0.000000 -0.049380 
#    y 0.000000 4.329800 0.000000 
#    z -0.049380 0.000000 4.326680 
# 
# 
# High freq. dielectric constant tensor:
#      x y z
#    x 1.937300 0.000000 0.006560 
#    y 0.000000 1.915470 0.000000 
#    z 0.006560 0.000000 1.926170 
# 
# From -- ./inp_files/21876.got.cif
#   From: 2010.03.12/outbox.cif.g09.slc.cpg/sg14_11_cif.got.tgz:21876.got - 2010.03.31 13:35:05.
