data_PCOD8127697
_publ_section_title
;
Structure prediction by ZEFSAII (Michael W. Deem and Ramdas Pophale) SiO2 
 PCOD8127697
Probable space group: P 21/C
;
_chemical_formula_sum "Si O2"
_cell_formula_units_Z 28
_cell_length_a 6.274039
_cell_length_b 14.952092
_cell_length_c 16.641227
_cell_angle_alpha 90.000000
_cell_angle_beta 122.850818
_cell_angle_gamma 90.000000
_cell_volume 1311.469419
_symmetry_space_group_name_H-M "P 21/C"
_symmetry_group_IT_number 14
_symmetry_cell_setting 'monoclinic'
loop_
_space_group_symop_operation_xyz
x,y,z
-x,1/2+y,1/2-z
-x,-y,-z
x,1/2-y,1/2+z
loop_
_atom_site_type_symbol
_atom_site_label
_atom_site_fract_x
_atom_site_fract_y
_atom_site_fract_z
Si Si1 0.583460 0.358601 0.170034
Si Si2 0.700153 0.301562 0.366172
Si Si3 0.786529 0.487648 0.892715
Si Si4 0.626466 0.853029 0.649625
Si Si5 0.580253 0.578318 0.574814
Si Si6 0.257428 0.253749 0.982379
Si Si7 0.985863 0.498893 0.226771
O O1 0.732065 0.322791 0.278746
O O2 0.354628 0.419744 0.152773
O O3 0.785485 0.419829 0.162296
O O4 0.457269 0.277765 0.093958
O O5 0.447709 0.239074 0.321185
O O6 0.642344 0.389447 0.409191
O O7 0.961852 0.254495 0.450080
O O8 0.624870 0.411282 0.901522
O O9 0.888528 0.459731 0.826765
O O10 0.000000 0.500000 0.000000
O O11 0.715603 0.832590 0.577190
O O12 0.843227 0.914087 0.736970
O O13 0.500000 0.500000 0.500000
O O14 0.660938 0.658962 0.534787
O O15 0.817206 0.540537 0.671285
#
# Coordination Sequence:
#
# PCOD8127697 Si02
#       7
#     4   4   4   4   4   4   4
#     4  11  23  40  68  94 133 179 217 289 344 387
#     4  11  23  45  65  97 138 175 232 273 335 415
#     4  11  21  38  65  98 130 170 221 278 345 402
#     4  10  23  38  65  97 131 171 225 277 339 399
#     4  11  26  46  66  96 138 184 228 274 336 413
#     4  11  24  44  65 100 135 177 229 283 336 409
#     4  11  22  43  66  96 139 173 226 283 342 403
#
# _framework density 21.350096000000001
#
# number of rings (size 3 to 8) (size 9 to 14) (size 15 to 20)
#    0.000    1.143    2.857    3.429    0.000    7.429 
#    0.000    0.000    0.000    0.000    0.000    0.000 
#    0.000    0.000    0.000    0.000    0.000    0.000 
#
# Total GULP energy -347034.354698 kJ/mol
# GULP energy per Si atom -12394.084096 kJ/mol
# Density = 2.130150 g / cm^3
# Si number density = 21.350096 Si / 1000 Ang^3
#
#
#
# Elastic Constant Matrix: (Units=GPa)
#
#
# Indices 1 2 3 4 5 6 
#
# 1 115.7240 53.0734 47.4377 0.0000 6.7519 0.0000
# 2 53.0734 118.0885 56.9632 0.0000 0.3254 0.0000
# 3 47.4377 56.9632 107.2649 0.0000 5.9999 0.0000
# 4 0.0000 0.0000 0.0000 41.7408 0.0000 -0.6126
# 5 6.7519 0.3254 5.9999 0.0000 29.5532 0.0000
# 6 0.0000 0.0000 0.0000 -0.6126 0.0000 44.6237
#
#
#
# Elastic Compliance Matrix: (Units=1/GPa)
#
#
# Indices 1 2 3 4 5 6 
#
# 1 0.011760 -0.003799 -0.003070 0.000000 -0.002022 0.000000
# 2 -0.003799 0.012648 -0.005136 0.000000 0.001771 0.000000
# 3 -0.003070 -0.005136 0.013519 0.000000 -0.001987 0.000000
# 4 0.000000 0.000000 0.000000 0.023962 0.000000 0.000329
# 5 -0.002022 0.001771 -0.001987 0.000000 0.034683 0.000000
# 6 0.000000 0.000000 0.000000 0.000329 0.000000 0.022414
#
#
# Mechanical properties :
#
#
# Convention : Reuss Voigt Hill
#
# Bulk Modulus (GPa) = 71.85383 72.89177 72.37280
# Shear Modulus (GPa) = 33.86718 35.42376 34.64547
#
# Velocity S-wave (km/s) = 3.98713 4.07773 4.03268
# Velocity P-wave (km/s) = 7.41110 7.50905 7.46023
#
# Compressibility (1/GPa) = 0.01391714
#
# Stress axis : x y z
#
# Youngs Moduli (GPa) = 85.03408 79.06359 73.96916
#
# Poissons Ratio (x) = 0.30034 0.22712
# Poissons Ratio (y) = 0.32302 0.37990
# Poissons Ratio (z) = 0.26109 0.40606
#
# Static dielectric constant tensor:
#      x y z
#    x 4.147150 0.000000 0.116970 
#    y 0.000000 -2.959520 0.000000 
#    z 0.116970 0.000000 3.209810 
# 
# 
# High freq. dielectric constant tensor:
#      x y z
#    x 1.851030 0.000000 0.009900 
#    y 0.000000 1.850270 0.000000 
#    z 0.009900 0.000000 1.816220 
# 
# From -- ./inp_files/53365.got.cif
#   From: 2010.03.12/outbox.cif.g09.slc.cpg/sg14_27_cif.got.tgz:53365.got - 2010.03.31 13:35:05.
