data_PCOD8127164
_publ_section_title
;
Structure prediction by ZEFSAII (Michael W. Deem and Ramdas Pophale) SiO2 
 PCOD8127164
Probable space group: P 21/C
;
_chemical_formula_sum "Si O2"
_cell_formula_units_Z 20
_cell_length_a 12.383496
_cell_length_b 14.456011
_cell_length_c 4.952763
_cell_angle_alpha 90.000000
_cell_angle_beta 85.631630
_cell_angle_gamma 90.000000
_cell_volume 884.047912
_symmetry_space_group_name_H-M "P 21/C"
_symmetry_group_IT_number 14
_symmetry_cell_setting 'monoclinic'
loop_
_space_group_symop_operation_xyz
x,y,z
-x,1/2+y,1/2-z
-x,-y,-z
x,1/2-y,1/2+z
loop_
_atom_site_type_symbol
_atom_site_label
_atom_site_fract_x
_atom_site_fract_y
_atom_site_fract_z
Si Si1 0.757265 0.472840 0.118336
Si Si2 0.422676 0.411843 0.031741
Si Si3 0.623898 0.305526 0.898294
Si Si4 0.272830 0.316090 0.436156
Si Si5 0.122730 0.020453 0.908070
O O1 0.680118 0.564701 0.143023
O O2 0.690709 0.389512 0.005107
O O3 0.858967 0.490830 0.903170
O O4 0.802991 0.456151 0.408321
O O5 0.371094 0.388398 0.338124
O O6 0.500000 0.500000 0.000000
O O7 0.494614 0.324757 0.926680
O O8 0.652409 0.282313 0.583946
O O9 0.280867 0.269571 0.726181
O O10 0.158228 0.372191 0.443287
O O11 0.000000 0.000000 0.000000
#
# Coordination Sequence:
#
# PCOD8127164 Si02
#       5
#     4   4   4   4   4
#     4  10  22  40  61  88 120 159 205 251 303 373
#     4   9  20  37  60  88 124 164 199 237 299 375
#     4  11  22  37  58  90 125 161 198 243 300 365
#     4  11  22  39  61  92 124 156 205 267 311 356
#     4  11  23  43  66  86 117 164 210 256 316 377
#
# _framework density 22.623208999999999
#
# number of rings (size 3 to 8) (size 9 to 14) (size 15 to 20)
#    0.000    1.600    0.000    5.400    0.000    3.200 
#    0.000   23.000    0.000    0.000    0.000    0.000 
#    0.000    0.000    0.000    0.000    0.000    0.000 
#
# Total GULP energy -247789.828732 kJ/mol
# GULP energy per Si atom -12389.491437 kJ/mol
# Density = 2.257172 g / cm^3
# Si number density = 22.623209 Si / 1000 Ang^3
#
#
#
# Elastic Constant Matrix: (Units=GPa)
#
#
# Indices 1 2 3 4 5 6 
#
# 1 108.6159 36.6454 12.8071 0.0000 -14.8646 0.0000
# 2 36.6454 89.1809 9.5725 0.0000 -10.3739 0.0000
# 3 12.8071 9.5725 59.7506 0.0000 -2.0175 0.0000
# 4 0.0000 0.0000 0.0000 44.2850 0.0000 -2.8459
# 5 -14.8646 -10.3739 -2.0175 0.0000 33.0274 0.0000
# 6 0.0000 0.0000 0.0000 -2.8459 0.0000 33.3831
#
#
#
# Elastic Compliance Matrix: (Units=1/GPa)
#
#
# Indices 1 2 3 4 5 6 
#
# 1 0.011265 -0.004021 -0.001645 0.000000 0.003706 0.000000
# 2 -0.004021 0.013258 -0.001185 0.000000 0.002282 0.000000
# 3 -0.001645 -0.001185 0.017277 0.000000 -0.000057 0.000000
# 4 0.000000 0.000000 0.000000 0.022705 0.000000 0.001936
# 5 0.003706 0.002282 -0.000057 0.000000 0.032659 0.000000
# 6 0.000000 0.000000 0.000000 0.001936 0.000000 0.030120
#
#
# Mechanical properties :
#
#
# Convention : Reuss Voigt Hill
#
# Bulk Modulus (GPa) = 35.59101 41.73304 38.66203
# Shear Modulus (GPa) = 33.25512 35.37392 34.31452
#
# Velocity S-wave (km/s) = 3.83816 3.95854 3.89882
# Velocity P-wave (km/s) = 5.95048 6.27539 6.11509
#
# Compressibility (1/GPa) = 0.02809698
#
# Stress axis : x y z
#
# Youngs Moduli (GPa) = 88.77370 75.42537 57.88115
#
# Poissons Ratio (x) = 0.30329 0.09522
# Poissons Ratio (y) = 0.35696 0.06860
# Poissons Ratio (z) = 0.14604 0.08939
#
# Static dielectric constant tensor:
#      x y z
#    x 3.935890 0.000000 -0.073200 
#    y 0.000000 4.339650 0.000000 
#    z -0.073200 0.000000 4.169380 
# 
# 
# High freq. dielectric constant tensor:
#      x y z
#    x 1.870660 0.000000 -0.002850 
#    y 0.000000 1.896880 0.000000 
#    z -0.002850 0.000000 1.903330 
# 
# From -- ./inp_files/2451.got.cif
#   From: 2010.03.12/outbox.cif.g09.slc.cpg/sg14_2_cif.got.tgz:2451.got - 2010.03.31 13:35:05.
