data_PCOD8127310
_publ_section_title
;
Structure prediction by ZEFSAII (Michael W. Deem and Ramdas Pophale) SiO2 
 PCOD8127310
Probable space group: P 21/C
;
_chemical_formula_sum "Si O2"
_cell_formula_units_Z 16
_cell_length_a 4.843744
_cell_length_b 7.951212
_cell_length_c 18.167239
_cell_angle_alpha 90.000000
_cell_angle_beta 74.348428
_cell_angle_gamma 90.000000
_cell_volume 673.742132
_symmetry_space_group_name_H-M "P 21/C"
_symmetry_group_IT_number 14
_symmetry_cell_setting 'monoclinic'
loop_
_space_group_symop_operation_xyz
x,y,z
-x,1/2+y,1/2-z
-x,-y,-z
x,1/2-y,1/2+z
loop_
_atom_site_type_symbol
_atom_site_label
_atom_site_fract_x
_atom_site_fract_y
_atom_site_fract_z
Si Si1 0.184284 0.609216 0.304582
Si Si2 0.697861 0.387671 0.313969
Si Si3 0.800231 0.686733 0.944591
Si Si4 0.197014 0.698137 0.044881
O O1 0.417595 0.504510 0.333634
O O2 0.353989 0.735708 0.238957
O O3 0.983855 0.488675 0.268959
O O4 0.963189 0.703744 0.373405
O O5 0.764743 0.326555 0.391533
O O6 0.838114 0.490730 0.922159
O O7 0.460882 0.721491 0.968929
O O8 0.911963 0.735607 0.018358
#
# Coordination Sequence:
#
# PCOD8127310 Si02
#       4
#     4   4   4   4
#     4  12  26  43  66  94 130 171 216 267 318 380
#     4  12  26  43  66  94 130 171 216 267 318 380
#     4  10  22  41  66  95 129 167 208 260 322 383
#     4  10  22  41  66  95 129 167 208 260 322 383
#
# _framework density 23.747959000000002
#
# number of rings (size 3 to 8) (size 9 to 14) (size 15 to 20)
#    0.000    1.000    0.000    6.000    0.000   12.000 
#    0.000    0.000    0.000    0.000    0.000    0.000 
#    0.000    0.000    0.000    0.000    0.000    0.000 
#
# Total GULP energy -198437.660858 kJ/mol
# GULP energy per Si atom -12402.353804 kJ/mol
# Density = 2.369391 g / cm^3
# Si number density = 23.747959 Si / 1000 Ang^3
#
#
#
# Elastic Constant Matrix: (Units=GPa)
#
#
# Indices 1 2 3 4 5 6 
#
# 1 117.9208 33.9295 -0.3247 0.0000 9.9699 0.0000
# 2 33.9295 55.9588 19.0864 0.0000 7.5722 0.0000
# 3 -0.3247 19.0864 57.2265 0.0000 1.8671 0.0000
# 4 0.0000 0.0000 0.0000 20.1335 0.0000 2.9921
# 5 9.9699 7.5722 1.8671 0.0000 20.2714 0.0000
# 6 0.0000 0.0000 0.0000 2.9921 0.0000 50.7051
#
#
#
# Elastic Compliance Matrix: (Units=1/GPa)
#
#
# Indices 1 2 3 4 5 6 
#
# 1 0.010736 -0.006961 0.002477 0.000000 -0.002908 0.000000
# 2 -0.006961 0.025698 -0.008434 0.000000 -0.005399 0.000000
# 3 0.002477 -0.008434 0.020299 0.000000 0.000062 0.000000
# 4 0.000000 0.000000 0.000000 0.050108 0.000000 -0.002957
# 5 -0.002908 -0.005399 0.000062 0.000000 0.052772 0.000000
# 6 0.000000 0.000000 0.000000 -0.002957 0.000000 0.019896
#
#
# Mechanical properties :
#
#
# Convention : Reuss Voigt Hill
#
# Bulk Modulus (GPa) = 32.36463 37.38762 34.87612
# Shear Modulus (GPa) = 23.18629 30.11633 26.65131
#
# Velocity S-wave (km/s) = 3.12805 3.56499 3.35364
# Velocity P-wave (km/s) = 5.16761 5.72042 5.45103
#
# Compressibility (1/GPa) = 0.03089793
#
# Stress axis : x y z
#
# Youngs Moduli (GPa) = 93.14586 38.91311 49.26236
#
# Poissons Ratio (x) = 0.27087 -0.12204
# Poissons Ratio (y) = 0.64838 0.41549
# Poissons Ratio (z) = -0.23076 0.32821
#
# Static dielectric constant tensor:
#      x y z
#    x 4.449710 0.000000 0.080800 
#    y 0.000000 4.559410 0.000000 
#    z 0.080800 0.000000 3.792050 
# 
# 
# High freq. dielectric constant tensor:
#      x y z
#    x 1.958880 0.000000 0.003550 
#    y 0.000000 1.954340 0.000000 
#    z 0.003550 0.000000 1.923070 
# 
# From -- ./inp_files/52502.got.cif
#   From: 2010.03.12/outbox.cif.g09.slc.cpg/sg14_27_cif.got.tgz:52502.got - 2010.03.31 13:35:05.
