data_PCOD8127801
_publ_section_title
;
Structure prediction by ZEFSAII (Michael W. Deem and Ramdas Pophale) SiO2 
 PCOD8127801
Probable space group: P 21/C
;
_chemical_formula_sum "Si O2"
_cell_formula_units_Z 28
_cell_length_a 14.399682
_cell_length_b 14.180263
_cell_length_c 9.850067
_cell_angle_alpha 90.000000
_cell_angle_beta 38.940575
_cell_angle_gamma 90.000000
_cell_volume 1264.128859
_symmetry_space_group_name_H-M "P 21/C"
_symmetry_group_IT_number 14
_symmetry_cell_setting 'monoclinic'
loop_
_space_group_symop_operation_xyz
x,y,z
-x,1/2+y,1/2-z
-x,-y,-z
x,1/2-y,1/2+z
loop_
_atom_site_type_symbol
_atom_site_label
_atom_site_fract_x
_atom_site_fract_y
_atom_site_fract_z
Si Si1 0.156455 0.702498 0.664485
Si Si2 0.337132 0.080915 0.318354
Si Si3 0.936471 0.861349 0.986982
Si Si4 0.367782 0.205557 0.756963
Si Si5 0.349158 0.732645 0.706229
Si Si6 0.980523 0.555491 0.722067
Si Si7 0.451800 0.077709 0.901266
O O1 0.245330 0.698430 0.702615
O O2 0.264228 0.706223 0.413334
O O3 0.046735 0.790848 0.786469
O O4 0.061916 0.606701 0.754900
O O5 0.352459 0.190815 0.342011
O O6 0.189527 0.036047 0.547525
O O7 0.479781 0.024478 0.215475
O O8 0.334618 0.070322 0.157298
O O9 0.772418 0.817350 0.177861
O O10 0.989652 0.877203 0.079950
O O11 0.937317 0.957907 0.901075
O O12 0.517097 0.201551 0.499116
O O13 0.370362 0.125439 0.868343
O O14 0.408529 0.639088 0.709885
#
# Coordination Sequence:
#
# PCOD8127801 Si02
#       7
#     4   4   4   4   4   4   4
#     4  12  23  45  70 101 138 185 231 289 352 419
#     4  10  23  41  70  97 136 185 227 292 345 409
#     4  11  26  44  66 102 141 183 237 290 351 421
#     4  11  24  42  72  98 138 182 230 285 353 411
#     4  11  24  41  71 100 140 182 228 287 348 412
#     4  11  25  43  70  98 141 186 234 290 356 416
#     4  10  23  44  65 104 142 175 234 290 346 414
#
# _framework density 22.149640000000002
#
# number of rings (size 3 to 8) (size 9 to 14) (size 15 to 20)
#    0.000    1.143    4.286    0.857    4.000    4.571 
#    0.000    3.571    0.000    0.000    0.000    0.000 
#    0.000    0.000    0.000    0.000    0.000    0.000 
#
# Total GULP energy -347319.910551 kJ/mol
# GULP energy per Si atom -12404.282520 kJ/mol
# Density = 2.209923 g / cm^3
# Si number density = 22.149640 Si / 1000 Ang^3
#
#
#
# Elastic Constant Matrix: (Units=GPa)
#
#
# Indices 1 2 3 4 5 6 
#
# 1 75.7244 15.6571 -3.5395 0.0000 -4.1840 0.0000
# 2 15.6571 83.9084 10.8426 0.0000 -12.2695 0.0000
# 3 -3.5395 10.8426 92.5626 0.0000 -4.6175 0.0000
# 4 0.0000 0.0000 0.0000 29.1544 0.0000 0.8798
# 5 -4.1840 -12.2695 -4.6175 0.0000 19.6375 0.0000
# 6 0.0000 0.0000 0.0000 0.8798 0.0000 35.0442
#
#
#
# Elastic Compliance Matrix: (Units=1/GPa)
#
#
# Indices 1 2 3 4 5 6 
#
# 1 0.013847 -0.002463 0.000899 0.000000 0.001623 0.000000
# 2 -0.002463 0.013674 -0.001311 0.000000 0.007711 0.000000
# 3 0.000899 -0.001311 0.011090 0.000000 0.001980 0.000000
# 4 0.000000 0.000000 0.000000 0.034326 0.000000 -0.000862
# 5 0.001623 0.007711 0.001980 0.000000 0.056552 0.000000
# 6 0.000000 0.000000 0.000000 -0.000862 0.000000 0.028557
#
#
# Mechanical properties :
#
#
# Convention : Reuss Voigt Hill
#
# Bulk Modulus (GPa) = 30.43107 33.12397 31.77752
# Shear Modulus (GPa) = 28.61235 32.04958 30.33097
#
# Velocity S-wave (km/s) = 3.59803 3.80802 3.70451
# Velocity P-wave (km/s) = 5.57043 5.85848 5.71627
#
# Compressibility (1/GPa) = 0.03286115
#
# Stress axis : x y z
#
# Youngs Moduli (GPa) = 72.21962 73.13044 90.16936
#
# Poissons Ratio (x) = 0.18009 -0.08105
# Poissons Ratio (y) = 0.17785 0.11824
# Poissons Ratio (z) = -0.06492 0.09590
#
# Static dielectric constant tensor:
#      x y z
#    x 3.817230 0.000000 -0.055900 
#    y 0.000000 3.967560 0.000000 
#    z -0.055900 0.000000 4.061420 
# 
# 
# High freq. dielectric constant tensor:
#      x y z
#    x 1.861580 0.000000 -0.007060 
#    y 0.000000 1.873240 0.000000 
#    z -0.007060 0.000000 1.880550 
# 
# From -- ./inp_files/16409.got.cif
#   From: 2010.03.12/outbox.cif.g09.slc.cpg/sg14_9_cif.got.tgz:16409.got - 2010.03.31 13:35:05.
