data_PCOD8127091
_publ_section_title
;
Structure prediction by ZEFSAII (Michael W. Deem and Ramdas Pophale) SiO2 
 PCOD8127091
Probable space group: P 21/C
;
_chemical_formula_sum "Si O2"
_cell_formula_units_Z 32
_cell_length_a 8.901153
_cell_length_b 18.864212
_cell_length_c 9.536160
_cell_angle_alpha 90.000000
_cell_angle_beta 84.450846
_cell_angle_gamma 90.000000
_cell_volume 1593.743420
_symmetry_space_group_name_H-M "P 21/C"
_symmetry_group_IT_number 14
_symmetry_cell_setting 'monoclinic'
loop_
_space_group_symop_operation_xyz
x,y,z
-x,1/2+y,1/2-z
-x,-y,-z
x,1/2-y,1/2+z
loop_
_atom_site_type_symbol
_atom_site_label
_atom_site_fract_x
_atom_site_fract_y
_atom_site_fract_z
Si Si1 0.282182 0.198735 0.399381
Si Si2 0.451528 0.208794 0.108367
Si Si3 0.622972 0.951011 0.922342
Si Si4 0.943121 0.212215 0.324241
Si Si5 0.125806 0.942133 0.620962
Si Si6 0.796380 0.311978 0.543365
Si Si7 0.155664 0.973160 0.930423
Si Si8 0.224601 0.039606 0.382924
O O1 0.409442 0.216781 0.274264
O O2 0.338570 0.240431 0.531223
O O3 0.274447 0.115627 0.440534
O O4 0.120281 0.219115 0.345912
O O5 0.424136 0.129327 0.063433
O O6 0.630746 0.222486 0.081179
O O7 0.672764 0.976421 0.761901
O O8 0.500000 0.000000 0.000000
O O9 0.755822 0.960043 0.018901
O O10 0.866351 0.142423 0.399495
O O11 0.860890 0.280069 0.394469
O O12 0.911684 0.208552 0.159853
O O13 0.185866 0.969222 0.763342
O O14 0.951471 0.964010 0.637623
O O15 0.239288 0.978071 0.498366
O O16 0.794149 0.396193 0.515293
O O17 0.000000 0.000000 0.000000
#
# Coordination Sequence:
#
# PCOD8127091 Si02
#       8
#     4   4   4   4   4   4   4   4
#     4  10  22  39  63  90 121 162 208 256 307 368
#     4  11  23  41  62  85 127 166 203 255 315 375
#     4  11  22  40  61  90 124 160 205 254 310 373
#     4  10  22  39  62  90 120 159 209 257 307 365
#     4   9  19  38  61  90 120 153 200 255 307 356
#     4  11  23  41  61  88 126 165 205 257 313 370
#     4  11  22  38  64  92 120 161 210 258 306 365
#     4   9  19  38  62  88 122 157 196 254 307 361
#
# _framework density 20.078516
#
# number of rings (size 3 to 8) (size 9 to 14) (size 15 to 20)
#    0.000    1.750    2.500    1.500    3.500    2.000 
#    4.500    0.625    0.000    0.000    0.000    0.000 
#    0.000    0.000    0.000    0.000    0.000    0.000 
#
# Total GULP energy -396455.803998 kJ/mol
# GULP energy per Si atom -12389.243875 kJ/mol
# Density = 2.003282 g / cm^3
# Si number density = 20.078516 Si / 1000 Ang^3
#
#
#
# Elastic Constant Matrix: (Units=GPa)
#
#
# Indices 1 2 3 4 5 6 
#
# 1 81.7656 10.0966 14.4522 0.0000 -2.1636 0.0000
# 2 10.0966 72.3421 51.6637 0.0000 -2.1799 0.0000
# 3 14.4522 51.6637 70.9966 0.0000 -8.2137 0.0000
# 4 0.0000 0.0000 0.0000 41.5178 0.0000 -0.8968
# 5 -2.1636 -2.1799 -8.2137 0.0000 32.3490 0.0000
# 6 0.0000 0.0000 0.0000 -0.8968 0.0000 32.9794
#
#
#
# Elastic Compliance Matrix: (Units=1/GPa)
#
#
# Indices 1 2 3 4 5 6 
#
# 1 0.012688 0.000133 -0.002659 0.000000 0.000182 0.000000
# 2 0.000133 0.029166 -0.021659 0.000000 -0.003525 0.000000
# 3 -0.002659 -0.021659 0.031112 0.000000 0.006262 0.000000
# 4 0.000000 0.000000 0.000000 0.024100 0.000000 0.000655
# 5 0.000182 -0.003525 0.006262 0.000000 0.032278 0.000000
# 6 0.000000 0.000000 0.000000 0.000655 0.000000 0.030340
#
#
# Mechanical properties :
#
#
# Convention : Reuss Voigt Hill
#
# Bulk Modulus (GPa) = 40.65406 41.94767 41.30086
# Shear Modulus (GPa) = 23.12106 31.29537 27.20821
#
# Velocity S-wave (km/s) = 3.39711 3.95226 3.68515
# Velocity P-wave (km/s) = 5.97316 6.46253 6.22266
#
# Compressibility (1/GPa) = 0.02459779
#
# Stress axis : x y z
#
# Youngs Moduli (GPa) = 78.81222 34.28598 32.14177
#
# Poissons Ratio (x) = -0.00458 0.08546
# Poissons Ratio (y) = -0.01052 0.69616
# Poissons Ratio (z) = 0.20955 0.74261
#
# Static dielectric constant tensor:
#      x y z
#    x 3.583160 0.000000 -0.028150 
#    y 0.000000 4.165150 0.000000 
#    z -0.028150 0.000000 3.683620 
# 
# 
# High freq. dielectric constant tensor:
#      x y z
#    x 1.789550 0.000000 -0.003430 
#    y 0.000000 1.783180 0.000000 
#    z -0.003430 0.000000 1.782100 
# 
# From -- ./inp_files/10200.got.cif
#   From: 2010.03.12/outbox.cif.g09.slc.cpg/sg14_6_cif.got.tgz:10200.got - 2010.03.31 13:35:05.
