data_PCOD8127915
_publ_section_title
;
Structure prediction by ZEFSAII (Michael W. Deem and Ramdas Pophale) SiO2 
 PCOD8127915
Probable space group: P 21/C
;
_chemical_formula_sum "Si O2"
_cell_formula_units_Z 20
_cell_length_a 20.647473
_cell_length_b 4.968300
_cell_length_c 13.606177
_cell_angle_alpha 90.000000
_cell_angle_beta 34.869083
_cell_angle_gamma 90.000000
_cell_volume 797.960665
_symmetry_space_group_name_H-M "P 21/C"
_symmetry_group_IT_number 14
_symmetry_cell_setting 'monoclinic'
loop_
_space_group_symop_operation_xyz
x,y,z
-x,1/2+y,1/2-z
-x,-y,-z
x,1/2-y,1/2+z
loop_
_atom_site_type_symbol
_atom_site_label
_atom_site_fract_x
_atom_site_fract_y
_atom_site_fract_z
Si Si1 0.922876 0.744689 0.617517
Si Si2 0.263131 0.192800 0.304313
Si Si3 0.441565 0.973227 0.939914
Si Si4 0.928474 0.918193 0.321942
Si Si5 0.590723 0.024531 0.239154
O O1 0.809043 0.704140 0.697583
O O2 0.886583 0.731028 0.776244
O O3 0.000000 0.500000 0.500000
O O4 0.000000 0.000000 0.500000
O O5 0.181091 0.010626 0.474926
O O6 0.306743 0.444090 0.316011
O O7 0.364701 0.019779 0.131367
O O8 0.375246 0.013271 0.918603
O O9 0.551344 0.169638 0.807108
O O10 0.483763 0.667537 0.896000
O O11 0.006626 0.697469 0.281547
#
# Coordination Sequence:
#
# PCOD8127915 Si02
#       5
#     4   4   4   4   4
#     4  12  25  45  65  96 133 179 227 277 328 395
#     4  12  24  42  72  94 138 174 232 262 358 374
#     4  10  23  43  66  99 133 169 221 275 333 407
#     4  12  25  45  65  96 133 179 227 277 328 395
#     4  10  23  43  66  99 133 169 221 275 333 407
#
# _framework density 25.063893
#
# number of rings (size 3 to 8) (size 9 to 14) (size 15 to 20)
#    0.000    0.800    4.000    2.400    0.000    6.400 
#    0.000    8.000    0.000    0.000    0.000    0.000 
#    0.000    0.000    0.000    0.000    0.000    0.000 
#
# Total GULP energy -247992.771687 kJ/mol
# GULP energy per Si atom -12399.638584 kJ/mol
# Density = 2.500685 g / cm^3
# Si number density = 25.063893 Si / 1000 Ang^3
#
#
#
# Elastic Constant Matrix: (Units=GPa)
#
#
# Indices 1 2 3 4 5 6 
#
# 1 157.2341 -0.3995 12.1690 0.0000 2.5182 0.0000
# 2 -0.3995 90.5559 9.4931 0.0000 0.5686 0.0000
# 3 12.1690 9.4931 117.1112 0.0000 29.3572 0.0000
# 4 0.0000 0.0000 0.0000 5.6395 0.0000 11.3062
# 5 2.5182 0.5686 29.3572 0.0000 46.7825 0.0000
# 6 0.0000 0.0000 0.0000 11.3062 0.0000 23.9708
#
#
#
# Elastic Compliance Matrix: (Units=1/GPa)
#
#
# Indices 1 2 3 4 5 6 
#
# 1 0.006413 0.000101 -0.000697 0.000000 0.000091 0.000000
# 2 0.000101 0.011149 -0.001043 0.000000 0.000514 0.000000
# 3 -0.000697 -0.001043 0.010304 0.000000 -0.006416 0.000000
# 4 0.000000 0.000000 0.000000 3.260441 0.000000 -1.537837
# 5 0.000091 0.000514 -0.006416 0.000000 0.025391 0.000000
# 6 0.000000 0.000000 0.000000 -1.537837 0.000000 0.767062
#
#
# Mechanical properties :
#
#
# Convention : Reuss Voigt Hill
#
# Bulk Modulus (GPa) = 40.67139 45.26959 42.97049
# Shear Modulus (GPa) = 1.22183 38.18780 19.70481
#
# Velocity S-wave (km/s) = 0.69896 3.90759 2.80694
# Velocity P-wave (km/s) = 4.11263 6.20160 5.26182
#
# Compressibility (1/GPa) = 0.02458731
#
# Stress axis : x y z
#
# Youngs Moduli (GPa) = 155.94026 89.69039 97.04744
#
# Poissons Ratio (x) = -0.00904 0.06768
# Poissons Ratio (y) = -0.01572 0.10122
# Poissons Ratio (z) = 0.10875 0.09355
#
# Static dielectric constant tensor:
#      x y z
#    x 4.327360 0.000000 0.239540 
#    y 0.000000 4.125600 0.000000 
#    z 0.239540 0.000000 4.342420 
# 
# 
# High freq. dielectric constant tensor:
#      x y z
#    x 2.027220 0.000000 0.019480 
#    y 0.000000 1.989010 0.000000 
#    z 0.019480 0.000000 1.990140 
# 
# From -- ./inp_files/1700.got.cif
#   From: 2010.03.12/outbox.cif.g09.slc.cpg/sg14_1_cif.got.tgz:1700.got - 2010.03.31 13:35:05.
