data_PCOD8127288
_publ_section_title
;
Structure prediction by ZEFSAII (Michael W. Deem and Ramdas Pophale) SiO2 
 PCOD8127288
Probable space group: P 21/C
;
_chemical_formula_sum "Si O2"
_cell_formula_units_Z 32
_cell_length_a 8.481358
_cell_length_b 12.305944
_cell_length_c 29.444753
_cell_angle_alpha 90.000000
_cell_angle_beta 29.197649
_cell_angle_gamma 90.000000
_cell_volume 1499.171323
_symmetry_space_group_name_H-M "P 21/C"
_symmetry_group_IT_number 14
_symmetry_cell_setting 'monoclinic'
loop_
_space_group_symop_operation_xyz
x,y,z
-x,1/2+y,1/2-z
-x,-y,-z
x,1/2-y,1/2+z
loop_
_atom_site_type_symbol
_atom_site_label
_atom_site_fract_x
_atom_site_fract_y
_atom_site_fract_z
Si Si1 0.502995 0.283227 0.076262
Si Si2 0.260681 0.788059 0.241105
Si Si3 0.481093 0.129753 0.000795
Si Si4 0.248208 0.886527 0.813793
Si Si5 0.333157 0.723094 0.125281
Si Si6 0.406280 0.913411 0.288053
Si Si7 0.408959 0.213181 0.196368
Si Si8 0.700726 0.985086 0.495103
O O1 0.622980 0.195371 0.008553
O O2 0.593123 0.233232 0.102599
O O3 0.672375 0.401415 0.029636
O O4 0.121457 0.297705 0.169233
O O5 0.388956 0.686599 0.238048
O O6 0.430536 0.775845 0.149306
O O7 0.365863 0.891600 0.244286
O O8 0.107842 0.158007 0.088241
O O9 0.653389 0.177680 0.913455
O O10 0.500000 0.000000 0.000000
O O11 0.440027 0.886206 0.813465
O O12 0.285037 0.007508 0.785370
O O13 0.559340 0.619512 0.057538
O O14 0.963179 0.683796 0.218975
O O15 0.520662 0.813216 0.288460
O O16 0.076388 0.964805 0.390480
O O17 0.500000 0.000000 0.500000
#
# Coordination Sequence:
#
# PCOD8127288 Si02
#       8
#     4   4   4   4   4   4   4   4
#     4  10  22  41  64  92 124 165 210 261 312 376
#     4   9  21  40  61  86 124 163 202 251 313 381
#     4  11  23  43  64  87 124 171 214 249 305 391
#     4  10  22  42  59  88 127 165 199 257 323 365
#     4  11  22  40  65  93 118 164 217 251 309 385
#     4  11  22  41  63  92 129 165 203 265 319 363
#     4  10  23  40  60  94 127 158 203 263 320 373
#     4  12  21  39  70  94 124 163 217 265 309 369
#
# _framework density 21.345123999999998
#
# number of rings (size 3 to 8) (size 9 to 14) (size 15 to 20)
#    0.000    1.500    2.500    3.000    1.750    1.500 
#    6.750    1.250    0.000    0.000    0.000    0.000 
#    0.000    0.000    0.000    0.000    0.000    0.000 
#
# Total GULP energy -396544.450219 kJ/mol
# GULP energy per Si atom -12392.014069 kJ/mol
# Density = 2.129654 g / cm^3
# Si number density = 21.345124 Si / 1000 Ang^3
#
#
#
# Elastic Constant Matrix: (Units=GPa)
#
#
# Indices 1 2 3 4 5 6 
#
# 1 100.7881 21.6264 33.9330 0.0000 33.8701 0.0000
# 2 21.6264 118.7366 26.1412 0.0000 23.9281 0.0000
# 3 33.9330 26.1412 65.9527 0.0000 29.8286 0.0000
# 4 0.0000 0.0000 0.0000 35.0947 0.0000 -1.6759
# 5 33.8701 23.9281 29.8286 0.0000 41.8856 0.0000
# 6 0.0000 0.0000 0.0000 -1.6759 0.0000 17.1330
#
#
#
# Elastic Compliance Matrix: (Units=1/GPa)
#
#
# Indices 1 2 3 4 5 6 
#
# 1 0.014036 -0.000038 -0.003073 0.000000 -0.009140 0.000000
# 2 -0.000038 0.009689 -0.001964 0.000000 -0.004106 0.000000
# 3 -0.003073 -0.001964 0.023440 0.000000 -0.013086 0.000000
# 4 0.000000 0.000000 0.000000 0.028628 0.000000 0.002800
# 5 -0.009140 -0.004106 -0.013086 0.000000 0.042930 0.000000
# 6 0.000000 0.000000 0.000000 0.002800 0.000000 0.058641
#
#
# Mechanical properties :
#
#
# Convention : Reuss Voigt Hill
#
# Bulk Modulus (GPa) = 27.01560 49.87541 38.44550
# Shear Modulus (GPa) = 25.01854 32.40777 28.71315
#
# Velocity S-wave (km/s) = 3.42730 3.90073 3.67166
# Velocity P-wave (km/s) = 5.32409 6.61094 6.00210
#
# Compressibility (1/GPa) = 0.03701565
#
# Stress axis : x y z
#
# Youngs Moduli (GPa) = 71.24522 103.21345 42.66168
#
# Poissons Ratio (x) = 0.00393 0.13109
# Poissons Ratio (y) = 0.00271 0.08378
# Poissons Ratio (z) = 0.21892 0.20269
#
# Static dielectric constant tensor:
#      x y z
#    x 4.193040 0.000000 0.200370 
#    y 0.000000 4.043690 0.000000 
#    z 0.200370 0.000000 3.963020 
# 
# 
# High freq. dielectric constant tensor:
#      x y z
#    x 1.841030 0.000000 0.007980 
#    y 0.000000 1.841400 0.000000 
#    z 0.007980 0.000000 1.830700 
# 
# From -- ./inp_files/79639.got.cif
#   From: 2010.03.12/outbox.cif.g09.slc.cpg/sg14_40_cif.got.tgz:79639.got - 2010.03.31 13:35:05.
