data_PCOD8127604
_publ_section_title
;
Structure prediction by ZEFSAII (Michael W. Deem and Ramdas Pophale) SiO2 
 PCOD8127604
Probable space group: P 21/C
;
_chemical_formula_sum "Si O2"
_cell_formula_units_Z 28
_cell_length_a 10.971104
_cell_length_b 8.592348
_cell_length_c 14.399674
_cell_angle_alpha 90.000000
_cell_angle_beta 116.835789
_cell_angle_gamma 90.000000
_cell_volume 1211.233001
_symmetry_space_group_name_H-M "P 21/C"
_symmetry_group_IT_number 14
_symmetry_cell_setting 'monoclinic'
loop_
_space_group_symop_operation_xyz
x,y,z
-x,1/2+y,1/2-z
-x,-y,-z
x,1/2-y,1/2+z
loop_
_atom_site_type_symbol
_atom_site_label
_atom_site_fract_x
_atom_site_fract_y
_atom_site_fract_z
Si Si1 0.710209 0.038697 0.525643
Si Si2 0.229982 0.974571 0.078795
Si Si3 0.986331 0.572274 0.366045
Si Si4 0.265388 0.854419 0.661350
Si Si5 0.539862 0.736757 0.029914
Si Si6 0.526108 0.464954 0.637244
Si Si7 0.102775 0.720169 0.763109
O O1 0.787632 0.057729 0.451290
O O2 0.564365 0.120250 0.455143
O O3 0.793637 0.119207 0.637639
O O4 0.673962 0.858983 0.540027
O O5 0.290143 0.829200 0.156486
O O6 0.145557 0.098091 0.113004
O O7 0.361607 0.054008 0.081001
O O8 0.129986 0.903956 0.967057
O O9 0.981304 0.394624 0.331297
O O10 0.985938 0.696172 0.283576
O O11 0.406773 0.937689 0.739506
O O12 0.166683 0.856899 0.718828
O O13 0.583986 0.872184 0.117107
O O14 0.442935 0.818533 0.918857
#
# Coordination Sequence:
#
# PCOD8127604 Si02
#       7
#     4   4   4   4   4   4   4
#     4  11  22  43  65 100 144 180 228 285 356 419
#     4  10  22  44  70  98 136 185 236 285 346 429
#     4  10  23  44  71  92 135 193 238 285 351 401
#     4  11  23  40  72 100 141 181 221 294 355 417
#     4  10  23  38  66  98 144 180 217 283 358 425
#     4  11  22  41  65 107 139 176 231 283 356 425
#     4  11  23  46  68  99 135 188 238 299 345 416
#
# _framework density 23.11694
#
# number of rings (size 3 to 8) (size 9 to 14) (size 15 to 20)
#    0.000    1.429    4.286    0.000    4.000    2.286 
#    2.571    0.714    0.000    0.000    0.000    0.000 
#    0.000    0.000    0.000    0.000    0.000    0.000 
#
# Total GULP energy -346959.146560 kJ/mol
# GULP energy per Si atom -12391.398091 kJ/mol
# Density = 2.306432 g / cm^3
# Si number density = 23.116940 Si / 1000 Ang^3
#
#
#
# Elastic Constant Matrix: (Units=GPa)
#
#
# Indices 1 2 3 4 5 6 
#
# 1 74.0180 47.8342 43.3628 0.0000 -11.6383 0.0000
# 2 47.8342 95.8823 30.6298 0.0000 -1.8149 0.0000
# 3 43.3628 30.6298 101.4533 0.0000 -19.5402 0.0000
# 4 0.0000 0.0000 0.0000 32.5411 0.0000 -7.9999
# 5 -11.6383 -1.8149 -19.5402 0.0000 26.5280 0.0000
# 6 0.0000 0.0000 0.0000 -7.9999 0.0000 33.1989
#
#
#
# Elastic Compliance Matrix: (Units=1/GPa)
#
#
# Indices 1 2 3 4 5 6 
#
# 1 0.024705 -0.010162 -0.006453 0.000000 0.005390 0.000000
# 2 -0.010162 0.015821 -0.001263 0.000000 -0.004306 0.000000
# 3 -0.006453 -0.001263 0.014490 0.000000 0.007755 0.000000
# 4 0.000000 0.000000 0.000000 0.032665 0.000000 0.007871
# 5 0.005390 -0.004306 0.007755 0.000000 0.045479 0.000000
# 6 0.000000 0.000000 0.000000 0.007871 0.000000 0.032018
#
#
# Mechanical properties :
#
#
# Convention : Reuss Voigt Hill
#
# Bulk Modulus (GPa) = 51.91842 57.22302 54.57072
# Shear Modulus (GPa) = 24.11338 28.42206 26.26772
#
# Velocity S-wave (km/s) = 3.23322 3.51021 3.37456
# Velocity P-wave (km/s) = 6.03706 6.42155 6.23227
#
# Compressibility (1/GPa) = 0.01926099
#
# Stress axis : x y z
#
# Youngs Moduli (GPa) = 40.47708 63.20831 69.01325
#
# Poissons Ratio (x) = 0.64229 0.44538
# Poissons Ratio (y) = 0.41131 0.08713
# Poissons Ratio (z) = 0.26122 0.07980
#
# Static dielectric constant tensor:
#      x y z
#    x 4.232610 0.000000 -0.330490 
#    y 0.000000 3.999900 0.000000 
#    z -0.330490 0.000000 4.052300 
# 
# 
# High freq. dielectric constant tensor:
#      x y z
#    x 1.902080 0.000000 -0.021360 
#    y 0.000000 1.902290 0.000000 
#    z -0.021360 0.000000 1.913300 
# 
# From -- ./inp_files/43826.got.cif
#   From: 2010.03.12/outbox.cif.g09.slc.cpg/sg14_22_cif.got.tgz:43826.got - 2010.03.31 13:35:05.
