data_PCOD8127247
_publ_section_title
;
Structure prediction by ZEFSAII (Michael W. Deem and Ramdas Pophale) SiO2 
 PCOD8127247
Probable space group: P 21/C
;
_chemical_formula_sum "Si O2"
_cell_formula_units_Z 32
_cell_length_a 15.184768
_cell_length_b 7.816653
_cell_length_c 12.830578
_cell_angle_alpha 90.000000
_cell_angle_beta 86.470698
_cell_angle_gamma 90.000000
_cell_volume 1520.025138
_symmetry_space_group_name_H-M "P 21/C"
_symmetry_group_IT_number 14
_symmetry_cell_setting 'monoclinic'
loop_
_space_group_symop_operation_xyz
x,y,z
-x,1/2+y,1/2-z
-x,-y,-z
x,1/2-y,1/2+z
loop_
_atom_site_type_symbol
_atom_site_label
_atom_site_fract_x
_atom_site_fract_y
_atom_site_fract_z
Si Si1 0.693194 0.518802 0.481944
Si Si2 0.600167 0.855490 0.796745
Si Si3 0.111089 0.459037 0.607385
Si Si4 0.977797 0.241200 0.507543
Si Si5 0.910357 0.965893 0.647447
Si Si6 0.275973 0.148768 0.396480
Si Si7 0.467956 0.009706 0.662770
Si Si8 0.374792 0.854735 0.485907
O O1 0.614255 0.561413 0.408440
O O2 0.783822 0.539274 0.410947
O O3 0.693769 0.660027 0.573484
O O4 0.674007 0.328205 0.527194
O O5 0.676532 0.911082 0.712343
O O6 0.604169 0.650111 0.801434
O O7 0.504630 0.915590 0.762217
O O8 0.074032 0.599719 0.532552
O O9 0.083384 0.488283 0.729040
O O10 0.065816 0.285121 0.568891
O O11 0.002863 0.126401 0.405372
O O12 0.908719 0.150328 0.591380
O O13 0.827386 0.851853 0.619192
O O14 0.302496 0.007262 0.481309
O O15 0.546523 0.114402 0.600822
O O16 0.419773 0.865705 0.596592
#
# Coordination Sequence:
#
# PCOD8127247 Si02
#       8
#     4   4   4   4   4   4   4   4
#     4  12  23  41  66  91 127 171 202 260 326 368
#     4  11  23  40  64  91 124 165 210 263 310 381
#     4  11  22  41  62  95 127 161 215 257 310 389
#     4  10  23  39  65  92 125 167 207 259 317 370
#     4  11  21  41  65  90 128 169 205 260 317 373
#     4  11  23  42  62  94 131 161 211 259 314 377
#     4  10  22  41  60  92 123 164 217 261 311 376
#     4  10  23  41  62  89 128 164 210 265 310 374
#
# _framework density 21.052284
#
# number of rings (size 3 to 8) (size 9 to 14) (size 15 to 20)
#    0.000    1.250    3.750    2.250    1.750    0.500 
#    0.000    0.000    0.000    0.000    0.000    0.000 
#    0.000    0.000    0.000    0.000    0.000    0.000 
#
# Total GULP energy -396746.042871 kJ/mol
# GULP energy per Si atom -12398.313840 kJ/mol
# Density = 2.100437 g / cm^3
# Si number density = 21.052284 Si / 1000 Ang^3
#
#
#
# Elastic Constant Matrix: (Units=GPa)
#
#
# Indices 1 2 3 4 5 6 
#
# 1 47.0842 15.0549 8.9042 0.0000 13.6811 0.0000
# 2 15.0549 117.0877 19.8080 0.0000 10.1516 0.0000
# 3 8.9042 19.8080 79.9301 0.0000 11.2685 0.0000
# 4 0.0000 0.0000 0.0000 22.4732 0.0000 -6.2554
# 5 13.6811 10.1516 11.2685 0.0000 30.8823 0.0000
# 6 0.0000 0.0000 0.0000 -6.2554 0.0000 26.6712
#
#
#
# Elastic Compliance Matrix: (Units=1/GPa)
#
#
# Indices 1 2 3 4 5 6 
#
# 1 0.025023 -0.002206 -0.000823 0.000000 -0.010060 0.000000
# 2 -0.002206 0.009258 -0.001853 0.000000 -0.001390 0.000000
# 3 -0.000823 -0.001853 0.013625 0.000000 -0.003998 0.000000
# 4 0.000000 0.000000 0.000000 0.047605 0.000000 0.011165
# 5 -0.010060 -0.001390 -0.003998 0.000000 0.038754 0.000000
# 6 0.000000 0.000000 0.000000 0.011165 0.000000 0.040112
#
#
# Mechanical properties :
#
#
# Convention : Reuss Voigt Hill
#
# Bulk Modulus (GPa) = 26.21664 36.84847 31.53255
# Shear Modulus (GPa) = 25.39953 29.36099 27.38026
#
# Velocity S-wave (km/s) = 3.47724 3.73858 3.61027
# Velocity P-wave (km/s) = 5.34806 6.01476 5.69118
#
# Compressibility (1/GPa) = 0.03814372
#
# Stress axis : x y z
#
# Youngs Moduli (GPa) = 39.96392 108.01255 73.39260
#
# Poissons Ratio (x) = 0.23827 0.06037
# Poissons Ratio (y) = 0.08816 0.13597
# Poissons Ratio (z) = 0.03287 0.20011
#
# Static dielectric constant tensor:
#      x y z
#    x 3.764540 0.000000 0.131180 
#    y 0.000000 3.809970 0.000000 
#    z 0.131180 0.000000 3.719150 
# 
# 
# High freq. dielectric constant tensor:
#      x y z
#    x 1.819530 0.000000 0.007180 
#    y 0.000000 1.825830 0.000000 
#    z 0.007180 0.000000 1.824840 
# 
# From -- ./inp_files/31832.got.cif
#   From: 2010.03.12/outbox.cif.g09.slc.cpg/sg14_16_cif.got.tgz:31832.got - 2010.03.31 13:35:05.
