data_PCOD8127558
_publ_section_title
;
Structure prediction by ZEFSAII (Michael W. Deem and Ramdas Pophale) SiO2 
 PCOD8127558
Probable space group: P 21/C
;
_chemical_formula_sum "Si O2"
_cell_formula_units_Z 28
_cell_length_a 6.801768
_cell_length_b 30.004248
_cell_length_c 8.929070
_cell_angle_alpha 90.000000
_cell_angle_beta 50.320074
_cell_angle_gamma 90.000000
_cell_volume 1402.455205
_symmetry_space_group_name_H-M "P 21/C"
_symmetry_group_IT_number 14
_symmetry_cell_setting 'monoclinic'
loop_
_space_group_symop_operation_xyz
x,y,z
-x,1/2+y,1/2-z
-x,-y,-z
x,1/2-y,1/2+z
loop_
_atom_site_type_symbol
_atom_site_label
_atom_site_fract_x
_atom_site_fract_y
_atom_site_fract_z
Si Si1 0.713765 0.190125 0.897398
Si Si2 0.989431 0.945766 0.670541
Si Si3 0.494222 0.098387 0.942077
Si Si4 0.714706 0.810260 0.383206
Si Si5 0.499821 0.747682 0.243634
Si Si6 0.995005 0.951272 0.316997
Si Si7 0.479835 0.402874 0.094797
O O1 0.679529 0.217433 0.066193
O O2 0.517969 0.149163 0.986496
O O3 0.680449 0.221891 0.770585
O O4 0.998986 0.170693 0.755164
O O5 0.953262 0.941237 0.511297
O O6 0.255324 0.923588 0.592441
O O7 0.988853 0.996504 0.724549
O O8 0.757447 0.920786 0.860909
O O9 0.742493 0.070262 0.870898
O O10 0.463679 0.097405 0.780196
O O11 0.682388 0.777728 0.257525
O O12 0.672772 0.783888 0.557104
O O13 0.527256 0.852522 0.464470
O O14 0.753683 0.932408 0.347362
#
# Coordination Sequence:
#
# PCOD8127558 Si02
#       7
#     4   4   4   4   4   4   4
#     4  11  22  41  61  89 121 157 203 246 304 359
#     4  10  24  41  64  93 122 163 207 249 311 370
#     4  11  23  39  63  93 125 158 204 255 298 368
#     4  11  22  42  62  90 123 160 202 251 305 357
#     4  10  24  40  61  89 118 161 201 252 300 361
#     4  10  22  44  64  88 125 164 204 255 308 361
#     4  11  23  39  63  92 128 158 201 257 299 364
#
# _framework density 19.964988000000002
#
# number of rings (size 3 to 8) (size 9 to 14) (size 15 to 20)
#    0.000    1.429    2.857    1.714    2.000    2.857 
#   10.286    0.000    0.000    0.000    0.000    0.000 
#    0.000    0.000    0.000    0.000    0.000    0.000 
#
# Total GULP energy -347341.788954 kJ/mol
# GULP energy per Si atom -12405.063891 kJ/mol
# Density = 1.991955 g / cm^3
# Si number density = 19.964988 Si / 1000 Ang^3
#
#
#
# Elastic Constant Matrix: (Units=GPa)
#
#
# Indices 1 2 3 4 5 6 
#
# 1 113.5872 64.3472 54.7897 0.0000 -17.5398 0.0000
# 2 64.3472 151.1584 61.6238 0.0000 -9.2428 0.0000
# 3 54.7897 61.6238 97.6788 0.0000 -12.7636 0.0000
# 4 0.0000 0.0000 0.0000 6.0658 0.0000 -25.8208
# 5 -17.5398 -9.2428 -12.7636 0.0000 35.3166 0.0000
# 6 0.0000 0.0000 0.0000 -25.8208 0.0000 20.2285
#
#
#
# Elastic Compliance Matrix: (Units=1/GPa)
#
#
# Indices 1 2 3 4 5 6 
#
# 1 0.013900 -0.003643 -0.004955 0.000000 0.004159 0.000000
# 2 -0.003643 0.009864 -0.004281 0.000000 -0.000775 0.000000
# 3 -0.004955 -0.004281 0.016006 0.000000 0.002203 0.000000
# 4 0.000000 0.000000 0.000000 -0.037184 0.000000 -0.047464
# 5 0.004159 -0.000775 0.002203 0.000000 0.030974 0.000000
# 6 0.000000 0.000000 0.000000 -0.047464 0.000000 -0.011150
#
#
# Mechanical properties :
#
#
# Convention : Reuss Voigt Hill
#
# Bulk Modulus (GPa) = 71.36728 80.43843 75.90285
# Shear Modulus (GPa) = 94.62843 24.43309 59.53076
#
# Velocity S-wave (km/s) = 6.89203 3.50208 5.46647
# Velocity P-wave (km/s) = 9.95777 7.53193 8.82857
#
# Compressibility (1/GPa) = 0.01401202
#
# Stress axis : x y z
#
# Youngs Moduli (GPa) = 71.94395 101.37681 62.47735
#
# Poissons Ratio (x) = 0.36928 0.30958
# Poissons Ratio (y) = 0.26207 0.26748
# Poissons Ratio (z) = 0.35648 0.43401
#
# Static dielectric constant tensor:
#      x y z
#    x 3.695590 0.000000 0.064810 
#    y 0.000000 3.940220 0.000000 
#    z 0.064810 0.000000 3.556050 
# 
# 
# High freq. dielectric constant tensor:
#      x y z
#    x 1.788980 0.000000 0.000640 
#    y 0.000000 1.796790 0.000000 
#    z 0.000640 0.000000 1.774180 
# 
# From -- ./inp_files/6718.got.cif
#   From: 2010.03.12/outbox.cif.g09.slc.cpg/sg14_4_cif.got.tgz:6718.got - 2010.03.31 13:35:05.
