data_PCOD8127559
_publ_section_title
;
Structure prediction by ZEFSAII (Michael W. Deem and Ramdas Pophale) SiO2 
 PCOD8127559
Probable space group: P 21/C
;
_chemical_formula_sum "Si O2"
_cell_formula_units_Z 32
_cell_length_a 12.784967
_cell_length_b 8.695984
_cell_length_c 15.337773
_cell_angle_alpha 90.000000
_cell_angle_beta 64.409597
_cell_angle_gamma 90.000000
_cell_volume 1537.947073
_symmetry_space_group_name_H-M "P 21/C"
_symmetry_group_IT_number 14
_symmetry_cell_setting 'monoclinic'
loop_
_space_group_symop_operation_xyz
x,y,z
-x,1/2+y,1/2-z
-x,-y,-z
x,1/2-y,1/2+z
loop_
_atom_site_type_symbol
_atom_site_label
_atom_site_fract_x
_atom_site_fract_y
_atom_site_fract_z
Si Si1 0.373062 0.150687 0.626538
Si Si2 0.177690 0.713488 0.758795
Si Si3 0.043558 0.385899 0.055506
Si Si4 0.606614 0.324465 0.546391
Si Si5 0.881402 0.926488 0.011206
Si Si6 0.675778 0.445156 0.695007
Si Si7 0.744983 0.955213 0.886401
Si Si8 0.228932 0.912966 0.582946
O O1 0.496684 0.223563 0.558271
O O2 0.376465 0.076703 0.722703
O O3 0.279460 0.285249 0.642186
O O4 0.340338 0.010318 0.575003
O O5 0.214190 0.545238 0.713905
O O6 0.158886 0.826464 0.684166
O O7 0.059117 0.697949 0.854763
O O8 0.284766 0.786787 0.773724
O O9 0.133009 0.473923 0.082838
O O10 0.112611 0.255722 0.979010
O O11 0.000000 0.500000 0.000000
O O12 0.586493 0.396561 0.650134
O O13 0.629786 0.462410 0.468631
O O14 0.720526 0.212218 0.503745
O O15 0.786938 0.981513 0.111903
O O16 0.846444 0.960094 0.923053
O O17 0.000000 0.000000 0.000000
#
# Coordination Sequence:
#
# PCOD8127559 Si02
#       8
#     4   4   4   4   4   4   4   4
#     4  11  22  41  67  94 120 164 217 266 303 370
#     4  10  23  40  62  90 128 163 202 256 314 370
#     4  12  25  38  63  93 125 169 205 249 316 381
#     4  10  22  44  64  89 129 168 206 259 329 357
#     4  11  23  43  62  88 128 167 199 253 320 374
#     4  10  23  42  61  92 128 162 208 263 309 376
#     4  10  23  41  66  92 124 164 208 263 304 381
#     4  10  23  42  64  93 128 164 215 257 308 379
#
# _framework density 20.806958000000002
#
# number of rings (size 3 to 8) (size 9 to 14) (size 15 to 20)
#    0.000    1.500    2.500    1.500    7.000    1.000 
#    2.250    2.500    0.000    0.000    0.000    0.000 
#    0.000    0.000    0.000    0.000    0.000    0.000 
#
# Total GULP energy -396612.030792 kJ/mol
# GULP energy per Si atom -12394.125962 kJ/mol
# Density = 2.075960 g / cm^3
# Si number density = 20.806958 Si / 1000 Ang^3
#
#
#
# Elastic Constant Matrix: (Units=GPa)
#
#
# Indices 1 2 3 4 5 6 
#
# 1 76.5701 25.4966 25.9704 0.0000 -1.4031 0.0000
# 2 25.4966 121.9486 37.0971 0.0000 6.9469 0.0000
# 3 25.9704 37.0971 70.4353 0.0000 12.0706 0.0000
# 4 0.0000 0.0000 0.0000 38.5718 0.0000 -1.6074
# 5 -1.4031 6.9469 12.0706 0.0000 18.5325 0.0000
# 6 0.0000 0.0000 0.0000 -1.6074 0.0000 40.4606
#
#
#
# Elastic Compliance Matrix: (Units=1/GPa)
#
#
# Indices 1 2 3 4 5 6 
#
# 1 0.015748 -0.001850 -0.005803 0.000000 0.005665 0.000000
# 2 -0.001850 0.009984 -0.004402 0.000000 -0.001015 0.000000
# 3 -0.005803 -0.004402 0.020766 0.000000 -0.012314 0.000000
# 4 0.000000 0.000000 0.000000 0.025969 0.000000 0.001032
# 5 0.005665 -0.001015 -0.012314 0.000000 0.062790 0.000000
# 6 0.000000 0.000000 0.000000 0.001032 0.000000 0.024756
#
#
# Mechanical properties :
#
#
# Convention : Reuss Voigt Hill
#
# Bulk Modulus (GPa) = 44.66791 49.56467 47.11629
# Shear Modulus (GPa) = 26.09799 31.53896 28.81848
#
# Velocity S-wave (km/s) = 3.54544 3.89754 3.72565
# Velocity P-wave (km/s) = 6.18664 6.64284 6.41880
#
# Compressibility (1/GPa) = 0.02238744
#
# Stress axis : x y z
#
# Youngs Moduli (GPa) = 63.50025 100.16037 48.15553
#
# Poissons Ratio (x) = 0.18529 0.27945
# Poissons Ratio (y) = 0.11747 0.21200
# Poissons Ratio (z) = 0.36849 0.44094
#
# Static dielectric constant tensor:
#      x y z
#    x 4.152490 0.000000 -0.367870 
#    y 0.000000 4.091390 0.000000 
#    z -0.367870 0.000000 4.316600 
# 
# 
# High freq. dielectric constant tensor:
#      x y z
#    x 1.805680 0.000000 0.008150 
#    y 0.000000 1.838860 0.000000 
#    z 0.008150 0.000000 1.806640 
# 
# From -- ./inp_files/43682.got.cif
#   From: 2010.03.12/outbox.cif.g09.slc.cpg/sg14_22_cif.got.tgz:43682.got - 2010.03.31 13:35:05.
