data_PCOD8127129
_publ_section_title
;
Structure prediction by ZEFSAII (Michael W. Deem and Ramdas Pophale) SiO2 
 PCOD8127129
Probable space group: P 21/C
;
_chemical_formula_sum "Si O2"
_cell_formula_units_Z 24
_cell_length_a 9.356134
_cell_length_b 19.863346
_cell_length_c 8.338521
_cell_angle_alpha 90.000000
_cell_angle_beta 43.746717
_cell_angle_gamma 90.000000
_cell_volume 1071.549543
_symmetry_space_group_name_H-M "P 21/C"
_symmetry_group_IT_number 14
_symmetry_cell_setting 'monoclinic'
loop_
_space_group_symop_operation_xyz
x,y,z
-x,1/2+y,1/2-z
-x,-y,-z
x,1/2-y,1/2+z
loop_
_atom_site_type_symbol
_atom_site_label
_atom_site_fract_x
_atom_site_fract_y
_atom_site_fract_z
Si Si1 0.829655 0.942937 0.105252
Si Si2 0.917765 0.191752 0.627545
Si Si3 0.444181 0.968953 0.212686
Si Si4 0.509609 0.841606 0.980587
Si Si5 0.226985 0.088978 0.496653
Si Si6 0.911113 0.814094 0.836466
O O1 0.631743 0.978417 0.186434
O O2 0.756224 0.904185 0.325597
O O3 0.923163 0.886361 0.912014
O O4 0.000000 0.000000 0.000000
O O5 0.010222 0.120589 0.616384
O O6 0.066429 0.253190 0.557945
O O7 0.690302 0.205275 0.888928
O O8 0.908247 0.189583 0.442408
O O9 0.409292 0.891208 0.197992
O O10 0.242576 0.008556 0.444190
O O11 0.500000 0.000000 0.000000
O O12 0.696367 0.802922 0.914407
O O13 0.583951 0.874848 0.752532
#
# Coordination Sequence:
#
# PCOD8127129 Si02
#       6
#     4   4   4   4   4   4
#     4  11  24  41  67 101 139 180 226 285 339 402
#     4  11  23  43  70  94 130 183 221 279 346 410
#     4   9  20  41  61  94 136 171 218 275 331 396
#     4   9  22  42  66  93 134 177 211 283 348 389
#     4  10  22  39  65  97 134 168 229 270 327 411
#     4  10  24  46  60  99 132 168 233 276 335 421
#
# _framework density 22.397469999999998
#
# number of rings (size 3 to 8) (size 9 to 14) (size 15 to 20)
#    0.000    2.000    0.000    2.500    7.000    3.333 
#    3.000    0.000    0.000    0.000    0.000    0.000 
#    0.000    0.000    0.000    0.000    0.000    0.000 
#
# Total GULP energy -297420.132570 kJ/mol
# GULP energy per Si atom -12392.505524 kJ/mol
# Density = 2.234649 g / cm^3
# Si number density = 22.397470 Si / 1000 Ang^3
#
#
#
# Elastic Constant Matrix: (Units=GPa)
#
#
# Indices 1 2 3 4 5 6 
#
# 1 105.5770 41.3360 53.0722 0.0000 11.6210 0.0000
# 2 41.3360 78.3027 35.7291 0.0000 -2.1382 0.0000
# 3 53.0722 35.7291 127.5385 0.0000 10.5613 0.0000
# 4 0.0000 0.0000 0.0000 29.3379 0.0000 3.7283
# 5 11.6210 -2.1382 10.5613 0.0000 43.3552 0.0000
# 6 0.0000 0.0000 0.0000 3.7283 0.0000 36.9192
#
#
#
# Elastic Compliance Matrix: (Units=1/GPa)
#
#
# Indices 1 2 3 4 5 6 
#
# 1 0.014040 -0.005671 -0.004000 0.000000 -0.003069 0.000000
# 2 -0.005671 0.017065 -0.002670 0.000000 0.003012 0.000000
# 3 -0.004000 -0.002670 0.010385 0.000000 -0.001589 0.000000
# 4 0.000000 0.000000 0.000000 0.034529 0.000000 -0.003487
# 5 -0.003069 0.003012 -0.001589 0.000000 0.024424 0.000000
# 6 0.000000 0.000000 0.000000 -0.003487 0.000000 0.027438
#
#
# Mechanical properties :
#
#
# Convention : Reuss Voigt Hill
#
# Bulk Modulus (GPa) = 59.49301 63.52142 61.50722
# Shear Modulus (GPa) = 31.61238 34.00786 32.81012
#
# Velocity S-wave (km/s) = 3.76097 3.90087 3.83156
# Velocity P-wave (km/s) = 6.74388 6.97937 6.86263
#
# Compressibility (1/GPa) = 0.01680870
#
# Stress axis : x y z
#
# Youngs Moduli (GPa) = 71.22305 58.59873 96.29312
#
# Poissons Ratio (x) = 0.33229 0.38516
# Poissons Ratio (y) = 0.40388 0.25715
# Poissons Ratio (z) = 0.28488 0.15649
#
# Static dielectric constant tensor:
#      x y z
#    x 3.877530 0.000000 0.193990 
#    y 0.000000 3.851120 0.000000 
#    z 0.193990 0.000000 4.265450 
# 
# 
# High freq. dielectric constant tensor:
#      x y z
#    x 1.876700 0.000000 0.013100 
#    y 0.000000 1.872880 0.000000 
#    z 0.013100 0.000000 1.886930 
# 
# From -- ./inp_files/10130.got.cif
#   From: 2010.03.12/outbox.cif.g09.slc.cpg/sg14_6_cif.got.tgz:10130.got - 2010.03.31 13:35:05.
