data_PCOD8127163
_publ_section_title
;
Structure prediction by ZEFSAII (Michael W. Deem and Ramdas Pophale) SiO2 
 PCOD8127163
Probable space group: P 21/C
;
_chemical_formula_sum "Si O2"
_cell_formula_units_Z 16
_cell_length_a 11.120823
_cell_length_b 5.033074
_cell_length_c 12.809630
_cell_angle_alpha 90.000000
_cell_angle_beta 111.690624
_cell_angle_gamma 90.000000
_cell_volume 666.212520
_symmetry_space_group_name_H-M "P 21/C"
_symmetry_group_IT_number 14
_symmetry_cell_setting 'monoclinic'
loop_
_space_group_symop_operation_xyz
x,y,z
-x,1/2+y,1/2-z
-x,-y,-z
x,1/2-y,1/2+z
loop_
_atom_site_type_symbol
_atom_site_label
_atom_site_fract_x
_atom_site_fract_y
_atom_site_fract_z
Si Si1 0.119162 0.766324 0.078458
Si Si2 0.412721 0.251083 0.451397
Si Si3 0.858041 0.637505 0.079676
Si Si4 0.788023 0.743437 0.276782
O O1 0.166176 0.529073 0.169567
O O2 0.965553 0.818470 0.053816
O O3 0.203681 0.027677 0.127652
O O4 0.133963 0.665045 0.963488
O O5 0.500000 0.500000 0.500000
O O6 0.287593 0.248483 0.488702
O O7 0.359289 0.257422 0.314475
O O8 0.500000 0.000000 0.500000
O O9 0.881912 0.639636 0.212262
#
# Coordination Sequence:
#
# PCOD8127163 Si02
#       4
#     4   4   4   4
#     4  11  21  41  61 103 121 164 215 259 339 366
#     4  10  22  40  61  87 124 171 211 256 316 373
#     4   9  24  37  68  90 135 162 207 276 308 389
#     4  10  23  37  66  90 130 165 210 265 318 387
#
# _framework density 24.016359000000001
#
# number of rings (size 3 to 8) (size 9 to 14) (size 15 to 20)
#    1.500    0.500    0.000    3.000    0.000   10.000 
#    0.000    5.000    0.000    0.000    0.000    0.000 
#    0.000    0.000    0.000    0.000    0.000    0.000 
#
# Total GULP energy -198269.770787 kJ/mol
# GULP energy per Si atom -12391.860674 kJ/mol
# Density = 2.396170 g / cm^3
# Si number density = 24.016359 Si / 1000 Ang^3
#
#
#
# Elastic Constant Matrix: (Units=GPa)
#
#
# Indices 1 2 3 4 5 6 
#
# 1 93.2459 47.8199 14.6167 0.0000 25.9322 0.0000
# 2 47.8199 129.2042 36.7976 0.0000 29.9854 0.0000
# 3 14.6167 36.7976 107.7910 0.0000 20.9381 0.0000
# 4 0.0000 0.0000 0.0000 47.2210 0.0000 4.6273
# 5 25.9322 29.9854 20.9381 0.0000 47.6544 0.0000
# 6 0.0000 0.0000 0.0000 4.6273 0.0000 36.7332
#
#
#
# Elastic Compliance Matrix: (Units=1/GPa)
#
#
# Indices 1 2 3 4 5 6 
#
# 1 0.014284 -0.004194 0.000538 0.000000 -0.005371 0.000000
# 2 -0.004194 0.010784 -0.002447 0.000000 -0.003429 0.000000
# 3 0.000538 -0.002447 0.010712 0.000000 -0.003459 0.000000
# 4 0.000000 0.000000 0.000000 0.021442 0.000000 -0.002701
# 5 -0.005371 -0.003429 -0.003459 0.000000 0.027584 0.000000
# 6 0.000000 0.000000 0.000000 -0.002701 0.000000 0.027564
#
#
# Mechanical properties :
#
#
# Convention : Reuss Voigt Hill
#
# Bulk Modulus (GPa) = 42.41770 58.74549 50.58159
# Shear Modulus (GPa) = 37.75485 41.72217 39.73851
#
# Velocity S-wave (km/s) = 3.96921 4.17254 4.07214
# Velocity P-wave (km/s) = 6.22145 6.90849 6.57395
#
# Compressibility (1/GPa) = 0.02357507
#
# Stress axis : x y z
#
# Youngs Moduli (GPa) = 70.00732 92.72687 93.35689
#
# Poissons Ratio (x) = 0.38885 -0.05021
# Poissons Ratio (y) = 0.29358 0.22843
# Poissons Ratio (z) = -0.03765 0.22689
#
# Static dielectric constant tensor:
#      x y z
#    x 4.217240 0.000000 0.047160 
#    y 0.000000 4.082320 0.000000 
#    z 0.047160 0.000000 4.649010 
# 
# 
# High freq. dielectric constant tensor:
#      x y z
#    x 1.928380 0.000000 0.008700 
#    y 0.000000 1.960180 0.000000 
#    z 0.008700 0.000000 1.970800 
# 
# From -- ./inp_files/42362.got.cif
#   From: 2010.03.12/outbox.cif.g09.slc.cpg/sg14_22_cif.got.tgz:42362.got - 2010.03.31 13:35:05.
