data_PCOD8127385
_publ_section_title
;
Structure prediction by ZEFSAII (Michael W. Deem and Ramdas Pophale) SiO2 
 PCOD8127385
Probable space group: P 21/C
;
_chemical_formula_sum "Si O2"
_cell_formula_units_Z 32
_cell_length_a 7.892566
_cell_length_b 15.474621
_cell_length_c 12.723765
_cell_angle_alpha 90.000000
_cell_angle_beta 91.655560
_cell_angle_gamma 90.000000
_cell_volume 1553.361572
_symmetry_space_group_name_H-M "P 21/C"
_symmetry_group_IT_number 14
_symmetry_cell_setting 'monoclinic'
loop_
_space_group_symop_operation_xyz
x,y,z
-x,1/2+y,1/2-z
-x,-y,-z
x,1/2-y,1/2+z
loop_
_atom_site_type_symbol
_atom_site_label
_atom_site_fract_x
_atom_site_fract_y
_atom_site_fract_z
Si Si1 0.451813 0.843803 0.608121
Si Si2 0.176627 0.110049 0.416017
Si Si3 0.345619 0.979051 0.186588
Si Si4 0.987812 0.227004 0.561025
Si Si5 0.333900 0.590394 0.322805
Si Si6 0.311577 0.677045 0.533145
Si Si7 0.258228 0.577247 0.912058
Si Si8 0.041939 0.110405 0.198146
O O1 0.642200 0.872579 0.634160
O O2 0.344779 0.864177 0.710073
O O3 0.446232 0.741342 0.588601
O O4 0.389046 0.894599 0.503988
O O5 0.144089 0.177781 0.508586
O O6 0.037045 0.124769 0.323315
O O7 0.167735 0.010069 0.453107
O O8 0.295956 0.908564 0.100515
O O9 0.352576 0.941014 0.304139
O O10 0.536060 0.011115 0.164964
O O11 0.202869 0.052459 0.169381
O O12 0.872250 0.276616 0.473330
O O13 0.877207 0.152215 0.614555
O O14 0.060499 0.295244 0.645547
O O15 0.376500 0.658165 0.416081
O O16 0.135793 0.563254 0.336130
#
# Coordination Sequence:
#
# PCOD8127385 Si02
#       8
#     4   4   4   4   4   4   4   4
#     4  11  23  41  68  95 132 171 221 270 322 387
#     4  11  22  41  64  97 130 172 217 273 323 389
#     4  11  24  45  68  97 133 172 217 263 325 400
#     4  10  23  39  67  93 131 168 213 273 323 386
#     4  11  23  44  67  94 132 173 210 272 324 376
#     4  10  25  42  68  93 133 174 212 270 324 389
#     4  10  22  42  64  95 131 171 215 273 326 380
#     4  10  23  43  67  95 130 172 215 269 320 390
#
# _framework density 20.600482
#
# number of rings (size 3 to 8) (size 9 to 14) (size 15 to 20)
#    0.000    1.500    2.500    2.625    8.750    3.000 
#    2.250    0.000    0.000    0.000    0.000    0.000 
#    0.000    0.000    0.000    0.000    0.000    0.000 
#
# Total GULP energy -396743.387696 kJ/mol
# GULP energy per Si atom -12398.230866 kJ/mol
# Density = 2.055359 g / cm^3
# Si number density = 20.600482 Si / 1000 Ang^3
#
#
#
# Elastic Constant Matrix: (Units=GPa)
#
#
# Indices 1 2 3 4 5 6 
#
# 1 91.8497 51.2263 31.0176 0.0000 -1.4473 0.0000
# 2 51.2263 138.8546 50.0927 0.0000 0.9036 0.0000
# 3 31.0176 50.0927 74.0638 0.0000 -3.2060 0.0000
# 4 0.0000 0.0000 0.0000 39.1445 0.0000 3.9576
# 5 -1.4473 0.9036 -3.2060 0.0000 21.8941 0.0000
# 6 0.0000 0.0000 0.0000 3.9576 0.0000 25.5329
#
#
#
# Elastic Compliance Matrix: (Units=1/GPa)
#
#
# Indices 1 2 3 4 5 6 
#
# 1 0.014266 -0.004130 -0.003153 0.000000 0.000652 0.000000
# 2 -0.004130 0.010761 -0.005615 0.000000 -0.001539 0.000000
# 3 -0.003153 -0.005615 0.018740 0.000000 0.002767 0.000000
# 4 0.000000 0.000000 0.000000 0.025953 0.000000 -0.004023
# 5 0.000652 -0.001539 0.002767 0.000000 0.046186 0.000000
# 6 0.000000 0.000000 0.000000 -0.004023 0.000000 0.039789
#
#
# Mechanical properties :
#
#
# Convention : Reuss Voigt Hill
#
# Bulk Modulus (GPa) = 55.64650 63.27124 59.45887
# Shear Modulus (GPa) = 26.66936 28.80974 27.73955
#
# Velocity S-wave (km/s) = 3.60196 3.74371 3.67352
# Velocity P-wave (km/s) = 6.66106 7.03330 6.84971
#
# Compressibility (1/GPa) = 0.01797058
#
# Stress axis : x y z
#
# Youngs Moduli (GPa) = 70.09877 92.92760 53.36152
#
# Poissons Ratio (x) = 0.38375 0.16826
# Poissons Ratio (y) = 0.28948 0.29964
# Poissons Ratio (z) = 0.22103 0.52182
#
# Static dielectric constant tensor:
#      x y z
#    x 3.634920 0.000000 0.056350 
#    y 0.000000 3.896950 0.000000 
#    z 0.056350 0.000000 3.686580 
# 
# 
# High freq. dielectric constant tensor:
#      x y z
#    x 1.801050 0.000000 0.004130 
#    y 0.000000 1.810460 0.000000 
#    z 0.004130 0.000000 1.809610 
# 
# From -- ./inp_files/25240.got.cif
#   From: 2010.03.12/outbox.cif.g09.slc.cpg/sg14_13_cif.got.tgz:25240.got - 2010.03.31 13:35:05.
