data_PCOD8127376
_publ_section_title
;
Structure prediction by ZEFSAII (Michael W. Deem and Ramdas Pophale) SiO2 
 PCOD8127376
Probable space group: P 21/C
;
_chemical_formula_sum "Si O2"
_cell_formula_units_Z 24
_cell_length_a 17.696615
_cell_length_b 10.196872
_cell_length_c 9.515014
_cell_angle_alpha 90.000000
_cell_angle_beta 142.461751
_cell_angle_gamma 90.000000
_cell_volume 1046.143601
_symmetry_space_group_name_H-M "P 21/C"
_symmetry_group_IT_number 14
_symmetry_cell_setting 'monoclinic'
loop_
_space_group_symop_operation_xyz
x,y,z
-x,1/2+y,1/2-z
-x,-y,-z
x,1/2-y,1/2+z
loop_
_atom_site_type_symbol
_atom_site_label
_atom_site_fract_x
_atom_site_fract_y
_atom_site_fract_z
Si Si1 0.311147 0.597794 0.057131
Si Si2 0.031369 0.187113 0.651251
Si Si3 0.305926 0.679672 0.736782
Si Si4 0.067043 0.903208 0.785214
Si Si5 0.542289 0.728081 0.459613
Si Si6 0.708943 0.693368 0.960261
O O1 0.294157 0.676331 0.886411
O O2 0.248391 0.456723 0.954286
O O3 0.250122 0.680338 0.095884
O O4 0.461241 0.595781 0.310313
O O5 0.178409 0.209088 0.841571
O O6 0.983483 0.315264 0.661134
O O7 0.962494 0.175222 0.400977
O O8 0.009450 0.049598 0.701172
O O9 0.214822 0.573870 0.528767
O O10 0.447827 0.663926 0.890367
O O11 0.591418 0.782665 0.385635
O O12 0.662192 0.704682 0.731778
#
# Coordination Sequence:
#
# PCOD8127376 Si02
#       6
#     4   4   4   4   4   4
#     4  10  23  41  68  99 137 179 225 276 348 401
#     4  11  28  46  72 103 135 186 227 297 334 407
#     4  10  22  44  67 101 129 186 220 281 341 412
#     4  11  26  49  71 100 140 178 240 281 345 403
#     4  10  22  42  64 103 141 174 218 285 342 413
#     4  12  24  43  68 104 138 179 229 281 344 414
#
# _framework density 22.941402
#
# number of rings (size 3 to 8) (size 9 to 14) (size 15 to 20)
#    1.000    0.333    1.667    2.500    7.000    2.667 
#    3.000    0.000    0.000    0.000    0.000    0.000 
#    0.000    0.000    0.000    0.000    0.000    0.000 
#
# Total GULP energy -297355.456875 kJ/mol
# GULP energy per Si atom -12389.810703 kJ/mol
# Density = 2.288919 g / cm^3
# Si number density = 22.941402 Si / 1000 Ang^3
#
#
#
# Elastic Constant Matrix: (Units=GPa)
#
#
# Indices 1 2 3 4 5 6 
#
# 1 59.4435 32.2401 37.5731 0.0000 -2.5451 0.0000
# 2 32.2401 88.0903 22.6669 0.0000 -12.9931 0.0000
# 3 37.5731 22.6669 125.4864 0.0000 -11.8656 0.0000
# 4 0.0000 0.0000 0.0000 27.0671 0.0000 0.8145
# 5 -2.5451 -12.9931 -11.8656 0.0000 30.4597 0.0000
# 6 0.0000 0.0000 0.0000 0.8145 0.0000 31.3662
#
#
#
# Elastic Compliance Matrix: (Units=1/GPa)
#
#
# Indices 1 2 3 4 5 6 
#
# 1 0.025113 -0.008109 -0.006420 0.000000 -0.003861 0.000000
# 2 -0.008109 0.015121 0.000252 0.000000 0.005871 0.000000
# 3 -0.006420 0.000252 0.010180 0.000000 0.003537 0.000000
# 4 0.000000 0.000000 0.000000 0.036974 0.000000 -0.000960
# 5 -0.003861 0.005871 0.003537 0.000000 0.036390 0.000000
# 6 0.000000 0.000000 0.000000 -0.000960 0.000000 0.031906
#
#
# Mechanical properties :
#
#
# Convention : Reuss Voigt Hill
#
# Bulk Modulus (GPa) = 45.74478 50.88671 48.31575
# Shear Modulus (GPa) = 26.10629 29.81460 27.96045
#
# Velocity S-wave (km/s) = 3.37702 3.60890 3.49489
# Velocity P-wave (km/s) = 5.93202 6.29245 6.11489
#
# Compressibility (1/GPa) = 0.02186042
#
# Stress axis : x y z
#
# Youngs Moduli (GPa) = 39.81978 66.13390 98.23035
#
# Poissons Ratio (x) = 0.53627 0.63062
# Poissons Ratio (y) = 0.32289 -0.02473
# Poissons Ratio (z) = 0.25563 -0.01665
#
# Static dielectric constant tensor:
#      x y z
#    x 3.964660 0.000000 0.172020 
#    y 0.000000 3.828860 0.000000 
#    z 0.172020 0.000000 4.387910 
# 
# 
# High freq. dielectric constant tensor:
#      x y z
#    x 1.895740 0.000000 -0.001370 
#    y 0.000000 1.881930 0.000000 
#    z -0.001370 0.000000 1.927580 
# 
# From -- ./inp_files/18899.got.cif
#   From: 2010.03.12/outbox.cif.g09.slc.cpg/sg14_10_cif.got.tgz:18899.got - 2010.03.31 13:35:05.
