data_PCOD8127504
_publ_section_title
;
Structure prediction by ZEFSAII (Michael W. Deem and Ramdas Pophale) SiO2 
 PCOD8127504
Probable space group: P 21/C
;
_chemical_formula_sum "Si O2"
_cell_formula_units_Z 20
_cell_length_a 22.681963
_cell_length_b 7.065780
_cell_length_c 13.398345
_cell_angle_alpha 90.000000
_cell_angle_beta 156.901770
_cell_angle_gamma 90.000000
_cell_volume 842.402885
_symmetry_space_group_name_H-M "P 21/C"
_symmetry_group_IT_number 14
_symmetry_cell_setting 'monoclinic'
loop_
_space_group_symop_operation_xyz
x,y,z
-x,1/2+y,1/2-z
-x,-y,-z
x,1/2-y,1/2+z
loop_
_atom_site_type_symbol
_atom_site_label
_atom_site_fract_x
_atom_site_fract_y
_atom_site_fract_z
Si Si1 0.657771 0.402355 0.840429
Si Si2 0.871242 0.222030 0.838212
Si Si3 0.817711 0.394895 0.470987
Si Si4 0.648264 0.750202 0.195763
Si Si5 0.088446 0.123744 0.531474
O O1 0.758292 0.312870 0.908217
O O2 0.496639 0.298408 0.596168
O O3 0.642385 0.623496 0.787560
O O4 0.734377 0.377187 0.066752
O O5 0.886035 0.114486 0.966081
O O6 0.026833 0.219008 0.016096
O O7 0.833714 0.445844 0.792701
O O8 0.670087 0.529114 0.256585
O O9 0.948756 0.459846 0.749781
O O10 0.797686 0.774870 0.363414
#
# Coordination Sequence:
#
# PCOD8127504 Si02
#       5
#     4   4   4   4   4
#     4  10  24  45  63  95 137 170 222 268 328 401
#     4  10  22  43  67  95 131 171 217 274 322 398
#     4  11  22  43  67  96 132 172 219 277 329 386
#     4  11  23  42  67  93 132 178 211 276 333 384
#     4  10  22  43  67  97 134 170 223 276 325 393
#
# _framework density 23.741609
#
# number of rings (size 3 to 8) (size 9 to 14) (size 15 to 20)
#    0.000    1.600    2.000    1.800    2.800    2.400 
#   10.800    0.000    0.000    0.000    0.000    0.000 
#    0.000    0.000    0.000    0.000    0.000    0.000 
#
# Total GULP energy -247987.234089 kJ/mol
# GULP energy per Si atom -12399.361704 kJ/mol
# Density = 2.368757 g / cm^3
# Si number density = 23.741609 Si / 1000 Ang^3
#
#
#
# Elastic Constant Matrix: (Units=GPa)
#
#
# Indices 1 2 3 4 5 6 
#
# 1 94.6167 13.7350 35.5547 0.0000 -17.6558 0.0000
# 2 13.7350 55.5508 6.6184 0.0000 -10.3270 0.0000
# 3 35.5547 6.6184 79.1686 0.0000 -7.9919 0.0000
# 4 0.0000 0.0000 0.0000 32.2772 0.0000 4.0101
# 5 -17.6558 -10.3270 -7.9919 0.0000 34.5709 0.0000
# 6 0.0000 0.0000 0.0000 4.0101 0.0000 36.1715
#
#
#
# Elastic Compliance Matrix: (Units=1/GPa)
#
#
# Indices 1 2 3 4 5 6 
#
# 1 0.013904 -0.001794 -0.005562 0.000000 0.005280 0.000000
# 2 -0.001794 0.019376 -0.000330 0.000000 0.004796 0.000000
# 3 -0.005562 -0.000330 0.015215 0.000000 0.000578 0.000000
# 4 0.000000 0.000000 0.000000 0.031414 0.000000 -0.003483
# 5 0.005280 0.004796 0.000578 0.000000 0.033189 0.000000
# 6 0.000000 0.000000 0.000000 -0.003483 0.000000 0.028032
#
#
# Mechanical properties :
#
#
# Convention : Reuss Voigt Hill
#
# Bulk Modulus (GPa) = 30.18928 37.90580 34.04754
# Shear Modulus (GPa) = 29.84311 32.16578 31.00444
#
# Velocity S-wave (km/s) = 3.54926 3.68479 3.61766
# Velocity P-wave (km/s) = 5.43504 5.83988 5.64110
#
# Compressibility (1/GPa) = 0.03312434
#
# Stress axis : x y z
#
# Youngs Moduli (GPa) = 71.91938 51.61054 65.72481
#
# Poissons Ratio (x) = 0.09258 0.36553
# Poissons Ratio (y) = 0.12901 0.02170
# Poissons Ratio (z) = 0.39998 0.01704
#
# Static dielectric constant tensor:
#      x y z
#    x 4.162820 0.000000 0.037980 
#    y 0.000000 4.222370 0.000000 
#    z 0.037980 0.000000 4.154950 
# 
# 
# High freq. dielectric constant tensor:
#      x y z
#    x 1.937070 0.000000 0.000470 
#    y 0.000000 1.948030 0.000000 
#    z 0.000470 0.000000 1.928460 
# 
# From -- ./inp_files/51795.got.cif
#   From: 2010.03.12/outbox.cif.g09.slc.cpg/sg14_26_cif.got.tgz:51795.got - 2010.03.31 13:35:05.
