data_PCOD8127186
_publ_section_title
;
Structure prediction by ZEFSAII (Michael W. Deem and Ramdas Pophale) SiO2 
 PCOD8127186
Probable space group: P 21/C
;
_chemical_formula_sum "Si O2"
_cell_formula_units_Z 32
_cell_length_a 22.157858
_cell_length_b 8.762220
_cell_length_c 9.114896
_cell_angle_alpha 90.000000
_cell_angle_beta 119.557037
_cell_angle_gamma 90.000000
_cell_volume 1539.378920
_symmetry_space_group_name_H-M "P 21/C"
_symmetry_group_IT_number 14
_symmetry_cell_setting 'monoclinic'
loop_
_space_group_symop_operation_xyz
x,y,z
-x,1/2+y,1/2-z
-x,-y,-z
x,1/2-y,1/2+z
loop_
_atom_site_type_symbol
_atom_site_label
_atom_site_fract_x
_atom_site_fract_y
_atom_site_fract_z
Si Si1 0.944768 0.881065 0.774867
Si Si2 0.682607 0.565430 0.402481
Si Si3 0.794040 0.116866 0.879065
Si Si4 0.448230 0.064500 0.823903
Si Si5 0.699895 0.877169 0.260153
Si Si6 0.810454 0.425959 0.060949
Si Si7 0.928217 0.925400 0.086124
Si Si8 0.473313 0.420356 0.825231
O O1 0.927548 0.714267 0.696500
O O2 0.886321 0.003026 0.663918
O O3 0.951388 0.861449 0.956879
O O4 0.017301 0.944728 0.796823
O O5 0.724030 0.423605 0.383450
O O6 0.693370 0.701590 0.298985
O O7 0.710938 0.612342 0.597697
O O8 0.601847 0.515759 0.315943
O O9 0.782039 0.119309 0.688696
O O10 0.817395 0.282211 0.961913
O O11 0.851304 0.992730 0.991193
O O12 0.369960 0.034654 0.779785
O O13 0.465731 0.240349 0.821991
O O14 0.462434 0.964158 0.699459
O O15 0.500000 0.000000 0.000000
O O16 0.762202 0.950758 0.424413
O O17 0.500000 0.500000 0.000000
#
# Coordination Sequence:
#
# PCOD8127186 Si02
#       8
#     4   4   4   4   4   4   4   4
#     4  10  22  40  63  93 127 163 210 252 312 366
#     4  11  24  43  64  91 123 167 210 257 318 379
#     4  11  24  41  63  92 128 163 212 258 316 371
#     4  11  23  44  63  93 126 164 214 262 326 387
#     4  11  24  42  66  88 126 166 209 260 314 381
#     4  11  24  41  63  93 126 166 208 263 310 374
#     4  10  22  40  63  93 126 166 205 258 306 372
#     4  11  25  40  67  93 126 168 210 268 322 390
#
# _framework density 20.787606
#
# number of rings (size 3 to 8) (size 9 to 14) (size 15 to 20)
#    0.000    1.250    1.250    3.750    7.000    6.500 
#    0.000    0.000    0.000    0.000    0.000    0.000 
#    0.000    0.000    0.000    0.000    0.000    0.000 
#
# Total GULP energy -396820.052173 kJ/mol
# GULP energy per Si atom -12400.626630 kJ/mol
# Density = 2.074029 g / cm^3
# Si number density = 20.787606 Si / 1000 Ang^3
#
#
#
# Elastic Constant Matrix: (Units=GPa)
#
#
# Indices 1 2 3 4 5 6 
#
# 1 68.3636 5.0244 13.6563 0.0000 0.5690 0.0000
# 2 5.0244 56.1589 4.7866 0.0000 2.5324 0.0000
# 3 13.6563 4.7866 103.2937 0.0000 -1.8911 0.0000
# 4 0.0000 0.0000 0.0000 40.9452 0.0000 0.8922
# 5 0.5690 2.5324 -1.8911 0.0000 33.3097 0.0000
# 6 0.0000 0.0000 0.0000 0.8922 0.0000 35.6311
#
#
#
# Elastic Compliance Matrix: (Units=1/GPa)
#
#
# Indices 1 2 3 4 5 6 
#
# 1 0.015105 -0.001173 -0.001948 0.000000 -0.000279 0.000000
# 2 -0.001173 0.018034 -0.000706 0.000000 -0.001391 0.000000
# 3 -0.001948 -0.000706 0.009983 0.000000 0.000654 0.000000
# 4 0.000000 0.000000 0.000000 0.024436 0.000000 -0.000612
# 5 -0.000279 -0.001391 0.000654 0.000000 0.030169 0.000000
# 6 0.000000 0.000000 0.000000 -0.000612 0.000000 0.028081
#
#
# Mechanical properties :
#
#
# Convention : Reuss Voigt Hill
#
# Bulk Modulus (GPa) = 28.19317 30.52787 29.36052
# Shear Modulus (GPa) = 34.41497 35.60046 35.00771
#
# Velocity S-wave (km/s) = 4.07326 4.14282 4.10819
# Velocity P-wave (km/s) = 5.97611 6.13200 6.05456
#
# Compressibility (1/GPa) = 0.03546959
#
# Stress axis : x y z
#
# Youngs Moduli (GPa) = 66.20202 55.44938 100.16685
#
# Poissons Ratio (x) = 0.06503 0.19511
# Poissons Ratio (y) = 0.07764 0.07073
# Poissons Ratio (z) = 0.12895 0.03915
#
# Static dielectric constant tensor:
#      x y z
#    x 3.978380 0.000000 0.119400 
#    y 0.000000 3.626110 0.000000 
#    z 0.119400 0.000000 3.953350 
# 
# 
# High freq. dielectric constant tensor:
#      x y z
#    x 1.822150 0.000000 0.002290 
#    y 0.000000 1.813250 0.000000 
#    z 0.002290 0.000000 1.828730 
# 
# From -- ./inp_files/19371.got.cif
#   From: 2010.03.12/outbox.cif.g09.slc.cpg/sg14_10_cif.got.tgz:19371.got - 2010.03.31 13:35:05.
