data_PCOD8127094
_publ_section_title
;
Structure prediction by ZEFSAII (Michael W. Deem and Ramdas Pophale) SiO2 
 PCOD8127094
Probable space group: P 21/C
;
_chemical_formula_sum "Si O2"
_cell_formula_units_Z 32
_cell_length_a 5.229764
_cell_length_b 32.864783
_cell_length_c 9.559405
_cell_angle_alpha 90.000000
_cell_angle_beta 67.901076
_cell_angle_gamma 90.000000
_cell_volume 1522.319735
_symmetry_space_group_name_H-M "P 21/C"
_symmetry_group_IT_number 14
_symmetry_cell_setting 'monoclinic'
loop_
_space_group_symop_operation_xyz
x,y,z
-x,1/2+y,1/2-z
-x,-y,-z
x,1/2-y,1/2+z
loop_
_atom_site_type_symbol
_atom_site_label
_atom_site_fract_x
_atom_site_fract_y
_atom_site_fract_z
Si Si1 0.635045 0.130798 0.367933
Si Si2 0.801889 0.245091 0.666434
Si Si3 0.887363 0.538752 0.886254
Si Si4 0.529557 0.325173 0.630021
Si Si5 0.257807 0.955168 0.574959
Si Si6 0.843566 0.624591 0.825156
Si Si7 0.567010 0.334506 0.302646
Si Si8 0.990436 0.202290 0.374813
O O1 0.679759 0.140563 0.193421
O O2 0.815270 0.089682 0.351205
O O3 0.324058 0.125628 0.493333
O O4 0.741095 0.170011 0.433363
O O5 0.677314 0.281596 0.600353
O O6 0.563764 0.213145 0.761074
O O7 0.024501 0.222605 0.520531
O O8 0.949268 0.261319 0.773214
O O9 0.893323 0.493349 0.813272
O O10 0.907242 0.576969 0.775810
O O11 0.587159 0.539750 0.022837
O O12 0.143892 0.543083 0.939677
O O13 0.488487 0.340093 0.481355
O O14 0.251792 0.322829 0.775421
O O15 0.668875 0.642276 0.733072
O O16 0.127723 0.648348 0.788477
#
# Coordination Sequence:
#
# PCOD8127094 Si02
#       8
#     4   4   4   4   4   4   4   4
#     4  10  22  39  62  92 121 166 205 259 307 376
#     4  11  24  40  58  89 115 164 206 259 309 362
#     4   9  18  34  58  97 124 158 196 260 304 368
#     4  11  27  40  59  88 125 164 212 258 311 372
#     4   9  18  33  61  92 130 154 202 252 313 355
#     4  11  23  40  66  91 126 159 211 252 318 366
#     4  12  26  42  63  90 124 167 204 263 308 372
#     4  11  24  40  61  85 123 160 210 256 312 367
#
# _framework density 21.020551999999999
#
# number of rings (size 3 to 8) (size 9 to 14) (size 15 to 20)
#    0.000    1.500    2.500    2.250   10.500    0.000 
#    0.000    0.000    0.000    1.500    0.000    0.000 
#    0.000    0.000    0.000    0.000    0.000    0.000 
#
# Total GULP energy -396470.893147 kJ/mol
# GULP energy per Si atom -12389.715411 kJ/mol
# Density = 2.097271 g / cm^3
# Si number density = 21.020552 Si / 1000 Ang^3
#
#
#
# Elastic Constant Matrix: (Units=GPa)
#
#
# Indices 1 2 3 4 5 6 
#
# 1 59.6479 15.8290 -7.9738 0.0000 6.5455 0.0000
# 2 15.8290 144.9407 37.5796 0.0000 18.9503 0.0000
# 3 -7.9738 37.5796 59.1962 0.0000 9.2112 0.0000
# 4 0.0000 0.0000 0.0000 19.2374 0.0000 10.2793
# 5 6.5455 18.9503 9.2112 0.0000 28.3027 0.0000
# 6 0.0000 0.0000 0.0000 10.2793 0.0000 21.2970
#
#
#
# Elastic Compliance Matrix: (Units=1/GPa)
#
#
# Indices 1 2 3 4 5 6 
#
# 1 0.018598 -0.002772 0.004893 0.000000 -0.004038 0.000000
# 2 -0.002772 0.009132 -0.005603 0.000000 -0.003650 0.000000
# 3 0.004893 -0.005603 0.021805 0.000000 -0.004477 0.000000
# 4 0.000000 0.000000 0.000000 0.070048 0.000000 -0.033810
# 5 -0.004038 -0.003650 -0.004477 0.000000 0.040167 0.000000
# 6 0.000000 0.000000 0.000000 -0.033810 0.000000 0.063274
#
#
# Mechanical properties :
#
#
# Convention : Reuss Voigt Hill
#
# Bulk Modulus (GPa) = 23.48942 39.40604 31.44773
# Shear Modulus (GPa) = 20.47690 28.32408 24.40049
#
# Velocity S-wave (km/s) = 3.12450 3.67474 3.41074
# Velocity P-wave (km/s) = 4.92092 6.06565 5.52302
#
# Compressibility (1/GPa) = 0.04257236
#
# Stress axis : x y z
#
# Youngs Moduli (GPa) = 53.76983 109.50594 45.86011
#
# Poissons Ratio (x) = 0.30353 -0.22440
# Poissons Ratio (y) = 0.14904 0.25694
# Poissons Ratio (z) = -0.26310 0.61352
#
# Static dielectric constant tensor:
#      x y z
#    x 3.836040 0.000000 0.132400 
#    y 0.000000 4.511020 0.000000 
#    z 0.132400 0.000000 3.446760 
# 
# 
# High freq. dielectric constant tensor:
#      x y z
#    x 1.824510 0.000000 0.013700 
#    y 0.000000 1.847760 0.000000 
#    z 0.013700 0.000000 1.777490 
# 
# From -- ./inp_files/6956.got.cif
#   From: 2010.03.12/outbox.cif.g09.slc.cpg/sg14_4_cif.got.tgz:6956.got - 2010.03.31 13:35:05.
