data_PCOD8127753
_publ_section_title
;
Structure prediction by ZEFSAII (Michael W. Deem and Ramdas Pophale) SiO2 
 PCOD8127753
Probable space group: P 21/C
;
_chemical_formula_sum "Si O2"
_cell_formula_units_Z 28
_cell_length_a 8.259158
_cell_length_b 16.612573
_cell_length_c 10.201564
_cell_angle_alpha 90.000000
_cell_angle_beta 69.827357
_cell_angle_gamma 90.000000
_cell_volume 1313.852833
_symmetry_space_group_name_H-M "P 21/C"
_symmetry_group_IT_number 14
_symmetry_cell_setting 'monoclinic'
loop_
_space_group_symop_operation_xyz
x,y,z
-x,1/2+y,1/2-z
-x,-y,-z
x,1/2-y,1/2+z
loop_
_atom_site_type_symbol
_atom_site_label
_atom_site_fract_x
_atom_site_fract_y
_atom_site_fract_z
Si Si1 0.462956 0.755052 0.056463
Si Si2 0.927777 0.388122 0.168435
Si Si3 0.251404 0.736647 0.359213
Si Si4 0.232567 0.336147 0.924631
Si Si5 0.669557 0.973986 0.784475
Si Si6 0.370793 0.418316 0.415875
Si Si7 0.946966 0.825415 0.093515
O O1 0.324576 0.714364 0.194770
O O2 0.633753 0.700298 0.007141
O O3 0.504452 0.842746 0.100765
O O4 0.400201 0.767179 0.926619
O O5 0.809246 0.328698 0.117651
O O6 0.838154 0.474519 0.199607
O O7 0.953174 0.345999 0.302045
O O8 0.109001 0.394858 0.042168
O O9 0.091813 0.676705 0.437537
O O10 0.330849 0.389367 0.789989
O O11 0.138652 0.263139 0.874236
O O12 0.487660 0.018121 0.801571
O O13 0.685800 0.958761 0.933563
O O14 0.195236 0.394428 0.390726
#
# Coordination Sequence:
#
# PCOD8127753 Si02
#       7
#     4   4   4   4   4   4   4
#     4  11  22  41  68  97 127 170 227 270 321 388
#     4  11  23  41  61  95 137 170 212 275 330 392
#     4  11  21  39  66  96 128 167 217 277 320 383
#     4  10  25  37  68  92 129 168 223 269 329 387
#     4  11  22  43  62  98 130 178 211 272 338 388
#     4  10  23  40  69  88 134 172 224 268 325 393
#     4  10  23  41  65  96 126 173 223 268 320 390
#
# _framework density 21.311366
#
# number of rings (size 3 to 8) (size 9 to 14) (size 15 to 20)
#    0.000    1.429    2.857    1.286   10.000    1.714 
#    0.000    5.714    0.000    0.000    0.000    0.000 
#    0.000    0.000    0.000    0.000    0.000    0.000 
#
# Total GULP energy -347210.388600 kJ/mol
# GULP energy per Si atom -12400.371021 kJ/mol
# Density = 2.126286 g / cm^3
# Si number density = 21.311366 Si / 1000 Ang^3
#
#
#
# Elastic Constant Matrix: (Units=GPa)
#
#
# Indices 1 2 3 4 5 6 
#
# 1 80.6315 18.1154 1.8514 0.0000 -4.3030 0.0000
# 2 18.1154 58.8085 3.9712 0.0000 -9.4179 0.0000
# 3 1.8514 3.9712 54.2625 0.0000 -13.3774 0.0000
# 4 0.0000 0.0000 0.0000 37.2456 0.0000 -4.7073
# 5 -4.3030 -9.4179 -13.3774 0.0000 31.3047 0.0000
# 6 0.0000 0.0000 0.0000 -4.7073 0.0000 22.4070
#
#
#
# Elastic Compliance Matrix: (Units=1/GPa)
#
#
# Indices 1 2 3 4 5 6 
#
# 1 0.013336 -0.004008 -0.000008 0.000000 0.000624 0.000000
# 2 -0.004008 0.019069 0.000022 0.000000 0.005196 0.000000
# 3 -0.000008 0.000022 0.020599 0.000000 0.008808 0.000000
# 4 0.000000 0.000000 0.000000 0.027581 0.000000 0.005794
# 5 0.000624 0.005196 0.008808 0.000000 0.037357 0.000000
# 6 0.000000 0.000000 0.000000 0.005794 0.000000 0.045846
#
#
# Mechanical properties :
#
#
# Convention : Reuss Voigt Hill
#
# Bulk Modulus (GPa) = 22.21355 26.84206 24.52781
# Shear Modulus (GPa) = 26.76927 29.50907 28.13917
#
# Velocity S-wave (km/s) = 3.54800 3.72514 3.63765
# Velocity P-wave (km/s) = 5.21827 5.57896 5.40163
#
# Compressibility (1/GPa) = 0.04501756
#
# Stress axis : x y z
#
# Youngs Moduli (GPa) = 74.98525 52.44010 48.54587
#
# Poissons Ratio (x) = 0.21016 0.00038
# Poissons Ratio (y) = 0.30051 -0.00107
# Poissons Ratio (z) = 0.00059 -0.00115
#
# Static dielectric constant tensor:
#      x y z
#    x 3.933830 0.000000 -0.268820 
#    y 0.000000 3.753840 0.000000 
#    z -0.268820 0.000000 3.825840 
# 
# 
# High freq. dielectric constant tensor:
#      x y z
#    x 1.841000 0.000000 -0.021380 
#    y 0.000000 1.822940 0.000000 
#    z -0.021380 0.000000 1.836230 
# 
# From -- ./inp_files/25203.got.cif
#   From: 2010.03.12/outbox.cif.g09.slc.cpg/sg14_13_cif.got.tgz:25203.got - 2010.03.31 13:35:05.
