data_PCOD8127405
_publ_section_title
;
Structure prediction by ZEFSAII (Michael W. Deem and Ramdas Pophale) SiO2 
 PCOD8127405
Probable space group: P 21/C
;
_chemical_formula_sum "Si O2"
_cell_formula_units_Z 28
_cell_length_a 11.128646
_cell_length_b 6.282673
_cell_length_c 22.445326
_cell_angle_alpha 90.000000
_cell_angle_beta 58.679324
_cell_angle_gamma 90.000000
_cell_volume 1340.628714
_symmetry_space_group_name_H-M "P 21/C"
_symmetry_group_IT_number 14
_symmetry_cell_setting 'monoclinic'
loop_
_space_group_symop_operation_xyz
x,y,z
-x,1/2+y,1/2-z
-x,-y,-z
x,1/2-y,1/2+z
loop_
_atom_site_type_symbol
_atom_site_label
_atom_site_fract_x
_atom_site_fract_y
_atom_site_fract_z
Si Si1 0.144289 0.237456 0.656160
Si Si2 0.653318 0.513127 0.107326
Si Si3 0.134288 0.225257 0.021106
Si Si4 0.260452 0.272540 0.308666
Si Si5 0.829207 0.376774 0.581157
Si Si6 0.836952 0.070911 0.751610
Si Si7 0.343599 0.963684 0.679761
O O1 0.174816 0.280648 0.579598
O O2 0.184414 0.450840 0.680627
O O3 0.238820 0.040552 0.654707
O O4 0.982169 0.195828 0.712038
O O5 0.639114 0.664262 0.168692
O O6 0.691646 0.272981 0.117598
O O7 0.502817 0.536060 0.113321
O O8 0.777266 0.586051 0.031458
O O9 0.968296 0.268191 0.053668
O O10 0.171580 0.998334 0.981828
O O11 0.168447 0.455325 0.364628
O O12 0.161253 0.091236 0.304949
O O13 0.352620 0.372171 0.232438
O O14 0.707820 0.236577 0.781964
#
# Coordination Sequence:
#
# PCOD8127405 Si02
#       7
#     4   4   4   4   4   4   4
#     4  11  23  41  67  93 128 169 215 273 320 385
#     4  11  24  41  63  94 133 170 214 261 328 389
#     4  10  23  40  66  94 129 172 217 268 314 385
#     4  10  23  37  66  93 126 167 209 275 321 382
#     4  10  22  42  65  97 127 169 222 263 322 381
#     4  11  23  42  64  98 124 167 219 267 329 378
#     4  11  25  39  62  96 131 167 215 267 328 384
#
# _framework density 20.885724
#
# number of rings (size 3 to 8) (size 9 to 14) (size 15 to 20)
#    0.000    1.429    1.429    3.000    6.000    7.429 
#    0.000    1.429    0.000    0.000    0.000    0.000 
#    0.000    0.000    0.000    0.000    0.000    0.000 
#
# Total GULP energy -347257.787595 kJ/mol
# GULP energy per Si atom -12402.063843 kJ/mol
# Density = 2.083819 g / cm^3
# Si number density = 20.885724 Si / 1000 Ang^3
#
#
#
# Elastic Constant Matrix: (Units=GPa)
#
#
# Indices 1 2 3 4 5 6 
#
# 1 111.8031 50.9218 50.0482 0.0000 -15.4504 0.0000
# 2 50.9218 102.9051 40.1617 0.0000 -4.0531 0.0000
# 3 50.0482 40.1617 99.6725 0.0000 20.6718 0.0000
# 4 0.0000 0.0000 0.0000 26.3732 0.0000 2.2814
# 5 -15.4504 -4.0531 20.6718 0.0000 42.1084 0.0000
# 6 0.0000 0.0000 0.0000 2.2814 0.0000 28.6583
#
#
#
# Elastic Compliance Matrix: (Units=1/GPa)
#
#
# Indices 1 2 3 4 5 6 
#
# 1 0.015869 -0.004280 -0.008200 0.000000 0.009436 0.000000
# 2 -0.004280 0.013251 -0.003484 0.000000 0.001415 0.000000
# 3 -0.008200 -0.003484 0.018090 0.000000 -0.012225 0.000000
# 4 0.000000 0.000000 0.000000 0.038180 0.000000 -0.003039
# 5 0.009436 0.001415 -0.012225 0.000000 0.033348 0.000000
# 6 0.000000 0.000000 0.000000 -0.003039 0.000000 0.035136
#
#
# Mechanical properties :
#
#
# Convention : Reuss Voigt Hill
#
# Bulk Modulus (GPa) = 65.44233 66.29376 65.86805
# Shear Modulus (GPa) = 26.19228 30.97791 28.58510
#
# Velocity S-wave (km/s) = 3.54513 3.85542 3.70353
# Velocity P-wave (km/s) = 6.93966 7.18534 7.06357
#
# Compressibility (1/GPa) = 0.01528063
#
# Stress axis : x y z
#
# Youngs Moduli (GPa) = 63.01678 75.46541 55.28059
#
# Poissons Ratio (x) = 0.32302 0.45333
# Poissons Ratio (y) = 0.26974 0.19257
# Poissons Ratio (z) = 0.51677 0.26289
#
# Static dielectric constant tensor:
#      x y z
#    x 3.644120 0.000000 0.136160 
#    y 0.000000 3.912040 0.000000 
#    z 0.136160 0.000000 3.684410 
# 
# 
# High freq. dielectric constant tensor:
#      x y z
#    x 1.808430 0.000000 0.006350 
#    y 0.000000 1.826640 0.000000 
#    z 0.006350 0.000000 1.811660 
# 
# From -- ./inp_files/66404.got.cif
#   From: 2010.03.12/outbox.cif.g09.slc.cpg/sg14_34_cif.got.tgz:66404.got - 2010.03.31 13:35:05.
