data_PCOD8127760
_publ_section_title
;
Structure prediction by ZEFSAII (Michael W. Deem and Ramdas Pophale) SiO2 
 PCOD8127760
Probable space group: P 21/C
;
_chemical_formula_sum "Si O2"
_cell_formula_units_Z 20
_cell_length_a 11.951089
_cell_length_b 4.823253
_cell_length_c 21.993387
_cell_angle_alpha 90.000000
_cell_angle_beta 35.960717
_cell_angle_gamma 90.000000
_cell_volume 744.471708
_symmetry_space_group_name_H-M "P 21/C"
_symmetry_group_IT_number 14
_symmetry_cell_setting 'monoclinic'
loop_
_space_group_symop_operation_xyz
x,y,z
-x,1/2+y,1/2-z
-x,-y,-z
x,1/2-y,1/2+z
loop_
_atom_site_type_symbol
_atom_site_label
_atom_site_fract_x
_atom_site_fract_y
_atom_site_fract_z
Si Si1 0.708548 0.117215 0.964668
Si Si2 0.657916 0.325969 0.346988
Si Si3 0.443517 0.133647 0.698041
Si Si4 0.043448 0.106985 0.610985
Si Si5 0.738648 0.353368 0.159311
O O1 0.661171 0.212189 0.917823
O O2 0.814004 0.354144 0.954592
O O3 0.845983 0.857431 0.907183
O O4 0.513471 0.057359 0.089341
O O5 0.597316 0.022225 0.348457
O O6 0.861816 0.438516 0.235267
O O7 0.321282 0.962083 0.801070
O O8 0.666232 0.089554 0.622373
O O9 0.363630 0.449080 0.743564
O O10 0.965904 0.138898 0.574913
#
# Coordination Sequence:
#
# PCOD8127760 Si02
#       5
#     4   4   4   4   4
#     4  11  25  38  60  91 118 157 207 242 298 369
#     4  10  23  41  61  86 123 159 197 252 301 355
#     4   9  18  34  59  86 116 158 199 246 304 353
#     4  11  22  40  61  86 120 158 197 250 302 354
#     4   9  18  34  59  88 115 154 204 245 299 364
#
# _framework density 26.864685999999999
#
# number of rings (size 3 to 8) (size 9 to 14) (size 15 to 20)
#    0.000    2.000    0.000    3.600    0.000   11.200 
#    0.000    2.000    0.000    0.000    0.000    0.000 
#    0.000    0.000    0.000    0.000    0.000    0.000 
#
# Total GULP energy -247769.661069 kJ/mol
# GULP energy per Si atom -12388.483053 kJ/mol
# Density = 2.680354 g / cm^3
# Si number density = 26.864686 Si / 1000 Ang^3
#
#
#
# Elastic Constant Matrix: (Units=GPa)
#
#
# Indices 1 2 3 4 5 6 
#
# 1 103.8271 -84.0808 29.2267 0.0000 29.3763 0.0000
# 2 -84.0808 -57.0243 56.8104 0.0000 75.0815 0.0000
# 3 29.2267 56.8104 122.0138 0.0000 -34.1184 0.0000
# 4 0.0000 0.0000 0.0000 18.5491 0.0000 -15.6388
# 5 29.3763 75.0815 -34.1184 0.0000 -1.5041 0.0000
# 6 0.0000 0.0000 0.0000 -15.6388 0.0000 43.6184
#
#
#
# Elastic Compliance Matrix: (Units=1/GPa)
#
#
# Indices 1 2 3 4 5 6 
#
# 1 0.006360 -0.002021 0.000809 0.000000 0.004975 0.000000
# 2 -0.002021 0.002144 0.002503 0.000000 0.010790 0.000000
# 3 0.000809 0.002503 0.006291 0.000000 -0.001953 0.000000
# 4 0.000000 0.000000 0.000000 0.077268 0.000000 0.027703
# 5 0.004975 0.010790 -0.001953 0.000000 0.015244 0.000000
# 6 0.000000 0.000000 0.000000 0.027703 0.000000 0.032859
#
#
# Mechanical properties :
#
#
# Convention : Reuss Voigt Hill
#
# Bulk Modulus (GPa) = 57.55136 19.19212 38.37174
# Shear Modulus (GPa) = 34.87350 23.25671 29.06511
#
# Velocity S-wave (km/s) = 3.60685 2.94547 3.29280
# Velocity P-wave (km/s) = 6.23017 4.32749 5.36387
#
# Compressibility (1/GPa) = 0.01737578
#
# Stress axis : x y z
#
# Youngs Moduli (GPa) = 157.24470 466.35187 158.96870
#
# Poissons Ratio (x) = 0.94251 -0.12857
# Poissons Ratio (y) = 0.31780 -0.39789
# Poissons Ratio (z) = -0.12718 -1.16726
#
# Static dielectric constant tensor:
#      x y z
#    x 5.320080 0.000000 -0.501830 
#    y 0.000000 4.809910 0.000000 
#    z -0.501830 0.000000 4.843430 
# 
# 
# High freq. dielectric constant tensor:
#      x y z
#    x 2.113540 0.000000 -0.012150 
#    y 0.000000 2.089510 0.000000 
#    z -0.012150 0.000000 2.073990 
# 
# From -- ./inp_files/49381.got.cif
#   From: 2010.03.12/outbox.cif.g09.slc.cpg/sg14_25_cif.got.tgz:49381.got - 2010.03.31 13:35:05.
