data_PCOD8127892
_publ_section_title
;
Structure prediction by ZEFSAII (Michael W. Deem and Ramdas Pophale) SiO2 
 PCOD8127892
Probable space group: P 21/C
;
_chemical_formula_sum "Si O2"
_cell_formula_units_Z 20
_cell_length_a 9.251757
_cell_length_b 8.448335
_cell_length_c 11.969166
_cell_angle_alpha 90.000000
_cell_angle_beta 73.702860
_cell_angle_gamma 90.000000
_cell_volume 897.942884
_symmetry_space_group_name_H-M "P 21/C"
_symmetry_group_IT_number 14
_symmetry_cell_setting 'monoclinic'
loop_
_space_group_symop_operation_xyz
x,y,z
-x,1/2+y,1/2-z
-x,-y,-z
x,1/2-y,1/2+z
loop_
_atom_site_type_symbol
_atom_site_label
_atom_site_fract_x
_atom_site_fract_y
_atom_site_fract_z
Si Si1 0.711768 0.487014 0.051652
Si Si2 0.832193 0.700822 0.201003
Si Si3 0.806153 0.152626 0.099591
Si Si4 0.362854 0.471360 0.179617
Si Si5 0.074926 0.974647 0.134583
O O1 0.793696 0.643104 0.083408
O O2 0.796787 0.338284 0.084780
O O3 0.539353 0.480825 0.125973
O O4 0.725666 0.483764 0.914860
O O5 0.686337 0.794038 0.277849
O O6 0.853381 0.539649 0.267291
O O7 0.977376 0.814562 0.173266
O O8 0.680216 0.092995 0.212996
O O9 0.791179 0.063337 0.982616
O O10 0.972115 0.115701 0.109509
#
# Coordination Sequence:
#
# PCOD8127892 Si02
#       5
#     4   4   4   4   4
#     4  11  24  43  68  91 130 178 212 271 318 377
#     4  11  24  42  68  95 131 170 214 272 323 384
#     4  10  23  43  64  94 132 167 214 269 317 384
#     4  10  25  44  64  97 128 170 227 258 320 388
#     4  10  24  42  66 100 129 168 216 265 330 387
#
# _framework density 22.273132
#
# number of rings (size 3 to 8) (size 9 to 14) (size 15 to 20)
#    0.000    1.600    0.000    2.400   16.800    0.800 
#    0.000    2.000    0.000    0.000    0.000    0.000 
#    0.000    0.000    0.000    0.000    0.000    0.000 
#
# Total GULP energy -247991.638877 kJ/mol
# GULP energy per Si atom -12399.581944 kJ/mol
# Density = 2.222244 g / cm^3
# Si number density = 22.273132 Si / 1000 Ang^3
#
#
#
# Elastic Constant Matrix: (Units=GPa)
#
#
# Indices 1 2 3 4 5 6 
#
# 1 34.6837 37.8325 23.4740 0.0000 5.9600 0.0000
# 2 37.8325 128.2969 53.1269 0.0000 11.4493 0.0000
# 3 23.4740 53.1269 131.8477 0.0000 1.3291 0.0000
# 4 0.0000 0.0000 0.0000 22.7425 0.0000 3.0404
# 5 5.9600 11.4493 1.3291 0.0000 30.6839 0.0000
# 6 0.0000 0.0000 0.0000 3.0404 0.0000 36.4664
#
#
#
# Elastic Compliance Matrix: (Units=1/GPa)
#
#
# Indices 1 2 3 4 5 6 
#
# 1 0.044048 -0.011263 -0.003262 0.000000 -0.004212 0.000000
# 2 -0.011263 0.012588 -0.003043 0.000000 -0.002378 0.000000
# 3 -0.003262 -0.003043 0.009378 0.000000 0.001363 0.000000
# 4 0.000000 0.000000 0.000000 0.044466 0.000000 -0.003707
# 5 -0.004212 -0.002378 0.001363 0.000000 0.034237 0.000000
# 6 0.000000 0.000000 0.000000 -0.003707 0.000000 0.027732
#
#
# Mechanical properties :
#
#
# Convention : Reuss Voigt Hill
#
# Bulk Modulus (GPa) = 32.38415 58.18833 45.28624
# Shear Modulus (GPa) = 22.94884 30.00488 26.47686
#
# Velocity S-wave (km/s) = 3.21337 3.67431 3.45154
# Velocity P-wave (km/s) = 5.32342 6.64698 6.02168
#
# Compressibility (1/GPa) = 0.03087930
#
# Stress axis : x y z
#
# Youngs Moduli (GPa) = 22.70231 79.44188 106.63672
#
# Poissons Ratio (x) = 0.89472 0.34782
# Poissons Ratio (y) = 0.25569 0.32450
# Poissons Ratio (z) = 0.07405 0.24174
#
# Static dielectric constant tensor:
#      x y z
#    x 3.728440 0.000000 -0.012190 
#    y 0.000000 3.920340 0.000000 
#    z -0.012190 0.000000 4.467130 
# 
# 
# High freq. dielectric constant tensor:
#      x y z
#    x 1.854720 0.000000 -0.001230 
#    y 0.000000 1.882410 0.000000 
#    z -0.001230 0.000000 1.898110 
# 
# From -- ./inp_files/23014.got.cif
#   From: 2010.03.12/outbox.cif.g09.slc.cpg/sg14_12_cif.got.tgz:23014.got - 2010.03.31 13:35:05.
