data_PCOD8127678
_publ_section_title
;
Structure prediction by ZEFSAII (Michael W. Deem and Ramdas Pophale) SiO2 
 PCOD8127678
Probable space group: P 21/C
;
_chemical_formula_sum "Si O2"
_cell_formula_units_Z 16
_cell_length_a 20.546024
_cell_length_b 4.800747
_cell_length_c 13.221789
_cell_angle_alpha 90.000000
_cell_angle_beta 24.642537
_cell_angle_gamma 90.000000
_cell_volume 543.771888
_symmetry_space_group_name_H-M "P 21/C"
_symmetry_group_IT_number 14
_symmetry_cell_setting 'monoclinic'
loop_
_space_group_symop_operation_xyz
x,y,z
-x,1/2+y,1/2-z
-x,-y,-z
x,1/2-y,1/2+z
loop_
_atom_site_type_symbol
_atom_site_label
_atom_site_fract_x
_atom_site_fract_y
_atom_site_fract_z
Si Si1 0.067307 0.986812 0.204509
Si Si2 0.885024 0.758350 0.131273
Si Si3 0.403984 0.991244 0.919725
Si Si4 0.337058 0.613944 0.195383
O O1 0.941831 0.807745 0.315291
O O2 0.997091 0.974304 0.418678
O O3 0.234545 0.841583 0.942668
O O4 0.764853 0.612750 0.384598
O O5 0.756448 0.888569 0.238400
O O6 0.000000 0.000000 0.000000
O O7 0.465097 0.733905 0.766012
O O8 0.368538 0.893243 0.085168
O O9 0.500000 0.500000 0.000000
#
# Coordination Sequence:
#
# PCOD8127678 Si02
#       4
#     4   4   4   4
#     4  10  22  48  78 116 156 208 274 336 394 480
#     4  11  26  51  82 115 161 213 274 335 408 483
#     4  12  26  52  78 126 168 214 268 344 416 496
#     4  11  26  51  82 115 161 213 274 335 408 483
#
# _framework density 29.424105000000001
#
# number of rings (size 3 to 8) (size 9 to 14) (size 15 to 20)
#    0.000    1.000    5.000    0.000    0.000    6.000 
#   18.000    0.000    0.000    0.000    0.000    0.000 
#    0.000    0.000    0.000    0.000    0.000    0.000 
#
# Total GULP energy -198263.087650 kJ/mol
# GULP energy per Si atom -12391.442978 kJ/mol
# Density = 2.935713 g / cm^3
# Si number density = 29.424105 Si / 1000 Ang^3
#
#
#
# Elastic Constant Matrix: (Units=GPa)
#
#
# Indices 1 2 3 4 5 6 
#
# 1 66.4104 27.8487 93.0898 0.0000 -1.3251 0.0000
# 2 27.8487 157.3471 95.5717 0.0000 -4.3205 0.0000
# 3 93.0898 95.5717 308.0194 0.0000 17.5191 0.0000
# 4 0.0000 0.0000 0.0000 76.1840 0.0000 -11.3118
# 5 -1.3251 -4.3205 17.5191 0.0000 74.3039 0.0000
# 6 0.0000 0.0000 0.0000 -11.3118 0.0000 36.2224
#
#
#
# Elastic Compliance Matrix: (Units=1/GPa)
#
#
# Indices 1 2 3 4 5 6 
#
# 1 0.026561 0.000403 -0.008292 0.000000 0.002452 0.000000
# 2 0.000403 0.007918 -0.002640 0.000000 0.001090 0.000000
# 3 -0.008292 -0.002640 0.006678 0.000000 -0.001876 0.000000
# 4 0.000000 0.000000 0.000000 0.013764 0.000000 0.004298
# 5 0.002452 0.001090 -0.001876 0.000000 0.014008 0.000000
# 6 0.000000 0.000000 0.000000 0.004298 0.000000 0.028950
#
#
# Mechanical properties :
#
#
# Convention : Reuss Voigt Hill
#
# Bulk Modulus (GPa) = 49.75595 107.19971 78.47783
# Shear Modulus (GPa) = 39.79742 58.35983 49.07862
#
# Velocity S-wave (km/s) = 3.68169 4.45837 4.08851
# Velocity P-wave (km/s) = 5.91775 7.93817 7.00122
#
# Compressibility (1/GPa) = 0.02009810
#
# Stress axis : x y z
#
# Youngs Moduli (GPa) = 37.64988 126.29738 149.73685
#
# Poissons Ratio (x) = -0.05085 1.24155
# Poissons Ratio (y) = -0.01516 0.39537
# Poissons Ratio (z) = 0.31217 0.33348
#
# Static dielectric constant tensor:
#      x y z
#    x 25.503880 0.000000 -16.751830 
#    y 0.000000 3.337150 0.000000 
#    z -16.751830 0.000000 22.119820 
# 
# 
# High freq. dielectric constant tensor:
#      x y z
#    x 2.195140 0.000000 -0.005170 
#    y 0.000000 2.209140 0.000000 
#    z -0.005170 0.000000 2.253090 
# 
# From -- ./inp_files/50936.got.cif
#   From: 2010.03.12/outbox.cif.g09.slc.cpg/sg14_26_cif.got.tgz:50936.got - 2010.03.31 13:35:05.
