data_PCOD8127096
_publ_section_title
;
Structure prediction by ZEFSAII (Michael W. Deem and Ramdas Pophale) SiO2 
 PCOD8127096
Probable space group: P 21/C
;
_chemical_formula_sum "Si O2"
_cell_formula_units_Z 32
_cell_length_a 20.018882
_cell_length_b 11.498858
_cell_length_c 12.410790
_cell_angle_alpha 90.000000
_cell_angle_beta 149.657042
_cell_angle_gamma 90.000000
_cell_volume 1443.230350
_symmetry_space_group_name_H-M "P 21/C"
_symmetry_group_IT_number 14
_symmetry_cell_setting 'monoclinic'
loop_
_space_group_symop_operation_xyz
x,y,z
-x,1/2+y,1/2-z
-x,-y,-z
x,1/2-y,1/2+z
loop_
_atom_site_type_symbol
_atom_site_label
_atom_site_fract_x
_atom_site_fract_y
_atom_site_fract_z
Si Si1 0.088547 0.320508 0.571332
Si Si2 0.854413 0.628227 0.012321
Si Si3 0.510325 0.924340 0.620634
Si Si4 0.641637 0.046860 0.155130
Si Si5 0.542497 0.123586 0.796426
Si Si6 0.679562 0.209195 0.774144
Si Si7 0.079645 0.926131 0.982598
Si Si8 0.300411 0.260738 0.531064
O O1 0.064404 0.227778 0.441339
O O2 0.138094 0.445752 0.593681
O O3 0.960602 0.353182 0.465459
O O4 0.192301 0.247416 0.787468
O O5 0.764153 0.542643 0.815910
O O6 0.740807 0.683254 0.926892
O O7 0.954922 0.557761 0.228870
O O8 0.418560 0.813801 0.465146
O O9 0.661648 0.886460 0.864435
O O10 0.500000 0.000000 0.500000
O O11 0.460159 0.006219 0.648754
O O12 0.688748 0.151641 0.298698
O O13 0.633047 0.095347 0.023339
O O14 0.500000 0.000000 0.000000
O O15 0.635446 0.157804 0.826436
O O16 0.439370 0.224797 0.672935
O O17 0.817432 0.150593 0.938149
#
# Coordination Sequence:
#
# PCOD8127096 Si02
#       8
#     4   4   4   4   4   4   4   4
#     4  10  24  46  76  95 140 183 242 292 351 427
#     4  11  25  43  73  98 139 182 231 301 343 432
#     4  10  22  39  63 100 138 176 227 284 353 417
#     4  12  25  45  66 108 145 177 230 296 370 423
#     4  11  24  38  66 100 134 187 219 289 360 416
#     4  11  25  43  65  99 143 180 233 288 344 435
#     4  10  25  49  69 104 131 195 240 288 353 417
#     4  11  22  40  65 102 132 182 230 278 359 416
#
# _framework density 22.172483
#
# number of rings (size 3 to 8) (size 9 to 14) (size 15 to 20)
#    0.000    1.250    2.500    1.500   12.250    1.000 
#    4.500    1.250    0.000    0.000    0.000    0.000 
#    0.000    0.000    0.000    0.000    0.000    0.000 
#
# Total GULP energy -396435.020250 kJ/mol
# GULP energy per Si atom -12388.594383 kJ/mol
# Density = 2.212202 g / cm^3
# Si number density = 22.172483 Si / 1000 Ang^3
#
#
#
# Elastic Constant Matrix: (Units=GPa)
#
#
# Indices 1 2 3 4 5 6 
#
# 1 118.4570 42.5611 26.5782 0.0000 1.3195 0.0000
# 2 42.5611 116.2883 38.4871 0.0000 -3.6122 0.0000
# 3 26.5782 38.4871 73.3169 0.0000 -5.1673 0.0000
# 4 0.0000 0.0000 0.0000 43.1217 0.0000 -4.4762
# 5 1.3195 -3.6122 -5.1673 0.0000 28.4076 0.0000
# 6 0.0000 0.0000 0.0000 -4.4762 0.0000 30.4435
#
#
#
# Elastic Compliance Matrix: (Units=1/GPa)
#
#
# Indices 1 2 3 4 5 6 
#
# 1 0.010012 -0.002993 -0.002146 0.000000 -0.001236 0.000000
# 2 -0.002993 0.011305 -0.004800 0.000000 0.000703 0.000000
# 3 -0.002146 -0.004800 0.017120 0.000000 0.002604 0.000000
# 4 0.000000 0.000000 0.000000 0.023550 0.000000 0.003463
# 5 -0.001236 0.000703 0.002604 0.000000 0.035822 0.000000
# 6 0.000000 0.000000 0.000000 0.003463 0.000000 0.033357
#
#
# Mechanical properties :
#
#
# Convention : Reuss Voigt Hill
#
# Bulk Modulus (GPa) = 53.87633 58.14611 56.01122
# Shear Modulus (GPa) = 31.80040 33.75694 32.77867
#
# Velocity S-wave (km/s) = 3.79123 3.90612 3.84910
# Velocity P-wave (km/s) = 6.59667 6.82825 6.71346
#
# Compressibility (1/GPa) = 0.01856103
#
# Stress axis : x y z
#
# Youngs Moduli (GPa) = 99.87656 88.45532 58.40957
#
# Poissons Ratio (x) = 0.26472 0.12533
# Poissons Ratio (y) = 0.29890 0.28037
# Poissons Ratio (z) = 0.21430 0.42459
#
# Static dielectric constant tensor:
#      x y z
#    x 3.961660 0.000000 -0.212990 
#    y 0.000000 4.667180 0.000000 
#    z -0.212990 0.000000 4.228660 
# 
# 
# High freq. dielectric constant tensor:
#      x y z
#    x 1.868670 0.000000 -0.020690 
#    y 0.000000 1.884620 0.000000 
#    z -0.020690 0.000000 1.867820 
# 
# From -- ./inp_files/35270.got.cif
#   From: 2010.03.12/outbox.cif.g09.slc.cpg/sg14_18_cif.got.tgz:35270.got - 2010.03.31 13:35:05.
