data_PCOD8127684
_publ_section_title
;
Structure prediction by ZEFSAII (Michael W. Deem and Ramdas Pophale) SiO2 
 PCOD8127684
Probable space group: P 21/C
;
_chemical_formula_sum "Si O2"
_cell_formula_units_Z 24
_cell_length_a 23.200796
_cell_length_b 5.081405
_cell_length_c 16.304605
_cell_angle_alpha 90.000000
_cell_angle_beta 146.037919
_cell_angle_gamma 90.000000
_cell_volume 1073.821773
_symmetry_space_group_name_H-M "P 21/C"
_symmetry_group_IT_number 14
_symmetry_cell_setting 'monoclinic'
loop_
_space_group_symop_operation_xyz
x,y,z
-x,1/2+y,1/2-z
-x,-y,-z
x,1/2-y,1/2+z
loop_
_atom_site_type_symbol
_atom_site_label
_atom_site_fract_x
_atom_site_fract_y
_atom_site_fract_z
Si Si1 0.736650 0.272016 0.903944
Si Si2 0.435186 0.760686 0.171925
Si Si3 0.895445 0.833557 0.543038
Si Si4 0.240490 0.477719 0.718933
Si Si5 0.728747 0.486136 0.642162
Si Si6 0.112729 0.035811 0.807041
O O1 0.638834 0.349179 0.843370
O O2 0.696780 0.056351 0.790421
O O3 0.789122 0.498779 0.910740
O O4 0.829529 0.188985 0.073612
O O5 0.493989 0.499339 0.210152
O O6 0.374589 0.892855 0.025098
O O7 0.873369 0.598873 0.451885
O O8 0.907612 0.772586 0.654088
O O9 0.002258 0.957897 0.639269
O O10 0.298046 0.231904 0.830277
O O11 0.224853 0.728321 0.759395
O O12 0.813424 0.613240 0.680933
#
# Coordination Sequence:
#
# PCOD8127684 Si02
#       6
#     4   4   4   4   4   4
#     4  10  23  44  67  95 138 173 220 275 322 388
#     4  11  26  46  74  98 122 168 229 277 333 391
#     4  11  21  41  66  99 133 183 223 260 324 392
#     4  11  24  43  65  96 143 176 208 266 341 388
#     4  11  25  44  66  98 137 168 217 279 328 385
#     4  10  23  36  69  96 133 179 231 264 310 387
#
# _framework density 22.350076999999999
#
# number of rings (size 3 to 8) (size 9 to 14) (size 15 to 20)
#    0.000    1.333    3.333    1.000   11.667    1.333 
#    0.000    5.000    0.000    0.000    0.000    0.000 
#    0.000    0.000    0.000    0.000    0.000    0.000 
#
# Total GULP energy -297345.743553 kJ/mol
# GULP energy per Si atom -12389.405981 kJ/mol
# Density = 2.229921 g / cm^3
# Si number density = 22.350077 Si / 1000 Ang^3
#
#
#
# Elastic Constant Matrix: (Units=GPa)
#
#
# Indices 1 2 3 4 5 6 
#
# 1 66.9480 19.7632 46.1494 0.0000 9.2413 0.0000
# 2 19.7632 90.0563 21.5401 0.0000 2.5566 0.0000
# 3 46.1494 21.5401 81.5550 0.0000 -0.0896 0.0000
# 4 0.0000 0.0000 0.0000 41.8789 0.0000 -12.1444
# 5 9.2413 2.5566 -0.0896 0.0000 35.6276 0.0000
# 6 0.0000 0.0000 0.0000 -12.1444 0.0000 30.6679
#
#
#
# Elastic Compliance Matrix: (Units=1/GPa)
#
#
# Indices 1 2 3 4 5 6 
#
# 1 0.026424 -0.002166 -0.014388 0.000000 -0.006735 0.000000
# 2 -0.002166 0.012057 -0.001959 0.000000 -0.000308 0.000000
# 3 -0.014388 -0.001959 0.020925 0.000000 0.003925 0.000000
# 4 0.000000 0.000000 0.000000 0.026976 0.000000 0.010682
# 5 -0.006735 -0.000308 0.003925 0.000000 0.029847 0.000000
# 6 0.000000 0.000000 0.000000 0.010682 0.000000 0.036838
#
#
# Mechanical properties :
#
#
# Convention : Reuss Voigt Hill
#
# Bulk Modulus (GPa) = 44.68306 45.94052 45.31179
# Shear Modulus (GPa) = 25.30969 31.70866 28.50917
#
# Velocity S-wave (km/s) = 3.36880 3.77069 3.57539
# Velocity P-wave (km/s) = 5.93022 6.28944 6.11247
#
# Compressibility (1/GPa) = 0.02237985
#
# Stress axis : x y z
#
# Youngs Moduli (GPa) = 37.84422 82.94031 47.78977
#
# Poissons Ratio (x) = 0.17968 0.68759
# Poissons Ratio (y) = 0.08198 0.09362
# Poissons Ratio (z) = 0.54450 0.16247
#
# Static dielectric constant tensor:
#      x y z
#    x 3.975970 0.000000 -0.223900 
#    y 0.000000 4.063880 0.000000 
#    z -0.223900 0.000000 4.036430 
# 
# 
# High freq. dielectric constant tensor:
#      x y z
#    x 1.863700 0.000000 -0.019920 
#    y 0.000000 1.885260 0.000000 
#    z -0.019920 0.000000 1.877110 
# 
# From -- ./inp_files/49728.got.cif
#   From: 2010.03.12/outbox.cif.g09.slc.cpg/sg14_25_cif.got.tgz:49728.got - 2010.03.31 13:35:05.
