data_PCOD8127306
_publ_section_title
;
Structure prediction by ZEFSAII (Michael W. Deem and Ramdas Pophale) SiO2 
 PCOD8127306
Probable space group: P 21/C
;
_chemical_formula_sum "Si O2"
_cell_formula_units_Z 24
_cell_length_a 24.054712
_cell_length_b 4.893934
_cell_length_c 17.793104
_cell_angle_alpha 90.000000
_cell_angle_beta 151.103244
_cell_angle_gamma 90.000000
_cell_volume 1012.200168
_symmetry_space_group_name_H-M "P 21/C"
_symmetry_group_IT_number 14
_symmetry_cell_setting 'monoclinic'
loop_
_space_group_symop_operation_xyz
x,y,z
-x,1/2+y,1/2-z
-x,-y,-z
x,1/2-y,1/2+z
loop_
_atom_site_type_symbol
_atom_site_label
_atom_site_fract_x
_atom_site_fract_y
_atom_site_fract_z
Si Si1 0.423648 0.008901 0.588545
Si Si2 0.282664 0.987487 0.873745
Si Si3 0.867766 0.836026 0.177296
Si Si4 0.076352 0.008899 0.911455
Si Si5 0.217336 0.512511 0.126255
Si Si6 0.632234 0.663975 0.822704
O O1 0.325539 0.819133 0.436284
O O2 0.549189 0.922024 0.706325
O O3 0.388722 0.315021 0.523104
O O4 0.427864 0.969768 0.685242
O O5 0.165621 0.021029 0.784056
O O6 0.250000 0.044071 0.750000
O O7 0.950811 0.577976 0.293675
O O8 0.927865 0.030232 0.185243
O O9 0.750000 0.750001 1.000000
O O10 0.174460 0.819130 0.063715
O O11 0.111279 0.315018 0.976898
O O12 0.334379 0.478970 0.215944
#
# Coordination Sequence:
#
# PCOD8127306 Si02
#       6
#     4   4   4   4   4   4
#     4  11  23  41  65  93 124 165 210 253 307 368
#     4  11  25  42  63  94 129 164 204 255 313 370
#     4  10  22  41  66  92 124 162 210 258 304 366
#     4  11  23  41  65  93 124 165 210 253 307 368
#     4  11  25  42  63  94 129 164 204 255 313 370
#     4  10  22  41  66  92 124 162 210 258 304 366
#
# _framework density 23.710725
#
# number of rings (size 3 to 8) (size 9 to 14) (size 15 to 20)
#    0.000    1.333    0.000    6.000    0.000   10.667 
#    0.000    0.000    0.000    0.000    0.000    0.000 
#    0.000    0.000    0.000    0.000    0.000    0.000 
#
# Total GULP energy -297570.619170 kJ/mol
# GULP energy per Si atom -12398.775799 kJ/mol
# Density = 2.365676 g / cm^3
# Si number density = 23.710725 Si / 1000 Ang^3
#
#
#
# Elastic Constant Matrix: (Units=GPa)
#
#
# Indices 1 2 3 4 5 6 
#
# 1 123.7170 -2.4883 37.0635 0.0000 -22.0964 0.0000
# 2 -2.4883 49.9446 -0.2680 0.0000 -5.4992 0.0000
# 3 37.0635 -0.2680 78.6343 0.0000 -7.4117 0.0000
# 4 0.0000 0.0000 0.0000 33.5260 0.0000 3.1270
# 5 -22.0964 -5.4992 -7.4117 0.0000 46.7704 0.0000
# 6 0.0000 0.0000 0.0000 3.1270 0.0000 17.0080
#
#
#
# Elastic Compliance Matrix: (Units=1/GPa)
#
#
# Indices 1 2 3 4 5 6 
#
# 1 0.010172 0.000948 -0.004393 0.000000 0.004221 0.000000
# 2 0.000948 0.020380 -0.000111 0.000000 0.002827 0.000000
# 3 -0.004393 -0.000111 0.014812 0.000000 0.000259 0.000000
# 4 0.000000 0.000000 0.000000 0.030348 0.000000 -0.005580
# 5 0.004221 0.002827 0.000259 0.000000 0.023749 0.000000
# 6 0.000000 0.000000 0.000000 -0.005580 0.000000 0.059822
#
#
# Mechanical properties :
#
#
# Convention : Reuss Voigt Hill
#
# Bulk Modulus (GPa) = 26.14297 35.65671 30.89984
# Shear Modulus (GPa) = 27.91026 33.99346 30.95186
#
# Velocity S-wave (km/s) = 3.43463 3.79050 3.61694
# Velocity P-wave (km/s) = 5.17481 5.85047 5.52298
#
# Compressibility (1/GPa) = 0.03825120
#
# Stress axis : x y z
#
# Youngs Moduli (GPa) = 98.30788 49.06761 67.51326
#
# Poissons Ratio (x) = -0.04651 0.29662
# Poissons Ratio (y) = -0.09319 0.00749
# Poissons Ratio (z) = 0.43191 0.00544
#
# Static dielectric constant tensor:
#      x y z
#    x 5.299370 0.000000 0.404550 
#    y 0.000000 4.096170 0.000000 
#    z 0.404550 0.000000 4.143040 
# 
# 
# High freq. dielectric constant tensor:
#      x y z
#    x 1.936800 0.000000 0.016040 
#    y 0.000000 1.934510 0.000000 
#    z 0.016040 0.000000 1.945560 
# 
# From -- ./inp_files/61608.got.cif
#   From: 2010.03.12/outbox.cif.g09.slc.cpg/sg14_31_cif.got.tgz:61608.got - 2010.03.31 13:35:05.
