data_PCOD8127833
_publ_section_title
;
Structure prediction by ZEFSAII (Michael W. Deem and Ramdas Pophale) SiO2 
 PCOD8127833
Probable space group: P 21/C
;
_chemical_formula_sum "Si O2"
_cell_formula_units_Z 32
_cell_length_a 9.202480
_cell_length_b 22.271402
_cell_length_c 12.373093
_cell_angle_alpha 90.000000
_cell_angle_beta 144.303030
_cell_angle_gamma 90.000000
_cell_volume 1479.688455
_symmetry_space_group_name_H-M "P 21/C"
_symmetry_group_IT_number 14
_symmetry_cell_setting 'monoclinic'
loop_
_space_group_symop_operation_xyz
x,y,z
-x,1/2+y,1/2-z
-x,-y,-z
x,1/2-y,1/2+z
loop_
_atom_site_type_symbol
_atom_site_label
_atom_site_fract_x
_atom_site_fract_y
_atom_site_fract_z
Si Si1 0.263065 0.512886 0.532269
Si Si2 0.516502 0.739461 0.835924
Si Si3 0.888742 0.086497 0.865696
Si Si4 0.052154 0.788769 0.185044
Si Si5 0.042353 0.540315 0.189877
Si Si6 0.269221 0.944723 0.608154
Si Si7 0.590579 0.175926 0.421944
Si Si8 0.611666 0.623377 0.998368
O O1 0.147737 0.567160 0.532106
O O2 0.272676 0.532153 0.412055
O O3 0.530959 0.495962 0.740728
O O4 0.085269 0.455623 0.426510
O O5 0.482772 0.767169 0.696429
O O6 0.555521 0.667032 0.860724
O O7 0.269113 0.753971 0.760710
O O8 0.782780 0.760843 0.044404
O O9 0.628940 0.079536 0.642118
O O10 0.988621 0.154661 0.919900
O O11 0.148865 0.809501 0.361375
O O12 0.128995 0.573014 0.133538
O O13 0.918443 0.475616 0.089675
O O14 0.857095 0.585201 0.138343
O O15 0.389339 0.884221 0.636800
O O16 0.380604 0.163704 0.387091
#
# Coordination Sequence:
#
# PCOD8127833 Si02
#       8
#     4   4   4   4   4   4   4   4
#     4  11  21  37  65  95 123 173 204 260 312 383
#     4  10  23  42  66  91 131 162 222 271 320 383
#     4   9  20  38  63  94 124 155 215 258 303 383
#     4  10  23  44  61  99 126 166 216 273 320 389
#     4  11  24  40  61  93 137 166 205 264 327 384
#     4  11  24  41  62  97 131 168 209 266 319 388
#     4  10  23  42  69  92 124 174 215 266 321 384
#     4  10  23  44  62  95 126 168 210 266 323 380
#
# _framework density 21.626173999999999
#
# number of rings (size 3 to 8) (size 9 to 14) (size 15 to 20)
#    0.000    2.000    1.250    2.625    7.000    3.000 
#    2.250    0.000    0.000    0.000    0.000    0.000 
#    0.000    0.000    0.000    0.000    0.000    0.000 
#
# Total GULP energy -396550.075144 kJ/mol
# GULP energy per Si atom -12392.189848 kJ/mol
# Density = 2.157695 g / cm^3
# Si number density = 21.626174 Si / 1000 Ang^3
#
#
#
# Elastic Constant Matrix: (Units=GPa)
#
#
# Indices 1 2 3 4 5 6 
#
# 1 88.1411 33.9363 31.7728 0.0000 -2.1358 0.0000
# 2 33.9363 47.4762 17.8817 0.0000 2.1375 0.0000
# 3 31.7728 17.8817 82.8116 0.0000 -10.3597 0.0000
# 4 0.0000 0.0000 0.0000 26.1998 0.0000 0.0839
# 5 -2.1358 2.1375 -10.3597 0.0000 37.0447 0.0000
# 6 0.0000 0.0000 0.0000 0.0839 0.0000 28.3057
#
#
#
# Elastic Compliance Matrix: (Units=1/GPa)
#
#
# Indices 1 2 3 4 5 6 
#
# 1 0.016915 -0.010542 -0.004161 0.000000 0.000420 0.000000
# 2 -0.010542 0.029784 -0.002774 0.000000 -0.003102 0.000000
# 3 -0.004161 -0.002774 0.014778 0.000000 0.004053 0.000000
# 4 0.000000 0.000000 0.000000 0.038169 0.000000 -0.000113
# 5 0.000420 -0.003102 0.004053 0.000000 0.028331 0.000000
# 6 0.000000 0.000000 0.000000 -0.000113 0.000000 0.035329
#
#
# Mechanical properties :
#
#
# Convention : Reuss Voigt Hill
#
# Bulk Modulus (GPa) = 37.70588 42.84560 40.27574
# Shear Modulus (GPa) = 24.14291 27.29926 25.72108
#
# Velocity S-wave (km/s) = 3.34484 3.55678 3.45244
# Velocity P-wave (km/s) = 5.69126 6.05991 5.87847
#
# Compressibility (1/GPa) = 0.02652106
#
# Stress axis : x y z
#
# Youngs Moduli (GPa) = 59.12086 33.57554 67.66776
#
# Poissons Ratio (x) = 0.35397 0.28155
# Poissons Ratio (y) = 0.62327 0.18774
# Poissons Ratio (z) = 0.24598 0.09315
#
# Static dielectric constant tensor:
#      x y z
#    x 3.936650 0.000000 0.056090 
#    y 0.000000 3.780010 0.000000 
#    z 0.056090 0.000000 3.949370 
# 
# 
# High freq. dielectric constant tensor:
#      x y z
#    x 1.844140 0.000000 0.001350 
#    y 0.000000 1.835460 0.000000 
#    z 0.001350 0.000000 1.853750 
# 
# From -- ./inp_files/27046.got.cif
#   From: 2010.03.12/outbox.cif.g09.slc.cpg/sg14_14_cif.got.tgz:27046.got - 2010.03.31 13:35:05.
