data_PCOD8127944
_publ_section_title
;
Structure prediction by ZEFSAII (Michael W. Deem and Ramdas Pophale) SiO2 
 PCOD8127944
Probable space group: P 21/C
;
_chemical_formula_sum "Si O2"
_cell_formula_units_Z 20
_cell_length_a 10.579291
_cell_length_b 8.985652
_cell_length_c 7.966931
_cell_angle_alpha 90.000000
_cell_angle_beta 108.342697
_cell_angle_gamma 90.000000
_cell_volume 718.870942
_symmetry_space_group_name_H-M "P 21/C"
_symmetry_group_IT_number 14
_symmetry_cell_setting 'monoclinic'
loop_
_space_group_symop_operation_xyz
x,y,z
-x,1/2+y,1/2-z
-x,-y,-z
x,1/2-y,1/2+z
loop_
_atom_site_type_symbol
_atom_site_label
_atom_site_fract_x
_atom_site_fract_y
_atom_site_fract_z
Si Si1 0.057962 0.626424 0.905763
Si Si2 0.222388 0.121056 0.843707
Si Si3 0.520049 0.776294 0.472421
Si Si4 0.407831 0.959872 0.708406
Si Si5 0.138465 0.927522 0.093940
O O1 0.924959 0.688325 0.750349
O O2 0.161783 0.566716 0.805768
O O3 0.000000 0.500000 0.000000
O O4 0.135644 0.754769 0.036843
O O5 0.258254 0.008810 0.701649
O O6 0.329053 0.257168 0.892306
O O7 0.239398 0.027853 0.025793
O O8 0.414231 0.841118 0.561312
O O9 0.474606 0.612605 0.400147
O O10 0.515213 0.889174 0.312194
O O11 0.000000 0.000000 0.000000
#
# Coordination Sequence:
#
# PCOD8127944 Si02
#       5
#     4   4   4   4   4
#     4  11  25  48  71 111 148 187 249 302 359 450
#     4  11  25  46  78 107 147 204 236 305 390 424
#     4  11  25  48  72 109 150 193 252 310 365 455
#     4  11  25  47  73 108 148 194 253 308 366 452
#     4  10  23  43  71 105 146 186 242 298 351 448
#
# _framework density 27.821408000000002
#
# number of rings (size 3 to 8) (size 9 to 14) (size 15 to 20)
#    0.000    1.200    2.000    3.000    5.600    3.200 
#    7.200    0.000    0.000    0.000    0.000    0.000 
#    0.000    0.000    0.000    0.000    0.000    0.000 
#
# Total GULP energy -247826.857465 kJ/mol
# GULP energy per Si atom -12391.342873 kJ/mol
# Density = 2.775809 g / cm^3
# Si number density = 27.821408 Si / 1000 Ang^3
#
#
#
# Elastic Constant Matrix: (Units=GPa)
#
#
# Indices 1 2 3 4 5 6 
#
# 1 84.7519 12.0680 22.1988 0.0000 -26.2290 0.0000
# 2 12.0680 113.0975 34.0757 0.0000 -18.3691 0.0000
# 3 22.1988 34.0757 91.9413 0.0000 -52.1987 0.0000
# 4 0.0000 0.0000 0.0000 55.4543 0.0000 -9.8600
# 5 -26.2290 -18.3691 -52.1987 0.0000 61.2533 0.0000
# 6 0.0000 0.0000 0.0000 -9.8600 0.0000 40.0811
#
#
#
# Elastic Compliance Matrix: (Units=1/GPa)
#
#
# Indices 1 2 3 4 5 6 
#
# 1 0.013635 -0.000579 0.000269 0.000000 0.005894 0.000000
# 2 -0.000579 0.009981 -0.003876 0.000000 -0.000558 0.000000
# 3 0.000269 -0.003876 0.022576 0.000000 0.018192 0.000000
# 4 0.000000 0.000000 0.000000 0.018858 0.000000 0.004639
# 5 0.005894 -0.000558 0.018192 0.000000 0.034185 0.000000
# 6 0.000000 0.000000 0.000000 0.004639 0.000000 0.026091
#
#
# Mechanical properties :
#
#
# Convention : Reuss Voigt Hill
#
# Bulk Modulus (GPa) = 26.44084 47.38619 36.91352
# Shear Modulus (GPa) = 34.17520 46.12093 40.14806
#
# Velocity S-wave (km/s) = 3.50862 4.07596 3.80289
# Velocity P-wave (km/s) = 5.09297 6.26263 5.70784
#
# Compressibility (1/GPa) = 0.03782028
#
# Stress axis : x y z
#
# Youngs Moduli (GPa) = 73.33918 100.19102 44.29402
#
# Poissons Ratio (x) = 0.05797 -0.01189
# Poissons Ratio (y) = 0.04243 0.17169
# Poissons Ratio (z) = -0.01969 0.38835
#
# Static dielectric constant tensor:
#      x y z
#    x 6.042740 0.000000 -3.011950 
#    y 0.000000 5.554660 0.000000 
#    z -3.011950 0.000000 11.657300 
# 
# 
# High freq. dielectric constant tensor:
#      x y z
#    x 2.118820 0.000000 -0.030620 
#    y 0.000000 2.123050 0.000000 
#    z -0.030620 0.000000 2.128170 
# 
# From -- ./inp_files/11905.got.cif
#   From: 2010.03.12/outbox.cif.g09.slc.cpg/sg14_6_cif.got.tgz:11905.got - 2010.03.31 13:35:05.
