data_PCOD8127358
_publ_section_title
;
Structure prediction by ZEFSAII (Michael W. Deem and Ramdas Pophale) SiO2 
 PCOD8127358
Probable space group: P 21/C
;
_chemical_formula_sum "Si O2"
_cell_formula_units_Z 28
_cell_length_a 8.059289
_cell_length_b 5.067657
_cell_length_c 31.895762
_cell_angle_alpha 90.000000
_cell_angle_beta 89.024646
_cell_angle_gamma 90.000000
_cell_volume 1302.488791
_symmetry_space_group_name_H-M "P 21/C"
_symmetry_group_IT_number 14
_symmetry_cell_setting 'monoclinic'
loop_
_space_group_symop_operation_xyz
x,y,z
-x,1/2+y,1/2-z
-x,-y,-z
x,1/2-y,1/2+z
loop_
_atom_site_type_symbol
_atom_site_label
_atom_site_fract_x
_atom_site_fract_y
_atom_site_fract_z
Si Si1 0.570747 0.757716 0.400873
Si Si2 0.839300 0.727665 0.964393
Si Si3 0.953543 0.780071 0.053065
Si Si4 0.254602 0.009932 0.376383
Si Si5 0.958058 0.357536 0.195820
Si Si6 0.837283 0.143729 0.785967
Si Si7 0.427945 0.740229 0.150348
O O1 0.653878 0.759714 0.446377
O O2 0.372349 0.821424 0.404900
O O3 0.606753 0.476483 0.381078
O O4 0.655738 0.980654 0.370588
O O5 0.905666 0.433822 0.957199
O O6 0.829154 0.797110 0.013718
O O7 0.961119 0.935204 0.940221
O O8 0.852343 0.705206 0.094760
O O9 0.142732 0.825914 0.346981
O O10 0.373797 0.190389 0.345888
O O11 0.036059 0.647147 0.195045
O O12 0.832053 0.330172 0.235745
O O13 0.102361 0.141638 0.198729
O O14 0.652268 0.198591 0.804106
#
# Coordination Sequence:
#
# PCOD8127358 Si02
#       7
#     4   4   4   4   4   4   4
#     4  10  23  39  59  92 124 164 203 243 315 371
#     4  10  22  42  61  93 119 171 203 251 311 363
#     4  10  23  39  66  89 127 157 213 256 300 364
#     4  10  26  39  62  98 122 162 203 261 306 364
#     4  10  23  40  66  91 120 159 213 255 301 366
#     4  10  22  43  62  90 122 165 205 252 309 367
#     4  10  23  40  58  93 123 164 198 249 312 370
#
# _framework density 21.497305999999998
#
# number of rings (size 3 to 8) (size 9 to 14) (size 15 to 20)
#    0.857    1.143    0.000    1.714   10.000    0.571 
#    2.571    0.714    0.000    0.000    0.000    0.000 
#    0.000    0.000    0.000    0.000    0.000    0.000 
#
# Total GULP energy -347109.710377 kJ/mol
# GULP energy per Si atom -12396.775371 kJ/mol
# Density = 2.144838 g / cm^3
# Si number density = 21.497306 Si / 1000 Ang^3
#
#
#
# Elastic Constant Matrix: (Units=GPa)
#
#
# Indices 1 2 3 4 5 6 
#
# 1 62.4814 -3.9303 43.4094 0.0000 6.0323 0.0000
# 2 -3.9303 83.8275 4.0806 0.0000 7.0021 0.0000
# 3 43.4094 4.0806 81.6880 0.0000 6.0094 0.0000
# 4 0.0000 0.0000 0.0000 25.7597 0.0000 -1.7680
# 5 6.0323 7.0021 6.0094 0.0000 35.2849 0.0000
# 6 0.0000 0.0000 0.0000 -1.7680 0.0000 20.8805
#
#
#
# Elastic Compliance Matrix: (Units=1/GPa)
#
#
# Indices 1 2 3 4 5 6 
#
# 1 0.025876 0.002088 -0.013670 0.000000 -0.002510 0.000000
# 2 0.002088 0.012314 -0.001538 0.000000 -0.002539 0.000000
# 3 -0.013670 -0.001538 0.019635 0.000000 -0.000702 0.000000
# 4 0.000000 0.000000 0.000000 0.039047 0.000000 0.003306
# 5 -0.002510 -0.002539 -0.000702 0.000000 0.029393 0.000000
# 6 0.000000 0.000000 0.000000 0.003306 0.000000 0.048171
#
#
# Mechanical properties :
#
#
# Convention : Reuss Voigt Hill
#
# Bulk Modulus (GPa) = 31.66108 35.01294 33.33701
# Shear Modulus (GPa) = 23.67370 28.68084 26.17727
#
# Velocity S-wave (km/s) = 3.32209 3.65658 3.49334
# Velocity P-wave (km/s) = 5.42909 5.84379 5.64025
#
# Compressibility (1/GPa) = 0.03158452
#
# Stress axis : x y z
#
# Youngs Moduli (GPa) = 38.64588 81.20771 50.93049
#
# Poissons Ratio (x) = -0.16959 0.69623
# Poissons Ratio (y) = -0.08070 0.07834
# Poissons Ratio (z) = 0.52830 0.12491
#
# Static dielectric constant tensor:
#      x y z
#    x 3.602290 0.000000 -0.029720 
#    y 0.000000 3.959070 0.000000 
#    z -0.029720 0.000000 3.757620 
# 
# 
# High freq. dielectric constant tensor:
#      x y z
#    x 1.820590 0.000000 0.000870 
#    y 0.000000 1.859700 0.000000 
#    z 0.000870 0.000000 1.830920 
# 
# From -- ./inp_files/79027.got.cif
#   From: 2010.03.12/outbox.cif.g09.slc.cpg/sg14_40_cif.got.tgz:79027.got - 2010.03.31 13:35:05.
