data_PCOD8127600
_publ_section_title
;
Structure prediction by ZEFSAII (Michael W. Deem and Ramdas Pophale) SiO2 
 PCOD8127600
Probable space group: P 21/C
;
_chemical_formula_sum "Si O2"
_cell_formula_units_Z 24
_cell_length_a 9.256528
_cell_length_b 7.971219
_cell_length_c 14.144942
_cell_angle_alpha 90.000000
_cell_angle_beta 89.826052
_cell_angle_gamma 90.000000
_cell_volume 1043.691219
_symmetry_space_group_name_H-M "P 21/C"
_symmetry_group_IT_number 14
_symmetry_cell_setting 'monoclinic'
loop_
_space_group_symop_operation_xyz
x,y,z
-x,1/2+y,1/2-z
-x,-y,-z
x,1/2-y,1/2+z
loop_
_atom_site_type_symbol
_atom_site_label
_atom_site_fract_x
_atom_site_fract_y
_atom_site_fract_z
Si Si1 0.127185 0.388918 0.538899
Si Si2 0.064754 0.816197 0.798584
Si Si3 0.641091 0.301568 0.148171
Si Si4 0.455509 0.335793 0.800997
Si Si5 0.844626 0.807031 0.163856
Si Si6 0.614775 0.375996 0.457251
O O1 0.180822 0.278270 0.449046
O O2 0.250837 0.511983 0.578481
O O3 0.000000 0.500000 0.500000
O O4 0.061478 0.276956 0.623694
O O5 0.197587 0.686273 0.807746
O O6 0.987046 0.794499 0.697318
O O7 0.132908 0.999234 0.809913
O O8 0.560316 0.478275 0.158237
O O9 0.540618 0.162227 0.200799
O O10 0.661304 0.253934 0.038820
O O11 0.299116 0.254856 0.784074
O O12 0.554762 0.225487 0.869313
O O13 0.500000 0.500000 0.500000
#
# Coordination Sequence:
#
# PCOD8127600 Si02
#       6
#     4   4   4   4   4   4
#     4  10  22  44  70  95 137 181 226 279 353 413
#     4  11  24  43  71  99 141 188 235 289 350 423
#     4  12  26  46  67 105 138 186 241 293 353 420
#     4  12  27  43  71 102 140 187 238 297 353 418
#     4  11  23  44  66 104 135 185 233 284 352 416
#     4  12  23  46  72  98 139 183 230 292 355 422
#
# _framework density 22.995307
#
# number of rings (size 3 to 8) (size 9 to 14) (size 15 to 20)
#    0.000    0.667    5.000    3.500    9.333    0.000 
#    0.000    3.333    0.000    0.000    0.000    0.000 
#    0.000    0.000    0.000    0.000    0.000    0.000 
#
# Total GULP energy -297631.144693 kJ/mol
# GULP energy per Si atom -12401.297696 kJ/mol
# Density = 2.294297 g / cm^3
# Si number density = 22.995307 Si / 1000 Ang^3
#
#
#
# Elastic Constant Matrix: (Units=GPa)
#
#
# Indices 1 2 3 4 5 6 
#
# 1 132.4904 20.6375 9.1936 0.0000 2.9514 0.0000
# 2 20.6375 62.3296 12.4814 0.0000 -1.0537 0.0000
# 3 9.1936 12.4814 51.0641 0.0000 -1.5997 0.0000
# 4 0.0000 0.0000 0.0000 28.1623 0.0000 4.1922
# 5 2.9514 -1.0537 -1.5997 0.0000 39.8556 0.0000
# 6 0.0000 0.0000 0.0000 4.1922 0.0000 47.4366
#
#
#
# Elastic Compliance Matrix: (Units=1/GPa)
#
#
# Indices 1 2 3 4 5 6 
#
# 1 0.008011 -0.002493 -0.000855 0.000000 -0.000693 0.000000
# 2 -0.002493 0.017648 -0.003849 0.000000 0.000497 0.000000
# 3 -0.000855 -0.003849 0.020703 0.000000 0.000792 0.000000
# 4 0.000000 0.000000 0.000000 0.035982 0.000000 -0.003180
# 5 -0.000693 0.000497 0.000792 0.000000 0.025187 0.000000
# 6 0.000000 0.000000 0.000000 -0.003180 0.000000 0.021362
#
#
# Mechanical properties :
#
#
# Convention : Reuss Voigt Hill
#
# Bulk Modulus (GPa) = 31.28120 36.72324 34.00222
# Shear Modulus (GPa) = 32.47967 36.66233 34.57100
#
# Velocity S-wave (km/s) = 3.76233 3.99725 3.88157
# Velocity P-wave (km/s) = 5.70143 6.10807 5.90825
#
# Compressibility (1/GPa) = 0.03196808
#
# Stress axis : x y z
#
# Youngs Moduli (GPa) = 124.83164 56.66236 48.30266
#
# Poissons Ratio (x) = 0.14126 0.04128
# Poissons Ratio (y) = 0.31120 0.18593
# Poissons Ratio (z) = 0.10669 0.21811
#
# Static dielectric constant tensor:
#      x y z
#    x 4.436050 0.000000 -0.356080 
#    y 0.000000 3.886890 0.000000 
#    z -0.356080 0.000000 5.235840 
# 
# 
# High freq. dielectric constant tensor:
#      x y z
#    x 1.931630 0.000000 0.001590 
#    y 0.000000 1.886230 0.000000 
#    z 0.001590 0.000000 1.911530 
# 
# From -- ./inp_files/38998.got.cif
#   From: 2010.03.12/outbox.cif.g09.slc.cpg/sg14_20_cif.got.tgz:38998.got - 2010.03.31 13:35:05.
