data_PCOD8127273
_publ_section_title
;
Structure prediction by ZEFSAII (Michael W. Deem and Ramdas Pophale) SiO2 
 PCOD8127273
Probable space group: P 21/C
;
_chemical_formula_sum "Si O2"
_cell_formula_units_Z 32
_cell_length_a 8.369737
_cell_length_b 12.491330
_cell_length_c 16.929574
_cell_angle_alpha 90.000000
_cell_angle_beta 61.653870
_cell_angle_gamma 90.000000
_cell_volume 1557.744619
_symmetry_space_group_name_H-M "P 21/C"
_symmetry_group_IT_number 14
_symmetry_cell_setting 'monoclinic'
loop_
_space_group_symop_operation_xyz
x,y,z
-x,1/2+y,1/2-z
-x,-y,-z
x,1/2-y,1/2+z
loop_
_atom_site_type_symbol
_atom_site_label
_atom_site_fract_x
_atom_site_fract_y
_atom_site_fract_z
Si Si1 0.478326 0.128366 0.511568
Si Si2 0.235093 0.788069 0.878098
Si Si3 0.200732 0.276679 0.348515
Si Si4 0.672070 0.987228 0.905703
Si Si5 0.553399 0.581311 0.260395
Si Si6 0.512673 0.616617 0.810688
Si Si7 0.793365 0.286781 0.429368
Si Si8 0.823420 0.786633 0.963439
O O1 0.459261 0.153500 0.607348
O O2 0.650277 0.194494 0.434066
O O3 0.292197 0.177080 0.520211
O O4 0.500000 0.000000 0.500000
O O5 0.340010 0.891833 0.820802
O O6 0.351510 0.690479 0.815821
O O7 0.237824 0.802615 0.971143
O O8 0.033716 0.768203 0.893049
O O9 0.323053 0.175763 0.299756
O O10 0.295317 0.373812 0.279739
O O11 0.199403 0.315603 0.439355
O O12 0.999008 0.248573 0.365223
O O13 0.629925 0.967446 0.823854
O O14 0.776907 0.100248 0.887404
O O15 0.772024 0.883952 0.918201
O O16 0.500000 0.000000 0.000000
O O17 0.561620 0.501970 0.184212
#
# Coordination Sequence:
#
# PCOD8127273 Si02
#       8
#     4   4   4   4   4   4   4   4
#     4  11  23  43  64  87 123 170 215 250 304 385
#     4   9  21  39  63  86 121 164 206 250 312 378
#     4  10  23  40  61  93 125 157 205 262 320 367
#     4  12  21  39  67  92 125 163 213 260 309 376
#     4  11  22  42  61  91 130 167 201 262 322 366
#     4  10  22  42  59  87 126 163 197 259 317 365
#     4  10  22  41  63  89 124 165 210 260 309 375
#     4  11  22  39  66  94 116 163 216 254 307 383
#
# _framework density 20.54252
#
# number of rings (size 3 to 8) (size 9 to 14) (size 15 to 20)
#    0.000    1.500    2.500    3.000    1.750    2.000 
#    6.750    3.750    0.000    0.000    0.000    0.000 
#    0.000    0.000    0.000    0.000    0.000    0.000 
#
# Total GULP energy -396463.931342 kJ/mol
# GULP energy per Si atom -12389.497854 kJ/mol
# Density = 2.049576 g / cm^3
# Si number density = 20.542520 Si / 1000 Ang^3
#
#
#
# Elastic Constant Matrix: (Units=GPa)
#
#
# Indices 1 2 3 4 5 6 
#
# 1 126.4837 41.4463 34.3270 0.0000 -30.6173 0.0000
# 2 41.4463 116.7209 12.2913 0.0000 -15.3488 0.0000
# 3 34.3270 12.2913 66.9244 0.0000 -24.0704 0.0000
# 4 0.0000 0.0000 0.0000 26.5040 0.0000 9.8916
# 5 -30.6173 -15.3488 -24.0704 0.0000 29.8826 0.0000
# 6 0.0000 0.0000 0.0000 9.8916 0.0000 27.9527
#
#
#
# Elastic Compliance Matrix: (Units=1/GPa)
#
#
# Indices 1 2 3 4 5 6 
#
# 1 0.011486 -0.002716 -0.002339 0.000000 0.008489 0.000000
# 2 -0.002716 0.009830 0.000567 0.000000 0.002723 0.000000
# 3 -0.002339 0.000567 0.021513 0.000000 0.015223 0.000000
# 4 0.000000 0.000000 0.000000 0.043471 0.000000 -0.015383
# 5 0.008489 0.002723 0.015223 0.000000 0.055823 0.000000
# 6 0.000000 0.000000 0.000000 -0.015383 0.000000 0.041218
#
#
# Mechanical properties :
#
#
# Convention : Reuss Voigt Hill
#
# Bulk Modulus (GPa) = 29.53939 54.02870 41.78404
# Shear Modulus (GPa) = 24.55760 31.67215 28.11487
#
# Velocity S-wave (km/s) = 3.46128 3.93082 3.70350
# Velocity P-wave (km/s) = 5.51224 6.85272 6.21870
#
# Compressibility (1/GPa) = 0.03385310
#
# Stress axis : x y z
#
# Youngs Moduli (GPa) = 87.06362 101.72715 46.48284
#
# Poissons Ratio (x) = 0.27628 0.10874
# Poissons Ratio (y) = 0.23645 -0.02636
# Poissons Ratio (z) = 0.20367 -0.05769
#
# Static dielectric constant tensor:
#      x y z
#    x 4.130520 0.000000 -0.013250 
#    y 0.000000 4.074660 0.000000 
#    z -0.013250 0.000000 3.820860 
# 
# 
# High freq. dielectric constant tensor:
#      x y z
#    x 1.804510 0.000000 -0.007150 
#    y 0.000000 1.808090 0.000000 
#    z -0.007150 0.000000 1.803520 
# 
# From -- ./inp_files/55599.got.cif
#   From: 2010.03.12/outbox.cif.g09.slc.cpg/sg14_28_cif.got.tgz:55599.got - 2010.03.31 13:35:05.
