data_PCOD8127564
_publ_section_title
;
Structure prediction by ZEFSAII (Michael W. Deem and Ramdas Pophale) SiO2 
 PCOD8127564
Probable space group: P 21/C
;
_chemical_formula_sum "Si O2"
_cell_formula_units_Z 28
_cell_length_a 9.100661
_cell_length_b 16.185609
_cell_length_c 9.491840
_cell_angle_alpha 90.000000
_cell_angle_beta 69.712522
_cell_angle_gamma 90.000000
_cell_volume 1311.411239
_symmetry_space_group_name_H-M "P 21/C"
_symmetry_group_IT_number 14
_symmetry_cell_setting 'monoclinic'
loop_
_space_group_symop_operation_xyz
x,y,z
-x,1/2+y,1/2-z
-x,-y,-z
x,1/2-y,1/2+z
loop_
_atom_site_type_symbol
_atom_site_label
_atom_site_fract_x
_atom_site_fract_y
_atom_site_fract_z
Si Si1 0.742493 0.384311 0.863901
Si Si2 0.487671 0.798654 0.754882
Si Si3 0.411244 0.583090 0.507091
Si Si4 0.001026 0.752560 0.285613
Si Si5 0.177283 0.497230 0.394283
Si Si6 0.265360 0.844514 0.331071
Si Si7 0.793515 0.808965 0.099073
O O1 0.575002 0.353705 0.856187
O O2 0.800050 0.469102 0.772131
O O3 0.871507 0.313016 0.807062
O O4 0.728596 0.404835 0.035204
O O5 0.522455 0.854955 0.880901
O O6 0.346467 0.740341 0.853031
O O7 0.641607 0.748428 0.661921
O O8 0.500000 0.500000 0.500000
O O9 0.256343 0.564754 0.469123
O O10 0.368746 0.619313 0.671683
O O11 0.918398 0.792123 0.178835
O O12 0.871139 0.708844 0.423540
O O13 0.087313 0.826765 0.341282
O O14 0.253086 0.405956 0.380880
O O15 0.000000 0.500000 0.500000
#
# Coordination Sequence:
#
# PCOD8127564 Si02
#       7
#     4   4   4   4   4   4   4
#     4  10  22  44  65  97 130 181 219 269 335 408
#     4  10  24  41  68  94 133 176 226 274 328 395
#     4  11  25  45  67  95 134 181 219 275 346 398
#     4  11  23  41  68  97 132 170 223 274 331 392
#     4  11  23  43  68  94 137 176 214 273 349 398
#     4  11  22  43  68  93 127 179 227 267 326 406
#     4  12  25  42  67 104 133 170 227 283 330 396
#
# _framework density 21.351044999999999
#
# number of rings (size 3 to 8) (size 9 to 14) (size 15 to 20)
#    0.000    1.143    2.857    3.429    8.000    0.000 
#    2.571    3.571    0.000    0.000    0.000    0.000 
#    0.000    0.000    0.000    0.000    0.000    0.000 
#
# Total GULP energy -347266.917081 kJ/mol
# GULP energy per Si atom -12402.389896 kJ/mol
# Density = 2.130245 g / cm^3
# Si number density = 21.351045 Si / 1000 Ang^3
#
#
#
# Elastic Constant Matrix: (Units=GPa)
#
#
# Indices 1 2 3 4 5 6 
#
# 1 83.4796 19.7056 22.2074 0.0000 -10.3079 0.0000
# 2 19.7056 96.6329 35.5290 0.0000 -2.9106 0.0000
# 3 22.2074 35.5290 131.7592 0.0000 5.9583 0.0000
# 4 0.0000 0.0000 0.0000 34.8185 0.0000 -1.0330
# 5 -10.3079 -2.9106 5.9583 0.0000 17.6668 0.0000
# 6 0.0000 0.0000 0.0000 -1.0330 0.0000 34.4150
#
#
#
# Elastic Compliance Matrix: (Units=1/GPa)
#
#
# Indices 1 2 3 4 5 6 
#
# 1 0.014079 -0.001767 -0.002290 0.000000 0.008696 0.000000
# 2 -0.001767 0.011866 -0.002989 0.000000 0.001932 0.000000
# 3 -0.002290 -0.002989 0.009002 0.000000 -0.004864 0.000000
# 4 0.000000 0.000000 0.000000 0.028746 0.000000 0.000863
# 5 0.008696 0.001932 -0.004864 0.000000 0.063636 0.000000
# 6 0.000000 0.000000 0.000000 0.000863 0.000000 0.029083
#
#
# Mechanical properties :
#
#
# Convention : Reuss Voigt Hill
#
# Bulk Modulus (GPa) = 47.95162 51.86173 49.90667
# Shear Modulus (GPa) = 28.17619 33.00870 30.59245
#
# Velocity S-wave (km/s) = 3.63666 3.93619 3.78938
# Velocity P-wave (km/s) = 6.33570 6.70827 6.52464
#
# Compressibility (1/GPa) = 0.02085435
#
# Stress axis : x y z
#
# Youngs Moduli (GPa) = 71.02803 84.27398 111.09244
#
# Poissons Ratio (x) = 0.14894 0.25436
# Poissons Ratio (y) = 0.12553 0.33208
# Poissons Ratio (z) = 0.16263 0.25191
#
# Static dielectric constant tensor:
#      x y z
#    x 4.047290 0.000000 0.349390 
#    y 0.000000 4.606760 0.000000 
#    z 0.349390 0.000000 4.016280 
# 
# 
# High freq. dielectric constant tensor:
#      x y z
#    x 1.843870 0.000000 0.010010 
#    y 0.000000 1.829460 0.000000 
#    z 0.010010 0.000000 1.845340 
# 
# From -- ./inp_files/9395.got.cif
#   From: 2010.03.12/outbox.cif.g09.slc.cpg/sg14_5_cif.got.tgz:9395.got - 2010.03.31 13:35:05.
