data_PCOD8127478
_publ_section_title
;
Structure prediction by ZEFSAII (Michael W. Deem and Ramdas Pophale) SiO2 
 PCOD8127478
Probable space group: P 21/C
;
_chemical_formula_sum "Si O2"
_cell_formula_units_Z 32
_cell_length_a 11.978111
_cell_length_b 20.519615
_cell_length_c 11.263466
_cell_angle_alpha 90.000000
_cell_angle_beta 32.290032
_cell_angle_gamma 90.000000
_cell_volume 1478.896483
_symmetry_space_group_name_H-M "P 21/C"
_symmetry_group_IT_number 14
_symmetry_cell_setting 'monoclinic'
loop_
_space_group_symop_operation_xyz
x,y,z
-x,1/2+y,1/2-z
-x,-y,-z
x,1/2-y,1/2+z
loop_
_atom_site_type_symbol
_atom_site_label
_atom_site_fract_x
_atom_site_fract_y
_atom_site_fract_z
Si Si1 0.737379 0.012441 0.302381
Si Si2 0.359963 0.163099 0.169442
Si Si3 0.080889 0.049465 0.326124
Si Si4 0.909772 0.745915 0.930264
Si Si5 0.734598 0.168023 0.007890
Si Si6 0.183763 0.633878 0.118128
Si Si7 0.516740 0.217805 0.796593
Si Si8 0.102480 0.966807 0.087239
O O1 0.764118 0.086640 0.320767
O O2 0.500000 0.000000 0.500000
O O3 0.830530 0.993402 0.089809
O O4 0.847472 0.966745 0.304997
O O5 0.253654 0.094642 0.232245
O O6 0.186940 0.218981 0.357870
O O7 0.520565 0.152591 0.131649
O O8 0.512693 0.184986 0.927394
O O9 0.914087 0.096531 0.409217
O O10 0.182495 0.003008 0.133803
O O11 0.000000 0.000000 0.500000
O O12 0.068535 0.689187 0.748543
O O13 0.028365 0.814796 0.821863
O O14 0.714881 0.755930 0.018381
O O15 0.801160 0.103610 0.014972
O O16 0.683847 0.223119 0.151422
O O17 0.397875 0.668079 0.880979
#
# Coordination Sequence:
#
# PCOD8127478 Si02
#       8
#     4   4   4   4   4   4   4   4
#     4  10  24  43  67  93 128 178 231 272 330 402
#     4  11  24  40  68 100 134 177 227 274 348 406
#     4  11  24  43  68 100 139 185 219 284 347 407
#     4  10  22  43  62  93 132 176 220 278 332 400
#     4  10  24  42  65  99 134 168 226 276 338 410
#     4  10  23  43  67  96 136 177 231 277 344 403
#     4  10  23  40  66  97 130 177 221 280 339 402
#     4  10  24  44  65  95 133 176 222 280 337 392
#
# _framework density 21.637754000000001
#
# number of rings (size 3 to 8) (size 9 to 14) (size 15 to 20)
#    0.000    1.750    1.250    0.750    5.250    9.500 
#    0.000    0.000    0.000    0.000    0.000    0.000 
#    0.000    0.000    0.000    0.000    0.000    0.000 
#
# Total GULP energy -396468.842945 kJ/mol
# GULP energy per Si atom -12389.651342 kJ/mol
# Density = 2.158851 g / cm^3
# Si number density = 21.637754 Si / 1000 Ang^3
#
#
#
# Elastic Constant Matrix: (Units=GPa)
#
#
# Indices 1 2 3 4 5 6 
#
# 1 79.2956 55.7137 45.3676 0.0000 0.5893 0.0000
# 2 55.7137 129.3076 54.6802 0.0000 2.7062 0.0000
# 3 45.3676 54.6802 117.7235 0.0000 -0.8175 0.0000
# 4 0.0000 0.0000 0.0000 32.5501 0.0000 -3.4759
# 5 0.5893 2.7062 -0.8175 0.0000 41.6498 0.0000
# 6 0.0000 0.0000 0.0000 -3.4759 0.0000 36.2090
#
#
#
# Elastic Compliance Matrix: (Units=1/GPa)
#
#
# Indices 1 2 3 4 5 6 
#
# 1 0.019895 -0.006634 -0.004585 0.000000 0.000060 0.000000
# 2 -0.006634 0.011857 -0.002956 0.000000 -0.000735 0.000000
# 3 -0.004585 -0.002956 0.011638 0.000000 0.000485 0.000000
# 4 0.000000 0.000000 0.000000 0.031040 0.000000 0.002980
# 5 0.000060 -0.000735 0.000485 0.000000 0.024066 0.000000
# 6 0.000000 0.000000 0.000000 0.002980 0.000000 0.027903
#
#
# Mechanical properties :
#
#
# Convention : Reuss Voigt Hill
#
# Bulk Modulus (GPa) = 66.49144 70.87216 68.68180
# Shear Modulus (GPa) = 31.29612 33.45282 32.37447
#
# Velocity S-wave (km/s) = 3.80724 3.93624 3.87227
# Velocity P-wave (km/s) = 7.07975 7.31325 7.19745
#
# Compressibility (1/GPa) = 0.01503953
#
# Stress axis : x y z
#
# Youngs Moduli (GPa) = 50.26298 84.33592 85.92699
#
# Poissons Ratio (x) = 0.55952 0.39399
# Poissons Ratio (y) = 0.33347 0.25399
# Poissons Ratio (z) = 0.23046 0.24928
#
# Static dielectric constant tensor:
#      x y z
#    x 3.861480 0.000000 -0.072430 
#    y 0.000000 3.852130 0.000000 
#    z -0.072430 0.000000 4.143050 
# 
# 
# High freq. dielectric constant tensor:
#      x y z
#    x 1.846590 0.000000 -0.002640 
#    y 0.000000 1.853520 0.000000 
#    z -0.002640 0.000000 1.857020 
# 
# From -- ./inp_files/30719.got.cif
#   From: 2010.03.12/outbox.cif.g09.slc.cpg/sg14_16_cif.got.tgz:30719.got - 2010.03.31 13:35:05.
