data_PCOD8127816
_publ_section_title
;
Structure prediction by ZEFSAII (Michael W. Deem and Ramdas Pophale) SiO2 
 PCOD8127816
Probable space group: P 21/C
;
_chemical_formula_sum "Si O2"
_cell_formula_units_Z 28
_cell_length_a 16.354103
_cell_length_b 7.551407
_cell_length_c 13.394360
_cell_angle_alpha 90.000000
_cell_angle_beta 48.644443
_cell_angle_gamma 90.000000
_cell_volume 1241.649189
_symmetry_space_group_name_H-M "P 21/C"
_symmetry_group_IT_number 14
_symmetry_cell_setting 'monoclinic'
loop_
_space_group_symop_operation_xyz
x,y,z
-x,1/2+y,1/2-z
-x,-y,-z
x,1/2-y,1/2+z
loop_
_atom_site_type_symbol
_atom_site_label
_atom_site_fract_x
_atom_site_fract_y
_atom_site_fract_z
Si Si1 0.286727 0.888176 0.584346
Si Si2 0.067755 0.022281 0.694129
Si Si3 0.158737 0.252107 0.958056
Si Si4 0.626205 0.684493 0.123019
Si Si5 0.998371 0.726884 0.092237
Si Si6 0.219039 0.868506 0.862990
Si Si7 0.609999 0.404834 0.613820
O O1 0.271779 0.906117 0.713887
O O2 0.350179 0.703892 0.515141
O O3 0.168431 0.887067 0.627832
O O4 0.354831 0.056320 0.487232
O O5 0.099717 0.201267 0.609476
O O6 0.024214 0.080642 0.838291
O O7 0.983968 0.919331 0.690444
O O8 0.280387 0.336455 0.866884
O O9 0.091195 0.325612 0.917933
O O10 0.161765 0.042989 0.950440
O O11 0.515555 0.634228 0.266244
O O12 0.627702 0.886822 0.082352
O O13 0.120779 0.723816 0.945342
O O14 0.320051 0.818771 0.852334
#
# Coordination Sequence:
#
# PCOD8127816 Si02
#       7
#     4   4   4   4   4   4   4
#     4  11  23  46  66 100 136 173 227 280 339 401
#     4  11  24  41  66  98 133 181 219 277 337 396
#     4  10  23  42  63  96 134 174 222 276 332 401
#     4  10  23  44  73  96 133 181 224 281 343 394
#     4  12  23  42  67  97 138 175 227 269 335 409
#     4  11  24  41  68  98 131 179 221 278 340 398
#     4  11  22  46  72  97 136 176 226 284 340 402
#
# _framework density 22.550654999999999
#
# number of rings (size 3 to 8) (size 9 to 14) (size 15 to 20)
#    0.000    1.143    4.286    1.714    2.000    0.571 
#    2.571    0.714    0.000    0.000    0.000    0.000 
#    0.000    0.000    0.000    0.000    0.000    0.000 
#
# Total GULP energy -347117.425608 kJ/mol
# GULP energy per Si atom -12397.050915 kJ/mol
# Density = 2.249933 g / cm^3
# Si number density = 22.550655 Si / 1000 Ang^3
#
#
#
# Elastic Constant Matrix: (Units=GPa)
#
#
# Indices 1 2 3 4 5 6 
#
# 1 122.2465 11.6555 46.6908 0.0000 -16.1452 0.0000
# 2 11.6555 59.5851 23.8938 0.0000 -5.5063 0.0000
# 3 46.6908 23.8938 112.2802 0.0000 -9.9962 0.0000
# 4 0.0000 0.0000 0.0000 24.6848 0.0000 2.9646
# 5 -16.1452 -5.5063 -9.9962 0.0000 24.9087 0.0000
# 6 0.0000 0.0000 0.0000 2.9646 0.0000 28.7992
#
#
#
# Elastic Compliance Matrix: (Units=1/GPa)
#
#
# Indices 1 2 3 4 5 6 
#
# 1 0.010326 -0.000006 -0.003834 0.000000 0.005153 0.000000
# 2 -0.000006 0.018510 -0.003705 0.000000 0.002601 0.000000
# 3 -0.003834 -0.003705 0.011402 0.000000 0.001272 0.000000
# 4 0.000000 0.000000 0.000000 0.041018 0.000000 -0.004222
# 5 0.005153 0.002601 0.001272 0.000000 0.044572 0.000000
# 6 0.000000 0.000000 0.000000 -0.004222 0.000000 0.035158
#
#
# Mechanical properties :
#
#
# Convention : Reuss Voigt Hill
#
# Bulk Modulus (GPa) = 39.76459 50.95467 45.35963
# Shear Modulus (GPa) = 27.10648 29.80332 28.45490
#
# Velocity S-wave (km/s) = 3.47079 3.63935 3.55607
# Velocity P-wave (km/s) = 5.80806 6.34858 6.08433
#
# Compressibility (1/GPa) = 0.02514800
#
# Stress axis : x y z
#
# Youngs Moduli (GPa) = 96.84681 54.02493 87.70263
#
# Poissons Ratio (x) = 0.00034 0.33623
# Poissons Ratio (y) = 0.00061 0.32493
# Poissons Ratio (z) = 0.37128 0.20015
#
# Static dielectric constant tensor:
#      x y z
#    x 4.203880 0.000000 -0.117720 
#    y 0.000000 4.079760 0.000000 
#    z -0.117720 0.000000 3.933420 
# 
# 
# High freq. dielectric constant tensor:
#      x y z
#    x 1.886550 0.000000 -0.008900 
#    y 0.000000 1.891940 0.000000 
#    z -0.008900 0.000000 1.883930 
# 
# From -- ./inp_files/31726.got.cif
#   From: 2010.03.12/outbox.cif.g09.slc.cpg/sg14_16_cif.got.tgz:31726.got - 2010.03.31 13:35:05.
