data_PCOD8127831
_publ_section_title
;
Structure prediction by ZEFSAII (Michael W. Deem and Ramdas Pophale) SiO2 
 PCOD8127831
Probable space group: P 21/C
;
_chemical_formula_sum "Si O2"
_cell_formula_units_Z 24
_cell_length_a 23.041531
_cell_length_b 8.632623
_cell_length_c 12.113866
_cell_angle_alpha 90.000000
_cell_angle_beta 152.274590
_cell_angle_gamma 90.000000
_cell_volume 1121.008580
_symmetry_space_group_name_H-M "P 21/C"
_symmetry_group_IT_number 14
_symmetry_cell_setting 'monoclinic'
loop_
_space_group_symop_operation_xyz
x,y,z
-x,1/2+y,1/2-z
-x,-y,-z
x,1/2-y,1/2+z
loop_
_atom_site_type_symbol
_atom_site_label
_atom_site_fract_x
_atom_site_fract_y
_atom_site_fract_z
Si Si1 0.504426 0.748428 0.463327
Si Si2 0.333565 0.956137 0.810331
Si Si3 0.252754 0.427723 0.595929
Si Si4 0.281588 0.656808 0.455546
Si Si5 0.127906 0.112769 0.329250
Si Si6 0.149828 0.956862 0.146985
O O1 0.574117 0.599743 0.534576
O O2 0.407546 0.699346 0.397460
O O3 0.602445 0.875434 0.673432
O O4 0.425733 0.812126 0.228207
O O5 0.278810 0.941775 0.839685
O O6 0.217411 0.984450 0.534133
O O7 0.219194 0.557140 0.448853
O O8 0.161099 0.284295 0.424417
O O9 0.236852 0.496568 0.691580
O O10 0.204468 0.812772 0.306986
O O11 0.986898 0.081768 0.130045
O O12 0.141460 0.099576 0.219222
#
# Coordination Sequence:
#
# PCOD8127831 Si02
#       6
#     4   4   4   4   4   4
#     4  10  23  42  65  98 134 177 222 280 340 407
#     4  10  23  42  66  95 136 176 224 280 343 399
#     4  11  27  43  72 102 135 182 233 276 346 410
#     4  12  25  40  69 101 135 175 225 283 343 401
#     4  10  25  48  68  97 133 187 228 283 341 399
#     4  11  26  45  70  97 142 176 234 284 337 410
#
# _framework density 21.409292000000001
#
# number of rings (size 3 to 8) (size 9 to 14) (size 15 to 20)
#    0.000    1.333    1.667    1.500   11.667    2.000 
#    0.000    0.000    0.000    0.000    0.000    0.000 
#    0.000    0.000    0.000    0.000    0.000    0.000 
#
# Total GULP energy -297690.911301 kJ/mol
# GULP energy per Si atom -12403.787971 kJ/mol
# Density = 2.136056 g / cm^3
# Si number density = 21.409292 Si / 1000 Ang^3
#
#
#
# Elastic Constant Matrix: (Units=GPa)
#
#
# Indices 1 2 3 4 5 6 
#
# 1 103.6458 47.8978 27.8595 0.0000 -17.2360 0.0000
# 2 47.8978 88.1404 44.1521 0.0000 -4.6985 0.0000
# 3 27.8595 44.1521 121.1126 0.0000 4.9322 0.0000
# 4 0.0000 0.0000 0.0000 34.4887 0.0000 -9.1503
# 5 -17.2360 -4.6985 4.9322 0.0000 31.6894 0.0000
# 6 0.0000 0.0000 0.0000 -9.1503 0.0000 26.5458
#
#
#
# Elastic Compliance Matrix: (Units=1/GPa)
#
#
# Indices 1 2 3 4 5 6 
#
# 1 0.014242 -0.006839 -0.001064 0.000000 0.006898 0.000000
# 2 -0.006839 0.017427 -0.004764 0.000000 -0.000394 0.000000
# 3 -0.001064 -0.004764 0.010356 0.000000 -0.002897 0.000000
# 4 0.000000 0.000000 0.000000 0.031914 0.000000 0.011001
# 5 0.006898 -0.000394 -0.002897 0.000000 0.035700 0.000000
# 6 0.000000 0.000000 0.000000 0.011001 0.000000 0.041463
#
#
# Mechanical properties :
#
#
# Convention : Reuss Voigt Hill
#
# Bulk Modulus (GPa) = 59.90883 61.41308 60.66096
# Shear Modulus (GPa) = 27.47271 31.41073 29.44172
#
# Velocity S-wave (km/s) = 3.58608 3.83450 3.71237
# Velocity P-wave (km/s) = 6.72235 6.95356 6.83894
#
# Compressibility (1/GPa) = 0.01669203
#
# Stress axis : x y z
#
# Youngs Moduli (GPa) = 70.21672 57.38124 96.56042
#
# Poissons Ratio (x) = 0.39241 0.10272
# Poissons Ratio (y) = 0.48019 0.46002
# Poissons Ratio (z) = 0.07470 0.27337
#
# Static dielectric constant tensor:
#      x y z
#    x 3.686260 0.000000 0.000090 
#    y 0.000000 3.917160 0.000000 
#    z 0.000090 0.000000 3.984080 
# 
# 
# High freq. dielectric constant tensor:
#      x y z
#    x 1.833200 0.000000 -0.002770 
#    y 0.000000 1.846790 0.000000 
#    z -0.002770 0.000000 1.851140 
# 
# From -- ./inp_files/35786.got.cif
#   From: 2010.03.12/outbox.cif.g09.slc.cpg/sg14_18_cif.got.tgz:35786.got - 2010.03.31 13:35:05.
