data_PCOD8127171
_publ_section_title
;
Structure prediction by ZEFSAII (Michael W. Deem and Ramdas Pophale) SiO2 
 PCOD8127171
Probable space group: P 21/C
;
_chemical_formula_sum "Si O2"
_cell_formula_units_Z 24
_cell_length_a 8.283837
_cell_length_b 25.743514
_cell_length_c 9.143260
_cell_angle_alpha 90.000000
_cell_angle_beta 147.466465
_cell_angle_gamma 90.000000
_cell_volume 1048.614138
_symmetry_space_group_name_H-M "P 21/C"
_symmetry_group_IT_number 14
_symmetry_cell_setting 'monoclinic'
loop_
_space_group_symop_operation_xyz
x,y,z
-x,1/2+y,1/2-z
-x,-y,-z
x,1/2-y,1/2+z
loop_
_atom_site_type_symbol
_atom_site_label
_atom_site_fract_x
_atom_site_fract_y
_atom_site_fract_z
Si Si1 0.782611 0.433769 0.729360
Si Si2 0.322015 0.250519 0.420806
Si Si3 0.859866 0.864974 0.709140
Si Si4 0.132718 0.453664 0.290754
Si Si5 0.308934 0.710233 0.044961
Si Si6 0.222931 0.614003 0.775211
O O1 0.441222 0.421491 0.512713
O O2 0.801280 0.484953 0.640707
O O3 0.913732 0.385187 0.740978
O O4 0.955835 0.442333 0.009697
O O5 0.266809 0.191460 0.432391
O O6 0.571863 0.251072 0.484966
O O7 0.439332 0.289050 0.636818
O O8 0.002988 0.271715 0.122016
O O9 0.561447 0.901798 0.484540
O O10 0.029748 0.862014 0.994799
O O11 0.948728 0.436209 0.293357
O O12 0.265435 0.653949 0.941921
#
# Coordination Sequence:
#
# PCOD8127171 Si02
#       6
#     4   4   4   4   4   4
#     4  10  22  40  62  92 126 159 201 250 299 358
#     4  11  23  40  59  85 118 154 199 249 298 353
#     4  11  23  40  61  89 122 159 204 250 300 360
#     4  10  22  40  62  92 126 159 201 250 299 358
#     4  11  23  40  59  85 118 154 199 249 298 353
#     4  11  23  40  61  89 122 159 204 250 300 360
#
# _framework density 22.887353000000001
#
# number of rings (size 3 to 8) (size 9 to 14) (size 15 to 20)
#    0.000    1.333    0.000    7.000    0.000    5.333 
#    0.000    0.000    0.000    0.000    0.000    0.000 
#    0.000    0.000    0.000    0.000    0.000    0.000 
#
# Total GULP energy -297614.714572 kJ/mol
# GULP energy per Si atom -12400.613107 kJ/mol
# Density = 2.283526 g / cm^3
# Si number density = 22.887353 Si / 1000 Ang^3
#
#
#
# Elastic Constant Matrix: (Units=GPa)
#
#
# Indices 1 2 3 4 5 6 
#
# 1 40.1927 -3.6072 18.6952 0.0000 20.8463 0.0000
# 2 -3.6072 27.6885 8.6874 0.0000 1.2565 0.0000
# 3 18.6952 8.6874 125.1134 0.0000 20.2224 0.0000
# 4 0.0000 0.0000 0.0000 31.7930 0.0000 0.4173
# 5 20.8463 1.2565 20.2224 0.0000 45.7641 0.0000
# 6 0.0000 0.0000 0.0000 0.4173 0.0000 37.5308
#
#
#
# Elastic Compliance Matrix: (Units=1/GPa)
#
#
# Indices 1 2 3 4 5 6 
#
# 1 0.034416 0.006154 -0.003240 0.000000 -0.014414 0.000000
# 2 0.006154 0.038022 -0.003164 0.000000 -0.002449 0.000000
# 3 -0.003240 -0.003164 0.009093 0.000000 -0.002455 0.000000
# 4 0.000000 0.000000 0.000000 0.031458 0.000000 -0.000350
# 5 -0.014414 -0.002449 -0.002455 0.000000 0.029569 0.000000
# 6 0.000000 0.000000 0.000000 -0.000350 0.000000 0.026649
#
#
# Mechanical properties :
#
#
# Convention : Reuss Voigt Hill
#
# Bulk Modulus (GPa) = 12.34092 26.72727 19.53410
# Shear Modulus (GPa) = 25.41728 34.29885 29.85807
#
# Velocity S-wave (km/s) = 3.33609 3.87537 3.61580
# Velocity P-wave (km/s) = 4.49923 5.63274 5.09759
#
# Compressibility (1/GPa) = 0.08103125
#
# Stress axis : x y z
#
# Youngs Moduli (GPa) = 29.05659 26.30085 109.96895
#
# Poissons Ratio (x) = -0.16186 0.35631
# Poissons Ratio (y) = -0.17882 0.34792
# Poissons Ratio (z) = 0.09415 0.08321
#
# Static dielectric constant tensor:
#      x y z
#    x 4.284890 0.000000 0.345110 
#    y 0.000000 3.961590 0.000000 
#    z 0.345110 0.000000 4.221410 
# 
# 
# High freq. dielectric constant tensor:
#      x y z
#    x 1.906600 0.000000 0.018340 
#    y 0.000000 1.879980 0.000000 
#    z 0.018340 0.000000 1.921020 
# 
# From -- ./inp_files/11357.got.cif
#   From: 2010.03.12/outbox.cif.g09.slc.cpg/sg14_6_cif.got.tgz:11357.got - 2010.03.31 13:35:05.
