data_PCOD8127248
_publ_section_title
;
Structure prediction by ZEFSAII (Michael W. Deem and Ramdas Pophale) SiO2 
 PCOD8127248
Probable space group: P 21/C
;
_chemical_formula_sum "Si O2"
_cell_formula_units_Z 32
_cell_length_a 9.751536
_cell_length_b 13.796952
_cell_length_c 11.650660
_cell_angle_alpha 90.000000
_cell_angle_beta 96.391362
_cell_angle_gamma 90.000000
_cell_volume 1557.754527
_symmetry_space_group_name_H-M "P 21/C"
_symmetry_group_IT_number 14
_symmetry_cell_setting 'monoclinic'
loop_
_space_group_symop_operation_xyz
x,y,z
-x,1/2+y,1/2-z
-x,-y,-z
x,1/2-y,1/2+z
loop_
_atom_site_type_symbol
_atom_site_label
_atom_site_fract_x
_atom_site_fract_y
_atom_site_fract_z
Si Si1 0.331919 0.406753 0.522125
Si Si2 0.995566 0.076868 0.663485
Si Si3 0.684390 0.073747 0.672936
Si Si4 0.150030 0.291351 0.347540
Si Si5 0.046888 0.628090 0.094903
Si Si6 0.651766 0.175787 0.441025
Si Si7 0.624294 0.642240 0.216050
Si Si8 0.391599 0.613049 0.585677
O O1 0.196233 0.351232 0.464938
O O2 0.379004 0.361307 0.646813
O O3 0.300298 0.521399 0.535070
O O4 0.450979 0.395788 0.439053
O O5 0.843889 0.106230 0.692827
O O6 0.020679 0.108873 0.535078
O O7 0.110929 0.130649 0.747961
O O8 0.013450 0.960945 0.676833
O O9 0.613130 0.119319 0.553876
O O10 0.605448 0.115919 0.775623
O O11 0.674951 0.957820 0.664679
O O12 0.275647 0.226460 0.316182
O O13 0.016503 0.226699 0.361781
O O14 0.211458 0.633549 0.103443
O O15 0.529657 0.165031 0.338748
O O16 0.675687 0.289471 0.471251
#
# Coordination Sequence:
#
# PCOD8127248 Si02
#       8
#     4   4   4   4   4   4   4   4
#     4  10  24  42  62  94 136 169 215 266 315 384
#     4  10  22  42  66  94 130 168 215 271 315 385
#     4  10  22  43  64  94 133 165 216 273 316 382
#     4  12  22  43  68  94 125 184 209 257 328 388
#     4  10  23  43  65  96 132 162 219 270 319 382
#     4  11  23  40  68  99 124 172 213 270 330 373
#     4  11  23  42  67  95 130 171 218 265 317 385
#     4  10  22  41  60  93 134 165 206 272 317 377
#
# _framework density 20.542390000000001
#
# number of rings (size 3 to 8) (size 9 to 14) (size 15 to 20)
#    0.000    1.500    2.500    1.875    1.750    3.000 
#    6.750    3.125    0.000    0.000    0.000    0.000 
#    0.000    0.000    0.000    0.000    0.000    0.000 
#
# Total GULP energy -396947.043811 kJ/mol
# GULP energy per Si atom -12404.595119 kJ/mol
# Density = 2.049563 g / cm^3
# Si number density = 20.542390 Si / 1000 Ang^3
#
#
#
# Elastic Constant Matrix: (Units=GPa)
#
#
# Indices 1 2 3 4 5 6 
#
# 1 79.8524 32.4634 55.4455 0.0000 11.4742 0.0000
# 2 32.4634 131.7971 66.9954 0.0000 18.1740 0.0000
# 3 55.4455 66.9954 131.0825 0.0000 8.4337 0.0000
# 4 0.0000 0.0000 0.0000 29.3148 0.0000 4.1136
# 5 11.4742 18.1740 8.4337 0.0000 30.8135 0.0000
# 6 0.0000 0.0000 0.0000 4.1136 0.0000 25.3990
#
#
#
# Elastic Compliance Matrix: (Units=1/GPa)
#
#
# Indices 1 2 3 4 5 6 
#
# 1 0.018405 -0.000102 -0.007427 0.000000 -0.004761 0.000000
# 2 -0.000102 0.010965 -0.005240 0.000000 -0.004995 0.000000
# 3 -0.007427 -0.005240 0.013306 0.000000 0.002214 0.000000
# 4 0.000000 0.000000 0.000000 0.034906 0.000000 -0.005653
# 5 -0.004761 -0.004995 0.002214 0.000000 0.036566 0.000000
# 6 0.000000 0.000000 0.000000 -0.005653 0.000000 0.040287
#
#
# Mechanical properties :
#
#
# Convention : Reuss Voigt Hill
#
# Bulk Modulus (GPa) = 58.34497 72.50451 65.42474
# Shear Modulus (GPa) = 26.92742 29.62731 28.27737
#
# Velocity S-wave (km/s) = 3.62446 3.80182 3.71420
# Velocity P-wave (km/s) = 6.78082 7.39212 7.09306
#
# Compressibility (1/GPa) = 0.01713944
#
# Stress axis : x y z
#
# Youngs Moduli (GPa) = 54.33183 91.20221 75.15611
#
# Poissons Ratio (x) = 0.00928 0.55817
# Poissons Ratio (y) = 0.00553 0.39378
# Poissons Ratio (z) = 0.40351 0.47786
#
# Static dielectric constant tensor:
#      x y z
#    x 3.489850 0.000000 -0.079090 
#    y 0.000000 4.026140 0.000000 
#    z -0.079090 0.000000 3.657700 
# 
# 
# High freq. dielectric constant tensor:
#      x y z
#    x 1.794750 0.000000 -0.008890 
#    y 0.000000 1.822070 0.000000 
#    z -0.008890 0.000000 1.799430 
# 
# From -- ./inp_files/25533.got.cif
#   From: 2010.03.12/outbox.cif.g09.slc.cpg/sg14_13_cif.got.tgz:25533.got - 2010.03.31 13:35:05.
