data_PCOD8127212
_publ_section_title
;
Structure prediction by ZEFSAII (Michael W. Deem and Ramdas Pophale) SiO2 
 PCOD8127212
Probable space group: P 21/C
;
_chemical_formula_sum "Si O2"
_cell_formula_units_Z 20
_cell_length_a 9.203740
_cell_length_b 8.463068
_cell_length_c 20.392140
_cell_angle_alpha 90.000000
_cell_angle_beta 37.631005
_cell_angle_gamma 90.000000
_cell_volume 969.824498
_symmetry_space_group_name_H-M "P 21/C"
_symmetry_group_IT_number 14
_symmetry_cell_setting 'monoclinic'
loop_
_space_group_symop_operation_xyz
x,y,z
-x,1/2+y,1/2-z
-x,-y,-z
x,1/2-y,1/2+z
loop_
_atom_site_type_symbol
_atom_site_label
_atom_site_fract_x
_atom_site_fract_y
_atom_site_fract_z
Si Si1 0.823941 0.420010 0.654663
Si Si2 0.683604 0.673474 0.551530
Si Si3 0.631896 0.736172 0.210627
Si Si4 0.775566 0.957596 0.776212
Si Si5 0.102902 0.238570 0.651875
O O1 0.648393 0.300845 0.677961
O O2 0.691713 0.586133 0.710432
O O3 0.076526 0.433814 0.526338
O O4 0.878479 0.344955 0.707183
O O5 0.678383 0.789744 0.616233
O O6 0.461815 0.557152 0.627890
O O7 0.701845 0.772862 0.477069
O O8 0.784933 0.614902 0.199675
O O9 0.776673 0.815459 0.827786
O O10 0.008741 0.064642 0.703052
#
# Coordination Sequence:
#
# PCOD8127212 Si02
#       5
#     4   4   4   4   4
#     4  10  22  40  65  92 133 165 215 256 323 375
#     4  10  22  42  66  94 127 173 211 262 320 385
#     4  12  21  40  68  96 128 170 213 268 313 384
#     4  12  23  44  67  93 133 169 215 263 321 376
#     4  10  24  42  64  93 128 173 212 261 318 383
#
# _framework density 20.62229
#
# number of rings (size 3 to 8) (size 9 to 14) (size 15 to 20)
#    1.200    0.000    4.000    2.400    0.000    0.800 
#    0.000    1.000    0.000    0.000    0.000    0.000 
#    0.000    0.000    0.000    0.000    0.000    0.000 
#
# Total GULP energy -247814.550890 kJ/mol
# GULP energy per Si atom -12390.727545 kJ/mol
# Density = 2.057535 g / cm^3
# Si number density = 20.622290 Si / 1000 Ang^3
#
#
#
# Elastic Constant Matrix: (Units=GPa)
#
#
# Indices 1 2 3 4 5 6 
#
# 1 106.2169 29.5549 46.2940 0.0000 21.5748 0.0000
# 2 29.5549 64.3110 42.0843 0.0000 -2.4236 0.0000
# 3 46.2940 42.0843 70.8909 0.0000 8.0325 0.0000
# 4 0.0000 0.0000 0.0000 8.9830 0.0000 3.8520
# 5 21.5748 -2.4236 8.0325 0.0000 37.1300 0.0000
# 6 0.0000 0.0000 0.0000 3.8520 0.0000 49.7867
#
#
#
# Elastic Compliance Matrix: (Units=1/GPa)
#
#
# Indices 1 2 3 4 5 6 
#
# 1 0.014732 -0.002066 -0.007595 0.000000 -0.007052 0.000000
# 2 -0.002066 0.026675 -0.015192 0.000000 0.006228 0.000000
# 3 -0.007595 -0.015192 0.028393 0.000000 -0.002721 0.000000
# 4 0.000000 0.000000 0.000000 0.115142 0.000000 -0.008909
# 5 -0.007052 0.006228 -0.002721 0.000000 0.032025 0.000000
# 6 0.000000 0.000000 0.000000 -0.008909 0.000000 0.020775
#
#
# Mechanical properties :
#
#
# Convention : Reuss Voigt Hill
#
# Bulk Modulus (GPa) = 49.76623 53.03170 51.39897
# Shear Modulus (GPa) = 16.99829 27.41230 22.20530
#
# Velocity S-wave (km/s) = 2.87412 3.64985 3.28496
# Velocity P-wave (km/s) = 5.93285 6.59799 6.27424
#
# Compressibility (1/GPa) = 0.02009395
#
# Stress axis : x y z
#
# Youngs Moduli (GPa) = 67.87818 37.48794 35.21972
#
# Poissons Ratio (x) = 0.07745 0.26750
# Poissons Ratio (y) = 0.14024 0.53507
# Poissons Ratio (z) = 0.51554 0.56953
#
# Static dielectric constant tensor:
#      x y z
#    x 3.846150 0.000000 0.012780 
#    y 0.000000 3.532540 0.000000 
#    z 0.012780 0.000000 3.602260 
# 
# 
# High freq. dielectric constant tensor:
#      x y z
#    x 1.819690 0.000000 0.000050 
#    y 0.000000 1.788880 0.000000 
#    z 0.000050 0.000000 1.791890 
# 
# From -- ./inp_files/64469.got.cif
#   From: 2010.03.12/outbox.cif.g09.slc.cpg/sg14_33_cif.got.tgz:64469.got - 2010.03.31 13:35:05.
