data_PCOD8127740
_publ_section_title
;
Structure prediction by ZEFSAII (Michael W. Deem and Ramdas Pophale) SiO2 
 PCOD8127740
Probable space group: P 21/C
;
_chemical_formula_sum "Si O2"
_cell_formula_units_Z 28
_cell_length_a 13.210411
_cell_length_b 8.466606
_cell_length_c 12.873531
_cell_angle_alpha 90.000000
_cell_angle_beta 65.708551
_cell_angle_gamma 90.000000
_cell_volume 1312.390892
_symmetry_space_group_name_H-M "P 21/C"
_symmetry_group_IT_number 14
_symmetry_cell_setting 'monoclinic'
loop_
_space_group_symop_operation_xyz
x,y,z
-x,1/2+y,1/2-z
-x,-y,-z
x,1/2-y,1/2+z
loop_
_atom_site_type_symbol
_atom_site_label
_atom_site_fract_x
_atom_site_fract_y
_atom_site_fract_z
Si Si1 0.407016 0.733663 0.690535
Si Si2 0.996641 0.739255 0.397383
Si Si3 0.806705 0.804880 0.131107
Si Si4 0.086756 0.038526 0.730007
Si Si5 0.390544 0.430964 0.812172
Si Si6 0.298441 0.866401 0.542479
Si Si7 0.215342 0.661303 0.409668
O O1 0.426909 0.545805 0.700974
O O2 0.502767 0.827551 0.707906
O O3 0.394390 0.798181 0.578323
O O4 0.288681 0.754874 0.793015
O O5 0.882337 0.756882 0.506435
O O6 0.994087 0.891987 0.324142
O O7 0.007309 0.579985 0.325896
O O8 0.093780 0.734499 0.440931
O O9 0.873716 0.819411 0.210962
O O10 0.705227 0.685321 0.188438
O O11 0.766706 0.976471 0.111545
O O12 0.199827 0.956880 0.642930
O O13 0.354395 0.522760 0.932012
O O14 0.246996 0.709960 0.512455
#
# Coordination Sequence:
#
# PCOD8127740 Si02
#       7
#     4   4   4   4   4   4   4
#     4  11  23  45  68  98 132 175 220 280 336 391
#     4  11  24  40  65  96 136 179 222 276 334 398
#     4  11  23  43  64  99 135 177 224 278 334 397
#     4  11  24  41  67  98 136 182 220 280 327 402
#     4  11  25  45  72  98 134 177 222 283 335 397
#     4  11  23  44  66 101 131 179 227 273 330 403
#     4  10  23  40  65  94 136 173 224 274 330 397
#
# _framework density 21.335106
#
# number of rings (size 3 to 8) (size 9 to 14) (size 15 to 20)
#    0.000    1.143    4.286    3.000    4.000    4.000 
#    0.000    3.571    0.000    0.000    0.000    0.000 
#    0.000    0.000    0.000    0.000    0.000    0.000 
#
# Total GULP energy -347074.680306 kJ/mol
# GULP energy per Si atom -12395.524297 kJ/mol
# Density = 2.128655 g / cm^3
# Si number density = 21.335106 Si / 1000 Ang^3
#
#
#
# Elastic Constant Matrix: (Units=GPa)
#
#
# Indices 1 2 3 4 5 6 
#
# 1 68.5118 82.1941 -4.8998 0.0000 17.8705 0.0000
# 2 82.1941 34.5726 56.7985 0.0000 -44.2314 0.0000
# 3 -4.8998 56.7985 20.0514 0.0000 41.5995 0.0000
# 4 0.0000 0.0000 0.0000 28.2250 0.0000 1.7017
# 5 17.8705 -44.2314 41.5995 0.0000 -11.4540 0.0000
# 6 0.0000 0.0000 0.0000 1.7017 0.0000 47.9279
#
#
#
# Elastic Compliance Matrix: (Units=1/GPa)
#
#
# Indices 1 2 3 4 5 6 
#
# 1 0.017218 -0.005998 -0.009677 0.000000 0.014882 0.000000
# 2 -0.005998 0.009114 0.007633 0.000000 -0.016829 0.000000
# 3 -0.009677 0.007633 0.013868 0.000000 0.005793 0.000000
# 4 0.000000 0.000000 0.000000 0.035506 0.000000 -0.001261
# 5 0.014882 -0.016829 0.005793 0.000000 0.021939 0.000000
# 6 0.000000 0.000000 0.000000 -0.001261 0.000000 0.020909
#
#
# Mechanical properties :
#
#
# Convention : Reuss Voigt Hill
#
# Bulk Modulus (GPa) = 41.46539 43.48016 42.47278
# Shear Modulus (GPa) = 35.04462 12.20931 23.62696
#
# Velocity S-wave (km/s) = 4.05727 2.39480 3.33140
# Velocity P-wave (km/s) = 6.43631 5.29817 5.89477
#
# Compressibility (1/GPa) = 0.02411650
#
# Stress axis : x y z
#
# Youngs Moduli (GPa) = 58.07826 109.72626 72.10897
#
# Poissons Ratio (x) = 0.65814 0.69777
# Poissons Ratio (y) = 0.34836 -0.55042
# Poissons Ratio (z) = 0.56200 -0.83755
#
# Static dielectric constant tensor:
#      x y z
#    x 3.972730 0.000000 0.163040 
#    y 0.000000 4.982020 0.000000 
#    z 0.163040 0.000000 3.930240 
# 
# 
# High freq. dielectric constant tensor:
#      x y z
#    x 1.842160 0.000000 0.003240 
#    y 0.000000 1.840630 0.000000 
#    z 0.003240 0.000000 1.837430 
# 
# From -- ./inp_files/43309.got.cif
#   From: 2010.03.12/outbox.cif.g09.slc.cpg/sg14_22_cif.got.tgz:43309.got - 2010.03.31 13:35:05.
