data_PCOD8127768
_publ_section_title
;
Structure prediction by ZEFSAII (Michael W. Deem and Ramdas Pophale) SiO2 
 PCOD8127768
Probable space group: P 21/C
;
_chemical_formula_sum "Si O2"
_cell_formula_units_Z 24
_cell_length_a 11.260334
_cell_length_b 12.226257
_cell_length_c 8.224602
_cell_angle_alpha 90.000000
_cell_angle_beta 100.969447
_cell_angle_gamma 90.000000
_cell_volume 1111.606846
_symmetry_space_group_name_H-M "P 21/C"
_symmetry_group_IT_number 14
_symmetry_cell_setting 'monoclinic'
loop_
_space_group_symop_operation_xyz
x,y,z
-x,1/2+y,1/2-z
-x,-y,-z
x,1/2-y,1/2+z
loop_
_atom_site_type_symbol
_atom_site_label
_atom_site_fract_x
_atom_site_fract_y
_atom_site_fract_z
Si Si1 0.029742 0.620943 0.058819
Si Si2 0.533572 0.811073 0.792978
Si Si3 0.582151 0.900693 0.472260
Si Si4 0.715619 0.057631 0.294021
Si Si5 0.110137 0.283187 0.686321
Si Si6 0.745303 0.623827 0.563301
O O1 0.173542 0.634341 0.124898
O O2 0.951625 0.640578 0.198434
O O3 0.000000 0.500000 0.000000
O O4 0.994360 0.704265 0.908416
O O5 0.607799 0.833502 0.644734
O O6 0.520979 0.680067 0.821793
O O7 0.401847 0.866069 0.753601
O O8 0.609280 0.857473 0.964171
O O9 0.500000 0.000000 0.500000
O O10 0.699094 0.957661 0.420534
O O11 0.749351 0.999758 0.132003
O O12 0.219961 0.211193 0.787635
O O13 0.160237 0.362442 0.559024
#
# Coordination Sequence:
#
# PCOD8127768 Si02
#       6
#     4   4   4   4   4   4
#     4  11  24  45  69  95 138 172 228 275 323 400
#     4  11  23  39  66  95 131 167 221 276 332 396
#     4  10  23  41  63  93 133 174 212 268 336 391
#     4  11  24  42  66  99 131 177 220 278 333 386
#     4  10  24  43  67  99 128 182 222 276 328 387
#     4  11  21  39  66  95 128 170 225 268 332 399
#
# _framework density 21.590364999999998
#
# number of rings (size 3 to 8) (size 9 to 14) (size 15 to 20)
#    0.000    1.333    1.667    3.500    4.667    4.667 
#    0.000    0.000    0.000    0.000    0.000    0.000 
#    0.000    0.000    0.000    0.000    0.000    0.000 
#
# Total GULP energy -297503.083483 kJ/mol
# GULP energy per Si atom -12395.961812 kJ/mol
# Density = 2.154122 g / cm^3
# Si number density = 21.590365 Si / 1000 Ang^3
#
#
#
# Elastic Constant Matrix: (Units=GPa)
#
#
# Indices 1 2 3 4 5 6 
#
# 1 61.8378 13.0604 9.8648 0.0000 38.1965 0.0000
# 2 13.0604 83.3507 22.1628 0.0000 5.7804 0.0000
# 3 9.8648 22.1628 90.0743 0.0000 15.9732 0.0000
# 4 0.0000 0.0000 0.0000 43.7913 0.0000 -1.0731
# 5 38.1965 5.7804 15.9732 0.0000 41.0829 0.0000
# 6 0.0000 0.0000 0.0000 -1.0731 0.0000 44.3320
#
#
#
# Elastic Compliance Matrix: (Units=1/GPa)
#
#
# Indices 1 2 3 4 5 6 
#
# 1 0.039973 -0.004557 0.003459 0.000000 -0.037868 0.000000
# 2 -0.004557 0.013372 -0.003446 0.000000 0.003695 0.000000
# 3 0.003459 -0.003446 0.012948 0.000000 -0.007765 0.000000
# 4 0.000000 0.000000 0.000000 0.022849 0.000000 0.000553
# 5 -0.037868 0.003695 -0.007765 0.000000 0.062048 0.000000
# 6 0.000000 0.000000 0.000000 0.000553 0.000000 0.022570
#
#
# Mechanical properties :
#
#
# Convention : Reuss Voigt Hill
#
# Bulk Modulus (GPa) = 17.48150 36.15986 26.82068
# Shear Modulus (GPa) = 24.76275 38.51956 31.64115
#
# Velocity S-wave (km/s) = 3.39032 4.22845 3.83237
# Velocity P-wave (km/s) = 4.84150 6.37372 5.65970
#
# Compressibility (1/GPa) = 0.05720334
#
# Stress axis : x y z
#
# Youngs Moduli (GPa) = 25.01716 74.78517 77.23119
#
# Poissons Ratio (x) = 0.34079 -0.26712
# Poissons Ratio (y) = 0.11400 0.26616
# Poissons Ratio (z) = -0.08653 0.25773
#
# Static dielectric constant tensor:
#      x y z
#    x 4.035730 0.000000 -0.194620 
#    y 0.000000 4.271210 0.000000 
#    z -0.194620 0.000000 4.345460 
# 
# 
# High freq. dielectric constant tensor:
#      x y z
#    x 1.848310 0.000000 -0.007850 
#    y 0.000000 1.845280 0.000000 
#    z -0.007850 0.000000 1.858390 
# 
# From -- ./inp_files/12508.got.cif
#   From: 2010.03.12/outbox.cif.g09.slc.cpg/sg14_7_cif.got.tgz:12508.got - 2010.03.31 13:35:05.
