data_PCOD8127305
_publ_section_title
;
Structure prediction by ZEFSAII (Michael W. Deem and Ramdas Pophale) SiO2 
 PCOD8127305
Probable space group: P 21/C
;
_chemical_formula_sum "Si O2"
_cell_formula_units_Z 16
_cell_length_a 7.473957
_cell_length_b 13.501045
_cell_length_c 8.372741
_cell_angle_alpha 90.000000
_cell_angle_beta 127.401382
_cell_angle_gamma 90.000000
_cell_volume 671.158131
_symmetry_space_group_name_H-M "P 21/C"
_symmetry_group_IT_number 14
_symmetry_cell_setting 'monoclinic'
loop_
_space_group_symop_operation_xyz
x,y,z
-x,1/2+y,1/2-z
-x,-y,-z
x,1/2-y,1/2+z
loop_
_atom_site_type_symbol
_atom_site_label
_atom_site_fract_x
_atom_site_fract_y
_atom_site_fract_z
Si Si1 0.949682 0.207399 0.983136
Si Si2 0.203265 0.436828 0.399203
Si Si3 0.088563 0.110453 0.378580
Si Si4 0.477779 0.905140 0.205943
O O1 0.681332 0.190173 0.851556
O O2 0.044008 0.146943 0.883057
O O3 0.994347 0.323412 0.975482
O O4 0.078879 0.173638 0.211598
O O5 0.396996 0.388450 0.395310
O O6 0.317144 0.498001 0.607343
O O7 0.059142 0.511378 0.210106
O O8 0.348329 0.083103 0.554105
#
# Coordination Sequence:
#
# PCOD8127305 Si02
#       4
#     4   4   4   4
#     4  11  25  42  63  98 132 167 221 266 315 389
#     4  10  23  44  66  96 129 167 220 264 318 388
#     4  11  23  41  66  96 131 171 216 265 319 384
#     4  10  22  41  66  89 126 171 204 265 324 368
#
# _framework density 23.839389000000001
#
# number of rings (size 3 to 8) (size 9 to 14) (size 15 to 20)
#    0.000    1.500    0.000    5.250    0.000   14.000 
#    0.000    2.500    0.000    0.000    0.000    0.000 
#    0.000    0.000    0.000    0.000    0.000    0.000 
#
# Total GULP energy -198476.460990 kJ/mol
# GULP energy per Si atom -12404.778812 kJ/mol
# Density = 2.378513 g / cm^3
# Si number density = 23.839389 Si / 1000 Ang^3
#
#
#
# Elastic Constant Matrix: (Units=GPa)
#
#
# Indices 1 2 3 4 5 6 
#
# 1 82.7624 32.8562 30.5761 0.0000 20.4345 0.0000
# 2 32.8562 73.8518 11.6746 0.0000 21.9490 0.0000
# 3 30.5761 11.6746 132.7550 0.0000 42.7249 0.0000
# 4 0.0000 0.0000 0.0000 23.6459 0.0000 -7.5367
# 5 20.4345 21.9490 42.7249 0.0000 44.1836 0.0000
# 6 0.0000 0.0000 0.0000 -7.5367 0.0000 31.9885
#
#
#
# Elastic Compliance Matrix: (Units=1/GPa)
#
#
# Indices 1 2 3 4 5 6 
#
# 1 0.015908 -0.006120 -0.002521 0.000000 -0.001879 0.000000
# 2 -0.006120 0.018496 0.002656 0.000000 -0.008926 0.000000
# 3 -0.002521 0.002656 0.011512 0.000000 -0.011285 0.000000
# 4 0.000000 0.000000 0.000000 0.045724 0.000000 0.010773
# 5 -0.001879 -0.008926 -0.011285 0.000000 0.038848 0.000000
# 6 0.000000 0.000000 0.000000 0.010773 0.000000 0.033799
#
#
# Mechanical properties :
#
#
# Convention : Reuss Voigt Hill
#
# Bulk Modulus (GPa) = 29.45948 48.84256 39.15102
# Shear Modulus (GPa) = 26.65614 34.24776 30.45195
#
# Velocity S-wave (km/s) = 3.34751 3.79437 3.57792
# Velocity P-wave (km/s) = 5.22737 6.30309 5.79027
#
# Compressibility (1/GPa) = 0.03394493
#
# Stress axis : x y z
#
# Youngs Moduli (GPa) = 62.86225 54.06429 86.86892
#
# Poissons Ratio (x) = 0.33089 0.21899
# Poissons Ratio (y) = 0.38473 -0.23069
# Poissons Ratio (z) = 0.15847 -0.14358
#
# Static dielectric constant tensor:
#      x y z
#    x 4.207910 0.000000 0.113800 
#    y 0.000000 4.183880 0.000000 
#    z 0.113800 0.000000 4.379780 
# 
# 
# High freq. dielectric constant tensor:
#      x y z
#    x 1.943860 0.000000 0.002630 
#    y 0.000000 1.935250 0.000000 
#    z 0.002630 0.000000 1.954870 
# 
# From -- ./inp_files/8232.got.cif
#   From: 2010.03.12/outbox.cif.g09.slc.cpg/sg14_5_cif.got.tgz:8232.got - 2010.03.31 13:35:05.
