data_PCOD8127579
_publ_section_title
;
Structure prediction by ZEFSAII (Michael W. Deem and Ramdas Pophale) SiO2 
 PCOD8127579
Probable space group: P 21/C
;
_chemical_formula_sum "Si O2"
_cell_formula_units_Z 24
_cell_length_a 7.422617
_cell_length_b 16.724690
_cell_length_c 8.998433
_cell_angle_alpha 90.000000
_cell_angle_beta 98.540449
_cell_angle_gamma 90.000000
_cell_volume 1104.687250
_symmetry_space_group_name_H-M "P 21/C"
_symmetry_group_IT_number 14
_symmetry_cell_setting 'monoclinic'
loop_
_space_group_symop_operation_xyz
x,y,z
-x,1/2+y,1/2-z
-x,-y,-z
x,1/2-y,1/2+z
loop_
_atom_site_type_symbol
_atom_site_label
_atom_site_fract_x
_atom_site_fract_y
_atom_site_fract_z
Si Si1 0.948151 0.578879 0.407744
Si Si2 0.252180 0.809178 0.028579
Si Si3 0.829132 0.983333 0.578852
Si Si4 0.687284 0.682084 0.568530
Si Si5 0.728587 0.158983 0.644643
Si Si6 0.682591 0.663691 0.899144
O O1 0.881595 0.559305 0.236030
O O2 0.776727 0.617781 0.470793
O O3 0.000000 0.500000 0.500000
O O4 0.129160 0.632968 0.412004
O O5 0.200162 0.717943 0.976280
O O6 0.467036 0.828812 0.034886
O O7 0.174030 0.824661 0.185505
O O8 0.700081 0.924338 0.469970
O O9 0.732558 0.067589 0.595060
O O10 0.000000 0.000000 0.500000
O O11 0.770387 0.669225 0.744874
O O12 0.757190 0.769060 0.521405
O O13 0.524945 0.185186 0.653127
#
# Coordination Sequence:
#
# PCOD8127579 Si02
#       6
#     4   4   4   4   4   4
#     4  12  25  44  67  96 134 172 221 274 327 392
#     4  10  24  44  70  97 127 175 222 268 330 392
#     4  12  26  42  63 102 135 173 217 274 334 384
#     4  10  23  44  71  96 132 174 223 268 328 391
#     4  10  23  45  67  95 131 171 221 270 328 393
#     4  10  22  44  67  98 130 175 217 271 327 393
#
# _framework density 21.725605000000002
#
# number of rings (size 3 to 8) (size 9 to 14) (size 15 to 20)
#    0.000    1.333    1.667    2.500    4.667    2.000 
#    3.000    0.000    0.000    0.000    0.000    0.000 
#    0.000    0.000    0.000    0.000    0.000    0.000 
#
# Total GULP energy -297530.086335 kJ/mol
# GULP energy per Si atom -12397.086931 kJ/mol
# Density = 2.167616 g / cm^3
# Si number density = 21.725605 Si / 1000 Ang^3
#
#
#
# Elastic Constant Matrix: (Units=GPa)
#
#
# Indices 1 2 3 4 5 6 
#
# 1 60.6076 33.4418 30.6131 0.0000 -11.3979 0.0000
# 2 33.4418 174.7470 76.5532 0.0000 -4.4348 0.0000
# 3 30.6131 76.5532 151.8295 0.0000 -16.8848 0.0000
# 4 0.0000 0.0000 0.0000 51.9214 0.0000 -2.9401
# 5 -11.3979 -4.4348 -16.8848 0.0000 29.5249 0.0000
# 6 0.0000 0.0000 0.0000 -2.9401 0.0000 33.3137
#
#
#
# Elastic Compliance Matrix: (Units=1/GPa)
#
#
# Indices 1 2 3 4 5 6 
#
# 1 0.020239 -0.002865 -0.001939 0.000000 0.006274 0.000000
# 2 -0.002865 0.007783 -0.003566 0.000000 -0.001976 0.000000
# 3 -0.001939 -0.003566 0.009219 0.000000 0.003988 0.000000
# 4 0.000000 0.000000 0.000000 0.019357 0.000000 0.001708
# 5 0.006274 -0.001976 0.003988 0.000000 0.038276 0.000000
# 6 0.000000 0.000000 0.000000 0.001708 0.000000 0.030168
#
#
# Mechanical properties :
#
#
# Convention : Reuss Voigt Hill
#
# Bulk Modulus (GPa) = 48.77633 74.26669 61.52151
# Shear Modulus (GPa) = 33.64381 39.39040 36.51711
#
# Velocity S-wave (km/s) = 3.93947 4.26265 4.10424
# Velocity P-wave (km/s) = 6.57209 7.64756 7.13013
#
# Compressibility (1/GPa) = 0.02050175
#
# Stress axis : x y z
#
# Youngs Moduli (GPa) = 49.40841 128.48503 108.47242
#
# Poissons Ratio (x) = 0.36808 0.21029
# Poissons Ratio (y) = 0.14154 0.38686
# Poissons Ratio (z) = 0.09579 0.45823
#
# Static dielectric constant tensor:
#      x y z
#    x 3.748610 0.000000 -0.175140 
#    y 0.000000 3.693380 0.000000 
#    z -0.175140 0.000000 3.856750 
# 
# 
# High freq. dielectric constant tensor:
#      x y z
#    x 1.852300 0.000000 -0.001440 
#    y 0.000000 1.861910 0.000000 
#    z -0.001440 0.000000 1.867940 
# 
# From -- ./inp_files/8581.got.cif
#   From: 2010.03.12/outbox.cif.g09.slc.cpg/sg14_5_cif.got.tgz:8581.got - 2010.03.31 13:35:05.
