data_PCOD8127446
_publ_section_title
;
Structure prediction by ZEFSAII (Michael W. Deem and Ramdas Pophale) SiO2 
 PCOD8127446
Probable space group: P 21/C
;
_chemical_formula_sum "Si O2"
_cell_formula_units_Z 20
_cell_length_a 10.416788
_cell_length_b 17.521139
_cell_length_c 12.029480
_cell_angle_alpha 90.000000
_cell_angle_beta 154.244804
_cell_angle_gamma 90.000000
_cell_volume 954.024922
_symmetry_space_group_name_H-M "P 21/C"
_symmetry_group_IT_number 14
_symmetry_cell_setting 'monoclinic'
loop_
_space_group_symop_operation_xyz
x,y,z
-x,1/2+y,1/2-z
-x,-y,-z
x,1/2-y,1/2+z
loop_
_atom_site_type_symbol
_atom_site_label
_atom_site_fract_x
_atom_site_fract_y
_atom_site_fract_z
Si Si1 0.552006 0.847520 0.579442
Si Si2 0.169488 0.700816 0.589757
Si Si3 0.027152 0.954171 0.906386
Si Si4 0.219666 0.637681 0.035649
Si Si5 0.337992 0.052421 0.961677
O O1 0.357002 0.792959 0.349053
O O2 0.348498 0.883513 0.515965
O O3 0.699533 0.918568 0.626244
O O4 0.816892 0.798067 0.842588
O O5 0.246419 0.619338 0.591611
O O6 0.240790 0.771137 0.565362
O O7 0.141615 0.004405 0.894869
O O8 0.000000 0.000000 0.000000
O O9 0.407915 0.599056 0.278978
O O10 0.882284 0.608602 0.776580
O O11 0.500000 0.000000 0.000000
#
# Coordination Sequence:
#
# PCOD8127446 Si02
#       5
#     4   4   4   4   4
#     4  10  22  42  69  97 127 176 234 277 339 391
#     4  10  24  39  66 101 130 171 224 294 330 407
#     4  10  22  44  69 100 130 179 237 279 331 414
#     4  12  24  46  68  96 140 178 228 279 350 408
#     4  12  27  44  67 101 141 186 219 284 347 410
#
# _framework density 20.963812999999998
#
# number of rings (size 3 to 8) (size 9 to 14) (size 15 to 20)
#    1.200    0.000    2.000    4.200    2.800    4.800 
#    3.600    0.000    0.000    0.000    0.000    0.000 
#    0.000    0.000    0.000    0.000    0.000    0.000 
#
# Total GULP energy -247846.582789 kJ/mol
# GULP energy per Si atom -12392.329139 kJ/mol
# Density = 2.091610 g / cm^3
# Si number density = 20.963813 Si / 1000 Ang^3
#
#
#
# Elastic Constant Matrix: (Units=GPa)
#
#
# Indices 1 2 3 4 5 6 
#
# 1 87.2796 48.1842 31.7848 0.0000 3.4237 0.0000
# 2 48.1842 125.8191 35.4608 0.0000 -8.9710 0.0000
# 3 31.7848 35.4608 156.4237 0.0000 -21.8438 0.0000
# 4 0.0000 0.0000 0.0000 33.4074 0.0000 -4.8228
# 5 3.4237 -8.9710 -21.8438 0.0000 25.0981 0.0000
# 6 0.0000 0.0000 0.0000 -4.8228 0.0000 31.6013
#
#
#
# Elastic Compliance Matrix: (Units=1/GPa)
#
#
# Indices 1 2 3 4 5 6 
#
# 1 0.015962 -0.005784 -0.002874 0.000000 -0.006746 0.000000
# 2 -0.005784 0.010639 -0.000678 0.000000 0.004002 0.000000
# 3 -0.002874 -0.000678 0.008141 0.000000 0.007235 0.000000
# 4 0.000000 0.000000 0.000000 0.030608 0.000000 0.004671
# 5 -0.006746 0.004002 0.007235 0.000000 0.048491 0.000000
# 6 0.000000 0.000000 0.000000 0.004671 0.000000 0.032357
#
#
# Mechanical properties :
#
#
# Convention : Reuss Voigt Hill
#
# Bulk Modulus (GPa) = 62.22652 66.70911 64.46782
# Shear Modulus (GPa) = 29.37255 34.96085 32.16670
#
# Velocity S-wave (km/s) = 3.74720 4.08815 3.92138
# Velocity P-wave (km/s) = 6.96199 7.36031 7.16392
#
# Compressibility (1/GPa) = 0.01607032
#
# Stress axis : x y z
#
# Youngs Moduli (GPa) = 62.64953 93.99166 122.83556
#
# Poissons Ratio (x) = 0.54362 0.35307
# Poissons Ratio (y) = 0.36235 0.08326
# Poissons Ratio (z) = 0.18008 0.06371
#
# Static dielectric constant tensor:
#      x y z
#    x 3.362790 0.000000 -0.140870 
#    y 0.000000 3.823230 0.000000 
#    z -0.140870 0.000000 3.965150 
# 
# 
# High freq. dielectric constant tensor:
#      x y z
#    x 1.794630 0.000000 -0.001720 
#    y 0.000000 1.824080 0.000000 
#    z -0.001720 0.000000 1.837670 
# 
# From -- ./inp_files/26212.got.cif
#   From: 2010.03.12/outbox.cif.g09.slc.cpg/sg14_14_cif.got.tgz:26212.got - 2010.03.31 13:35:05.
