data_PCOD8127541
_publ_section_title
;
Structure prediction by ZEFSAII (Michael W. Deem and Ramdas Pophale) SiO2 
 PCOD8127541
Probable space group: P 21/C
;
_chemical_formula_sum "Si O2"
_cell_formula_units_Z 32
_cell_length_a 5.674312
_cell_length_b 10.695461
_cell_length_c 24.000780
_cell_angle_alpha 90.000000
_cell_angle_beta 84.935023
_cell_angle_gamma 90.000000
_cell_volume 1450.904845
_symmetry_space_group_name_H-M "P 21/C"
_symmetry_group_IT_number 14
_symmetry_cell_setting 'monoclinic'
loop_
_space_group_symop_operation_xyz
x,y,z
-x,1/2+y,1/2-z
-x,-y,-z
x,1/2-y,1/2+z
loop_
_atom_site_type_symbol
_atom_site_label
_atom_site_fract_x
_atom_site_fract_y
_atom_site_fract_z
Si Si1 0.227091 0.806675 0.653567
Si Si2 0.157557 0.754450 0.914573
Si Si3 0.923622 0.661149 0.740345
Si Si4 0.350589 0.337874 0.537207
Si Si5 0.070242 0.537893 0.840286
Si Si6 0.455537 0.597857 0.582213
Si Si7 0.412120 0.122794 0.272242
Si Si8 0.266408 0.534452 0.330691
O O1 0.270416 0.705552 0.604103
O O2 0.454150 0.879354 0.671066
O O3 0.140460 0.744140 0.713587
O O4 0.054871 0.913695 0.632234
O O5 0.400020 0.777168 0.945129
O O6 0.182484 0.614464 0.889217
O O7 0.137064 0.855616 0.866227
O O8 0.897617 0.762037 0.950283
O O9 0.689700 0.739106 0.732142
O O10 0.923835 0.533138 0.704604
O O11 0.911577 0.634242 0.806991
O O12 0.313752 0.474277 0.565754
O O13 0.380050 0.350768 0.470588
O O14 0.240217 0.493755 0.786649
O O15 0.624832 0.568096 0.630159
O O16 0.536867 0.094949 0.211997
#
# Coordination Sequence:
#
# PCOD8127541 Si02
#       8
#     4   4   4   4   4   4   4   4
#     4  11  22  41  63  94 131 178 219 274 339 408
#     4  11  26  44  69  98 134 179 225 285 345 401
#     4  11  23  37  60  96 132 170 222 261 327 417
#     4  10  25  46  71 101 128 171 238 297 346 389
#     4  11  26  38  63  91 141 181 221 271 337 420
#     4  10  22  43  72  96 130 171 230 293 342 398
#     4  11  24  40  58  98 134 174 218 265 332 417
#     4  11  22  37  68  97 132 178 211 280 341 409
#
# _framework density 22.055204
#
# number of rings (size 3 to 8) (size 9 to 14) (size 15 to 20)
#    0.000    1.250    2.500    2.250    8.750    5.500 
#    0.000    1.250    0.000    0.000    0.000    0.000 
#    0.000    0.000    0.000    0.000    0.000    0.000 
#
# Total GULP energy -396528.635393 kJ/mol
# GULP energy per Si atom -12391.519856 kJ/mol
# Density = 2.200501 g / cm^3
# Si number density = 22.055204 Si / 1000 Ang^3
#
#
#
# Elastic Constant Matrix: (Units=GPa)
#
#
# Indices 1 2 3 4 5 6 
#
# 1 88.1732 24.8788 20.9303 0.0000 -4.2377 0.0000
# 2 24.8788 101.6986 32.7863 0.0000 -5.9154 0.0000
# 3 20.9303 32.7863 84.9069 0.0000 -3.5395 0.0000
# 4 0.0000 0.0000 0.0000 29.1548 0.0000 -2.0105
# 5 -4.2377 -5.9154 -3.5395 0.0000 24.3722 0.0000
# 6 0.0000 0.0000 0.0000 -2.0105 0.0000 23.6399
#
#
#
# Elastic Compliance Matrix: (Units=1/GPa)
#
#
# Indices 1 2 3 4 5 6 
#
# 1 0.012565 -0.002303 -0.002153 0.000000 0.001313 0.000000
# 2 -0.002303 0.011762 -0.003895 0.000000 0.001889 0.000000
# 3 -0.002153 -0.003895 0.013841 0.000000 0.000690 0.000000
# 4 0.000000 0.000000 0.000000 0.034502 0.000000 0.002934
# 5 0.001313 0.001889 0.000690 0.000000 0.041817 0.000000
# 6 0.000000 0.000000 0.000000 0.002934 0.000000 0.042551
#
#
# Mechanical properties :
#
#
# Convention : Reuss Voigt Hill
#
# Bulk Modulus (GPa) = 46.58769 47.99661 47.29215
# Shear Modulus (GPa) = 27.63983 28.51224 28.07604
#
# Velocity S-wave (km/s) = 3.54391 3.59941 3.57177
# Velocity P-wave (km/s) = 6.15750 6.25169 6.20477
#
# Compressibility (1/GPa) = 0.02146490
#
# Stress axis : x y z
#
# Youngs Moduli (GPa) = 79.58306 85.01877 72.24720
#
# Poissons Ratio (x) = 0.19583 0.15557
# Poissons Ratio (y) = 0.18331 0.28143
# Poissons Ratio (z) = 0.17137 0.33118
#
# Static dielectric constant tensor:
#      x y z
#    x 3.925930 0.000000 -0.119720 
#    y 0.000000 4.044590 0.000000 
#    z -0.119720 0.000000 3.814760 
# 
# 
# High freq. dielectric constant tensor:
#      x y z
#    x 1.863760 0.000000 -0.003040 
#    y 0.000000 1.874230 0.000000 
#    z -0.003040 0.000000 1.853750 
# 
# From -- ./inp_files/71262.got.cif
#   From: 2010.03.12/outbox.cif.g09.slc.cpg/sg14_36_cif.got.tgz:71262.got - 2010.03.31 13:35:05.
