data_PCOD8127913
_publ_section_title
;
Structure prediction by ZEFSAII (Michael W. Deem and Ramdas Pophale) SiO2 
 PCOD8127913
Probable space group: P 21/C
;
_chemical_formula_sum "Si O2"
_cell_formula_units_Z 32
_cell_length_a 5.342169
_cell_length_b 18.375128
_cell_length_c 14.659254
_cell_angle_alpha 90.000000
_cell_angle_beta 81.815307
_cell_angle_gamma 90.000000
_cell_volume 1424.339734
_symmetry_space_group_name_H-M "P 21/C"
_symmetry_group_IT_number 14
_symmetry_cell_setting 'monoclinic'
loop_
_space_group_symop_operation_xyz
x,y,z
-x,1/2+y,1/2-z
-x,-y,-z
x,1/2-y,1/2+z
loop_
_atom_site_type_symbol
_atom_site_label
_atom_site_fract_x
_atom_site_fract_y
_atom_site_fract_z
Si Si1 0.768072 0.960952 0.390213
Si Si2 0.192717 0.395542 0.640707
Si Si3 0.157865 0.750264 0.534851
Si Si4 0.249627 0.910650 0.477059
Si Si5 0.774925 0.632974 0.562104
Si Si6 0.663719 0.190150 0.152892
Si Si7 0.332619 0.684071 0.705936
Si Si8 0.021483 0.549413 0.699912
O O1 0.530408 0.906176 0.417787
O O2 0.037631 0.937301 0.417889
O O3 0.788962 0.968984 0.279607
O O4 0.710335 0.039269 0.436271
O O5 0.295407 0.401983 0.531318
O O6 0.411721 0.355887 0.688028
O O7 0.184877 0.476297 0.682139
O O8 0.922198 0.353741 0.663434
O O9 0.144534 0.834798 0.517842
O O10 0.345975 0.710003 0.454229
O O11 0.233109 0.739175 0.634911
O O12 0.885195 0.713164 0.535078
O O13 0.568487 0.642314 0.650752
O O14 0.963520 0.575224 0.599820
O O15 0.632002 0.266686 0.206886
O O16 0.151751 0.618006 0.743740
#
# Coordination Sequence:
#
# PCOD8127913 Si02
#       8
#     4   4   4   4   4   4   4   4
#     4  10  24  42  64 102 129 179 224 281 338 410
#     4  11  26  48  68 102 137 185 223 291 342 413
#     4  10  23  43  66  96 135 178 220 287 338 407
#     4  10  23  43  68  94 139 175 225 277 349 401
#     4  10  24  45  67 101 135 180 232 280 349 406
#     4  11  26  44  70 101 139 177 235 279 350 406
#     4  11  25  43  70 102 135 184 228 285 342 412
#     4  11  26  42  72 100 141 178 238 282 344 411
#
# _framework density 22.466550999999999
#
# number of rings (size 3 to 8) (size 9 to 14) (size 15 to 20)
#    0.000    1.500    1.250    1.125   12.250    0.500 
#    2.250    0.000    0.000    0.000    0.000    0.000 
#    0.000    0.000    0.000    0.000    0.000    0.000 
#
# Total GULP energy -396548.430072 kJ/mol
# GULP energy per Si atom -12392.138440 kJ/mol
# Density = 2.241542 g / cm^3
# Si number density = 22.466551 Si / 1000 Ang^3
#
#
#
# Elastic Constant Matrix: (Units=GPa)
#
#
# Indices 1 2 3 4 5 6 
#
# 1 91.2258 13.9051 23.9451 0.0000 -4.6333 0.0000
# 2 13.9051 102.8416 41.6809 0.0000 7.3122 0.0000
# 3 23.9451 41.6809 104.9307 0.0000 -15.6529 0.0000
# 4 0.0000 0.0000 0.0000 27.9131 0.0000 -7.8198
# 5 -4.6333 7.3122 -15.6529 0.0000 20.4983 0.0000
# 6 0.0000 0.0000 0.0000 -7.8198 0.0000 9.2060
#
#
#
# Elastic Compliance Matrix: (Units=1/GPa)
#
#
# Indices 1 2 3 4 5 6 
#
# 1 0.011717 -0.000797 -0.002166 0.000000 0.001278 0.000000
# 2 -0.000797 0.013176 -0.006523 0.000000 -0.009862 0.000000
# 3 -0.002166 -0.006523 0.014547 0.000000 0.012945 0.000000
# 4 0.000000 0.000000 0.000000 0.047013 0.000000 0.039934
# 5 0.001278 -0.009862 0.012945 0.000000 0.062477 0.000000
# 6 0.000000 0.000000 0.000000 0.039934 0.000000 0.142547
#
#
# Mechanical properties :
#
#
# Convention : Reuss Voigt Hill
#
# Bulk Modulus (GPa) = 48.86005 50.89559 49.87782
# Shear Modulus (GPa) = 15.75932 26.15463 20.95697
#
# Velocity S-wave (km/s) = 2.65138 3.41568 3.05750
# Velocity P-wave (km/s) = 5.58285 6.18538 5.89182
#
# Compressibility (1/GPa) = 0.02046662
#
# Stress axis : x y z
#
# Youngs Moduli (GPa) = 85.34692 75.89292 68.74377
#
# Poissons Ratio (x) = 0.06049 0.14893
# Poissons Ratio (y) = 0.06803 0.44843
# Poissons Ratio (z) = 0.18490 0.49507
#
# Static dielectric constant tensor:
#      x y z
#    x 4.023470 0.000000 -0.087530 
#    y 0.000000 3.966670 0.000000 
#    z -0.087530 0.000000 4.094510 
# 
# 
# High freq. dielectric constant tensor:
#      x y z
#    x 1.875580 0.000000 -0.005900 
#    y 0.000000 1.888210 0.000000 
#    z -0.005900 0.000000 1.895920 
# 
# From -- ./inp_files/37838.got.cif
#   From: 2010.03.12/outbox.cif.g09.slc.cpg/sg14_19_cif.got.tgz:37838.got - 2010.03.31 13:35:05.
