data_PCOD8127301
_publ_section_title
;
Structure prediction by ZEFSAII (Michael W. Deem and Ramdas Pophale) SiO2 
 PCOD8127301
Probable space group: P 21/C
;
_chemical_formula_sum "Si O2"
_cell_formula_units_Z 20
_cell_length_a 10.647861
_cell_length_b 5.087532
_cell_length_c 28.004124
_cell_angle_alpha 90.000000
_cell_angle_beta 145.626052
_cell_angle_gamma 90.000000
_cell_volume 856.497429
_symmetry_space_group_name_H-M "P 21/C"
_symmetry_group_IT_number 14
_symmetry_cell_setting 'monoclinic'
loop_
_space_group_symop_operation_xyz
x,y,z
-x,1/2+y,1/2-z
-x,-y,-z
x,1/2-y,1/2+z
loop_
_atom_site_type_symbol
_atom_site_label
_atom_site_fract_x
_atom_site_fract_y
_atom_site_fract_z
Si Si1 0.598361 0.247877 0.556304
Si Si2 0.492896 0.000498 0.621120
Si Si3 0.397536 0.181953 0.694449
Si Si4 0.044340 0.751819 0.481870
Si Si5 0.044801 0.248271 0.734847
O O1 0.500000 0.500000 0.500000
O O2 0.867004 0.265397 0.635565
O O3 0.500000 0.000000 0.500000
O O4 0.536841 0.211876 0.593005
O O5 0.299778 0.790791 0.544551
O O6 0.707404 0.825711 0.702608
O O7 0.436003 0.170452 0.649751
O O8 0.552225 0.404719 0.765249
O O9 0.133442 0.248160 0.617999
O O10 0.000000 0.500000 0.500000
O O11 0.000000 0.000000 0.500000
O O12 0.956973 0.449187 0.747717
#
# Coordination Sequence:
#
# PCOD8127301 Si02
#       5
#     4   4   4   4   4
#     4  11  24  41  65  98 130 170 226 273 329 409
#     4  10  24  44  68  92 138 181 210 283 343 378
#     4  11  24  41  65  98 128 167 224 270 325 404
#     4  10  22  41  65  94 129 172 222 270 330 403
#     4  10  22  41  65  94 128 170 219 266 327 402
#
# _framework density 23.350918
#
# number of rings (size 3 to 8) (size 9 to 14) (size 15 to 20)
#    0.000    1.600    0.000    4.800    0.000   17.600 
#    0.000    0.000    0.000    0.000    0.000    0.000 
#    0.000    0.000    0.000    0.000    0.000    0.000 
#
# Total GULP energy -247861.814539 kJ/mol
# GULP energy per Si atom -12393.090727 kJ/mol
# Density = 2.329777 g / cm^3
# Si number density = 23.350918 Si / 1000 Ang^3
#
#
#
# Elastic Constant Matrix: (Units=GPa)
#
#
# Indices 1 2 3 4 5 6 
#
# 1 80.1763 25.3611 51.9740 0.0000 8.4632 0.0000
# 2 25.3611 129.4513 47.9485 0.0000 -0.8658 0.0000
# 3 51.9740 47.9485 214.7783 0.0000 30.7742 0.0000
# 4 0.0000 0.0000 0.0000 54.2979 0.0000 -9.2513
# 5 8.4632 -0.8658 30.7742 0.0000 49.8983 0.0000
# 6 0.0000 0.0000 0.0000 -9.2513 0.0000 31.6891
#
#
#
# Elastic Compliance Matrix: (Units=1/GPa)
#
#
# Indices 1 2 3 4 5 6 
#
# 1 0.015169 -0.001800 -0.003177 0.000000 -0.000645 0.000000
# 2 -0.001800 0.008729 -0.001732 0.000000 0.001525 0.000000
# 3 -0.003177 -0.001732 0.006295 0.000000 -0.003373 0.000000
# 4 0.000000 0.000000 0.000000 0.019381 0.000000 0.005658
# 5 -0.000645 0.001525 -0.003373 0.000000 0.022257 0.000000
# 6 0.000000 0.000000 0.000000 0.005658 0.000000 0.033208
#
#
# Mechanical properties :
#
#
# Convention : Reuss Voigt Hill
#
# Bulk Modulus (GPa) = 59.60528 74.99702 67.30115
# Shear Modulus (GPa) = 40.30722 47.11854 43.71288
#
# Velocity S-wave (km/s) = 4.15921 4.49692 4.33135
# Velocity P-wave (km/s) = 6.97471 7.69091 7.34155
#
# Compressibility (1/GPa) = 0.01677704
#
# Stress axis : x y z
#
# Youngs Moduli (GPa) = 65.92385 114.55954 158.86575
#
# Poissons Ratio (x) = 0.20615 0.50465
# Poissons Ratio (y) = 0.11863 0.27511
# Poissons Ratio (z) = 0.20941 0.19839
#
# Static dielectric constant tensor:
#      x y z
#    x 4.335040 0.000000 0.621460 
#    y 0.000000 4.283490 0.000000 
#    z 0.621460 0.000000 5.507220 
# 
# 
# High freq. dielectric constant tensor:
#      x y z
#    x 1.890980 0.000000 0.017250 
#    y 0.000000 1.933120 0.000000 
#    z 0.017250 0.000000 1.960720 
# 
# From -- ./inp_files/79843.got.cif
#   From: 2010.03.12/outbox.cif.g09.slc.cpg/sg14_40_cif.got.tgz:79843.got - 2010.03.31 13:35:05.
