data_PCOD8127724
_publ_section_title
;
Structure prediction by ZEFSAII (Michael W. Deem and Ramdas Pophale) SiO2 
 PCOD8127724
Probable space group: P 21/C
;
_chemical_formula_sum "Si O2"
_cell_formula_units_Z 32
_cell_length_a 14.873186
_cell_length_b 11.434501
_cell_length_c 16.140570
_cell_angle_alpha 90.000000
_cell_angle_beta 37.236252
_cell_angle_gamma 90.000000
_cell_volume 1660.999032
_symmetry_space_group_name_H-M "P 21/C"
_symmetry_group_IT_number 14
_symmetry_cell_setting 'monoclinic'
loop_
_space_group_symop_operation_xyz
x,y,z
-x,1/2+y,1/2-z
-x,-y,-z
x,1/2-y,1/2+z
loop_
_atom_site_type_symbol
_atom_site_label
_atom_site_fract_x
_atom_site_fract_y
_atom_site_fract_z
Si Si1 0.973363 0.720772 0.885601
Si Si2 0.228974 0.883484 0.111828
Si Si3 0.484834 0.253863 0.909039
Si Si4 0.251779 0.095210 0.980850
Si Si5 0.776618 0.124486 0.702815
Si Si6 0.717616 0.919313 0.638147
Si Si7 0.481528 0.251200 0.607161
Si Si8 0.519801 0.993473 0.309716
O O1 0.076765 0.693957 0.729112
O O2 0.074428 0.704113 0.894803
O O3 0.904897 0.849616 0.932817
O O4 0.834373 0.632392 0.987699
O O5 0.276294 0.923770 0.169053
O O6 0.365009 0.809827 0.975062
O O7 0.199422 0.999606 0.083759
O O8 0.358760 0.193039 0.944722
O O9 0.641305 0.199502 0.765666
O O10 0.504798 0.390628 0.875615
O O11 0.449393 0.236654 0.032523
O O12 0.322299 0.029574 0.850336
O O13 0.810756 0.010450 0.624485
O O14 0.648233 0.814069 0.744604
O O15 0.596363 0.996460 0.679910
O O16 0.504453 0.115636 0.611821
#
# Coordination Sequence:
#
# PCOD8127724 Si02
#       8
#     4   4   4   4   4   4   4   4
#     4  10  23  40  59  98 130 157 209 264 327 368
#     4   9  22  39  62  90 126 170 201 259 320 372
#     4  11  22  41  63  92 127 170 211 258 320 382
#     4  12  21  41  66  94 129 162 220 265 308 385
#     4   9  21  40  62  90 126 165 207 260 314 384
#     4  12  20  38  69  92 122 166 216 267 309 374
#     4  11  22  40  64  93 126 170 216 256 318 383
#     4  12  23  36  66  98 126 159 222 268 310 367
#
# _framework density 19.265514
#
# number of rings (size 3 to 8) (size 9 to 14) (size 15 to 20)
#    0.750    0.500    5.000    1.500    0.000    3.000 
#    0.000    0.625    0.000    0.000    0.000    0.000 
#    0.000    0.000    0.000    0.000    0.000    0.000 
#
# Total GULP energy -396502.766474 kJ/mol
# GULP energy per Si atom -12390.711452 kJ/mol
# Density = 1.922166 g / cm^3
# Si number density = 19.265514 Si / 1000 Ang^3
#
#
#
# Elastic Constant Matrix: (Units=GPa)
#
#
# Indices 1 2 3 4 5 6 
#
# 1 54.7252 24.5659 30.7201 0.0000 -8.5874 0.0000
# 2 24.5659 66.5114 28.2604 0.0000 -5.5370 0.0000
# 3 30.7201 28.2604 68.4687 0.0000 -18.2395 0.0000
# 4 0.0000 0.0000 0.0000 38.3375 0.0000 0.2079
# 5 -8.5874 -5.5370 -18.2395 0.0000 28.5327 0.0000
# 6 0.0000 0.0000 0.0000 0.2079 0.0000 42.5003
#
#
#
# Elastic Compliance Matrix: (Units=1/GPa)
#
#
# Indices 1 2 3 4 5 6 
#
# 1 0.026085 -0.005687 -0.009111 0.000000 0.000923 0.000000
# 2 -0.005687 0.019528 -0.005972 0.000000 -0.001740 0.000000
# 3 -0.009111 -0.005972 0.024248 0.000000 0.011599 0.000000
# 4 0.000000 0.000000 0.000000 0.026085 0.000000 -0.000128
# 5 0.000923 -0.001740 0.011599 0.000000 0.042403 0.000000
# 6 0.000000 0.000000 0.000000 -0.000128 0.000000 0.023530
#
#
# Mechanical properties :
#
#
# Convention : Reuss Voigt Hill
#
# Bulk Modulus (GPa) = 35.30784 39.64421 37.47602
# Shear Modulus (GPa) = 23.48988 28.95137 26.22063
#
# Velocity S-wave (km/s) = 3.49559 3.88075 3.69319
# Velocity P-wave (km/s) = 5.88719 6.37987 6.13847
#
# Compressibility (1/GPa) = 0.02832232
#
# Stress axis : x y z
#
# Youngs Moduli (GPa) = 38.33636 51.20830 41.24070
#
# Poissons Ratio (x) = 0.29120 0.37572
# Poissons Ratio (y) = 0.21800 0.24630
# Poissons Ratio (z) = 0.34926 0.30583
#
# Static dielectric constant tensor:
#      x y z
#    x 3.450470 0.000000 -0.049970 
#    y 0.000000 3.490320 0.000000 
#    z -0.049970 0.000000 3.465380 
# 
# 
# High freq. dielectric constant tensor:
#      x y z
#    x 1.736520 0.000000 -0.002650 
#    y 0.000000 1.753790 0.000000 
#    z -0.002650 0.000000 1.747410 
# 
# From -- ./inp_files/47136.got.cif
#   From: 2010.03.12/outbox.cif.g09.slc.cpg/sg14_24_cif.got.tgz:47136.got - 2010.03.31 13:35:05.
