data_PCOD8127332
_publ_section_title
;
Structure prediction by ZEFSAII (Michael W. Deem and Ramdas Pophale) SiO2 
 PCOD8127332
Probable space group: P 21/C
;
_chemical_formula_sum "Si O2"
_cell_formula_units_Z 24
_cell_length_a 8.359300
_cell_length_b 14.901554
_cell_length_c 16.635286
_cell_angle_alpha 90.000000
_cell_angle_beta 32.073095
_cell_angle_gamma 90.000000
_cell_volume 1100.339900
_symmetry_space_group_name_H-M "P 21/C"
_symmetry_group_IT_number 14
_symmetry_cell_setting 'monoclinic'
loop_
_space_group_symop_operation_xyz
x,y,z
-x,1/2+y,1/2-z
-x,-y,-z
x,1/2-y,1/2+z
loop_
_atom_site_type_symbol
_atom_site_label
_atom_site_fract_x
_atom_site_fract_y
_atom_site_fract_z
Si Si1 0.236998 0.883690 0.920558
Si Si2 0.575047 0.938394 0.229357
Si Si3 0.455822 0.235262 0.453495
Si Si4 0.336116 0.907718 0.062247
Si Si5 0.828416 0.218848 0.654541
Si Si6 0.646345 0.919873 0.387849
O O1 0.290299 0.783590 0.865321
O O2 0.450727 0.956239 0.783601
O O3 0.312510 0.879100 0.980942
O O4 0.886235 0.905904 0.057579
O O5 0.313618 0.879891 0.298494
O O6 0.553761 0.927884 0.334341
O O7 0.441655 0.337253 0.490397
O O8 0.750641 0.232341 0.272047
O O9 0.490377 0.170263 0.515157
O O10 0.186949 0.209056 0.507129
O O11 0.007829 0.915433 0.243532
O O12 0.500000 0.000000 0.000000
O O13 0.500000 0.000000 0.500000
#
# Coordination Sequence:
#
# PCOD8127332 Si02
#       6
#     4   4   4   4   4   4
#     4  10  22  41  69  93 132 178 216 272 330 397
#     4  10  22  43  67  98 132 172 223 269 334 391
#     4  12  25  43  68  98 137 175 221 278 332 399
#     4  11  25  43  68  99 133 178 224 270 338 397
#     4  12  23  44  69  98 132 173 226 274 332 395
#     4  11  25  44  68  99 136 173 224 280 327 392
#
# _framework density 21.811442
#
# number of rings (size 3 to 8) (size 9 to 14) (size 15 to 20)
#    0.000    1.000    3.333    3.000    7.000    0.000 
#    3.000    1.667    0.000    0.000    0.000    0.000 
#    0.000    0.000    0.000    0.000    0.000    0.000 
#
# Total GULP energy -297583.050333 kJ/mol
# GULP energy per Si atom -12399.293764 kJ/mol
# Density = 2.176180 g / cm^3
# Si number density = 21.811442 Si / 1000 Ang^3
#
#
#
# Elastic Constant Matrix: (Units=GPa)
#
#
# Indices 1 2 3 4 5 6 
#
# 1 79.6450 29.8377 27.2541 0.0000 -0.0989 0.0000
# 2 29.8377 116.3001 34.0188 0.0000 3.6562 0.0000
# 3 27.2541 34.0188 63.5579 0.0000 15.9539 0.0000
# 4 0.0000 0.0000 0.0000 37.2200 0.0000 3.5425
# 5 -0.0989 3.6562 15.9539 0.0000 37.8107 0.0000
# 6 0.0000 0.0000 0.0000 3.5425 0.0000 44.9340
#
#
#
# Elastic Compliance Matrix: (Units=1/GPa)
#
#
# Indices 1 2 3 4 5 6 
#
# 1 0.015516 -0.002270 -0.006156 0.000000 0.002857 0.000000
# 2 -0.002270 0.010600 -0.004968 0.000000 0.001065 0.000000
# 3 -0.006156 -0.004968 0.023393 0.000000 -0.009406 0.000000
# 4 0.000000 0.000000 0.000000 0.027070 0.000000 -0.002134
# 5 0.002857 0.001065 -0.009406 0.000000 0.030321 0.000000
# 6 0.000000 0.000000 0.000000 -0.002134 0.000000 0.022423
#
#
# Mechanical properties :
#
#
# Convention : Reuss Voigt Hill
#
# Bulk Modulus (GPa) = 44.00822 49.08046 46.54434
# Shear Modulus (GPa) = 30.54636 35.21910 32.88273
#
# Velocity S-wave (km/s) = 3.74635 4.02270 3.88698
# Velocity P-wave (km/s) = 6.23971 6.64283 6.44442
#
# Compressibility (1/GPa) = 0.02272303
#
# Stress axis : x y z
#
# Youngs Moduli (GPa) = 64.44906 94.33539 42.74723
#
# Poissons Ratio (x) = 0.21414 0.26314
# Poissons Ratio (y) = 0.14630 0.21236
# Poissons Ratio (z) = 0.39673 0.46864
#
# Static dielectric constant tensor:
#      x y z
#    x 3.763380 0.000000 0.267400 
#    y 0.000000 4.046080 0.000000 
#    z 0.267400 0.000000 4.038280 
# 
# 
# High freq. dielectric constant tensor:
#      x y z
#    x 1.860160 0.000000 0.016130 
#    y 0.000000 1.865310 0.000000 
#    z 0.016130 0.000000 1.856610 
# 
# From -- ./inp_files/55898.got.cif
#   From: 2010.03.12/outbox.cif.g09.slc.cpg/sg14_28_cif.got.tgz:55898.got - 2010.03.31 13:35:05.
