data_PCOD8127073
_publ_section_title
;
Structure prediction by ZEFSAII (Michael W. Deem and Ramdas Pophale) SiO2 
 PCOD8127073
Probable space group: P 21/C
;
_chemical_formula_sum "Si O2"
_cell_formula_units_Z 28
_cell_length_a 7.938151
_cell_length_b 21.899799
_cell_length_c 11.265402
_cell_angle_alpha 90.000000
_cell_angle_beta 138.962313
_cell_angle_gamma 90.000000
_cell_volume 1285.812059
_symmetry_space_group_name_H-M "P 21/C"
_symmetry_group_IT_number 14
_symmetry_cell_setting 'monoclinic'
loop_
_space_group_symop_operation_xyz
x,y,z
-x,1/2+y,1/2-z
-x,-y,-z
x,1/2-y,1/2+z
loop_
_atom_site_type_symbol
_atom_site_label
_atom_site_fract_x
_atom_site_fract_y
_atom_site_fract_z
Si Si1 0.570656 0.872044 0.053285
Si Si2 0.070710 0.572880 0.168149
Si Si3 0.395612 0.662431 0.042270
Si Si4 0.807906 0.212892 0.026349
Si Si5 0.776268 0.691137 0.053736
Si Si6 0.963149 0.057552 0.616637
Si Si7 0.795665 0.813815 0.944036
O O1 0.326775 0.907244 0.871534
O O2 0.462004 0.818933 0.081801
O O3 0.761762 0.845178 0.053803
O O4 0.744252 0.918011 0.221486
O O5 0.957193 0.510975 0.168941
O O6 0.854514 0.624955 0.045947
O O7 0.143733 0.555258 0.073722
O O8 0.505890 0.686675 0.976940
O O9 0.615727 0.649985 0.256191
O O10 0.225953 0.715010 0.014197
O O11 0.234013 0.602476 0.921930
O O12 0.002913 0.210997 0.238960
O O13 0.920563 0.182282 0.965192
O O14 0.735861 0.741193 0.928181
#
# Coordination Sequence:
#
# PCOD8127073 Si02
#       7
#     4   4   4   4   4   4   4
#     4  11  22  43  66  93 125 165 202 262 310 368
#     4  10  23  43  63  89 125 167 210 257 301 366
#     4  11  22  37  60  93 127 158 210 254 303 382
#     4  10  23  37  59  95 126 157 207 252 314 377
#     4  10  22  39  60  88 127 165 200 257 316 362
#     4  11  23  40  66  90 120 170 214 247 307 372
#     4  11  22  37  63  92 128 161 198 260 316 363
#
# _framework density 21.776122000000001
#
# number of rings (size 3 to 8) (size 9 to 14) (size 15 to 20)
#    0.000    1.429    2.857    2.143    6.000    1.714 
#    0.000    0.000    0.000    3.429    0.000    0.000 
#    0.000    0.000    0.000    0.000    0.000    0.000 
#
# Total GULP energy -347061.288186 kJ/mol
# GULP energy per Si atom -12395.046007 kJ/mol
# Density = 2.172656 g / cm^3
# Si number density = 21.776122 Si / 1000 Ang^3
#
#
#
# Elastic Constant Matrix: (Units=GPa)
#
#
# Indices 1 2 3 4 5 6 
#
# 1 91.1355 8.0590 4.3047 0.0000 -0.7507 0.0000
# 2 8.0590 114.2083 19.0270 0.0000 8.4473 0.0000
# 3 4.3047 19.0270 48.3469 0.0000 3.9413 0.0000
# 4 0.0000 0.0000 0.0000 30.3473 0.0000 2.7809
# 5 -0.7507 8.4473 3.9413 0.0000 21.3998 0.0000
# 6 0.0000 0.0000 0.0000 2.7809 0.0000 27.3127
#
#
#
# Elastic Compliance Matrix: (Units=1/GPa)
#
#
# Indices 1 2 3 4 5 6 
#
# 1 0.011079 -0.000713 -0.000772 0.000000 0.000812 0.000000
# 2 -0.000713 0.009619 -0.003462 0.000000 -0.003184 0.000000
# 3 -0.000772 -0.003462 0.022341 0.000000 -0.002775 0.000000
# 4 0.000000 0.000000 0.000000 0.033262 0.000000 -0.003387
# 5 0.000812 -0.003184 -0.002775 0.000000 0.048526 0.000000
# 6 0.000000 0.000000 0.000000 -0.003387 0.000000 0.036958
#
#
# Mechanical properties :
#
#
# Convention : Reuss Voigt Hill
#
# Bulk Modulus (GPa) = 30.17154 35.16357 32.66756
# Shear Modulus (GPa) = 27.36310 30.63196 28.99753
#
# Velocity S-wave (km/s) = 3.54865 3.75464 3.65310
# Velocity P-wave (km/s) = 5.53859 5.91432 5.72954
#
# Compressibility (1/GPa) = 0.03314382
#
# Stress axis : x y z
#
# Youngs Moduli (GPa) = 90.26163 103.96527 44.75992
#
# Poissons Ratio (x) = 0.07415 0.03455
# Poissons Ratio (y) = 0.06438 0.15497
# Poissons Ratio (z) = 0.06968 0.35996
#
# Static dielectric constant tensor:
#      x y z
#    x 3.905110 0.000000 0.069980 
#    y 0.000000 4.201890 0.000000 
#    z 0.069980 0.000000 3.766460 
# 
# 
# High freq. dielectric constant tensor:
#      x y z
#    x 1.845300 0.000000 0.004250 
#    y 0.000000 1.848300 0.000000 
#    z 0.004250 0.000000 1.856180 
# 
# From -- ./inp_files/26836.got.cif
#   From: 2010.03.12/outbox.cif.g09.slc.cpg/sg14_14_cif.got.tgz:26836.got - 2010.03.31 13:35:05.
