data_PCOD8127117
_publ_section_title
;
Structure prediction by ZEFSAII (Michael W. Deem and Ramdas Pophale) SiO2 
 PCOD8127117
Probable space group: P 21/C
;
_chemical_formula_sum "Si O2"
_cell_formula_units_Z 32
_cell_length_a 11.285282
_cell_length_b 17.840890
_cell_length_c 13.476339
_cell_angle_alpha 90.000000
_cell_angle_beta 33.321159
_cell_angle_gamma 90.000000
_cell_volume 1490.511441
_symmetry_space_group_name_H-M "P 21/C"
_symmetry_group_IT_number 14
_symmetry_cell_setting 'monoclinic'
loop_
_space_group_symop_operation_xyz
x,y,z
-x,1/2+y,1/2-z
-x,-y,-z
x,1/2-y,1/2+z
loop_
_atom_site_type_symbol
_atom_site_label
_atom_site_fract_x
_atom_site_fract_y
_atom_site_fract_z
Si Si1 0.552255 0.412310 0.845269
Si Si2 0.418014 0.755386 0.191724
Si Si3 0.297631 0.551618 0.046986
Si Si4 0.253426 0.890221 0.995610
Si Si5 0.392464 0.159428 0.114315
Si Si6 0.185760 0.453216 0.624150
Si Si7 0.355262 0.138684 0.822451
Si Si8 0.966270 0.781793 0.092274
O O1 0.481704 0.325918 0.903847
O O2 0.342148 0.465189 0.985365
O O3 0.704344 0.423485 0.643249
O O4 0.688515 0.438847 0.844608
O O5 0.552632 0.787300 0.189745
O O6 0.165513 0.752785 0.392547
O O7 0.437583 0.807078 0.082206
O O8 0.460064 0.605832 0.876736
O O9 0.057012 0.573483 0.185548
O O10 0.476493 0.850947 0.875395
O O11 0.060867 0.828698 0.120746
O O12 0.192363 0.956402 0.114426
O O13 0.316942 0.078117 0.126819
O O14 0.188911 0.214746 0.265345
O O15 0.280101 0.421087 0.456076
O O16 0.154783 0.160273 0.894394
#
# Coordination Sequence:
#
# PCOD8127117 Si02
#       8
#     4   4   4   4   4   4   4   4
#     4  10  22  39  64  94 132 158 212 273 315 371
#     4  10  23  42  61  96 126 167 213 261 321 387
#     4  11  23  40  66  96 128 167 214 270 321 381
#     4  11  24  44  65  94 133 170 219 262 322 390
#     4  11  25  44  65  92 137 168 218 266 318 385
#     4  11  24  42  66  94 129 180 213 258 326 387
#     4  11  23  42  67  93 136 159 214 278 316 374
#     4  11  23  39  69  94 125 175 209 271 328 374
#
# _framework density 21.469139999999999
#
# number of rings (size 3 to 8) (size 9 to 14) (size 15 to 20)
#    0.000    1.250    1.250    4.875    5.250    4.000 
#    2.250    0.625    0.000    0.000    0.000    0.000 
#    0.000    0.000    0.000    0.000    0.000    0.000 
#
# Total GULP energy -396826.486835 kJ/mol
# GULP energy per Si atom -12400.827714 kJ/mol
# Density = 2.142028 g / cm^3
# Si number density = 21.469140 Si / 1000 Ang^3
#
#
#
# Elastic Constant Matrix: (Units=GPa)
#
#
# Indices 1 2 3 4 5 6 
#
# 1 102.6178 41.1872 42.2794 0.0000 -15.0192 0.0000
# 2 41.1872 112.7736 40.0303 0.0000 -11.5656 0.0000
# 3 42.2794 40.0303 102.4073 0.0000 -15.6078 0.0000
# 4 0.0000 0.0000 0.0000 41.0790 0.0000 -2.9863
# 5 -15.0192 -11.5656 -15.6078 0.0000 27.2643 0.0000
# 6 0.0000 0.0000 0.0000 -2.9863 0.0000 29.9471
#
#
#
# Elastic Compliance Matrix: (Units=1/GPa)
#
#
# Indices 1 2 3 4 5 6 
#
# 1 0.013021 -0.003092 -0.003587 0.000000 0.003808 0.000000
# 2 -0.003092 0.011159 -0.002874 0.000000 0.001385 0.000000
# 3 -0.003587 -0.002874 0.013018 0.000000 0.004257 0.000000
# 4 0.000000 0.000000 0.000000 0.024521 0.000000 0.002445
# 5 0.003808 0.001385 0.004257 0.000000 0.041800 0.000000
# 6 0.000000 0.000000 0.000000 0.002445 0.000000 0.033636
#
#
# Mechanical properties :
#
#
# Convention : Reuss Voigt Hill
#
# Bulk Modulus (GPa) = 55.27309 62.75473 59.01391
# Shear Modulus (GPa) = 30.80864 32.61154 31.71009
#
# Velocity S-wave (km/s) = 3.79228 3.90166 3.84736
# Velocity P-wave (km/s) = 6.70644 7.04208 6.87631
#
# Compressibility (1/GPa) = 0.01809199
#
# Stress axis : x y z
#
# Youngs Moduli (GPa) = 76.79904 89.61513 76.81559
#
# Poissons Ratio (x) = 0.27707 0.27553
# Poissons Ratio (y) = 0.23745 0.22080
# Poissons Ratio (z) = 0.27547 0.25759
#
# Static dielectric constant tensor:
#      x y z
#    x 3.826270 0.000000 0.019970 
#    y 0.000000 4.035590 0.000000 
#    z 0.019970 0.000000 3.771490 
# 
# 
# High freq. dielectric constant tensor:
#      x y z
#    x 1.839570 0.000000 -0.000880 
#    y 0.000000 1.854350 0.000000 
#    z -0.000880 0.000000 1.841730 
# 
# From -- ./inp_files/45415.got.cif
#   From: 2010.03.12/outbox.cif.g09.slc.cpg/sg14_23_cif.got.tgz:45415.got - 2010.03.31 13:35:05.
