data_PCOD8127155
_publ_section_title
;
Structure prediction by ZEFSAII (Michael W. Deem and Ramdas Pophale) SiO2 
 PCOD8127155
Probable space group: P 21/C
;
_chemical_formula_sum "Si O2"
_cell_formula_units_Z 20
_cell_length_a 11.220191
_cell_length_b 13.250253
_cell_length_c 14.901776
_cell_angle_alpha 90.000000
_cell_angle_beta 155.643236
_cell_angle_gamma 90.000000
_cell_volume 913.690515
_symmetry_space_group_name_H-M "P 21/C"
_symmetry_group_IT_number 14
_symmetry_cell_setting 'monoclinic'
loop_
_space_group_symop_operation_xyz
x,y,z
-x,1/2+y,1/2-z
-x,-y,-z
x,1/2-y,1/2+z
loop_
_atom_site_type_symbol
_atom_site_label
_atom_site_fract_x
_atom_site_fract_y
_atom_site_fract_z
Si Si1 0.102634 0.716159 0.252144
Si Si2 0.165764 0.624085 0.943788
Si Si3 0.585503 0.579442 0.855948
Si Si4 0.344253 0.366550 0.290921
Si Si5 0.861177 0.267940 0.423518
O O1 0.097084 0.821013 0.302962
O O2 0.329898 0.640577 0.453234
O O3 0.215206 0.734899 0.229249
O O4 0.790871 0.663092 0.043680
O O5 0.379045 0.529610 0.073391
O O6 0.860990 0.580522 0.775231
O O7 0.305348 0.699965 0.114524
O O8 0.665784 0.567262 0.806265
O O9 0.253470 0.617801 0.640518
O O10 0.205484 0.252514 0.177217
#
# Coordination Sequence:
#
# PCOD8127155 Si02
#       5
#     4   4   4   4   4
#     4  11  21  39  64  84 124 157 193 245 298 346
#     4  10  22  40  60  90 120 152 204 239 292 355
#     4  11  21  40  62  88 120 156 197 245 292 349
#     4   9  19  39  59  86 118 153 194 251 282 346
#     4   9  22  38  59  86 122 153 195 245 291 347
#
# _framework density 21.889250000000001
#
# number of rings (size 3 to 8) (size 9 to 14) (size 15 to 20)
#    1.200    0.800    2.000    1.800    0.000    1.600 
#    3.600    1.000    0.000    0.000    0.000    0.000 
#    0.000    0.000    0.000    0.000    0.000    0.000 
#
# Total GULP energy -247773.475782 kJ/mol
# GULP energy per Si atom -12388.673789 kJ/mol
# Density = 2.183943 g / cm^3
# Si number density = 21.889250 Si / 1000 Ang^3
#
#
#
# Elastic Constant Matrix: (Units=GPa)
#
#
# Indices 1 2 3 4 5 6 
#
# 1 53.3308 14.9155 23.9504 0.0000 -27.1251 0.0000
# 2 14.9155 58.3305 -2.2711 0.0000 -20.1463 0.0000
# 3 23.9504 -2.2711 56.9433 0.0000 -16.5134 0.0000
# 4 0.0000 0.0000 0.0000 25.5500 0.0000 -1.7293
# 5 -27.1251 -20.1463 -16.5134 0.0000 27.7467 0.0000
# 6 0.0000 0.0000 0.0000 -1.7293 0.0000 22.9295
#
#
#
# Elastic Compliance Matrix: (Units=1/GPa)
#
#
# Indices 1 2 3 4 5 6 
#
# 1 0.039414 0.002418 -0.005799 0.000000 0.036836 0.000000
# 2 0.002418 0.025538 0.007329 0.000000 0.025269 0.000000
# 3 -0.005799 0.007329 0.024404 0.000000 0.014177 0.000000
# 4 0.000000 0.000000 0.000000 0.039340 0.000000 0.002967
# 5 0.036836 0.025269 0.014177 0.000000 0.098835 0.000000
# 6 0.000000 0.000000 0.000000 0.002967 0.000000 0.043836
#
#
# Mechanical properties :
#
#
# Convention : Reuss Voigt Hill
#
# Bulk Modulus (GPa) = 10.28240 26.86602 18.57421
# Shear Modulus (GPa) = 16.89830 24.04589 20.47210
#
# Velocity S-wave (km/s) = 2.78149 3.31800 3.06152
# Velocity P-wave (km/s) = 3.87598 5.19414 4.58270
#
# Compressibility (1/GPa) = 0.09725359
#
# Stress axis : x y z
#
# Youngs Moduli (GPa) = 25.37154 39.15716 40.97703
#
# Poissons Ratio (x) = -0.09469 0.23762
# Poissons Ratio (y) = -0.06135 -0.30034
# Poissons Ratio (z) = 0.14713 -0.28700
#
# Static dielectric constant tensor:
#      x y z
#    x 3.901730 0.000000 -0.127210 
#    y 0.000000 3.485850 0.000000 
#    z -0.127210 0.000000 3.787360 
# 
# 
# High freq. dielectric constant tensor:
#      x y z
#    x 1.859030 0.000000 -0.011070 
#    y 0.000000 1.822230 0.000000 
#    z -0.011070 0.000000 1.853570 
# 
# From -- ./inp_files/28898.got.cif
#   From: 2010.03.12/outbox.cif.g09.slc.cpg/sg14_15_cif.got.tgz:28898.got - 2010.03.31 13:35:05.
