data_PCOD8127279
_publ_section_title
;
Structure prediction by ZEFSAII (Michael W. Deem and Ramdas Pophale) SiO2 
 PCOD8127279
Probable space group: P 21/C
;
_chemical_formula_sum "Si O2"
_cell_formula_units_Z 32
_cell_length_a 21.610309
_cell_length_b 11.243831
_cell_length_c 13.523534
_cell_angle_alpha 90.000000
_cell_angle_beta 152.770370
_cell_angle_gamma 90.000000
_cell_volume 1503.527809
_symmetry_space_group_name_H-M "P 21/C"
_symmetry_group_IT_number 14
_symmetry_cell_setting 'monoclinic'
loop_
_space_group_symop_operation_xyz
x,y,z
-x,1/2+y,1/2-z
-x,-y,-z
x,1/2-y,1/2+z
loop_
_atom_site_type_symbol
_atom_site_label
_atom_site_fract_x
_atom_site_fract_y
_atom_site_fract_z
Si Si1 0.447822 0.231365 0.071818
Si Si2 0.331598 0.798414 0.453746
Si Si3 0.374656 0.470998 0.891769
Si Si4 0.747256 0.905072 0.321462
Si Si5 0.974140 0.003216 0.348509
Si Si6 0.855294 0.828887 0.036615
Si Si7 0.341878 0.651651 0.281283
Si Si8 0.126315 0.754023 0.329951
O O1 0.532203 0.194846 0.287271
O O2 0.525656 0.208418 0.078999
O O3 0.415440 0.371321 0.030505
O O4 0.311139 0.152552 0.864151
O O5 0.336983 0.682052 0.391411
O O6 0.198455 0.800505 0.332857
O O7 0.324840 0.913489 0.377040
O O8 0.247412 0.427237 0.648186
O O9 0.500000 0.500000 0.000000
O O10 0.776599 0.797152 0.440788
O O11 0.882079 0.979542 0.497313
O O12 0.648722 0.008370 0.223097
O O13 0.875773 0.111164 0.179121
O O14 0.912540 0.878233 0.221938
O O15 0.000000 0.000000 0.500000
O O16 0.975104 0.807590 0.126099
O O17 0.210459 0.710189 0.045359
#
# Coordination Sequence:
#
# PCOD8127279 Si02
#       8
#     4   4   4   4   4   4   4   4
#     4  10  24  41  62  98 132 170 230 269 333 402
#     4  11  24  39  70  95 133 180 217 280 332 402
#     4  11  23  45  66  96 132 176 221 277 335 400
#     4  10  22  41  63  93 134 171 222 276 335 398
#     4  11  22  41  67  95 130 174 226 279 335 407
#     4  10  23  43  65  94 136 174 219 282 336 398
#     4  11  20  42  66  96 132 178 220 273 334 399
#     4  10  23  41  63 101 128 171 230 268 340 401
#
# _framework density 21.283279
#
# number of rings (size 3 to 8) (size 9 to 14) (size 15 to 20)
#    0.000    1.500    2.500    1.875    3.500    1.500 
#    0.000    5.000    0.000    0.000    0.000    0.000 
#    0.000    0.000    0.000    0.000    0.000    0.000 
#
# Total GULP energy -396724.491219 kJ/mol
# GULP energy per Si atom -12397.640351 kJ/mol
# Density = 2.123484 g / cm^3
# Si number density = 21.283279 Si / 1000 Ang^3
#
#
#
# Elastic Constant Matrix: (Units=GPa)
#
#
# Indices 1 2 3 4 5 6 
#
# 1 71.4352 31.3730 28.5155 0.0000 -12.4649 0.0000
# 2 31.3730 147.9808 52.9116 0.0000 -10.4698 0.0000
# 3 28.5155 52.9116 108.3765 0.0000 -11.3474 0.0000
# 4 0.0000 0.0000 0.0000 42.1582 0.0000 0.7149
# 5 -12.4649 -10.4698 -11.3474 0.0000 31.5189 0.0000
# 6 0.0000 0.0000 0.0000 0.7149 0.0000 22.2260
#
#
#
# Elastic Compliance Matrix: (Units=1/GPa)
#
#
# Indices 1 2 3 4 5 6 
#
# 1 0.016983 -0.002227 -0.002863 0.000000 0.004946 0.000000
# 2 -0.002227 0.008533 -0.003508 0.000000 0.000691 0.000000
# 3 -0.002863 -0.003508 0.011901 0.000000 0.001987 0.000000
# 4 0.000000 0.000000 0.000000 0.023733 0.000000 -0.000763
# 5 0.004946 0.000691 0.001987 0.000000 0.034628 0.000000
# 6 0.000000 0.000000 0.000000 -0.000763 0.000000 0.045017
#
#
# Mechanical properties :
#
#
# Convention : Reuss Voigt Hill
#
# Bulk Modulus (GPa) = 49.45378 61.48808 55.47093
# Shear Modulus (GPa) = 30.35265 33.51342 31.93303
#
# Velocity S-wave (km/s) = 3.78051 3.97247 3.87768
# Velocity P-wave (km/s) = 6.50713 7.07063 6.79472
#
# Compressibility (1/GPa) = 0.02022090
#
# Stress axis : x y z
#
# Youngs Moduli (GPa) = 58.88372 117.19511 84.02604
#
# Poissons Ratio (x) = 0.26096 0.24060
# Poissons Ratio (y) = 0.13111 0.29473
# Poissons Ratio (z) = 0.16861 0.41108
#
# Static dielectric constant tensor:
#      x y z
#    x 3.677460 0.000000 0.203130 
#    y 0.000000 4.103160 0.000000 
#    z 0.203130 0.000000 4.003870 
# 
# 
# High freq. dielectric constant tensor:
#      x y z
#    x 1.808390 0.000000 0.016150 
#    y 0.000000 1.850570 0.000000 
#    z 0.016150 0.000000 1.848790 
# 
# From -- ./inp_files/35297.got.cif
#   From: 2010.03.12/outbox.cif.g09.slc.cpg/sg14_18_cif.got.tgz:35297.got - 2010.03.31 13:35:05.
