data_PCOD8127690
_publ_section_title
;
Structure prediction by ZEFSAII (Michael W. Deem and Ramdas Pophale) SiO2 
 PCOD8127690
Probable space group: P 21/C
;
_chemical_formula_sum "Si O2"
_cell_formula_units_Z 24
_cell_length_a 8.790659
_cell_length_b 10.191485
_cell_length_c 14.501012
_cell_angle_alpha 90.000000
_cell_angle_beta 98.381810
_cell_angle_gamma 90.000000
_cell_volume 1285.267175
_symmetry_space_group_name_H-M "P 21/C"
_symmetry_group_IT_number 14
_symmetry_cell_setting 'monoclinic'
loop_
_space_group_symop_operation_xyz
x,y,z
-x,1/2+y,1/2-z
-x,-y,-z
x,1/2-y,1/2+z
loop_
_atom_site_type_symbol
_atom_site_label
_atom_site_fract_x
_atom_site_fract_y
_atom_site_fract_z
Si Si1 0.358598 0.255833 0.797258
Si Si2 0.833268 0.989755 0.279810
Si Si3 0.180278 0.520556 0.822281
Si Si4 0.361019 0.781135 0.813322
Si Si5 0.273406 0.505938 0.031461
Si Si6 0.519503 0.786077 0.505030
O O1 0.257521 0.144476 0.741834
O O2 0.258432 0.386670 0.797470
O O3 0.503923 0.292296 0.748206
O O4 0.411247 0.202997 0.903367
O O5 0.009664 0.971215 0.265168
O O6 0.762257 0.104547 0.211560
O O7 0.828333 0.028717 0.387018
O O8 0.280943 0.640423 0.792730
O O9 0.169304 0.529729 0.932227
O O10 0.426226 0.800799 0.923196
O O11 0.414263 0.606708 0.046577
O O12 0.343758 0.359267 0.037942
#
# Coordination Sequence:
#
# PCOD8127690 Si02
#       6
#     4   4   4   4   4   4
#     4  11  21  37  61  83 112 150 190 231 274 336
#     4  12  21  35  59  88 114 148 182 234 292 326
#     4  10  23  38  56  84 117 146 187 237 280 330
#     4  11  21  37  61  83 112 150 190 231 274 336
#     4   9  17  34  59  81 109 145 195 232 268 328
#     4   9  18  35  56  86 110 144 192 232 268 326
#
# _framework density 18.673159999999999
#
# number of rings (size 3 to 8) (size 9 to 14) (size 15 to 20)
#    0.000    1.667    3.333    3.500    0.000    0.667 
#    0.000    0.000    0.000    2.000    0.000    0.000 
#    0.000    0.000    0.000    0.000    0.000    0.000 
#
# Total GULP energy -297613.039191 kJ/mol
# GULP energy per Si atom -12400.543300 kJ/mol
# Density = 1.863066 g / cm^3
# Si number density = 18.673160 Si / 1000 Ang^3
#
#
#
# Elastic Constant Matrix: (Units=GPa)
#
#
# Indices 1 2 3 4 5 6 
#
# 1 79.3217 7.8933 30.6965 0.0000 11.7585 0.0000
# 2 7.8933 56.5875 14.8500 0.0000 5.2032 0.0000
# 3 30.6965 14.8500 80.6811 0.0000 -1.0718 0.0000
# 4 0.0000 0.0000 0.0000 20.5030 0.0000 -0.8535
# 5 11.7585 5.2032 -1.0718 0.0000 27.4838 0.0000
# 6 0.0000 0.0000 0.0000 -0.8535 0.0000 23.6389
#
#
#
# Elastic Compliance Matrix: (Units=1/GPa)
#
#
# Indices 1 2 3 4 5 6 
#
# 1 0.016063 0.000045 -0.006215 0.000000 -0.007123 0.000000
# 2 0.000045 0.018942 -0.003553 0.000000 -0.003744 0.000000
# 3 -0.006215 -0.003553 0.015465 0.000000 0.003935 0.000000
# 4 0.000000 0.000000 0.000000 0.048847 0.000000 0.001764
# 5 -0.007123 -0.003744 0.003935 0.000000 0.040295 0.000000
# 6 0.000000 0.000000 0.000000 0.001764 0.000000 0.042367
#
#
# Mechanical properties :
#
#
# Convention : Reuss Voigt Hill
#
# Bulk Modulus (GPa) = 32.23178 35.94110 34.08644
# Shear Modulus (GPa) = 23.61091 25.20183 24.40637
#
# Velocity S-wave (km/s) = 3.55974 3.67771 3.61921
# Velocity P-wave (km/s) = 5.84758 6.10929 5.97986
#
# Compressibility (1/GPa) = 0.03102528
#
# Stress axis : x y z
#
# Youngs Moduli (GPa) = 62.25379 52.79210 64.66130
#
# Poissons Ratio (x) = -0.00239 0.40184
# Poissons Ratio (y) = -0.00281 0.22977
# Poissons Ratio (z) = 0.38688 0.18759
#
# Static dielectric constant tensor:
#      x y z
#    x 3.362800 0.000000 0.130270 
#    y 0.000000 3.254000 0.000000 
#    z 0.130270 0.000000 3.513500 
# 
# 
# High freq. dielectric constant tensor:
#      x y z
#    x 1.724970 0.000000 0.008080 
#    y 0.000000 1.706800 0.000000 
#    z 0.008080 0.000000 1.730710 
# 
# From -- ./inp_files/38971.got.cif
#   From: 2010.03.12/outbox.cif.g09.slc.cpg/sg14_20_cif.got.tgz:38971.got - 2010.03.31 13:35:05.
