data_PCOD8127258
_publ_section_title
;
Structure prediction by ZEFSAII (Michael W. Deem and Ramdas Pophale) SiO2 
 PCOD8127258
Probable space group: P 21/C
;
_chemical_formula_sum "Si O2"
_cell_formula_units_Z 24
_cell_length_a 11.608298
_cell_length_b 13.558959
_cell_length_c 13.496009
_cell_angle_alpha 90.000000
_cell_angle_beta 30.809261
_cell_angle_gamma 90.000000
_cell_volume 1087.988511
_symmetry_space_group_name_H-M "P 21/C"
_symmetry_group_IT_number 14
_symmetry_cell_setting 'monoclinic'
loop_
_space_group_symop_operation_xyz
x,y,z
-x,1/2+y,1/2-z
-x,-y,-z
x,1/2-y,1/2+z
loop_
_atom_site_type_symbol
_atom_site_label
_atom_site_fract_x
_atom_site_fract_y
_atom_site_fract_z
Si Si1 0.874639 0.378415 0.368658
Si Si2 0.205715 0.026169 0.485313
Si Si3 0.405585 0.415893 0.639165
Si Si4 0.378937 0.982289 0.691911
Si Si5 0.932045 0.578689 0.445966
Si Si6 0.040965 0.331055 0.777070
O O1 0.612787 0.361634 0.538063
O O2 0.920572 0.467794 0.409355
O O3 0.951786 0.277780 0.363115
O O4 0.007382 0.401546 0.168425
O O5 0.236694 0.037470 0.345008
O O6 0.436694 0.060044 0.368581
O O7 0.145136 0.912817 0.556295
O O8 0.500000 0.500000 0.500000
O O9 0.266203 0.340272 0.675145
O O10 0.174052 0.906036 0.820552
O O11 0.500000 0.000000 0.500000
O O12 0.268008 0.081322 0.824157
O O13 0.895836 0.658291 0.386438
#
# Coordination Sequence:
#
# PCOD8127258 Si02
#       6
#     4   4   4   4   4   4
#     4  11  24  43  63 101 132 170 232 271 332 406
#     4  11  23  44  67  97 133 179 227 273 342 401
#     4  12  23  47  71  93 141 184 217 285 344 400
#     4  11  19  38  69  85 128 174 207 272 333 381
#     4  10  22  41  61  95 131 169 217 272 331 386
#     4  11  24  43  68  99 130 176 228 274 335 406
#
# _framework density 22.059056000000002
#
# number of rings (size 3 to 8) (size 9 to 14) (size 15 to 20)
#    0.000    1.000    8.333    0.500    0.000    2.667 
#   12.000    0.000    0.000    0.000    0.000    0.000 
#    0.000    0.000    0.000    0.000    0.000    0.000 
#
# Total GULP energy -297503.347804 kJ/mol
# GULP energy per Si atom -12395.972825 kJ/mol
# Density = 2.200885 g / cm^3
# Si number density = 22.059056 Si / 1000 Ang^3
#
#
#
# Elastic Constant Matrix: (Units=GPa)
#
#
# Indices 1 2 3 4 5 6 
#
# 1 71.1035 16.3740 25.8122 0.0000 -10.6237 0.0000
# 2 16.3740 100.5899 13.9805 0.0000 -14.0344 0.0000
# 3 25.8122 13.9805 132.2725 0.0000 6.8636 0.0000
# 4 0.0000 0.0000 0.0000 16.6152 0.0000 -9.7466
# 5 -10.6237 -14.0344 6.8636 0.0000 55.1835 0.0000
# 6 0.0000 0.0000 0.0000 -9.7466 0.0000 22.9015
#
#
#
# Elastic Compliance Matrix: (Units=1/GPa)
#
#
# Indices 1 2 3 4 5 6 
#
# 1 0.016048 -0.001759 -0.003103 0.000000 0.003028 0.000000
# 2 -0.001759 0.010704 -0.000918 0.000000 0.002498 0.000000
# 3 -0.003103 -0.000918 0.008360 0.000000 -0.001871 0.000000
# 4 0.000000 0.000000 0.000000 0.080211 0.000000 0.034136
# 5 0.003028 0.002498 -0.001871 0.000000 0.019572 0.000000
# 6 0.000000 0.000000 0.000000 0.034136 0.000000 0.058193
#
#
# Mechanical properties :
#
#
# Convention : Reuss Voigt Hill
#
# Bulk Modulus (GPa) = 42.45772 46.25549 44.35660
# Shear Modulus (GPa) = 23.52979 35.45999 29.49489
#
# Velocity S-wave (km/s) = 3.26954 4.01372 3.66059
# Velocity P-wave (km/s) = 5.79157 6.51877 6.16590
#
# Compressibility (1/GPa) = 0.02355284
#
# Stress axis : x y z
#
# Youngs Moduli (GPa) = 62.31368 93.42605 119.62108
#
# Poissons Ratio (x) = 0.16429 0.37117
# Poissons Ratio (y) = 0.10958 0.10978
# Poissons Ratio (z) = 0.19335 0.08574
#
# Static dielectric constant tensor:
#      x y z
#    x 5.550430 0.000000 -1.347410 
#    y 0.000000 3.430020 0.000000 
#    z -1.347410 0.000000 6.013070 
# 
# 
# High freq. dielectric constant tensor:
#      x y z
#    x 1.893580 0.000000 -0.000080 
#    y 0.000000 1.808780 0.000000 
#    z -0.000080 0.000000 1.888480 
# 
# From -- ./inp_files/44886.got.cif
#   From: 2010.03.12/outbox.cif.g09.slc.cpg/sg14_23_cif.got.tgz:44886.got - 2010.03.31 13:35:05.
