data_PCOD8127836
_publ_section_title
;
Structure prediction by ZEFSAII (Michael W. Deem and Ramdas Pophale) SiO2 
 PCOD8127836
Probable space group: P 21/C
;
_chemical_formula_sum "Si O2"
_cell_formula_units_Z 32
_cell_length_a 22.630401
_cell_length_b 7.927092
_cell_length_c 13.745130
_cell_angle_alpha 90.000000
_cell_angle_beta 147.370942
_cell_angle_gamma 90.000000
_cell_volume 1329.545639
_symmetry_space_group_name_H-M "P 21/C"
_symmetry_group_IT_number 14
_symmetry_cell_setting 'monoclinic'
loop_
_space_group_symop_operation_xyz
x,y,z
-x,1/2+y,1/2-z
-x,-y,-z
x,1/2-y,1/2+z
loop_
_atom_site_type_symbol
_atom_site_label
_atom_site_fract_x
_atom_site_fract_y
_atom_site_fract_z
Si Si1 0.577687 0.361380 0.958201
Si Si2 0.962924 0.059088 0.584205
Si Si3 0.393019 0.168623 0.818892
Si Si4 0.876554 0.167095 0.095456
Si Si5 0.694819 0.119999 0.990587
Si Si6 0.459842 0.858925 0.804440
Si Si7 0.754628 0.906406 0.792814
Si Si8 0.838822 0.850465 0.259813
O O1 0.487904 0.281340 0.903247
O O2 0.669370 0.220608 0.055326
O O3 0.517980 0.427225 0.775271
O O4 0.640783 0.511521 0.098991
O O5 0.891847 0.157919 0.563404
O O6 0.064292 0.175390 0.684872
O O7 0.880312 0.003062 0.385411
O O8 0.008131 0.894557 0.701587
O O9 0.278491 0.267191 0.670851
O O10 0.375378 0.993282 0.737367
O O11 0.428575 0.133743 0.980492
O O12 0.799073 0.199174 0.080167
O O13 0.833128 0.035177 0.955122
O O14 0.593453 0.168356 0.775235
O O15 0.725077 0.922713 0.052584
O O16 0.815917 0.822210 0.785496
#
# Coordination Sequence:
#
# PCOD8127836 Si02
#       8
#     4   4   4   4   4   4   4   4
#     4  10  24  42  65  97 137 181 221 274 331 383
#     4  10  23  43  67  93 130 168 214 281 345 397
#     4  11  24  42  64  98 137 178 230 273 329 390
#     4  11  23  42  67  97 130 170 222 273 338 399
#     4   9  22  42  68  94 128 175 223 276 325 397
#     4   9  24  40  66  97 128 184 222 276 332 389
#     4  12  26  39  66 100 133 178 225 275 322 409
#     4  10  23  42  66  96 130 170 217 277 339 397
#
# _framework density 24.068373000000001
#
# number of rings (size 3 to 8) (size 9 to 14) (size 15 to 20)
#    0.750    1.000    0.000    2.625    7.000    4.500 
#    0.000    0.000    0.000    0.000    0.000    0.000 
#    0.000    0.000    0.000    0.000    0.000    0.000 
#
# Total GULP energy -396560.963711 kJ/mol
# GULP energy per Si atom -12392.530116 kJ/mol
# Density = 2.401359 g / cm^3
# Si number density = 24.068373 Si / 1000 Ang^3
#
#
#
# Elastic Constant Matrix: (Units=GPa)
#
#
# Indices 1 2 3 4 5 6 
#
# 1 71.7472 -2.9257 -1.7631 0.0000 -6.2101 0.0000
# 2 -2.9257 23.8035 -1.2834 0.0000 -2.6622 0.0000
# 3 -1.7631 -1.2834 60.0176 0.0000 -14.3530 0.0000
# 4 0.0000 0.0000 0.0000 32.7203 0.0000 -1.8383
# 5 -6.2101 -2.6622 -14.3530 0.0000 27.3400 0.0000
# 6 0.0000 0.0000 0.0000 -1.8383 0.0000 45.2135
#
#
#
# Elastic Compliance Matrix: (Units=1/GPa)
#
#
# Indices 1 2 3 4 5 6 
#
# 1 0.014442 0.002336 0.001502 0.000000 0.004296 0.000000
# 2 0.002336 0.043100 0.002425 0.000000 0.006001 0.000000
# 3 0.001502 0.002425 0.019322 0.000000 0.010721 0.000000
# 4 0.000000 0.000000 0.000000 0.030632 0.000000 0.001245
# 5 0.004296 0.006001 0.010721 0.000000 0.043765 0.000000
# 6 0.000000 0.000000 0.000000 0.001245 0.000000 0.022168
#
#
# Mechanical properties :
#
#
# Convention : Reuss Voigt Hill
#
# Bulk Modulus (GPa) = 11.18695 15.95823 13.57259
# Shear Modulus (GPa) = 26.21951 31.82412 29.02181
#
# Velocity S-wave (km/s) = 3.30415 3.64020 3.47624
# Velocity P-wave (km/s) = 4.38345 4.93081 4.66516
#
# Compressibility (1/GPa) = 0.08938990
#
# Stress axis : x y z
#
# Youngs Moduli (GPa) = 69.24316 23.20202 51.75567
#
# Poissons Ratio (x) = -0.05421 -0.07772
# Poissons Ratio (y) = -0.16178 -0.12552
# Poissons Ratio (z) = -0.10398 -0.05627
#
# Static dielectric constant tensor:
#      x y z
#    x 4.434900 0.000000 -0.126440 
#    y 0.000000 4.154790 0.000000 
#    z -0.126440 0.000000 4.220420 
# 
# 
# High freq. dielectric constant tensor:
#      x y z
#    x 1.968780 0.000000 -0.006530 
#    y 0.000000 1.938520 0.000000 
#    z -0.006530 0.000000 1.944490 
# 
# From -- ./inp_files/51284.got.cif
#   From: 2010.03.12/outbox.cif.g09.slc.cpg/sg14_26_cif.got.tgz:51284.got - 2010.03.31 13:35:05.
