data_PCOD8127295
_publ_section_title
;
Structure prediction by ZEFSAII (Michael W. Deem and Ramdas Pophale) SiO2 
 PCOD8127295
Probable space group: P 21/C
;
_chemical_formula_sum "Si O2"
_cell_formula_units_Z 28
_cell_length_a 14.728354
_cell_length_b 9.379910
_cell_length_c 22.884809
_cell_angle_alpha 90.000000
_cell_angle_beta 27.021369
_cell_angle_gamma 90.000000
_cell_volume 1436.364583
_symmetry_space_group_name_H-M "P 21/C"
_symmetry_group_IT_number 14
_symmetry_cell_setting 'monoclinic'
loop_
_space_group_symop_operation_xyz
x,y,z
-x,1/2+y,1/2-z
-x,-y,-z
x,1/2-y,1/2+z
loop_
_atom_site_type_symbol
_atom_site_label
_atom_site_fract_x
_atom_site_fract_y
_atom_site_fract_z
Si Si1 0.721712 0.658137 0.116749
Si Si2 0.900508 0.724379 0.630726
Si Si3 0.181533 0.918442 0.522280
Si Si4 0.679241 0.142527 0.096001
Si Si5 0.759626 0.496755 0.792381
Si Si6 0.670141 0.623940 0.965335
Si Si7 0.806833 0.629003 0.465109
O O1 0.803069 0.692647 0.133707
O O2 0.486120 0.626238 0.259121
O O3 0.814742 0.514564 0.038137
O O4 0.769010 0.786744 0.046514
O O5 0.753979 0.605747 0.741301
O O6 0.963582 0.840963 0.644796
O O7 0.106637 0.644806 0.492878
O O8 0.350363 0.793567 0.421225
O O9 0.214851 0.008765 0.560935
O O10 0.682537 0.017519 0.044859
O O11 0.569345 0.393572 0.895241
O O12 0.958183 0.400008 0.679732
O O13 0.750840 0.596530 0.854577
O O14 0.722829 0.782690 0.957719
#
# Coordination Sequence:
#
# PCOD8127295 Si02
#       7
#     4   4   4   4   4   4   4
#     4  11  19  35  57  86 122 158 199 245 301 371
#     4   9  21  36  56  86 117 159 202 241 310 358
#     4   9  20  36  55  86 117 157 194 249 295 356
#     4   9  20  35  54  85 121 159 193 246 304 352
#     4  10  22  41  65  86 120 165 200 259 307 356
#     4  10  22  41  65  87 117 158 213 246 305 361
#     4  10  23  38  61  93 117 161 204 251 302 365
#
# _framework density 19.493658
#
# number of rings (size 3 to 8) (size 9 to 14) (size 15 to 20)
#    0.857    1.429    0.000    2.143    2.000    5.714 
#    5.143    0.000    0.000    3.429    0.000    0.000 
#    0.000    0.000    0.000    0.000    0.000    0.000 
#
# Total GULP energy -346932.719839 kJ/mol
# GULP energy per Si atom -12390.454280 kJ/mol
# Density = 1.944929 g / cm^3
# Si number density = 19.493658 Si / 1000 Ang^3
#
#
#
# Elastic Constant Matrix: (Units=GPa)
#
#
# Indices 1 2 3 4 5 6 
#
# 1 83.2848 39.8242 36.4043 0.0000 1.6264 0.0000
# 2 39.8242 120.7503 33.1538 0.0000 -0.7276 0.0000
# 3 36.4043 33.1538 105.8601 0.0000 -10.9093 0.0000
# 4 0.0000 0.0000 0.0000 15.4876 0.0000 7.7545
# 5 1.6264 -0.7276 -10.9093 0.0000 16.6985 0.0000
# 6 0.0000 0.0000 0.0000 7.7545 0.0000 29.2301
#
#
#
# Elastic Compliance Matrix: (Units=1/GPa)
#
#
# Indices 1 2 3 4 5 6 
#
# 1 0.016121 -0.004033 -0.004783 0.000000 -0.004871 0.000000
# 2 -0.004033 0.010108 -0.001815 0.000000 -0.000353 0.000000
# 3 -0.004783 -0.001815 0.012544 0.000000 0.008582 0.000000
# 4 0.000000 0.000000 0.000000 0.074458 0.000000 -0.019753
# 5 -0.004871 -0.000353 0.008582 0.000000 0.065951 0.000000
# 6 0.000000 0.000000 0.000000 -0.019753 0.000000 0.039452
#
#
# Mechanical properties :
#
#
# Convention : Reuss Voigt Hill
#
# Bulk Modulus (GPa) = 57.10569 58.73999 57.92284
# Shear Modulus (GPa) = 20.34731 25.65076 22.99904
#
# Velocity S-wave (km/s) = 3.23428 3.63140 3.43858
# Velocity P-wave (km/s) = 6.58069 6.91238 6.74858
#
# Compressibility (1/GPa) = 0.01751139
#
# Stress axis : x y z
#
# Youngs Moduli (GPa) = 62.03031 98.93254 79.71919
#
# Poissons Ratio (x) = 0.39900 0.38128
# Poissons Ratio (y) = 0.25017 0.14469
# Poissons Ratio (z) = 0.29668 0.17957
#
# Static dielectric constant tensor:
#      x y z
#    x 3.285220 0.000000 -0.049380 
#    y 0.000000 3.687150 0.000000 
#    z -0.049380 0.000000 3.507480 
# 
# 
# High freq. dielectric constant tensor:
#      x y z
#    x 1.740170 0.000000 -0.004150 
#    y 0.000000 1.768990 0.000000 
#    z -0.004150 0.000000 1.755840 
# 
# From -- ./inp_files/68307.got.cif
#   From: 2010.03.12/outbox.cif.g09.slc.cpg/sg14_35_cif.got.tgz:68307.got - 2010.03.31 13:35:05.
