data_PCOD8127118
_publ_section_title
;
Structure prediction by ZEFSAII (Michael W. Deem and Ramdas Pophale) SiO2 
 PCOD8127118
Probable space group: P 21/C
;
_chemical_formula_sum "Si O2"
_cell_formula_units_Z 20
_cell_length_a 9.667363
_cell_length_b 7.174700
_cell_length_c 16.614085
_cell_angle_alpha 90.000000
_cell_angle_beta 124.194605
_cell_angle_gamma 90.000000
_cell_volume 953.155613
_symmetry_space_group_name_H-M "P 21/C"
_symmetry_group_IT_number 14
_symmetry_cell_setting 'monoclinic'
loop_
_space_group_symop_operation_xyz
x,y,z
-x,1/2+y,1/2-z
-x,-y,-z
x,1/2-y,1/2+z
loop_
_atom_site_type_symbol
_atom_site_label
_atom_site_fract_x
_atom_site_fract_y
_atom_site_fract_z
Si Si1 0.640142 0.457817 0.610947
Si Si2 0.928826 0.703590 0.963174
Si Si3 0.690495 0.346959 0.242806
Si Si4 0.630988 0.964865 0.281823
Si Si5 0.045769 0.485613 0.391223
O O1 0.500000 0.500000 0.500000
O O2 0.638744 0.239639 0.638575
O O3 0.606996 0.586833 0.678999
O O4 0.824110 0.501839 0.638358
O O5 0.747412 0.687695 0.862224
O O6 0.901858 0.808298 0.038368
O O7 0.050577 0.826166 0.946190
O O8 0.000000 0.500000 0.000000
O O9 0.545416 0.479279 0.229645
O O10 0.862272 0.460033 0.292842
O O11 0.712799 0.172577 0.312726
#
# Coordination Sequence:
#
# PCOD8127118 Si02
#       5
#     4   4   4   4   4
#     4  10  24  40  66  99 140 176 226 284 339 399
#     4  11  22  42  69  98 133 176 224 276 346 419
#     4  10  22  41  65  98 134 184 221 282 342 402
#     4  10  22  39  64  95 135 171 230 265 346 400
#     4  11  24  41  70  99 136 174 226 288 337 407
#
# _framework density 20.982931000000001
#
# number of rings (size 3 to 8) (size 9 to 14) (size 15 to 20)
#    1.200    0.400    2.000    2.400    8.400    0.000 
#    0.000    0.000    0.000    6.000    0.000    0.000 
#    0.000    0.000    0.000    0.000    0.000    0.000 
#
# Total GULP energy -247907.307951 kJ/mol
# GULP energy per Si atom -12395.365398 kJ/mol
# Density = 2.093517 g / cm^3
# Si number density = 20.982931 Si / 1000 Ang^3
#
#
#
# Elastic Constant Matrix: (Units=GPa)
#
#
# Indices 1 2 3 4 5 6 
#
# 1 175.3877 35.9180 54.6620 0.0000 5.2375 0.0000
# 2 35.9180 93.5604 29.8300 0.0000 -2.7002 0.0000
# 3 54.6620 29.8300 116.9480 0.0000 3.1494 0.0000
# 4 0.0000 0.0000 0.0000 34.1109 0.0000 3.5559
# 5 5.2375 -2.7002 3.1494 0.0000 29.5300 0.0000
# 6 0.0000 0.0000 0.0000 3.5559 0.0000 30.6379
#
#
#
# Elastic Compliance Matrix: (Units=1/GPa)
#
#
# Indices 1 2 3 4 5 6 
#
# 1 0.006970 -0.001827 -0.002762 0.000000 -0.001109 0.000000
# 2 -0.001827 0.012170 -0.002296 0.000000 0.001682 0.000000
# 3 -0.002762 -0.002296 0.010450 0.000000 -0.000835 0.000000
# 4 0.000000 0.000000 0.000000 0.029675 0.000000 -0.003444
# 5 -0.001109 0.001682 -0.000835 0.000000 0.034303 0.000000
# 6 0.000000 0.000000 0.000000 -0.003444 0.000000 0.033039
#
#
# Mechanical properties :
#
#
# Convention : Reuss Voigt Hill
#
# Bulk Modulus (GPa) = 63.20850 69.63514 66.42182
# Shear Modulus (GPa) = 34.32903 36.55484 35.44193
#
# Velocity S-wave (km/s) = 4.04919 4.17840 4.11431
# Velocity P-wave (km/s) = 7.21460 7.51913 7.36844
#
# Compressibility (1/GPa) = 0.01582066
#
# Stress axis : x y z
#
# Youngs Moduli (GPa) = 143.47846 82.16825 95.69684
#
# Poissons Ratio (x) = 0.15013 0.26429
# Poissons Ratio (y) = 0.26216 0.21967
# Poissons Ratio (z) = 0.39625 0.18862
#
# Static dielectric constant tensor:
#      x y z
#    x 3.688850 0.000000 0.006760 
#    y 0.000000 3.647970 0.000000 
#    z 0.006760 0.000000 3.713390 
# 
# 
# High freq. dielectric constant tensor:
#      x y z
#    x 1.821660 0.000000 0.006690 
#    y 0.000000 1.814960 0.000000 
#    z 0.006690 0.000000 1.815830 
# 
# From -- ./inp_files/54136.got.cif
#   From: 2010.03.12/outbox.cif.g09.slc.cpg/sg14_28_cif.got.tgz:54136.got - 2010.03.31 13:35:05.
