data_PCOD8127580
_publ_section_title
;
Structure prediction by ZEFSAII (Michael W. Deem and Ramdas Pophale) SiO2 
 PCOD8127580
Probable space group: P 21/C
;
_chemical_formula_sum "Si O2"
_cell_formula_units_Z 32
_cell_length_a 21.653322
_cell_length_b 9.312855
_cell_length_c 14.262170
_cell_angle_alpha 90.000000
_cell_angle_beta 30.100347
_cell_angle_gamma 90.000000
_cell_volume 1442.373574
_symmetry_space_group_name_H-M "P 21/C"
_symmetry_group_IT_number 14
_symmetry_cell_setting 'monoclinic'
loop_
_space_group_symop_operation_xyz
x,y,z
-x,1/2+y,1/2-z
-x,-y,-z
x,1/2-y,1/2+z
loop_
_atom_site_type_symbol
_atom_site_label
_atom_site_fract_x
_atom_site_fract_y
_atom_site_fract_z
Si Si1 0.609079 0.961590 0.925324
Si Si2 0.128687 0.950664 0.874184
Si Si3 0.257725 0.151106 0.982709
Si Si4 0.792285 0.561735 0.036785
Si Si5 0.431193 0.580615 0.319474
Si Si6 0.318333 0.315040 0.079375
Si Si7 0.080056 0.586928 0.651135
Si Si8 0.230943 0.809049 0.566805
O O1 0.736134 0.005374 0.705566
O O2 0.611832 0.790745 0.940946
O O3 0.500000 0.000000 0.000000
O O4 0.595857 0.052136 0.036614
O O5 0.186942 0.826620 0.732083
O O6 0.223827 0.083134 0.758076
O O7 0.109252 0.888980 0.003390
O O8 0.000000 0.000000 0.000000
O O9 0.270820 0.281545 0.892724
O O10 0.239756 0.219433 0.109457
O O11 0.137903 0.058460 0.115893
O O12 0.378544 0.048850 0.823830
O O13 0.755983 0.467486 0.993860
O O14 0.936662 0.575977 0.857821
O O15 0.361972 0.729583 0.386770
O O16 0.576137 0.591718 0.111174
O O17 0.127491 0.724663 0.644787
#
# Coordination Sequence:
#
# PCOD8127580 Si02
#       8
#     4   4   4   4   4   4   4   4
#     4  11  25  41  68 102 130 183 234 278 355 411
#     4  12  25  44  71 104 136 190 237 281 359 422
#     4  10  22  44  67  99 135 177 225 282 339 409
#     4  12  22  43  70  93 140 177 222 287 340 413
#     4  10  25  45  67  98 141 176 230 289 346 410
#     4  11  23  45  73  95 140 183 229 292 342 416
#     4  11  25  45  68 102 142 181 232 283 351 414
#     4  11  25  44  68 101 141 178 233 291 342 417
#
# _framework density 22.185655000000001
#
# number of rings (size 3 to 8) (size 9 to 14) (size 15 to 20)
#    0.000    1.000    2.500    3.000    7.000    0.000 
#    0.000    5.000    0.000    0.000    0.000    0.000 
#    0.000    0.000    0.000    0.000    0.000    0.000 
#
# Total GULP energy -396893.035940 kJ/mol
# GULP energy per Si atom -12402.907373 kJ/mol
# Density = 2.213516 g / cm^3
# Si number density = 22.185655 Si / 1000 Ang^3
#
#
#
# Elastic Constant Matrix: (Units=GPa)
#
#
# Indices 1 2 3 4 5 6 
#
# 1 119.2420 50.3710 52.5970 0.0000 -4.1539 0.0000
# 2 50.3710 112.5911 34.4112 0.0000 -7.6180 0.0000
# 3 52.5970 34.4112 146.6056 0.0000 0.5267 0.0000
# 4 0.0000 0.0000 0.0000 22.6641 0.0000 3.7469
# 5 -4.1539 -7.6180 0.5267 0.0000 30.2519 0.0000
# 6 0.0000 0.0000 0.0000 3.7469 0.0000 44.1685
#
#
#
# Elastic Compliance Matrix: (Units=1/GPa)
#
#
# Indices 1 2 3 4 5 6 
#
# 1 0.011566 -0.004164 -0.003174 0.000000 0.000595 0.000000
# 2 -0.004164 0.011252 -0.001155 0.000000 0.002282 0.000000
# 3 -0.003174 -0.001155 0.008234 0.000000 -0.000870 0.000000
# 4 0.000000 0.000000 0.000000 0.044750 0.000000 -0.003796
# 5 0.000595 0.002282 -0.000870 0.000000 0.033727 0.000000
# 6 0.000000 0.000000 0.000000 -0.003796 0.000000 0.022963
#
#
# Mechanical properties :
#
#
# Convention : Reuss Voigt Hill
#
# Bulk Modulus (GPa) = 71.09845 72.57748 71.83796
# Shear Modulus (GPa) = 32.43206 35.48754 33.95980
#
# Velocity S-wave (km/s) = 3.82756 4.00380 3.91667
# Velocity P-wave (km/s) = 7.18681 7.35925 7.27354
#
# Compressibility (1/GPa) = 0.01406500
#
# Stress axis : x y z
#
# Youngs Moduli (GPa) = 86.45862 88.87208 121.44523
#
# Poissons Ratio (x) = 0.37007 0.38550
# Poissons Ratio (y) = 0.36002 0.14031
# Poissons Ratio (z) = 0.27445 0.10268
#
# Static dielectric constant tensor:
#      x y z
#    x 4.270370 0.000000 0.007480 
#    y 0.000000 4.183710 0.000000 
#    z 0.007480 0.000000 3.993000 
# 
# 
# High freq. dielectric constant tensor:
#      x y z
#    x 1.884800 0.000000 -0.003410 
#    y 0.000000 1.880700 0.000000 
#    z -0.003410 0.000000 1.869060 
# 
# From -- ./inp_files/51335.got.cif
#   From: 2010.03.12/outbox.cif.g09.slc.cpg/sg14_26_cif.got.tgz:51335.got - 2010.03.31 13:35:05.
