data_PCOD8127280
_publ_section_title
;
Structure prediction by ZEFSAII (Michael W. Deem and Ramdas Pophale) SiO2 
 PCOD8127280
Probable space group: P 21/C
;
_chemical_formula_sum "Si O2"
_cell_formula_units_Z 24
_cell_length_a 15.174628
_cell_length_b 17.391504
_cell_length_c 10.086408
_cell_angle_alpha 90.000000
_cell_angle_beta 25.551711
_cell_angle_gamma 90.000000
_cell_volume 1148.145399
_symmetry_space_group_name_H-M "P 21/C"
_symmetry_group_IT_number 14
_symmetry_cell_setting 'monoclinic'
loop_
_space_group_symop_operation_xyz
x,y,z
-x,1/2+y,1/2-z
-x,-y,-z
x,1/2-y,1/2+z
loop_
_atom_site_type_symbol
_atom_site_label
_atom_site_fract_x
_atom_site_fract_y
_atom_site_fract_z
Si Si1 0.593019 0.009429 0.230070
Si Si2 0.635804 0.313554 0.676852
Si Si3 0.818056 0.522463 0.845671
Si Si4 0.821412 0.824951 0.213365
Si Si5 0.020480 0.415612 0.753579
Si Si6 0.158063 0.777062 0.364885
O O1 0.681852 0.095695 0.100923
O O2 0.406256 0.989238 0.385355
O O3 0.500000 0.000000 0.500000
O O4 0.773345 0.948191 0.958813
O O5 0.681966 0.274170 0.472670
O O6 0.767677 0.276011 0.615217
O O7 0.400813 0.296787 0.030616
O O8 0.799738 0.614739 0.864983
O O9 0.879372 0.488860 0.905378
O O10 0.000000 0.500000 0.500000
O O11 0.931819 0.863603 0.938716
O O12 0.942778 0.752785 0.102674
O O13 0.885363 0.365137 0.036334
#
# Coordination Sequence:
#
# PCOD8127280 Si02
#       6
#     4   4   4   4   4   4
#     4  11  20  38  67  94 121 171 223 260 312 389
#     4  11  26  42  67  94 131 173 216 266 324 385
#     4   9  18  35  62  91 117 160 216 256 302 375
#     4  10  22  41  63  95 124 173 214 257 320 394
#     4  11  22  39  64  94 125 167 214 265 319 378
#     4  12  26  42  62  98 137 168 210 271 331 383
#
# _framework density 20.903276000000002
#
# number of rings (size 3 to 8) (size 9 to 14) (size 15 to 20)
#    0.000    1.333    6.667    1.000    4.667    2.000 
#    0.000    3.333    0.000    0.000    0.000    0.000 
#    0.000    0.000    0.000    0.000    0.000    0.000 
#
# Total GULP energy -297520.467402 kJ/mol
# GULP energy per Si atom -12396.686142 kJ/mol
# Density = 2.085570 g / cm^3
# Si number density = 20.903276 Si / 1000 Ang^3
#
#
#
# Elastic Constant Matrix: (Units=GPa)
#
#
# Indices 1 2 3 4 5 6 
#
# 1 73.0146 26.6163 35.6689 0.0000 -7.3259 0.0000
# 2 26.6163 64.2015 16.1750 0.0000 -8.1392 0.0000
# 3 35.6689 16.1750 60.7174 0.0000 -11.7350 0.0000
# 4 0.0000 0.0000 0.0000 40.8790 0.0000 -4.6274
# 5 -7.3259 -8.1392 -11.7350 0.0000 38.5768 0.0000
# 6 0.0000 0.0000 0.0000 -4.6274 0.0000 32.8138
#
#
#
# Elastic Compliance Matrix: (Units=1/GPa)
#
#
# Indices 1 2 3 4 5 6 
#
# 1 0.021212 -0.006111 -0.010948 0.000000 -0.000591 0.000000
# 2 -0.006111 0.018652 -0.000895 0.000000 0.002503 0.000000
# 3 -0.010948 -0.000895 0.024119 0.000000 0.005069 0.000000
# 4 0.000000 0.000000 0.000000 0.024859 0.000000 0.003506
# 5 -0.000591 0.002503 0.005069 0.000000 0.027880 0.000000
# 6 0.000000 0.000000 0.000000 0.003506 0.000000 0.030969
#
#
# Mechanical properties :
#
#
# Convention : Reuss Voigt Hill
#
# Bulk Modulus (GPa) = 35.61765 39.42822 37.52294
# Shear Modulus (GPa) = 25.91223 30.41881 28.16552
#
# Velocity S-wave (km/s) = 3.52465 3.81887 3.67471
# Velocity P-wave (km/s) = 5.80004 6.19259 5.99953
#
# Compressibility (1/GPa) = 0.02807597
#
# Stress axis : x y z
#
# Youngs Moduli (GPa) = 47.14242 53.61295 41.46056
#
# Poissons Ratio (x) = 0.32762 0.45390
# Poissons Ratio (y) = 0.28808 0.03712
# Poissons Ratio (z) = 0.51610 0.04800
#
# Static dielectric constant tensor:
#      x y z
#    x 3.993620 0.000000 -0.171640 
#    y 0.000000 4.180770 0.000000 
#    z -0.171640 0.000000 3.376580 
# 
# 
# High freq. dielectric constant tensor:
#      x y z
#    x 1.807860 0.000000 -0.023230 
#    y 0.000000 1.817680 0.000000 
#    z -0.023230 0.000000 1.812150 
# 
# From -- ./inp_files/34325.got.cif
#   From: 2010.03.12/outbox.cif.g09.slc.cpg/sg14_18_cif.got.tgz:34325.got - 2010.03.31 13:35:05.
