data_PCOD8127292
_publ_section_title
;
Structure prediction by ZEFSAII (Michael W. Deem and Ramdas Pophale) SiO2 
 PCOD8127292
Probable space group: P 21/C
;
_chemical_formula_sum "Si O2"
_cell_formula_units_Z 32
_cell_length_a 11.223162
_cell_length_b 22.277994
_cell_length_c 10.747115
_cell_angle_alpha 90.000000
_cell_angle_beta 144.819177
_cell_angle_gamma 90.000000
_cell_volume 1548.194064
_symmetry_space_group_name_H-M "P 21/C"
_symmetry_group_IT_number 14
_symmetry_cell_setting 'monoclinic'
loop_
_space_group_symop_operation_xyz
x,y,z
-x,1/2+y,1/2-z
-x,-y,-z
x,1/2-y,1/2+z
loop_
_atom_site_type_symbol
_atom_site_label
_atom_site_fract_x
_atom_site_fract_y
_atom_site_fract_z
Si Si1 0.767672 0.852596 0.654944
Si Si2 0.205910 0.648828 0.055088
Si Si3 0.443621 0.680646 0.486262
Si Si4 0.129062 0.510116 0.986232
Si Si5 0.176164 0.220936 0.857653
Si Si6 0.454102 0.299552 0.811749
Si Si7 0.493232 0.422295 0.267534
Si Si8 0.940636 0.039541 0.070194
O O1 0.875948 0.790326 0.711669
O O2 0.597414 0.839015 0.613150
O O3 0.640628 0.879650 0.433533
O O4 0.945974 0.897086 0.853296
O O5 0.243047 0.673866 0.226378
O O6 0.417683 0.656094 0.163424
O O7 0.155900 0.580113 0.005428
O O8 0.030799 0.684676 0.835351
O O9 0.654392 0.693261 0.591075
O O10 0.413876 0.738877 0.548186
O O11 0.449035 0.617912 0.564414
O O12 0.011985 0.490400 0.760416
O O13 0.351231 0.477951 0.188821
O O14 0.000000 0.500000 0.000000
O O15 0.245177 0.217211 0.059921
O O16 0.694661 0.448540 0.368833
O O17 0.000000 0.000000 0.000000
#
# Coordination Sequence:
#
# PCOD8127292 Si02
#       8
#     4   4   4   4   4   4   4   4
#     4  10  24  42  66  96 134 178 224 277 344 412
#     4  11  25  39  69  98 134 171 228 280 342 407
#     4  10  22  42  63 100 127 176 224 277 343 403
#     4  11  26  47  68 104 134 184 234 281 345 410
#     4  10  22  41  64  98 133 172 220 287 334 414
#     4  10  23  40  66  95 134 173 224 274 349 406
#     4  11  24  45  73  92 146 177 228 287 337 408
#     4  11  28  43  69 102 135 185 235 280 351 410
#
# _framework density 20.669243000000002
#
# number of rings (size 3 to 8) (size 9 to 14) (size 15 to 20)
#    0.000    1.500    1.250    1.500    7.000    7.000 
#    0.000    0.000    0.000    0.000    0.000    0.000 
#    0.000    0.000    0.000    0.000    0.000    0.000 
#
# Total GULP energy -396780.474467 kJ/mol
# GULP energy per Si atom -12399.389827 kJ/mol
# Density = 2.062220 g / cm^3
# Si number density = 20.669243 Si / 1000 Ang^3
#
#
#
# Elastic Constant Matrix: (Units=GPa)
#
#
# Indices 1 2 3 4 5 6 
#
# 1 75.6131 49.3649 25.5963 0.0000 -4.0355 0.0000
# 2 49.3649 150.9840 87.9533 0.0000 4.3036 0.0000
# 3 25.5963 87.9533 23.3981 0.0000 -2.5187 0.0000
# 4 0.0000 0.0000 0.0000 59.2978 0.0000 30.3328
# 5 -4.0355 4.3036 -2.5187 0.0000 34.5269 0.0000
# 6 0.0000 0.0000 0.0000 30.3328 0.0000 69.3286
#
#
#
# Elastic Compliance Matrix: (Units=1/GPa)
#
#
# Indices 1 2 3 4 5 6 
#
# 1 0.016903 -0.004230 -0.002340 0.000000 0.002332 0.000000
# 2 -0.004230 -0.004342 0.021120 0.000000 0.001587 0.000000
# 3 -0.002340 0.021120 -0.034676 0.000000 -0.005435 0.000000
# 4 0.000000 0.000000 0.000000 0.021727 0.000000 -0.009506
# 5 0.002332 0.001587 -0.005435 0.000000 0.028641 0.000000
# 6 0.000000 0.000000 0.000000 -0.009506 0.000000 0.018583
#
#
# Mechanical properties :
#
#
# Convention : Reuss Voigt Hill
#
# Bulk Modulus (GPa) = 143.15902 63.98048 103.56975
# Shear Modulus (GPa) = 249.18153 38.43605 143.80879
#
# Velocity S-wave (km/s) = 10.99174 4.31696 8.35029
# Velocity P-wave (km/s) = 15.18234 7.47461 11.96606
#
# Compressibility (1/GPa) = 0.00698524
#
# Stress axis : x y z
#
# Youngs Moduli (GPa) = 59.15962 -230.30810 -28.83875
#
# Poissons Ratio (x) = -0.97419 -0.06749
# Poissons Ratio (y) = 0.25024 0.60907
# Poissons Ratio (z) = 0.13844 4.86405
#
# Static dielectric constant tensor:
#      x y z
#    x 3.837720 0.000000 -0.167700 
#    y 0.000000 3.927380 0.000000 
#    z -0.167700 0.000000 3.825900 
# 
# 
# High freq. dielectric constant tensor:
#      x y z
#    x 1.814240 0.000000 -0.009150 
#    y 0.000000 1.823750 0.000000 
#    z -0.009150 0.000000 1.814630 
# 
# From -- ./inp_files/30764.got.cif
#   From: 2010.03.12/outbox.cif.g09.slc.cpg/sg14_16_cif.got.tgz:30764.got - 2010.03.31 13:35:05.
