data_PCOD8127223
_publ_section_title
;
Structure prediction by ZEFSAII (Michael W. Deem and Ramdas Pophale) SiO2 
 PCOD8127223
Probable space group: P 21/C
;
_chemical_formula_sum "Si O2"
_cell_formula_units_Z 28
_cell_length_a 9.616731
_cell_length_b 10.361494
_cell_length_c 12.132681
_cell_angle_alpha 90.000000
_cell_angle_beta 81.912996
_cell_angle_gamma 90.000000
_cell_volume 1196.922988
_symmetry_space_group_name_H-M "P 21/C"
_symmetry_group_IT_number 14
_symmetry_cell_setting 'monoclinic'
loop_
_space_group_symop_operation_xyz
x,y,z
-x,1/2+y,1/2-z
-x,-y,-z
x,1/2-y,1/2+z
loop_
_atom_site_type_symbol
_atom_site_label
_atom_site_fract_x
_atom_site_fract_y
_atom_site_fract_z
Si Si1 0.696264 0.852824 0.966149
Si Si2 0.829728 0.952435 0.602807
Si Si3 0.175593 0.576529 0.679437
Si Si4 0.489668 0.052298 0.326300
Si Si5 0.462632 0.835471 0.154172
Si Si6 0.886971 0.840120 0.145470
Si Si7 0.241252 0.431510 0.116280
O O1 0.712538 0.708791 0.925996
O O2 0.736474 0.947381 0.862265
O O3 0.536232 0.861539 0.027643
O O4 0.801766 0.893695 0.052104
O O5 0.661479 0.967421 0.601791
O O6 0.875644 0.814773 0.648998
O O7 0.872279 0.978599 0.468193
O O8 0.878232 0.058381 0.687642
O O9 0.295299 0.685290 0.658528
O O10 0.050110 0.619427 0.614221
O O11 0.487576 0.203792 0.291865
O O12 0.507060 0.957674 0.221530
O O13 0.621527 0.023592 0.392301
O O14 0.834960 0.916908 0.258750
#
# Coordination Sequence:
#
# PCOD8127223 Si02
#       7
#     4   4   4   4   4   4   4
#     4  11  22  45  71  98 132 187 231 286 345 411
#     4  10  22  40  66  96 134 180 230 279 347 397
#     4  11  25  42  66 101 141 175 232 291 335 425
#     4  11  21  43  69 105 134 183 233 294 335 413
#     4  11  24  42  71 104 138 178 239 284 350 400
#     4  11  22  43  65  96 137 186 220 279 354 409
#     4  11  21  39  76  94 136 179 230 287 348 413
#
# _framework density 23.393317
#
# number of rings (size 3 to 8) (size 9 to 14) (size 15 to 20)
#    0.000    1.143    5.714    1.286    2.000    1.714 
#    0.000    1.429    0.000    0.000    0.000    0.000 
#    0.000    0.000    0.000    0.000    0.000    0.000 
#
# Total GULP energy -346911.311334 kJ/mol
# GULP energy per Si atom -12389.689690 kJ/mol
# Density = 2.334007 g / cm^3
# Si number density = 23.393317 Si / 1000 Ang^3
#
#
#
# Elastic Constant Matrix: (Units=GPa)
#
#
# Indices 1 2 3 4 5 6 
#
# 1 71.1380 12.4885 7.9940 0.0000 14.0669 0.0000
# 2 12.4885 62.8232 22.6082 0.0000 -1.3688 0.0000
# 3 7.9940 22.6082 73.0585 0.0000 2.5850 0.0000
# 4 0.0000 0.0000 0.0000 26.6952 0.0000 11.3117
# 5 14.0669 -1.3688 2.5850 0.0000 24.9680 0.0000
# 6 0.0000 0.0000 0.0000 11.3117 0.0000 21.0993
#
#
#
# Elastic Compliance Matrix: (Units=1/GPa)
#
#
# Indices 1 2 3 4 5 6 
#
# 1 0.016566 -0.003340 -0.000444 0.000000 -0.009470 0.000000
# 2 -0.003340 0.018647 -0.005528 0.000000 0.003476 0.000000
# 3 -0.000444 -0.005528 0.015506 0.000000 -0.001658 0.000000
# 4 0.000000 0.000000 0.000000 0.048471 0.000000 -0.025986
# 5 -0.009470 0.003476 -0.001658 0.000000 0.045749 0.000000
# 6 0.000000 0.000000 0.000000 -0.025986 0.000000 0.061327
#
#
# Mechanical properties :
#
#
# Convention : Reuss Voigt Hill
#
# Bulk Modulus (GPa) = 31.15750 32.57792 31.86771
# Shear Modulus (GPa) = 21.22363 25.48111 23.35237
#
# Velocity S-wave (km/s) = 3.01533 3.30396 3.16294
# Velocity P-wave (km/s) = 5.04686 5.33959 5.19529
#
# Compressibility (1/GPa) = 0.03209500
#
# Stress axis : x y z
#
# Youngs Moduli (GPa) = 60.36442 53.62909 64.49319
#
# Poissons Ratio (x) = 0.17910 0.02864
# Poissons Ratio (y) = 0.20160 0.35651
# Poissons Ratio (z) = 0.02681 0.29645
#
# Static dielectric constant tensor:
#      x y z
#    x 4.515600 0.000000 0.343220 
#    y 0.000000 4.137680 0.000000 
#    z 0.343220 0.000000 5.048680 
# 
# 
# High freq. dielectric constant tensor:
#      x y z
#    x 1.936360 0.000000 0.003120 
#    y 0.000000 1.908470 0.000000 
#    z 0.003120 0.000000 1.930050 
# 
# From -- ./inp_files/28610.got.cif
#   From: 2010.03.12/outbox.cif.g09.slc.cpg/sg14_15_cif.got.tgz:28610.got - 2010.03.31 13:35:05.
