data_PCOD8127664
_publ_section_title
;
Structure prediction by ZEFSAII (Michael W. Deem and Ramdas Pophale) SiO2 
 PCOD8127664
Probable space group: P 21/C
;
_chemical_formula_sum "Si O2"
_cell_formula_units_Z 32
_cell_length_a 6.525572
_cell_length_b 26.016683
_cell_length_c 9.513400
_cell_angle_alpha 90.000000
_cell_angle_beta 67.933312
_cell_angle_gamma 90.000000
_cell_volume 1496.813037
_symmetry_space_group_name_H-M "P 21/C"
_symmetry_group_IT_number 14
_symmetry_cell_setting 'monoclinic'
loop_
_space_group_symop_operation_xyz
x,y,z
-x,1/2+y,1/2-z
-x,-y,-z
x,1/2-y,1/2+z
loop_
_atom_site_type_symbol
_atom_site_label
_atom_site_fract_x
_atom_site_fract_y
_atom_site_fract_z
Si Si1 0.474391 0.937918 0.859473
Si Si2 0.655511 0.266667 0.156481
Si Si3 0.016586 0.602108 0.559343
Si Si4 0.622018 0.734121 0.036347
Si Si5 0.433897 0.446538 0.340628
Si Si6 0.176713 0.876772 0.326941
Si Si7 0.180204 0.363647 0.874824
Si Si8 0.980206 0.689711 0.359481
O O1 0.626284 0.900128 0.730611
O O2 0.502698 0.995027 0.790015
O O3 0.216149 0.922504 0.917167
O O4 0.555064 0.934858 0.997671
O O5 0.436943 0.266803 0.309359
O O6 0.592795 0.267280 0.008813
O O7 0.798283 0.316791 0.147486
O O8 0.780128 0.213846 0.168280
O O9 0.101781 0.619817 0.686930
O O10 0.819898 0.561768 0.638669
O O11 0.919280 0.649729 0.497669
O O12 0.809756 0.763704 0.903564
O O13 0.702902 0.677596 0.054772
O O14 0.598339 0.409474 0.210368
O O15 0.990275 0.896585 0.484844
O O16 0.037649 0.337356 0.787340
#
# Coordination Sequence:
#
# PCOD8127664 Si02
#       8
#     4   4   4   4   4   4   4   4
#     4  10  23  45  72 100 132 177 232 280 341 407
#     4  12  25  42  65  94 136 181 224 272 332 399
#     4  11  23  43  72 100 129 177 234 275 334 406
#     4  12  26  41  65  92 135 179 227 270 327 403
#     4  10  22  46  72  97 133 180 228 285 336 406
#     4  11  26  40  68 101 140 172 224 282 339 403
#     4  12  25  46  64 105 140 177 223 287 341 404
#     4  12  25  43  66  96 133 185 222 269 331 409
#
# _framework density 21.378754000000001
#
# number of rings (size 3 to 8) (size 9 to 14) (size 15 to 20)
#    0.000    0.750    3.750    3.375    7.000    0.500 
#    0.000    0.625    0.000    0.000    0.000    0.000 
#    0.000    0.000    0.000    0.000    0.000    0.000 
#
# Total GULP energy -396900.333993 kJ/mol
# GULP energy per Si atom -12403.135437 kJ/mol
# Density = 2.133009 g / cm^3
# Si number density = 21.378754 Si / 1000 Ang^3
#
#
#
# Elastic Constant Matrix: (Units=GPa)
#
#
# Indices 1 2 3 4 5 6 
#
# 1 112.3742 41.1656 40.6001 0.0000 -4.0043 0.0000
# 2 41.1656 100.8373 44.7930 0.0000 -4.7764 0.0000
# 3 40.6001 44.7930 106.4410 0.0000 -13.3458 0.0000
# 4 0.0000 0.0000 0.0000 24.0199 0.0000 -10.1814
# 5 -4.0043 -4.7764 -13.3458 0.0000 38.2558 0.0000
# 6 0.0000 0.0000 0.0000 -10.1814 0.0000 24.9979
#
#
#
# Elastic Compliance Matrix: (Units=1/GPa)
#
#
# Indices 1 2 3 4 5 6 
#
# 1 0.011136 -0.003268 -0.002904 0.000000 -0.000256 0.000000
# 2 -0.003268 0.013159 -0.004317 0.000000 -0.000205 0.000000
# 3 -0.002904 -0.004317 0.012772 0.000000 0.003613 0.000000
# 4 0.000000 0.000000 0.000000 0.050319 0.000000 0.020495
# 5 -0.000256 -0.000205 0.003613 0.000000 0.027348 0.000000
# 6 0.000000 0.000000 0.000000 0.020495 0.000000 0.048351
#
#
# Mechanical properties :
#
#
# Convention : Reuss Voigt Hill
#
# Bulk Modulus (GPa) = 62.15503 63.64111 62.89807
# Shear Modulus (GPa) = 26.39535 30.32762 28.36149
#
# Velocity S-wave (km/s) = 3.51758 3.77050 3.64623
# Velocity P-wave (km/s) = 6.75531 6.98488 6.87105
#
# Compressibility (1/GPa) = 0.01608880
#
# Stress axis : x y z
#
# Youngs Moduli (GPa) = 89.79622 75.99366 78.29437
#
# Poissons Ratio (x) = 0.24836 0.22740
# Poissons Ratio (y) = 0.29347 0.33798
# Poissons Ratio (z) = 0.26081 0.32805
#
# Static dielectric constant tensor:
#      x y z
#    x 3.964640 0.000000 -0.113920 
#    y 0.000000 3.794780 0.000000 
#    z -0.113920 0.000000 3.886180 
# 
# 
# High freq. dielectric constant tensor:
#      x y z
#    x 1.849070 0.000000 -0.007440 
#    y 0.000000 1.831930 0.000000 
#    z -0.007440 0.000000 1.839370 
# 
# From -- ./inp_files/6962.got.cif
#   From: 2010.03.12/outbox.cif.g09.slc.cpg/sg14_4_cif.got.tgz:6962.got - 2010.03.31 13:35:05.
