data_PCOD8127127
_publ_section_title
;
Structure prediction by ZEFSAII (Michael W. Deem and Ramdas Pophale) SiO2 
 PCOD8127127
Probable space group: P 21/C
;
_chemical_formula_sum "Si O2"
_cell_formula_units_Z 28
_cell_length_a 15.288220
_cell_length_b 8.666362
_cell_length_c 10.166234
_cell_angle_alpha 90.000000
_cell_angle_beta 64.626226
_cell_angle_gamma 90.000000
_cell_volume 1217.018461
_symmetry_space_group_name_H-M "P 21/C"
_symmetry_group_IT_number 14
_symmetry_cell_setting 'monoclinic'
loop_
_space_group_symop_operation_xyz
x,y,z
-x,1/2+y,1/2-z
-x,-y,-z
x,1/2-y,1/2+z
loop_
_atom_site_type_symbol
_atom_site_label
_atom_site_fract_x
_atom_site_fract_y
_atom_site_fract_z
Si Si1 0.324281 0.713004 0.485082
Si Si2 0.686339 0.714850 0.282596
Si Si3 0.616206 0.616237 0.590787
Si Si4 0.969107 0.039578 0.808492
Si Si5 0.129776 0.085093 0.892525
Si Si6 0.130071 0.827016 0.699530
Si Si7 0.398648 0.890377 0.201066
O O1 0.314499 0.533756 0.448285
O O2 0.220579 0.797779 0.546092
O O3 0.393454 0.801618 0.341104
O O4 0.369638 0.725003 0.601771
O O5 0.657613 0.737266 0.454570
O O6 0.612294 0.805419 0.235512
O O7 0.793507 0.778258 0.182881
O O8 0.675162 0.534059 0.256155
O O9 0.510338 0.557523 0.614525
O O10 0.917496 0.157887 0.741419
O O11 0.029334 0.132470 0.884201
O O12 0.046701 0.931162 0.681485
O O13 0.889578 0.934588 0.938506
O O14 0.164297 0.917439 0.809769
#
# Coordination Sequence:
#
# PCOD8127127 Si02
#       7
#     4   4   4   4   4   4   4
#     4  11  25  41  67  98 139 169 230 279 325 402
#     4  11  24  42  70  98 130 179 226 274 330 409
#     4  11  24  45  68  96 140 176 224 280 336 390
#     4   9  21  42  63  89 132 165 216 275 332 397
#     4   9  22  41  64  94 132 170 222 271 338 384
#     4  10  22  39  65  93 124 173 217 266 341 385
#     4  11  25  44  66 101 134 181 223 276 339 398
#
# _framework density 23.007045000000002
#
# number of rings (size 3 to 8) (size 9 to 14) (size 15 to 20)
#    0.857    0.857    0.000    4.286    6.000    4.571 
#    0.000    3.571    0.000    0.000    0.000    0.000 
#    0.000    0.000    0.000    0.000    0.000    0.000 
#
# Total GULP energy -346909.261447 kJ/mol
# GULP energy per Si atom -12389.616480 kJ/mol
# Density = 2.295468 g / cm^3
# Si number density = 23.007045 Si / 1000 Ang^3
#
#
#
# Elastic Constant Matrix: (Units=GPa)
#
#
# Indices 1 2 3 4 5 6 
#
# 1 58.3405 33.7192 35.4853 0.0000 -9.5822 0.0000
# 2 33.7192 69.4670 45.2139 0.0000 3.6483 0.0000
# 3 35.4853 45.2139 84.3591 0.0000 -2.4002 0.0000
# 4 0.0000 0.0000 0.0000 33.3185 0.0000 -1.2632
# 5 -9.5822 3.6483 -2.4002 0.0000 27.2089 0.0000
# 6 0.0000 0.0000 0.0000 -1.2632 0.0000 42.0227
#
#
#
# Elastic Compliance Matrix: (Units=1/GPa)
#
#
# Indices 1 2 3 4 5 6 
#
# 1 0.028782 -0.010555 -0.006137 0.000000 0.011010 0.000000
# 2 -0.010555 0.026425 -0.009955 0.000000 -0.008139 0.000000
# 3 -0.006137 -0.009955 0.019797 0.000000 0.000920 0.000000
# 4 0.000000 0.000000 0.000000 0.030048 0.000000 0.000903
# 5 0.011010 -0.008139 0.000920 0.000000 0.041802 0.000000
# 6 0.000000 0.000000 0.000000 0.000903 0.000000 0.023824
#
#
# Mechanical properties :
#
#
# Convention : Reuss Voigt Hill
#
# Bulk Modulus (GPa) = 46.05805 49.00038 47.52921
# Shear Modulus (GPa) = 21.62545 27.02658 24.32602
#
# Velocity S-wave (km/s) = 3.06919 3.43112 3.25519
# Velocity P-wave (km/s) = 5.71160 6.08613 5.90184
#
# Compressibility (1/GPa) = 0.02171173
#
# Stress axis : x y z
#
# Youngs Moduli (GPa) = 34.74365 37.84240 50.51223
#
# Poissons Ratio (x) = 0.39942 0.30998
# Poissons Ratio (y) = 0.36671 0.50284
# Poissons Ratio (z) = 0.21321 0.37672
#
# Static dielectric constant tensor:
#      x y z
#    x 4.007170 0.000000 -0.064850 
#    y 0.000000 3.878230 0.000000 
#    z -0.064850 0.000000 4.001450 
# 
# 
# High freq. dielectric constant tensor:
#      x y z
#    x 1.908230 0.000000 -0.013500 
#    y 0.000000 1.892140 0.000000 
#    z -0.013500 0.000000 1.897660 
# 
# From -- ./inp_files/31452.got.cif
#   From: 2010.03.12/outbox.cif.g09.slc.cpg/sg14_16_cif.got.tgz:31452.got - 2010.03.31 13:35:05.
