data_PCOD8127794
_publ_section_title
;
Structure prediction by ZEFSAII (Michael W. Deem and Ramdas Pophale) SiO2 
 PCOD8127794
Probable space group: P 21/C
;
_chemical_formula_sum "Si O2"
_cell_formula_units_Z 32
_cell_length_a 10.962987
_cell_length_b 11.657405
_cell_length_c 14.766603
_cell_angle_alpha 90.000000
_cell_angle_beta 48.785526
_cell_angle_gamma 90.000000
_cell_volume 1419.621952
_symmetry_space_group_name_H-M "P 21/C"
_symmetry_group_IT_number 14
_symmetry_cell_setting 'monoclinic'
loop_
_space_group_symop_operation_xyz
x,y,z
-x,1/2+y,1/2-z
-x,-y,-z
x,1/2-y,1/2+z
loop_
_atom_site_type_symbol
_atom_site_label
_atom_site_fract_x
_atom_site_fract_y
_atom_site_fract_z
Si Si1 0.602031 0.868041 0.744206
Si Si2 0.331384 0.435648 0.594588
Si Si3 0.093526 0.632198 0.667366
Si Si4 0.253822 0.676827 0.205546
Si Si5 0.227625 0.813390 0.913577
Si Si6 0.397398 0.243240 0.434620
Si Si7 0.828723 0.454315 0.048173
Si Si8 0.232995 0.456778 0.110588
O O1 0.667711 0.855864 0.814910
O O2 0.408213 0.862505 0.841778
O O3 0.661900 0.771758 0.641357
O O4 0.672531 0.987445 0.672084
O O5 0.500000 0.500000 0.500000
O O6 0.186241 0.526085 0.669091
O O7 0.306770 0.352963 0.520126
O O8 0.141342 0.751793 0.692067
O O9 0.122733 0.634411 0.545724
O O10 0.903422 0.615602 0.770966
O O11 0.164355 0.648106 0.344970
O O12 0.408421 0.756390 0.154764
O O13 0.307945 0.554682 0.138139
O O14 0.207562 0.677806 0.921518
O O15 0.367736 0.131155 0.510584
O O16 0.845194 0.478062 0.934868
O O17 0.000000 0.500000 0.000000
#
# Coordination Sequence:
#
# PCOD8127794 Si02
#       8
#     4   4   4   4   4   4   4   4
#     4  10  23  41  68 102 127 177 225 278 334 402
#     4  12  22  42  67 100 132 175 221 275 336 400
#     4  12  25  43  69 100 135 177 226 282 338 405
#     4  11  22  44  66  95 134 173 217 281 338 401
#     4  11  23  41  69  99 136 174 227 282 343 406
#     4  10  24  43  66  98 129 174 231 268 337 405
#     4  11  23  44  71  98 133 182 232 277 338 413
#     4  11  25  42  67  94 134 176 219 280 337 399
#
# _framework density 22.541212999999999
#
# number of rings (size 3 to 8) (size 9 to 14) (size 15 to 20)
#    0.000    1.000    3.750    2.625    3.500    1.500 
#    2.250    0.000    0.000    0.000    0.000    0.000 
#    0.000    0.000    0.000    0.000    0.000    0.000 
#
# Total GULP energy -396606.737865 kJ/mol
# GULP energy per Si atom -12393.960558 kJ/mol
# Density = 2.248991 g / cm^3
# Si number density = 22.541213 Si / 1000 Ang^3
#
#
#
# Elastic Constant Matrix: (Units=GPa)
#
#
# Indices 1 2 3 4 5 6 
#
# 1 50.0141 26.5020 38.1137 0.0000 9.6998 0.0000
# 2 26.5020 80.8452 22.5420 0.0000 10.0478 0.0000
# 3 38.1137 22.5420 133.1255 0.0000 29.0943 0.0000
# 4 0.0000 0.0000 0.0000 37.7948 0.0000 5.2324
# 5 9.6998 10.0478 29.0943 0.0000 48.3874 0.0000
# 6 0.0000 0.0000 0.0000 5.2324 0.0000 25.8865
#
#
#
# Elastic Compliance Matrix: (Units=1/GPa)
#
#
# Indices 1 2 3 4 5 6 
#
# 1 0.029512 -0.007679 -0.007143 0.000000 -0.000026 0.000000
# 2 -0.007679 0.015087 -0.000009 0.000000 -0.001588 0.000000
# 3 -0.007143 -0.000009 0.010644 0.000000 -0.004966 0.000000
# 4 0.000000 0.000000 0.000000 0.027220 0.000000 -0.005502
# 5 -0.000026 -0.001588 -0.004966 0.000000 0.023988 0.000000
# 6 0.000000 0.000000 0.000000 -0.005502 0.000000 0.039742
#
#
# Mechanical properties :
#
#
# Convention : Reuss Voigt Hill
#
# Bulk Modulus (GPa) = 39.09416 48.70003 43.89709
# Shear Modulus (GPa) = 27.11755 34.20222 30.65988
#
# Velocity S-wave (km/s) = 3.47222 3.89950 3.69205
# Velocity P-wave (km/s) = 5.78413 6.47508 6.13933
#
# Compressibility (1/GPa) = 0.02557927
#
# Stress axis : x y z
#
# Youngs Moduli (GPa) = 33.88413 66.28404 93.95288
#
# Poissons Ratio (x) = 0.50903 0.67113
# Poissons Ratio (y) = 0.26021 0.00084
# Poissons Ratio (z) = 0.24204 0.00059
#
# Static dielectric constant tensor:
#      x y z
#    x 3.892300 0.000000 0.354920 
#    y 0.000000 4.003040 0.000000 
#    z 0.354920 0.000000 4.515180 
# 
# 
# High freq. dielectric constant tensor:
#      x y z
#    x 1.867430 0.000000 0.016360 
#    y 0.000000 1.882530 0.000000 
#    z 0.016360 0.000000 1.913200 
# 
# From -- ./inp_files/44632.got.cif
#   From: 2010.03.12/outbox.cif.g09.slc.cpg/sg14_23_cif.got.tgz:44632.got - 2010.03.31 13:35:05.
