data_PCOD8127592
_publ_section_title
;
Structure prediction by ZEFSAII (Michael W. Deem and Ramdas Pophale) SiO2 
 PCOD8127592
Probable space group: P 21/C
;
_chemical_formula_sum "Si O2"
_cell_formula_units_Z 32
_cell_length_a 16.423827
_cell_length_b 15.594681
_cell_length_c 10.769340
_cell_angle_alpha 90.000000
_cell_angle_beta 29.966601
_cell_angle_gamma 90.000000
_cell_volume 1377.752375
_symmetry_space_group_name_H-M "P 21/C"
_symmetry_group_IT_number 14
_symmetry_cell_setting 'monoclinic'
loop_
_space_group_symop_operation_xyz
x,y,z
-x,1/2+y,1/2-z
-x,-y,-z
x,1/2-y,1/2+z
loop_
_atom_site_type_symbol
_atom_site_label
_atom_site_fract_x
_atom_site_fract_y
_atom_site_fract_z
Si Si1 0.261766 0.034113 0.609628
Si Si2 0.355651 0.418350 0.595398
Si Si3 0.944892 0.552453 0.856581
Si Si4 0.502255 0.619208 0.837471
Si Si5 0.168268 0.408431 0.485258
Si Si6 0.752806 0.241023 0.818072
Si Si7 0.516592 0.397920 0.623196
Si Si8 0.948584 0.248002 0.806523
O O1 0.157547 0.015954 0.623811
O O2 0.139867 0.065570 0.878863
O O3 0.392581 0.109417 0.403599
O O4 0.354326 0.947723 0.526338
O O5 0.383972 0.362545 0.434461
O O6 0.429708 0.363537 0.612235
O O7 0.461744 0.501545 0.426584
O O8 0.167490 0.444215 0.871260
O O9 0.090779 0.482549 0.677401
O O10 0.004342 0.648873 0.756480
O O11 0.634919 0.591217 0.764197
O O12 0.412697 0.707062 0.990087
O O13 0.099707 0.313730 0.604760
O O14 0.842940 0.272058 0.823904
O O15 0.860646 0.237756 0.553085
O O16 0.689182 0.144660 0.925655
#
# Coordination Sequence:
#
# PCOD8127592 Si02
#       8
#     4   4   4   4   4   4   4   4
#     4  10  22  44  69  95 134 183 232 278 357 406
#     4   9  20  41  64  98 129 174 226 272 356 399
#     4  11  24  43  72  94 142 183 230 285 351 424
#     4  11  25  40  73  99 136 181 234 290 343 416
#     4  12  26  43  68 103 143 178 234 288 350 420
#     4  12  26  46  68  98 145 180 237 286 355 407
#     4   9  20  38  70  93 126 175 227 283 328 419
#     4  12  29  45  70 104 142 189 233 287 362 419
#
# _framework density 23.226234999999999
#
# number of rings (size 3 to 8) (size 9 to 14) (size 15 to 20)
#    0.000    1.250    0.000    5.250   10.500    1.500 
#    0.000    0.000    0.000    0.000    0.000    0.000 
#    0.000    0.000    0.000    0.000    0.000    0.000 
#
# Total GULP energy -396628.213519 kJ/mol
# GULP energy per Si atom -12394.631672 kJ/mol
# Density = 2.317337 g / cm^3
# Si number density = 23.226235 Si / 1000 Ang^3
#
#
#
# Elastic Constant Matrix: (Units=GPa)
#
#
# Indices 1 2 3 4 5 6 
#
# 1 61.2047 19.3372 29.0249 0.0000 3.7476 0.0000
# 2 19.3372 96.5230 23.5131 0.0000 -14.4417 0.0000
# 3 29.0249 23.5131 113.8597 0.0000 11.4620 0.0000
# 4 0.0000 0.0000 0.0000 50.1302 0.0000 -13.2260
# 5 3.7476 -14.4417 11.4620 0.0000 46.8402 0.0000
# 6 0.0000 0.0000 0.0000 -13.2260 0.0000 28.2386
#
#
#
# Elastic Compliance Matrix: (Units=1/GPa)
#
#
# Indices 1 2 3 4 5 6 
#
# 1 0.019375 -0.003093 -0.004151 0.000000 -0.001488 0.000000
# 2 -0.003093 0.012192 -0.002186 0.000000 0.004542 0.000000
# 3 -0.004151 -0.002186 0.010588 0.000000 -0.002933 0.000000
# 4 0.000000 0.000000 0.000000 0.022761 0.000000 0.010660
# 5 -0.001488 0.004542 -0.002933 0.000000 0.023586 0.000000
# 6 0.000000 0.000000 0.000000 0.010660 0.000000 0.040405
#
#
# Mechanical properties :
#
#
# Convention : Reuss Voigt Hill
#
# Bulk Modulus (GPa) = 42.92849 46.14864 44.53856
# Shear Modulus (GPa) = 32.14768 38.35597 35.25182
#
# Velocity S-wave (km/s) = 3.72440 4.06816 3.90007
# Velocity P-wave (km/s) = 6.08422 6.47911 6.28477
#
# Compressibility (1/GPa) = 0.02329456
#
# Stress axis : x y z
#
# Youngs Moduli (GPa) = 51.61208 82.02077 94.45058
#
# Poissons Ratio (x) = 0.25371 0.39202
# Poissons Ratio (y) = 0.15965 0.20651
# Poissons Ratio (z) = 0.21422 0.17933
#
# Static dielectric constant tensor:
#      x y z
#    x 4.213670 0.000000 0.209030 
#    y 0.000000 3.965610 0.000000 
#    z 0.209030 0.000000 4.486950 
# 
# 
# High freq. dielectric constant tensor:
#      x y z
#    x 1.912490 0.000000 0.006070 
#    y 0.000000 1.905400 0.000000 
#    z 0.006070 0.000000 1.936950 
# 
# From -- ./inp_files/34172.got.cif
#   From: 2010.03.12/outbox.cif.g09.slc.cpg/sg14_18_cif.got.tgz:34172.got - 2010.03.31 13:35:05.
