data_PCOD8127767
_publ_section_title
;
Structure prediction by ZEFSAII (Michael W. Deem and Ramdas Pophale) SiO2 
 PCOD8127767
Probable space group: P 21/C
;
_chemical_formula_sum "Si O2"
_cell_formula_units_Z 20
_cell_length_a 6.139050
_cell_length_b 10.155614
_cell_length_c 13.940280
_cell_angle_alpha 90.000000
_cell_angle_beta 91.103023
_cell_angle_gamma 90.000000
_cell_volume 868.957168
_symmetry_space_group_name_H-M "P 21/C"
_symmetry_group_IT_number 14
_symmetry_cell_setting 'monoclinic'
loop_
_space_group_symop_operation_xyz
x,y,z
-x,1/2+y,1/2-z
-x,-y,-z
x,1/2-y,1/2+z
loop_
_atom_site_type_symbol
_atom_site_label
_atom_site_fract_x
_atom_site_fract_y
_atom_site_fract_z
Si Si1 0.693800 0.104744 0.503101
Si Si2 0.016437 0.500448 0.159703
Si Si3 0.595551 0.643331 0.500151
Si Si4 0.640952 0.634624 0.709051
Si Si5 0.316303 0.391554 0.704010
O O1 0.599531 0.251216 0.506817
O O2 0.838598 0.081085 0.598407
O O3 0.500000 0.000000 0.500000
O O4 0.838482 0.090269 0.408932
O O5 0.160181 0.397457 0.219736
O O6 0.904051 0.594533 0.237180
O O7 0.500000 0.500000 0.500000
O O8 0.728226 0.660648 0.600715
O O9 0.745043 0.651523 0.406019
O O10 0.455133 0.524756 0.709501
O O11 0.543013 0.772970 0.747112
#
# Coordination Sequence:
#
# PCOD8127767 Si02
#       5
#     4   4   4   4   4
#     4  11  23  46  70  96 130 175 229 275 322 387
#     4  11  24  39  72 102 126 173 232 275 318 394
#     4  10  23  41  63  92 135 172 203 266 339 391
#     4  11  24  43  67  97 135 177 219 273 334 394
#     4  11  24  43  67  97 135 177 219 273 334 394
#
# _framework density 23.016093999999999
#
# number of rings (size 3 to 8) (size 9 to 14) (size 15 to 20)
#    0.000    1.200    0.000    6.000    0.000   10.400 
#    0.000    0.000    0.000    0.000    0.000    0.000 
#    0.000    0.000    0.000    0.000    0.000    0.000 
#
# Total GULP energy -247926.684065 kJ/mol
# GULP energy per Si atom -12396.334203 kJ/mol
# Density = 2.296371 g / cm^3
# Si number density = 23.016094 Si / 1000 Ang^3
#
#
#
# Elastic Constant Matrix: (Units=GPa)
#
#
# Indices 1 2 3 4 5 6 
#
# 1 88.2560 19.4246 41.8904 0.0000 -26.4849 0.0000
# 2 19.4246 122.2555 15.2706 0.0000 -33.7261 0.0000
# 3 41.8904 15.2706 179.0394 0.0000 -46.7371 0.0000
# 4 0.0000 0.0000 0.0000 32.9601 0.0000 -2.0499
# 5 -26.4849 -33.7261 -46.7371 0.0000 36.8049 0.0000
# 6 0.0000 0.0000 0.0000 -2.0499 0.0000 22.0943
#
#
#
# Elastic Compliance Matrix: (Units=1/GPa)
#
#
# Indices 1 2 3 4 5 6 
#
# 1 0.014593 0.000505 -0.000891 0.000000 0.009833 0.000000
# 2 0.000505 0.011781 0.002678 0.000000 0.014560 0.000000
# 3 -0.000891 0.002678 0.009033 0.000000 0.013283 0.000000
# 4 0.000000 0.000000 0.000000 0.030516 0.000000 0.002831
# 5 0.009833 0.014560 0.013283 0.000000 0.064456 0.000000
# 6 0.000000 0.000000 0.000000 0.002831 0.000000 0.045523
#
#
# Mechanical properties :
#
#
# Convention : Reuss Voigt Hill
#
# Bulk Modulus (GPa) = 25.00493 60.30243 42.65368
# Shear Modulus (GPa) = 27.07849 39.23621 33.15735
#
# Velocity S-wave (km/s) = 3.43374 4.13332 3.79966
# Velocity P-wave (km/s) = 5.15834 7.00258 6.14998
#
# Compressibility (1/GPa) = 0.03999212
#
# Stress axis : x y z
#
# Youngs Moduli (GPa) = 68.52568 84.87984 110.70677
#
# Poissons Ratio (x) = -0.04289 0.09859
# Poissons Ratio (y) = -0.03463 -0.29643
# Poissons Ratio (z) = 0.06102 -0.22728
#
# Static dielectric constant tensor:
#      x y z
#    x 3.743210 0.000000 -0.330720 
#    y 0.000000 4.286560 0.000000 
#    z -0.330720 0.000000 5.436710 
# 
# 
# High freq. dielectric constant tensor:
#      x y z
#    x 1.872520 0.000000 -0.012130 
#    y 0.000000 1.926330 0.000000 
#    z -0.012130 0.000000 1.946720 
# 
# From -- ./inp_files/37064.got.cif
#   From: 2010.03.12/outbox.cif.g09.slc.cpg/sg14_19_cif.got.tgz:37064.got - 2010.03.31 13:35:05.
