data_PCOD8127343
_publ_section_title
;
Structure prediction by ZEFSAII (Michael W. Deem and Ramdas Pophale) SiO2 
 PCOD8127343
Probable space group: P 21/C
;
_chemical_formula_sum "Si O2"
_cell_formula_units_Z 28
_cell_length_a 11.089878
_cell_length_b 14.517966
_cell_length_c 9.122816
_cell_angle_alpha 90.000000
_cell_angle_beta 124.137380
_cell_angle_gamma 90.000000
_cell_volume 1215.714155
_symmetry_space_group_name_H-M "P 21/C"
_symmetry_group_IT_number 14
_symmetry_cell_setting 'monoclinic'
loop_
_space_group_symop_operation_xyz
x,y,z
-x,1/2+y,1/2-z
-x,-y,-z
x,1/2-y,1/2+z
loop_
_atom_site_type_symbol
_atom_site_label
_atom_site_fract_x
_atom_site_fract_y
_atom_site_fract_z
Si Si1 0.155203 0.488267 0.027849
Si Si2 0.404251 0.630182 0.204877
Si Si3 0.696518 0.212997 0.643818
Si Si4 0.025708 0.995586 0.849129
Si Si5 0.890172 0.196739 0.035102
Si Si6 0.720211 0.863891 0.993866
Si Si7 0.820200 0.790005 0.346988
O O1 0.283988 0.554644 0.172302
O O2 0.200692 0.381334 0.068728
O O3 0.000000 0.500000 0.000000
O O4 0.122095 0.520415 0.838440
O O5 0.387416 0.718717 0.301798
O O6 0.564302 0.590694 0.351732
O O7 0.405655 0.646310 0.026544
O O8 0.769750 0.260495 0.554828
O O9 0.819044 0.163812 0.830107
O O10 0.052891 0.888606 0.832009
O O11 0.163677 0.055710 0.892988
O O12 0.000000 0.000000 0.000000
O O13 0.012405 0.274278 0.087717
O O14 0.769633 0.801700 0.892711
O O15 0.715920 0.800676 0.135280
#
# Coordination Sequence:
#
# PCOD8127343 Si02
#       7
#     4   4   4   4   4   4   4
#     4  12  24  46  70 104 134 182 234 290 337 415
#     4  11  25  46  68  99 143 179 232 277 352 413
#     4  10  22  41  70  96 133 179 227 280 341 404
#     4  12  24  42  68 102 136 174 234 285 342 401
#     4  11  21  41  70 102 126 174 230 291 330 402
#     4  12  27  46  67 102 140 187 224 289 349 419
#     4  12  25  44  74  98 143 176 237 281 355 403
#
# _framework density 23.031731000000001
#
# number of rings (size 3 to 8) (size 9 to 14) (size 15 to 20)
#    0.000    0.571    2.857    6.857    0.000    0.571 
#    5.143    1.429    0.000    0.000    0.000    0.000 
#    0.000    0.000    0.000    0.000    0.000    0.000 
#
# Total GULP energy -346957.633022 kJ/mol
# GULP energy per Si atom -12391.344036 kJ/mol
# Density = 2.297931 g / cm^3
# Si number density = 23.031731 Si / 1000 Ang^3
#
#
#
# Elastic Constant Matrix: (Units=GPa)
#
#
# Indices 1 2 3 4 5 6 
#
# 1 58.9736 12.0340 37.7421 0.0000 13.4895 0.0000
# 2 12.0340 84.6618 14.4213 0.0000 13.0392 0.0000
# 3 37.7421 14.4213 154.5136 0.0000 9.4550 0.0000
# 4 0.0000 0.0000 0.0000 35.1624 0.0000 -1.0021
# 5 13.4895 13.0392 9.4550 0.0000 43.8726 0.0000
# 6 0.0000 0.0000 0.0000 -1.0021 0.0000 24.9551
#
#
#
# Elastic Compliance Matrix: (Units=1/GPa)
#
#
# Indices 1 2 3 4 5 6 
#
# 1 0.021502 -0.001446 -0.004802 0.000000 -0.005147 0.000000
# 2 -0.001446 0.012612 -0.000630 0.000000 -0.003168 0.000000
# 3 -0.004802 -0.000630 0.007704 0.000000 0.000004 0.000000
# 4 0.000000 0.000000 0.000000 0.028472 0.000000 0.001143
# 5 -0.005147 -0.003168 0.000004 0.000000 0.025317 0.000000
# 6 0.000000 0.000000 0.000000 0.001143 0.000000 0.040118
#
#
# Mechanical properties :
#
#
# Convention : Reuss Voigt Hill
#
# Bulk Modulus (GPa) = 35.63539 47.39374 41.51456
# Shear Modulus (GPa) = 31.47911 36.39480 33.93696
#
# Velocity S-wave (km/s) = 3.70100 3.97949 3.84277
# Velocity P-wave (km/s) = 5.81112 6.46045 6.14436
#
# Compressibility (1/GPa) = 0.02806199
#
# Stress axis : x y z
#
# Youngs Moduli (GPa) = 46.50638 79.28655 129.81005
#
# Poissons Ratio (x) = 0.11462 0.62340
# Poissons Ratio (y) = 0.06723 0.08180
# Poissons Ratio (z) = 0.22334 0.04996
#
# Static dielectric constant tensor:
#      x y z
#    x 3.935100 0.000000 0.143730 
#    y 0.000000 3.191640 0.000000 
#    z 0.143730 0.000000 5.925740 
# 
# 
# High freq. dielectric constant tensor:
#      x y z
#    x 1.888210 0.000000 -0.006810 
#    y 0.000000 1.902160 0.000000 
#    z -0.006810 0.000000 1.940820 
# 
# From -- ./inp_files/13428.got.cif
#   From: 2010.03.12/outbox.cif.g09.slc.cpg/sg14_7_cif.got.tgz:13428.got - 2010.03.31 13:35:05.
