data_PCOD8127200
_publ_section_title
;
Structure prediction by ZEFSAII (Michael W. Deem and Ramdas Pophale) SiO2 
 PCOD8127200
Probable space group: P 21/C
;
_chemical_formula_sum "Si O2"
_cell_formula_units_Z 24
_cell_length_a 7.921777
_cell_length_b 11.324619
_cell_length_c 23.324075
_cell_angle_alpha 90.000000
_cell_angle_beta 34.696893
_cell_angle_gamma 90.000000
_cell_volume 1191.083453
_symmetry_space_group_name_H-M "P 21/C"
_symmetry_group_IT_number 14
_symmetry_cell_setting 'monoclinic'
loop_
_space_group_symop_operation_xyz
x,y,z
-x,1/2+y,1/2-z
-x,-y,-z
x,1/2-y,1/2+z
loop_
_atom_site_type_symbol
_atom_site_label
_atom_site_fract_x
_atom_site_fract_y
_atom_site_fract_z
Si Si1 0.762690 0.938597 0.959714
Si Si2 0.672968 0.843960 0.738290
Si Si3 0.329239 0.933512 0.178482
Si Si4 0.810860 0.015884 0.607945
Si Si5 0.853404 0.594375 0.714687
Si Si6 0.873954 0.274015 0.165104
O O1 0.845932 0.813686 0.905496
O O2 0.646028 0.917055 0.057218
O O3 0.039216 0.029859 0.874584
O O4 0.500000 0.000000 0.000000
O O5 0.877213 0.735837 0.702562
O O6 0.348275 0.797249 0.813795
O O7 0.650033 0.945456 0.792201
O O8 0.815877 0.892837 0.640216
O O9 0.274531 0.818232 0.233865
O O10 0.054326 0.946471 0.211714
O O11 0.481656 0.054330 0.681516
O O12 0.975291 0.110904 0.602206
O O13 0.000000 0.000000 0.500000
#
# Coordination Sequence:
#
# PCOD8127200 Si02
#       6
#     4   4   4   4   4   4
#     4  10  22  40  65  96 123 162 212 254 320 372
#     4  10  22  41  61  91 126 164 209 256 312 368
#     4  10  24  41  65  90 127 168 203 263 320 363
#     4  10  22  41  61  91 124 168 205 258 314 366
#     4  10  22  40  64  91 126 164 209 264 300 384
#     4  10  22  41  62  91 127 158 211 258 307 376
#
# _framework density 20.149722000000001
#
# number of rings (size 3 to 8) (size 9 to 14) (size 15 to 20)
#    0.000    2.000    1.667    0.000    7.000    3.333 
#    6.000    1.667    0.000    0.000    0.000    0.000 
#    0.000    0.000    0.000    0.000    0.000    0.000 
#
# Total GULP energy -297446.752361 kJ/mol
# GULP energy per Si atom -12393.614682 kJ/mol
# Density = 2.010386 g / cm^3
# Si number density = 20.149722 Si / 1000 Ang^3
#
#
#
# Elastic Constant Matrix: (Units=GPa)
#
#
# Indices 1 2 3 4 5 6 
#
# 1 77.2960 35.2429 36.8810 0.0000 7.7171 0.0000
# 2 35.2429 127.8932 71.0389 0.0000 10.4024 0.0000
# 3 36.8810 71.0389 167.3792 0.0000 22.2389 0.0000
# 4 0.0000 0.0000 0.0000 24.0685 0.0000 1.0831
# 5 7.7171 10.4024 22.2389 0.0000 33.2624 0.0000
# 6 0.0000 0.0000 0.0000 1.0831 0.0000 36.2360
#
#
#
# Elastic Compliance Matrix: (Units=1/GPa)
#
#
# Indices 1 2 3 4 5 6 
#
# 1 0.015381 -0.003070 -0.001909 0.000000 -0.001332 0.000000
# 2 -0.003070 0.010847 -0.003919 0.000000 -0.000060 0.000000
# 3 -0.001909 -0.003919 0.008601 0.000000 -0.004082 0.000000
# 4 0.000000 0.000000 0.000000 0.041604 0.000000 -0.001244
# 5 -0.001332 -0.000060 -0.004082 0.000000 0.033121 0.000000
# 6 0.000000 0.000000 0.000000 -0.001244 0.000000 0.027634
#
#
# Mechanical properties :
#
#
# Convention : Reuss Voigt Hill
#
# Bulk Modulus (GPa) = 58.71246 73.21047 65.96146
# Shear Modulus (GPa) = 31.12144 34.00708 32.56426
#
# Velocity S-wave (km/s) = 3.93429 4.11264 4.02445
# Velocity P-wave (km/s) = 7.05971 7.67879 7.37575
#
# Compressibility (1/GPa) = 0.01703216
#
# Stress axis : x y z
#
# Youngs Moduli (GPa) = 65.01601 92.19391 116.26679
#
# Poissons Ratio (x) = 0.28299 0.22199
# Poissons Ratio (y) = 0.19957 0.45568
# Poissons Ratio (z) = 0.12414 0.36133
#
# Static dielectric constant tensor:
#      x y z
#    x 3.666910 0.000000 -0.032930 
#    y 0.000000 4.171190 0.000000 
#    z -0.032930 0.000000 4.238960 
# 
# 
# High freq. dielectric constant tensor:
#      x y z
#    x 1.774020 0.000000 0.005810 
#    y 0.000000 1.804900 0.000000 
#    z 0.005810 0.000000 1.785240 
# 
# From -- ./inp_files/24084.got.cif
#   From: 2010.03.12/outbox.cif.g09.slc.cpg/sg14_13_cif.got.tgz:24084.got - 2010.03.31 13:35:05.
