data_PCOD8127400
_publ_section_title
;
Structure prediction by ZEFSAII (Michael W. Deem and Ramdas Pophale) SiO2 
 PCOD8127400
Probable space group: P 21/C
;
_chemical_formula_sum "Si O2"
_cell_formula_units_Z 24
_cell_length_a 17.921556
_cell_length_b 9.228172
_cell_length_c 14.514438
_cell_angle_alpha 90.000000
_cell_angle_beta 155.957296
_cell_angle_gamma 90.000000
_cell_volume 977.982788
_symmetry_space_group_name_H-M "P 21/C"
_symmetry_group_IT_number 14
_symmetry_cell_setting 'monoclinic'
loop_
_space_group_symop_operation_xyz
x,y,z
-x,1/2+y,1/2-z
-x,-y,-z
x,1/2-y,1/2+z
loop_
_atom_site_type_symbol
_atom_site_label
_atom_site_fract_x
_atom_site_fract_y
_atom_site_fract_z
Si Si1 0.601101 0.741769 0.788198
Si Si2 0.688899 0.736880 0.588214
Si Si3 0.720105 0.237330 0.320530
Si Si4 0.855217 0.930296 0.433819
Si Si5 0.211755 0.695632 0.401850
Si Si6 0.309327 0.572148 0.883249
O O1 0.727360 0.648459 0.864311
O O2 0.422570 0.644228 0.618272
O O3 0.523211 0.884808 0.647339
O O4 0.712977 0.789528 0.005615
O O5 0.487378 0.692286 0.392907
O O6 0.831794 0.639842 0.806279
O O7 0.727321 0.903720 0.654499
O O8 0.824155 0.280839 0.530809
O O9 0.738047 0.372106 0.272018
O O10 0.811055 0.098853 0.375313
O O11 0.067006 0.920087 0.701761
O O12 0.180248 0.849716 0.313890
#
# Coordination Sequence:
#
# PCOD8127400 Si02
#       6
#     4   4   4   4   4   4
#     4   9  23  42  65  93 131 172 217 274 333 392
#     4  11  22  40  71  95 134 178 220 274 334 404
#     4  11  23  42  67  99 135 171 224 279 330 403
#     4  12  24  42  68 100 127 177 224 273 339 395
#     4   9  24  44  61  96 136 170 223 277 325 403
#     4  10  22  42  65  96 129 176 217 268 335 391
#
# _framework density 24.540310000000002
#
# number of rings (size 3 to 8) (size 9 to 14) (size 15 to 20)
#    1.000    0.667    1.667    2.000    0.000    4.000 
#    3.000    0.000    0.000    0.000    0.000    0.000 
#    0.000    0.000    0.000    0.000    0.000    0.000 
#
# Total GULP energy -297568.256260 kJ/mol
# GULP energy per Si atom -12398.677344 kJ/mol
# Density = 2.448446 g / cm^3
# Si number density = 24.540310 Si / 1000 Ang^3
#
#
#
# Elastic Constant Matrix: (Units=GPa)
#
#
# Indices 1 2 3 4 5 6 
#
# 1 108.3027 27.6328 43.3024 0.0000 -25.7961 0.0000
# 2 27.6328 57.0707 9.8678 0.0000 -16.2945 0.0000
# 3 43.3024 9.8678 91.2056 0.0000 -26.5136 0.0000
# 4 0.0000 0.0000 0.0000 14.8426 0.0000 4.1619
# 5 -25.7961 -16.2945 -26.5136 0.0000 31.6983 0.0000
# 6 0.0000 0.0000 0.0000 4.1619 0.0000 25.2343
#
#
#
# Elastic Compliance Matrix: (Units=1/GPa)
#
#
# Indices 1 2 3 4 5 6 
#
# 1 0.013248 -0.004250 -0.004401 0.000000 0.004915 0.000000
# 2 -0.004250 0.021987 0.002536 0.000000 0.009964 0.000000
# 3 -0.004401 0.002536 0.016010 0.000000 0.011113 0.000000
# 4 0.000000 0.000000 0.000000 0.070640 0.000000 -0.011651
# 5 0.004915 0.009964 0.011113 0.000000 0.049965 0.000000
# 6 0.000000 0.000000 0.000000 -0.011651 0.000000 0.041550
#
#
# Mechanical properties :
#
#
# Convention : Reuss Voigt Hill
#
# Bulk Modulus (GPa) = 25.63215 46.46500 36.04857
# Shear Modulus (GPa) = 20.95235 26.07344 23.51289
#
# Velocity S-wave (km/s) = 2.92514 3.26310 3.09873
# Velocity P-wave (km/s) = 4.67720 5.75954 5.24636
#
# Compressibility (1/GPa) = 0.03901351
#
# Stress axis : x y z
#
# Youngs Moduli (GPa) = 75.48141 45.48232 62.46041
#
# Poissons Ratio (x) = 0.19331 0.27491
# Poissons Ratio (y) = 0.32082 -0.15839
# Poissons Ratio (z) = 0.33222 -0.11533
#
# Static dielectric constant tensor:
#      x y z
#    x 4.550000 0.000000 -0.274600 
#    y 0.000000 4.015120 0.000000 
#    z -0.274600 0.000000 4.440150 
# 
# 
# High freq. dielectric constant tensor:
#      x y z
#    x 1.986670 0.000000 -0.021110 
#    y 0.000000 1.957570 0.000000 
#    z -0.021110 0.000000 1.969740 
# 
# From -- ./inp_files/61809.got.cif
#   From: 2010.03.12/outbox.cif.g09.slc.cpg/sg14_31_cif.got.tgz:61809.got - 2010.03.31 13:35:05.
