data_PCOD8127166
_publ_section_title
;
Structure prediction by ZEFSAII (Michael W. Deem and Ramdas Pophale) SiO2 
 PCOD8127166
Probable space group: P 21/C
;
_chemical_formula_sum "Si O2"
_cell_formula_units_Z 32
_cell_length_a 17.615422
_cell_length_b 13.422887
_cell_length_c 18.846549
_cell_angle_alpha 90.000000
_cell_angle_beta 20.823998
_cell_angle_gamma 90.000000
_cell_volume 1584.194747
_symmetry_space_group_name_H-M "P 21/C"
_symmetry_group_IT_number 14
_symmetry_cell_setting 'monoclinic'
loop_
_space_group_symop_operation_xyz
x,y,z
-x,1/2+y,1/2-z
-x,-y,-z
x,1/2-y,1/2+z
loop_
_atom_site_type_symbol
_atom_site_label
_atom_site_fract_x
_atom_site_fract_y
_atom_site_fract_z
Si Si1 0.221326 0.787636 0.942379
Si Si2 0.537837 0.832232 0.548680
Si Si3 0.393918 0.712364 0.442377
Si Si4 0.195610 0.660265 0.233928
Si Si5 0.836531 0.839735 0.733931
Si Si6 0.864804 0.667768 0.048679
Si Si7 0.067229 0.467249 0.271440
Si Si8 0.110112 0.967249 0.228558
O O1 0.071643 0.702408 0.041851
O O2 0.105329 0.894501 0.042414
O O3 0.438777 0.792151 0.708215
O O4 0.273847 0.755296 0.976153
O O5 0.348680 0.874192 0.664263
O O6 0.655651 0.741919 0.406404
O O7 0.697013 0.920882 0.429430
O O8 0.344661 0.797592 0.541846
O O9 0.644796 0.707850 0.208212
O O10 0.309844 0.605499 0.542413
O O11 0.059576 0.567857 0.323665
O O12 0.031544 0.741919 0.406401
O O13 0.822793 0.874191 0.664264
O O14 0.793090 0.932143 0.823668
O O15 0.944129 0.579117 0.929429
O O16 0.012713 0.489496 0.237287
#
# Coordination Sequence:
#
# PCOD8127166 Si02
#       8
#     4   4   4   4   4   4   4   4
#     4  10  22  40  61  89 125 160 203 252 300 360
#     4  11  22  40  62  91 122 159 202 254 301 360
#     4  10  22  40  61  89 125 160 203 252 300 360
#     4  11  22  40  63  90 124 159 204 248 307 361
#     4  11  22  40  63  90 124 159 204 248 307 361
#     4  11  22  40  62  91 122 159 202 254 301 360
#     4  10  23  40  61  89 122 160 203 252 303 358
#     4  10  23  40  61  89 122 160 203 252 303 358
#
# _framework density 20.199535999999998
#
# number of rings (size 3 to 8) (size 9 to 14) (size 15 to 20)
#    0.000    1.500    2.500    2.250    0.000    6.000 
#    0.000    2.500    0.000    0.000    0.000    0.000 
#    0.000    0.000    0.000    0.000    0.000    0.000 
#
# Total GULP energy -396999.831385 kJ/mol
# GULP energy per Si atom -12406.244731 kJ/mol
# Density = 2.015356 g / cm^3
# Si number density = 20.199536 Si / 1000 Ang^3
#
#
#
# Elastic Constant Matrix: (Units=GPa)
#
#
# Indices 1 2 3 4 5 6 
#
# 1 93.2297 12.7361 16.0875 0.0000 0.3431 0.0000
# 2 12.7361 38.4987 -3.4501 0.0000 1.3610 0.0000
# 3 16.0875 -3.4501 80.4849 0.0000 0.7279 0.0000
# 4 0.0000 0.0000 0.0000 14.9293 0.0000 1.9246
# 5 0.3431 1.3610 0.7279 0.0000 36.4957 0.0000
# 6 0.0000 0.0000 0.0000 1.9246 0.0000 37.8196
#
#
#
# Elastic Compliance Matrix: (Units=1/GPa)
#
#
# Indices 1 2 3 4 5 6 
#
# 1 0.011722 -0.004107 -0.002520 0.000000 0.000093 0.000000
# 2 -0.004107 0.027550 0.002011 0.000000 -0.001029 0.000000
# 3 -0.002520 0.002011 0.013017 0.000000 -0.000311 0.000000
# 4 0.000000 0.000000 0.000000 0.067425 0.000000 -0.003431
# 5 0.000093 -0.001029 -0.000311 0.000000 0.027444 0.000000
# 6 0.000000 0.000000 0.000000 -0.003431 0.000000 0.026616
#
#
# Mechanical properties :
#
#
# Convention : Reuss Voigt Hill
#
# Bulk Modulus (GPa) = 23.22439 29.21779 26.22109
# Shear Modulus (GPa) = 25.33469 30.30490 27.81979
#
# Velocity S-wave (km/s) = 3.54534 3.87754 3.71516
# Velocity P-wave (km/s) = 5.31805 5.87734 5.60468
#
# Compressibility (1/GPa) = 0.04305818
#
# Stress axis : x y z
#
# Youngs Moduli (GPa) = 85.31178 36.29744 76.82026
#
# Poissons Ratio (x) = 0.14907 0.19358
# Poissons Ratio (y) = 0.35036 -0.15450
# Poissons Ratio (z) = 0.21497 -0.07300
#
# Static dielectric constant tensor:
#      x y z
#    x 3.780940 0.000000 0.014170 
#    y 0.000000 3.535410 0.000000 
#    z 0.014170 0.000000 3.612460 
# 
# 
# High freq. dielectric constant tensor:
#      x y z
#    x 1.808460 0.000000 0.001430 
#    y 0.000000 1.777400 0.000000 
#    z 0.001430 0.000000 1.791420 
# 
# From -- ./inp_files/53445.got.cif
#   From: 2010.03.12/outbox.cif.g09.slc.cpg/sg14_27_cif.got.tgz:53445.got - 2010.03.31 13:35:05.
