data_PCOD8127802
_publ_section_title
;
Structure prediction by ZEFSAII (Michael W. Deem and Ramdas Pophale) SiO2 
 PCOD8127802
Probable space group: P 21/C
;
_chemical_formula_sum "Si O2"
_cell_formula_units_Z 28
_cell_length_a 9.452598
_cell_length_b 7.909080
_cell_length_c 26.965167
_cell_angle_alpha 90.000000
_cell_angle_beta 38.462111
_cell_angle_gamma 90.000000
_cell_volume 1253.916281
_symmetry_space_group_name_H-M "P 21/C"
_symmetry_group_IT_number 14
_symmetry_cell_setting 'monoclinic'
loop_
_space_group_symop_operation_xyz
x,y,z
-x,1/2+y,1/2-z
-x,-y,-z
x,1/2-y,1/2+z
loop_
_atom_site_type_symbol
_atom_site_label
_atom_site_fract_x
_atom_site_fract_y
_atom_site_fract_z
Si Si1 0.863579 0.361188 0.338333
Si Si2 0.970236 0.370282 0.117824
Si Si3 0.174838 0.516904 0.323939
Si Si4 0.389894 0.932963 0.359141
Si Si5 0.864603 0.949964 0.737545
Si Si6 0.613367 0.735994 0.060550
Si Si7 0.359957 0.540896 0.375389
O O1 0.887085 0.485399 0.286490
O O2 0.624003 0.263139 0.403676
O O3 0.924160 0.457798 0.373183
O O4 0.080688 0.243791 0.271176
O O5 0.811932 0.219664 0.182574
O O6 0.824939 0.477283 0.117353
O O7 0.035514 0.478935 0.148463
O O8 0.201748 0.301416 0.031497
O O9 0.377895 0.436664 0.235980
O O10 0.194573 0.475376 0.377078
O O11 0.338190 0.742172 0.395154
O O12 0.405044 0.075468 0.397583
O O13 0.614197 0.984763 0.785262
O O14 0.685811 0.913447 0.066467
#
# Coordination Sequence:
#
# PCOD8127802 Si02
#       7
#     4   4   4   4   4   4   4
#     4  11  24  40  68  97 135 175 222 289 333 409
#     4  11  25  42  69  98 137 177 222 278 343 410
#     4  11  22  42  69 103 124 172 235 284 330 393
#     4  11  22  42  70 102 126 173 232 286 320 396
#     4  11  21  41  65  97 124 173 227 277 335 390
#     4  11  26  45  63 100 145 179 213 275 349 417
#     4  10  23  41  72  97 130 171 229 281 337 389
#
# _framework density 22.330038999999999
#
# number of rings (size 3 to 8) (size 9 to 14) (size 15 to 20)
#    0.000    1.143    2.857    3.857    4.000    3.429 
#    2.571    0.000    0.000    0.000    0.000    0.000 
#    0.000    0.000    0.000    0.000    0.000    0.000 
#
# Total GULP energy -346932.427452 kJ/mol
# GULP energy per Si atom -12390.443838 kJ/mol
# Density = 2.227921 g / cm^3
# Si number density = 22.330039 Si / 1000 Ang^3
#
#
#
# Elastic Constant Matrix: (Units=GPa)
#
#
# Indices 1 2 3 4 5 6 
#
# 1 148.8932 29.8588 16.3721 0.0000 -24.3829 0.0000
# 2 29.8588 78.2918 5.7569 0.0000 -13.0929 0.0000
# 3 16.3721 5.7569 50.1606 0.0000 -9.0116 0.0000
# 4 0.0000 0.0000 0.0000 22.5716 0.0000 -5.4264
# 5 -24.3829 -13.0929 -9.0116 0.0000 -13.9478 0.0000
# 6 0.0000 0.0000 0.0000 -5.4264 0.0000 11.0522
#
#
#
# Elastic Compliance Matrix: (Units=1/GPa)
#
#
# Indices 1 2 3 4 5 6 
#
# 1 0.006657 -0.003413 -0.002953 0.000000 -0.006525 0.000000
# 2 -0.003413 0.013248 -0.001406 0.000000 -0.005561 0.000000
# 3 -0.002953 -0.001406 0.019914 0.000000 -0.006384 0.000000
# 4 0.000000 0.000000 0.000000 0.050233 0.000000 0.024663
# 5 -0.006525 -0.005561 -0.006384 0.000000 -0.050943 0.000000
# 6 0.000000 0.000000 0.000000 0.024663 0.000000 0.102588
#
#
# Mechanical properties :
#
#
# Convention : Reuss Voigt Hill
#
# Bulk Modulus (GPa) = 41.19442 42.36905 41.78173
# Shear Modulus (GPa) = 30.24227 18.95906 24.60067
#
# Velocity S-wave (km/s) = 3.68412 2.91699 3.32276
# Velocity P-wave (km/s) = 6.04855 5.51002 5.78555
#
# Compressibility (1/GPa) = 0.02427513
#
# Stress axis : x y z
#
# Youngs Moduli (GPa) = 150.22280 75.48525 50.21513
#
# Poissons Ratio (x) = 0.25762 0.14830
# Poissons Ratio (y) = 0.51268 0.07058
# Poissons Ratio (z) = 0.44366 0.10610
#
# Static dielectric constant tensor:
#      x y z
#    x 4.965030 0.000000 -0.251570 
#    y 0.000000 4.238010 0.000000 
#    z -0.251570 0.000000 3.718370 
# 
# 
# High freq. dielectric constant tensor:
#      x y z
#    x 1.891740 0.000000 -0.007650 
#    y 0.000000 1.889440 0.000000 
#    z -0.007650 0.000000 1.853170 
# 
# From -- ./inp_files/76436.got.cif
#   From: 2010.03.12/outbox.cif.g09.slc.cpg/sg14_39_cif.got.tgz:76436.got - 2010.03.31 13:35:05.
