data_PCOD8127822
_publ_section_title
;
Structure prediction by ZEFSAII (Michael W. Deem and Ramdas Pophale) SiO2 
 PCOD8127822
Probable space group: P 21/C
;
_chemical_formula_sum "Si O2"
_cell_formula_units_Z 32
_cell_length_a 11.615586
_cell_length_b 5.556741
_cell_length_c 23.515642
_cell_angle_alpha 90.000000
_cell_angle_beta 107.986168
_cell_angle_gamma 90.000000
_cell_volume 1443.638637
_symmetry_space_group_name_H-M "P 21/C"
_symmetry_group_IT_number 14
_symmetry_cell_setting 'monoclinic'
loop_
_space_group_symop_operation_xyz
x,y,z
-x,1/2+y,1/2-z
-x,-y,-z
x,1/2-y,1/2+z
loop_
_atom_site_type_symbol
_atom_site_label
_atom_site_fract_x
_atom_site_fract_y
_atom_site_fract_z
Si Si1 0.183996 0.212597 0.277783
Si Si2 0.990206 0.996168 0.321493
Si Si3 0.204343 0.847939 0.179637
Si Si4 0.331455 0.397677 0.607403
Si Si5 0.403404 0.480967 0.202346
Si Si6 0.942424 0.255882 0.059596
Si Si7 0.550724 0.668895 0.670175
Si Si8 0.855114 0.743424 0.505169
O O1 0.090850 0.421385 0.245194
O O2 0.307464 0.328023 0.323157
O O3 0.216060 0.061034 0.227008
O O4 0.123796 0.057345 0.318673
O O5 0.000639 0.777605 0.368508
O O6 0.929938 0.230718 0.341693
O O7 0.302497 0.653528 0.214290
O O8 0.235801 0.904692 0.117741
O O9 0.329140 0.229910 0.662010
O O10 0.467783 0.502080 0.616288
O O11 0.279575 0.277393 0.542433
O O12 0.480938 0.405471 0.269129
O O13 0.490877 0.566485 0.163569
O O14 0.861360 0.502066 0.040008
O O15 0.871128 0.000686 0.045488
O O16 0.048364 0.252339 0.030296
#
# Coordination Sequence:
#
# PCOD8127822 Si02
#       8
#     4   4   4   4   4   4   4   4
#     4  12  24  40  59  89 129 168 214 246 327 401
#     4  12  25  40  63  90 128 173 209 266 315 396
#     4  11  21  35  58  88 125 162 202 253 312 399
#     4  11  23  36  63  88 130 163 207 266 331 382
#     4  11  19  33  55  88 123 158 195 258 320 381
#     4  10  24  40  66  94 131 164 225 274 331 380
#     4  11  21  34  56  91 122 163 206 255 319 394
#     4  10  23  42  64  96 124 172 216 280 332 389
#
# _framework density 22.166214
#
# number of rings (size 3 to 8) (size 9 to 14) (size 15 to 20)
#    0.000    1.000    5.000    2.250   10.500    0.000 
#    0.000    0.000    0.000    1.500    0.000    0.000 
#    0.000    0.000    0.000    0.000    0.000    0.000 
#
# Total GULP energy -396527.828761 kJ/mol
# GULP energy per Si atom -12391.494649 kJ/mol
# Density = 2.211576 g / cm^3
# Si number density = 22.166214 Si / 1000 Ang^3
#
#
#
# Elastic Constant Matrix: (Units=GPa)
#
#
# Indices 1 2 3 4 5 6 
#
# 1 112.9795 29.9555 22.6617 0.0000 15.4158 0.0000
# 2 29.9555 93.7812 21.6888 0.0000 13.7778 0.0000
# 3 22.6617 21.6888 61.6243 0.0000 20.8348 0.0000
# 4 0.0000 0.0000 0.0000 18.2578 0.0000 -3.3773
# 5 15.4158 13.7778 20.8348 0.0000 29.4793 0.0000
# 6 0.0000 0.0000 0.0000 -3.3773 0.0000 12.3113
#
#
#
# Elastic Compliance Matrix: (Units=1/GPa)
#
#
# Indices 1 2 3 4 5 6 
#
# 1 0.010274 -0.002407 -0.001964 0.000000 -0.002859 0.000000
# 2 -0.002407 0.012427 -0.002563 0.000000 -0.002738 0.000000
# 3 -0.001964 -0.002563 0.022468 0.000000 -0.013655 0.000000
# 4 0.000000 0.000000 0.000000 0.057699 0.000000 0.015828
# 5 -0.002859 -0.002738 -0.013655 0.000000 0.046348 0.000000
# 6 0.000000 0.000000 0.000000 0.015828 0.000000 0.085568
#
#
# Mechanical properties :
#
#
# Convention : Reuss Voigt Hill
#
# Bulk Modulus (GPa) = 31.94838 46.33300 39.14069
# Shear Modulus (GPa) = 19.29866 24.94827 22.12346
#
# Velocity S-wave (km/s) = 2.95385 3.35850 3.16265
# Velocity P-wave (km/s) = 5.10667 5.99894 5.57070
#
# Compressibility (1/GPa) = 0.03130050
#
# Stress axis : x y z
#
# Youngs Moduli (GPa) = 97.33761 80.47003 44.50730
#
# Poissons Ratio (x) = 0.19371 0.08742
# Poissons Ratio (y) = 0.23432 0.11406
# Poissons Ratio (z) = 0.19118 0.20623
#
# Static dielectric constant tensor:
#      x y z
#    x 3.831670 0.000000 0.335190 
#    y 0.000000 4.387580 0.000000 
#    z 0.335190 0.000000 3.701970 
# 
# 
# High freq. dielectric constant tensor:
#      x y z
#    x 1.848850 0.000000 0.031150 
#    y 0.000000 1.889290 0.000000 
#    z 0.031150 0.000000 1.833300 
# 
# From -- ./inp_files/72835.got.cif
#   From: 2010.03.12/outbox.cif.g09.slc.cpg/sg14_37_cif.got.tgz:72835.got - 2010.03.31 13:35:05.
