data_PCOD8127538
_publ_section_title
;
Structure prediction by ZEFSAII (Michael W. Deem and Ramdas Pophale) SiO2 
 PCOD8127538
Probable space group: P 21/C
;
_chemical_formula_sum "Si O2"
_cell_formula_units_Z 28
_cell_length_a 15.570170
_cell_length_b 13.939695
_cell_length_c 9.649330
_cell_angle_alpha 90.000000
_cell_angle_beta 146.195658
_cell_angle_gamma 90.000000
_cell_volume 1165.194916
_symmetry_space_group_name_H-M "P 21/C"
_symmetry_group_IT_number 14
_symmetry_cell_setting 'monoclinic'
loop_
_space_group_symop_operation_xyz
x,y,z
-x,1/2+y,1/2-z
-x,-y,-z
x,1/2-y,1/2+z
loop_
_atom_site_type_symbol
_atom_site_label
_atom_site_fract_x
_atom_site_fract_y
_atom_site_fract_z
Si Si1 0.431227 0.195574 0.439082
Si Si2 0.221811 0.057081 0.300835
Si Si3 0.826124 0.034431 0.255511
Si Si4 0.353395 0.536688 0.222679
Si Si5 0.783712 0.211766 0.000536
Si Si6 0.602239 0.857065 0.913744
Si Si7 0.095404 0.648945 0.611625
O O1 0.368063 0.093570 0.409039
O O2 0.338688 0.282969 0.388864
O O3 0.406704 0.200743 0.242107
O O4 0.607422 0.209348 0.717761
O O5 0.269085 0.048492 0.525988
O O6 0.174288 0.952765 0.181025
O O7 0.084913 0.133471 0.099763
O O8 0.766742 0.077273 0.324050
O O9 0.821411 0.117331 0.137369
O O10 0.000000 0.000000 0.500000
O O11 0.719192 0.945948 0.063466
O O12 0.500000 0.500000 0.500000
O O13 0.424145 0.613037 0.208592
O O14 0.827208 0.306150 0.147249
O O15 0.886519 0.215542 0.998889
#
# Coordination Sequence:
#
# PCOD8127538 Si02
#       7
#     4   4   4   4   4   4   4
#     4  12  26  44  77 106 149 190 253 306 361 443
#     4  11  25  48  74 102 148 198 240 304 376 446
#     4  11  26  46  74 107 151 192 243 301 377 443
#     4  10  22  43  72 102 144 186 242 299 357 432
#     4  12  26  47  73 107 143 191 241 313 364 446
#     4  11  27  45  73 112 145 194 248 302 370 436
#     4  11  28  48  74 104 148 191 246 302 381 443
#
# _framework density 24.030315000000002
#
# number of rings (size 3 to 8) (size 9 to 14) (size 15 to 20)
#    0.000    0.857    0.000    6.000   12.000    4.000 
#    0.000    0.000    0.000    0.000    0.000    0.000 
#    0.000    0.000    0.000    0.000    0.000    0.000 
#
# Total GULP energy -347209.470088 kJ/mol
# GULP energy per Si atom -12400.338217 kJ/mol
# Density = 2.397562 g / cm^3
# Si number density = 24.030315 Si / 1000 Ang^3
#
#
#
# Elastic Constant Matrix: (Units=GPa)
#
#
# Indices 1 2 3 4 5 6 
#
# 1 132.6159 31.6852 52.7567 0.0000 -16.0061 0.0000
# 2 31.6852 87.0603 34.1868 0.0000 5.3535 0.0000
# 3 52.7567 34.1868 123.7778 0.0000 -1.0997 0.0000
# 4 0.0000 0.0000 0.0000 45.3171 0.0000 -2.6515
# 5 -16.0061 5.3535 -1.0997 0.0000 42.5476 0.0000
# 6 0.0000 0.0000 0.0000 -2.6515 0.0000 37.1050
#
#
#
# Elastic Compliance Matrix: (Units=1/GPa)
#
#
# Indices 1 2 3 4 5 6 
#
# 1 0.010033 -0.002504 -0.003549 0.000000 0.003998 0.000000
# 2 -0.002504 0.013634 -0.002723 0.000000 -0.002728 0.000000
# 3 -0.003549 -0.002723 0.010337 0.000000 -0.000725 0.000000
# 4 0.000000 0.000000 0.000000 0.022159 0.000000 0.001584
# 5 0.003998 -0.002728 -0.000725 0.000000 0.025331 0.000000
# 6 0.000000 0.000000 0.000000 0.001584 0.000000 0.027064
#
#
# Mechanical properties :
#
#
# Convention : Reuss Voigt Hill
#
# Bulk Modulus (GPa) = 60.77804 64.52350 62.65077
# Shear Modulus (GPa) = 37.99510 39.98228 38.98869
#
# Velocity S-wave (km/s) = 3.98066 4.08343 4.03237
# Velocity P-wave (km/s) = 6.81723 7.01011 6.91435
#
# Compressibility (1/GPa) = 0.01645331
#
# Stress axis : x y z
#
# Youngs Moduli (GPa) = 99.66861 73.34372 96.73595
#
# Poissons Ratio (x) = 0.18362 0.34335
# Poissons Ratio (y) = 0.24953 0.26340
# Poissons Ratio (z) = 0.35376 0.19971
#
# Static dielectric constant tensor:
#      x y z
#    x 4.898990 0.000000 0.006890 
#    y 0.000000 4.471420 0.000000 
#    z 0.006890 0.000000 4.451510 
# 
# 
# High freq. dielectric constant tensor:
#      x y z
#    x 1.961450 0.000000 -0.004040 
#    y 0.000000 1.957350 0.000000 
#    z -0.004040 0.000000 1.964170 
# 
# From -- ./inp_files/16431.got.cif
#   From: 2010.03.12/outbox.cif.g09.slc.cpg/sg14_9_cif.got.tgz:16431.got - 2010.03.31 13:35:05.
