data_PCOD8127203
_publ_section_title
;
Structure prediction by ZEFSAII (Michael W. Deem and Ramdas Pophale) SiO2 
 PCOD8127203
Probable space group: P 21/C
;
_chemical_formula_sum "Si O2"
_cell_formula_units_Z 20
_cell_length_a 5.229324
_cell_length_b 31.971682
_cell_length_c 4.845418
_cell_angle_alpha 90.000000
_cell_angle_beta 102.809592
_cell_angle_gamma 90.000000
_cell_volume 789.945076
_symmetry_space_group_name_H-M "P 21/C"
_symmetry_group_IT_number 14
_symmetry_cell_setting 'monoclinic'
loop_
_space_group_symop_operation_xyz
x,y,z
-x,1/2+y,1/2-z
-x,-y,-z
x,1/2-y,1/2+z
loop_
_atom_site_type_symbol
_atom_site_label
_atom_site_fract_x
_atom_site_fract_y
_atom_site_fract_z
Si Si1 0.511703 0.831443 0.468034
Si Si2 0.752309 0.034807 0.111297
Si Si3 0.087828 0.451413 0.192199
Si Si4 0.577350 0.886248 0.993249
Si Si5 0.984318 0.221546 0.471616
O O1 0.420145 0.859587 0.186074
O O2 0.733664 0.799763 0.410972
O O3 0.253715 0.809443 0.522754
O O4 0.644624 0.858295 0.744786
O O5 0.017880 0.043828 0.355438
O O6 0.676021 0.985896 0.174870
O O7 0.566094 0.072593 0.155108
O O8 0.832075 0.036866 0.810584
O O9 0.166441 0.403840 0.285535
O O10 0.963081 0.263076 0.652487
#
# Coordination Sequence:
#
# PCOD8127203 Si02
#       5
#     4   4   4   4   4
#     4  12  28  43  77 110 139 184 227 292 357 419
#     4  10  22  40  64  93 136 193 240 284 342 405
#     4  10  22  40  64  93 136 193 240 284 342 405
#     4  12  25  41  66 104 147 176 237 296 352 399
#     4  12  26  52  76 104 141 180 229 280 352 444
#
# _framework density 25.318217000000001
#
# number of rings (size 3 to 8) (size 9 to 14) (size 15 to 20)
#    0.000    0.800    0.000    6.600    8.400    0.000 
#    0.000    8.000    0.000    0.000    0.000    0.000 
#    0.000    0.000    0.000    0.000    0.000    0.000 
#
# Total GULP energy -247991.285489 kJ/mol
# GULP energy per Si atom -12399.564274 kJ/mol
# Density = 2.526059 g / cm^3
# Si number density = 25.318217 Si / 1000 Ang^3
#
#
#
# Elastic Constant Matrix: (Units=GPa)
#
#
# Indices 1 2 3 4 5 6 
#
# 1 79.9082 33.9894 -2.2395 0.0000 -20.1112 0.0000
# 2 33.9894 118.3728 32.0155 0.0000 -2.5695 0.0000
# 3 -2.2395 32.0155 94.4724 0.0000 -15.9377 0.0000
# 4 0.0000 0.0000 0.0000 45.4232 0.0000 -4.6046
# 5 -20.1112 -2.5695 -15.9377 0.0000 22.3789 0.0000
# 6 0.0000 0.0000 0.0000 -4.6046 0.0000 33.1702
#
#
#
# Elastic Compliance Matrix: (Units=1/GPa)
#
#
# Indices 1 2 3 4 5 6 
#
# 1 0.022090 -0.007774 0.007224 0.000000 0.024104 0.000000
# 2 -0.007774 0.012071 -0.005933 0.000000 -0.009825 0.000000
# 3 0.007224 -0.005933 0.015624 0.000000 0.016938 0.000000
# 4 0.000000 0.000000 0.000000 0.022329 0.000000 0.003100
# 5 0.024104 -0.009825 0.016938 0.000000 0.077281 0.000000
# 6 0.000000 0.000000 0.000000 0.003100 0.000000 0.030578
#
#
# Mechanical properties :
#
#
# Convention : Reuss Voigt Hill
#
# Bulk Modulus (GPa) = 27.15767 46.69823 36.92795
# Shear Modulus (GPa) = 24.36512 35.46035 29.91274
#
# Velocity S-wave (km/s) = 3.10555 3.74650 3.44098
# Velocity P-wave (km/s) = 4.85892 6.09915 5.51401
#
# Compressibility (1/GPa) = 0.03682202
#
# Stress axis : x y z
#
# Youngs Moduli (GPa) = 45.26982 82.84157 64.00249
#
# Poissons Ratio (x) = 0.64397 -0.46238
# Poissons Ratio (y) = 0.35191 0.37970
# Poissons Ratio (z) = -0.32705 0.49146
#
# Static dielectric constant tensor:
#      x y z
#    x 4.200880 0.000000 0.143560 
#    y 0.000000 4.855920 0.000000 
#    z 0.143560 0.000000 4.570500 
# 
# 
# High freq. dielectric constant tensor:
#      x y z
#    x 1.993870 0.000000 0.001380 
#    y 0.000000 2.028930 0.000000 
#    z 0.001380 0.000000 2.026700 
# 
# From -- ./inp_files/760.got.cif
#   From: 2010.03.12/outbox.cif.g09.slc.cpg/sg14_1_cif.got.tgz:760.got - 2010.03.31 13:35:05.
