data_PCOD8127517
_publ_section_title
;
Structure prediction by ZEFSAII (Michael W. Deem and Ramdas Pophale) SiO2 
 PCOD8127517
Probable space group: P 21/C
;
_chemical_formula_sum "Si O2"
_cell_formula_units_Z 24
_cell_length_a 8.002531
_cell_length_b 9.568220
_cell_length_c 19.430684
_cell_angle_alpha 90.000000
_cell_angle_beta 132.919566
_cell_angle_gamma 90.000000
_cell_volume 1089.536555
_symmetry_space_group_name_H-M "P 21/C"
_symmetry_group_IT_number 14
_symmetry_cell_setting 'monoclinic'
loop_
_space_group_symop_operation_xyz
x,y,z
-x,1/2+y,1/2-z
-x,-y,-z
x,1/2-y,1/2+z
loop_
_atom_site_type_symbol
_atom_site_label
_atom_site_fract_x
_atom_site_fract_y
_atom_site_fract_z
Si Si1 0.913987 0.066261 0.389384
Si Si2 0.098414 0.707705 0.979775
Si Si3 0.287351 0.647392 0.306623
Si Si4 0.893087 0.660435 0.298511
Si Si5 0.440349 0.912705 0.282076
Si Si6 0.509764 0.856412 0.150290
O O1 0.985779 0.184859 0.464860
O O2 0.889540 0.128095 0.306591
O O3 0.675208 0.998656 0.349621
O O4 0.105231 0.943703 0.443338
O O5 0.920185 0.803746 0.887455
O O6 0.346367 0.780689 0.049471
O O7 0.437015 0.786859 0.336558
O O8 0.459816 0.517764 0.361798
O O9 0.143651 0.656625 0.335975
O O10 0.767882 0.513501 0.257003
O O11 0.754674 0.781424 0.220193
O O12 0.399541 0.844585 0.195502
#
# Coordination Sequence:
#
# PCOD8127517 Si02
#       6
#     4   4   4   4   4   4
#     4  10  22  43  68  94 129 175 222 264 320 396
#     4  11  22  42  70  98 126 172 226 269 312 394
#     4  11  23  42  66  98 137 170 207 275 337 379
#     4  12  24  41  69  96 134 169 216 274 330 376
#     4  11  21  42  68  92 125 181 214 259 327 394
#     4  11  22  44  68  92 131 175 220 262 320 397
#
# _framework density 22.027715000000001
#
# number of rings (size 3 to 8) (size 9 to 14) (size 15 to 20)
#    0.000    1.000    6.667    2.000    0.000    1.333 
#    0.000    5.000    0.000    0.000    0.000    0.000 
#    0.000    0.000    0.000    0.000    0.000    0.000 
#
# Total GULP energy -297577.438855 kJ/mol
# GULP energy per Si atom -12399.059952 kJ/mol
# Density = 2.197758 g / cm^3
# Si number density = 22.027715 Si / 1000 Ang^3
#
#
#
# Elastic Constant Matrix: (Units=GPa)
#
#
# Indices 1 2 3 4 5 6 
#
# 1 80.5966 41.1814 0.7801 0.0000 4.1520 0.0000
# 2 41.1814 119.2144 37.4688 0.0000 7.7261 0.0000
# 3 0.7801 37.4688 96.9780 0.0000 6.9372 0.0000
# 4 0.0000 0.0000 0.0000 26.0927 0.0000 4.3844
# 5 4.1520 7.7261 6.9372 0.0000 22.6127 0.0000
# 6 0.0000 0.0000 0.0000 4.3844 0.0000 33.0679
#
#
#
# Elastic Compliance Matrix: (Units=1/GPa)
#
#
# Indices 1 2 3 4 5 6 
#
# 1 0.015521 -0.005985 0.002296 0.000000 -0.001509 0.000000
# 2 -0.005985 0.011962 -0.004458 0.000000 -0.001621 0.000000
# 3 0.002296 -0.004458 0.012204 0.000000 -0.002643 0.000000
# 4 0.000000 0.000000 0.000000 0.039198 0.000000 -0.005197
# 5 -0.001509 -0.001621 -0.002643 0.000000 0.045864 0.000000
# 6 0.000000 0.000000 0.000000 -0.005197 0.000000 0.030930
#
#
# Mechanical properties :
#
#
# Convention : Reuss Voigt Hill
#
# Bulk Modulus (GPa) = 42.74792 50.62774 46.68783
# Shear Modulus (GPa) = 27.81295 30.84523 29.32909
#
# Velocity S-wave (km/s) = 3.55721 3.74611 3.65288
# Velocity P-wave (km/s) = 6.02663 6.46101 6.24759
#
# Compressibility (1/GPa) = 0.02339295
#
# Stress axis : x y z
#
# Youngs Moduli (GPa) = 64.42777 83.59899 81.93741
#
# Poissons Ratio (x) = 0.50037 -0.18810
# Poissons Ratio (y) = 0.38562 0.36524
# Poissons Ratio (z) = -0.14790 0.37265
#
# Static dielectric constant tensor:
#      x y z
#    x 3.511370 0.000000 -0.024780 
#    y 0.000000 4.196100 0.000000 
#    z -0.024780 0.000000 3.996320 
# 
# 
# High freq. dielectric constant tensor:
#      x y z
#    x 1.826750 0.000000 0.000750 
#    y 0.000000 1.881740 0.000000 
#    z 0.000750 0.000000 1.860310 
# 
# From -- ./inp_files/64887.got.cif
#   From: 2010.03.12/outbox.cif.g09.slc.cpg/sg14_33_cif.got.tgz:64887.got - 2010.03.31 13:35:05.
