data_PCOD8127425
_publ_section_title
;
Structure prediction by ZEFSAII (Michael W. Deem and Ramdas Pophale) SiO2 
 PCOD8127425
Probable space group: P 21/C
;
_chemical_formula_sum "Si O2"
_cell_formula_units_Z 20
_cell_length_a 10.704094
_cell_length_b 8.567998
_cell_length_c 10.424911
_cell_angle_alpha 90.000000
_cell_angle_beta 120.366664
_cell_angle_gamma 90.000000
_cell_volume 824.927464
_symmetry_space_group_name_H-M "P 21/C"
_symmetry_group_IT_number 14
_symmetry_cell_setting 'monoclinic'
loop_
_space_group_symop_operation_xyz
x,y,z
-x,1/2+y,1/2-z
-x,-y,-z
x,1/2-y,1/2+z
loop_
_atom_site_type_symbol
_atom_site_label
_atom_site_fract_x
_atom_site_fract_y
_atom_site_fract_z
Si Si1 0.795623 0.440944 0.317978
Si Si2 0.622094 0.755145 0.271512
Si Si3 0.948304 0.359636 0.640075
Si Si4 0.108053 0.056472 0.663756
Si Si5 0.460712 0.825326 0.448097
O O1 0.695514 0.586517 0.304590
O O2 0.833322 0.342708 0.465256
O O3 0.710992 0.325398 0.175192
O O4 0.942226 0.496979 0.328712
O O5 0.739530 0.893399 0.319171
O O6 0.548742 0.766467 0.370925
O O7 0.503516 0.777150 0.095274
O O8 0.866412 0.410573 0.727621
O O9 0.039464 0.202325 0.705614
O O10 0.000000 0.000000 0.500000
O O11 0.500000 0.000000 0.500000
#
# Coordination Sequence:
#
# PCOD8127425 Si02
#       5
#     4   4   4   4   4
#     4   9  21  41  69  94 135 181 225 287 342 412
#     4  10  22  43  69  95 142 182 230 288 354 402
#     4  10  23  43  67 101 135 177 234 286 346 412
#     4  11  26  41  71  99 138 181 231 289 352 416
#     4  10  22  42  67  95 132 181 225 278 346 416
#
# _framework density 24.244554999999998
#
# number of rings (size 3 to 8) (size 9 to 14) (size 15 to 20)
#    0.000    2.000    0.000    1.200   16.800    1.600 
#    3.600    5.000    0.000    0.000    0.000    0.000 
#    0.000    0.000    0.000    0.000    0.000    0.000 
#
# Total GULP energy -247976.028688 kJ/mol
# GULP energy per Si atom -12398.801434 kJ/mol
# Density = 2.418937 g / cm^3
# Si number density = 24.244555 Si / 1000 Ang^3
#
#
#
# Elastic Constant Matrix: (Units=GPa)
#
#
# Indices 1 2 3 4 5 6 
#
# 1 29.1380 12.1950 23.9641 0.0000 -3.2912 0.0000
# 2 12.1950 41.6074 14.0360 0.0000 -4.4385 0.0000
# 3 23.9641 14.0360 163.6248 0.0000 5.5831 0.0000
# 4 0.0000 0.0000 0.0000 45.9220 0.0000 -0.6928
# 5 -3.2912 -4.4385 5.5831 0.0000 47.0437 0.0000
# 6 0.0000 0.0000 0.0000 -0.6928 0.0000 36.0403
#
#
#
# Elastic Compliance Matrix: (Units=1/GPa)
#
#
# Indices 1 2 3 4 5 6 
#
# 1 0.043658 -0.010626 -0.005575 0.000000 0.002713 0.000000
# 2 -0.010626 0.027657 -0.000883 0.000000 0.001971 0.000000
# 3 -0.005575 -0.000883 0.007049 0.000000 -0.001310 0.000000
# 4 0.000000 0.000000 0.000000 0.021782 0.000000 0.000419
# 5 0.002713 0.001971 -0.001310 0.000000 0.021788 0.000000
# 6 0.000000 0.000000 0.000000 0.000419 0.000000 0.027755
#
#
# Mechanical properties :
#
#
# Convention : Reuss Voigt Hill
#
# Bulk Modulus (GPa) = 22.62716 37.19559 29.91137
# Shear Modulus (GPa) = 25.17757 38.07956 31.62856
#
# Velocity S-wave (km/s) = 3.22605 3.96743 3.61579
# Velocity P-wave (km/s) = 4.81971 6.03013 5.45858
#
# Compressibility (1/GPa) = 0.04419469
#
# Stress axis : x y z
#
# Youngs Moduli (GPa) = 22.90515 36.15739 141.87317
#
# Poissons Ratio (x) = 0.38420 0.79097
# Poissons Ratio (y) = 0.24339 0.12534
# Poissons Ratio (z) = 0.12770 0.03194
#
# Static dielectric constant tensor:
#      x y z
#    x 4.170780 0.000000 0.283090 
#    y 0.000000 4.098450 0.000000 
#    z 0.283090 0.000000 4.976010 
# 
# 
# High freq. dielectric constant tensor:
#      x y z
#    x 1.955100 0.000000 0.002500 
#    y 0.000000 1.960040 0.000000 
#    z 0.002500 0.000000 1.978620 
# 
# From -- ./inp_files/27860.got.cif
#   From: 2010.03.12/outbox.cif.g09.slc.cpg/sg14_14_cif.got.tgz:27860.got - 2010.03.31 13:35:05.
