data_PCOD8127456
_publ_section_title
;
Structure prediction by ZEFSAII (Michael W. Deem and Ramdas Pophale) SiO2 
 PCOD8127456
Probable space group: P 21/C
;
_chemical_formula_sum "Si O2"
_cell_formula_units_Z 28
_cell_length_a 5.110068
_cell_length_b 14.505304
_cell_length_c 19.202643
_cell_angle_alpha 90.000000
_cell_angle_beta 68.112596
_cell_angle_gamma 90.000000
_cell_volume 1320.760978
_symmetry_space_group_name_H-M "P 21/C"
_symmetry_group_IT_number 14
_symmetry_cell_setting 'monoclinic'
loop_
_space_group_symop_operation_xyz
x,y,z
-x,1/2+y,1/2-z
-x,-y,-z
x,1/2-y,1/2+z
loop_
_atom_site_type_symbol
_atom_site_label
_atom_site_fract_x
_atom_site_fract_y
_atom_site_fract_z
Si Si1 0.637240 0.895549 0.783699
Si Si2 0.859354 0.636698 0.633317
Si Si3 0.138219 0.800032 0.657244
Si Si4 0.288316 0.959019 0.336233
Si Si5 0.395441 0.714458 0.758986
Si Si6 0.425079 0.525754 0.586191
Si Si7 0.670070 0.020103 0.415005
O O1 0.413861 0.812730 0.795476
O O2 0.939518 0.855104 0.731671
O O3 0.577147 0.983271 0.740874
O O4 0.598209 0.931423 0.866377
O O5 0.686284 0.654600 0.722681
O O6 0.664595 0.596739 0.590427
O O7 0.984648 0.741914 0.609971
O O8 0.113562 0.567187 0.621002
O O9 0.302558 0.726183 0.688167
O O10 0.359027 0.871715 0.601940
O O11 0.201212 0.854712 0.322714
O O12 0.530343 0.956395 0.370268
O O13 0.001518 0.002880 0.393868
O O14 0.500000 0.500000 0.500000
O O15 0.500000 0.000000 0.500000
#
# Coordination Sequence:
#
# PCOD8127456 Si02
#       7
#     4   4   4   4   4   4   4
#     4  10  23  39  70  97 130 171 228 276 329 396
#     4  11  23  43  69  92 133 178 224 273 335 400
#     4  10  22  42  70  98 129 176 227 280 325 395
#     4  11  23  41  71  94 128 177 218 276 325 395
#     4  11  22  41  70 102 126 169 236 278 326 386
#     4  12  26  45  66 100 142 180 217 277 347 405
#     4  11  25  45  65  98 137 175 214 271 343 399
#
# _framework density 21.199898999999998
#
# number of rings (size 3 to 8) (size 9 to 14) (size 15 to 20)
#    0.000    1.143    4.286    0.857   10.000    0.000 
#    2.571    0.000    0.000    0.000    0.000    0.000 
#    0.000    0.000    0.000    0.000    0.000    0.000 
#
# Total GULP energy -346928.339036 kJ/mol
# GULP energy per Si atom -12390.297823 kJ/mol
# Density = 2.115165 g / cm^3
# Si number density = 21.199899 Si / 1000 Ang^3
#
#
#
# Elastic Constant Matrix: (Units=GPa)
#
#
# Indices 1 2 3 4 5 6 
#
# 1 94.9684 40.9033 29.4921 0.0000 13.8207 0.0000
# 2 40.9033 146.1331 66.9269 0.0000 9.8205 0.0000
# 3 29.4921 66.9269 116.8217 0.0000 16.1238 0.0000
# 4 0.0000 0.0000 0.0000 23.1293 0.0000 7.0938
# 5 13.8207 9.8205 16.1238 0.0000 22.3463 0.0000
# 6 0.0000 0.0000 0.0000 7.0938 0.0000 36.2630
#
#
#
# Elastic Compliance Matrix: (Units=1/GPa)
#
#
# Indices 1 2 3 4 5 6 
#
# 1 0.012891 -0.002838 -0.000778 0.000000 -0.006164 0.000000
# 2 -0.002838 0.009903 -0.005107 0.000000 0.001088 0.000000
# 3 -0.000778 -0.005107 0.012557 0.000000 -0.006335 0.000000
# 4 0.000000 0.000000 0.000000 0.045995 0.000000 -0.008998
# 5 -0.006164 0.001088 -0.006335 0.000000 0.052655 0.000000
# 6 0.000000 0.000000 0.000000 -0.008998 0.000000 0.029336
#
#
# Mechanical properties :
#
#
# Convention : Reuss Voigt Hill
#
# Bulk Modulus (GPa) = 55.85031 70.28531 63.06781
# Shear Modulus (GPa) = 26.77358 31.05444 28.91401
#
# Velocity S-wave (km/s) = 3.55760 3.83147 3.69707
# Velocity P-wave (km/s) = 6.57854 7.26630 6.93096
#
# Compressibility (1/GPa) = 0.01790500
#
# Stress axis : x y z
#
# Youngs Moduli (GPa) = 77.57555 100.97598 79.63858
#
# Poissons Ratio (x) = 0.28654 0.06194
# Poissons Ratio (y) = 0.22013 0.40675
# Poissons Ratio (z) = 0.06034 0.51572
#
# Static dielectric constant tensor:
#      x y z
#    x 4.061760 0.000000 0.075990 
#    y 0.000000 4.181310 0.000000 
#    z 0.075990 0.000000 3.567880 
# 
# 
# High freq. dielectric constant tensor:
#      x y z
#    x 1.839540 0.000000 -0.000880 
#    y 0.000000 1.848470 0.000000 
#    z -0.000880 0.000000 1.791860 
# 
# From -- ./inp_files/53292.got.cif
#   From: 2010.03.12/outbox.cif.g09.slc.cpg/sg14_27_cif.got.tgz:53292.got - 2010.03.31 13:35:05.
