data_PCOD8127571
_publ_section_title
;
Structure prediction by ZEFSAII (Michael W. Deem and Ramdas Pophale) SiO2 
 PCOD8127571
Probable space group: P 21/C
;
_chemical_formula_sum "Si O2"
_cell_formula_units_Z 32
_cell_length_a 11.757924
_cell_length_b 10.967606
_cell_length_c 14.531156
_cell_angle_alpha 90.000000
_cell_angle_beta 48.987533
_cell_angle_gamma 90.000000
_cell_volume 1413.970514
_symmetry_space_group_name_H-M "P 21/C"
_symmetry_group_IT_number 14
_symmetry_cell_setting 'monoclinic'
loop_
_space_group_symop_operation_xyz
x,y,z
-x,1/2+y,1/2-z
-x,-y,-z
x,1/2-y,1/2+z
loop_
_atom_site_type_symbol
_atom_site_label
_atom_site_fract_x
_atom_site_fract_y
_atom_site_fract_z
Si Si1 0.898700 0.234823 0.135343
Si Si2 0.310336 0.256328 0.551697
Si Si3 0.132730 0.068101 0.550434
Si Si4 0.780213 0.416661 0.536025
Si Si5 0.610689 0.862112 0.177673
Si Si6 0.695998 0.443759 0.200325
Si Si7 0.040453 0.430104 0.701329
Si Si8 0.546316 0.831024 0.849634
O O1 0.878599 0.173440 0.046086
O O2 0.761007 0.329574 0.223911
O O3 0.054760 0.309036 0.053328
O O4 0.907097 0.132717 0.211248
O O5 0.271262 0.118149 0.539756
O O6 0.390378 0.330673 0.428983
O O7 0.160264 0.326470 0.665534
O O8 0.433630 0.254780 0.567415
O O9 0.177995 0.991095 0.437219
O O10 0.024196 0.984704 0.670023
O O11 0.734309 0.531428 0.626028
O O12 0.882627 0.460035 0.396776
O O13 0.629961 0.349072 0.578763
O O14 0.443598 0.908568 0.291213
O O15 0.639384 0.742754 0.222385
O O16 0.635702 0.540894 0.307330
#
# Coordination Sequence:
#
# PCOD8127571 Si02
#       8
#     4   4   4   4   4   4   4   4
#     4  11  23  41  66  97 133 178 222 273 331 407
#     4  10  23  43  67  97 131 178 226 276 334 393
#     4  11  24  42  64 100 140 175 221 275 335 397
#     4  10  23  42  66  96 130 180 226 267 343 393
#     4  10  22  44  66  97 136 170 229 279 332 397
#     4  11  23  42  68  97 133 173 225 274 336 393
#     4  10  24  43  61  98 135 179 222 273 328 406
#     4  11  22  43  72  97 132 177 222 282 334 396
#
# _framework density 22.631307
#
# number of rings (size 3 to 8) (size 9 to 14) (size 15 to 20)
#    0.000    1.500    2.500    1.500    1.750    8.500 
#    2.250    0.625    0.000    0.000    0.000    0.000 
#    0.000    0.000    0.000    0.000    0.000    0.000 
#
# Total GULP energy -396754.766066 kJ/mol
# GULP energy per Si atom -12398.586440 kJ/mol
# Density = 2.257980 g / cm^3
# Si number density = 22.631307 Si / 1000 Ang^3
#
#
#
# Elastic Constant Matrix: (Units=GPa)
#
#
# Indices 1 2 3 4 5 6 
#
# 1 91.6209 30.0501 29.5929 0.0000 12.6386 0.0000
# 2 30.0501 74.4744 24.2024 0.0000 0.5821 0.0000
# 3 29.5929 24.2024 78.7168 0.0000 -0.9883 0.0000
# 4 0.0000 0.0000 0.0000 22.9786 0.0000 -4.7546
# 5 12.6386 0.5821 -0.9883 0.0000 21.0547 0.0000
# 6 0.0000 0.0000 0.0000 -4.7546 0.0000 44.1653
#
#
#
# Elastic Compliance Matrix: (Units=1/GPa)
#
#
# Indices 1 2 3 4 5 6 
#
# 1 0.015097 -0.004598 -0.004377 0.000000 -0.009141 0.000000
# 2 -0.004598 0.016327 -0.003264 0.000000 0.002155 0.000000
# 3 -0.004377 -0.003264 0.015396 0.000000 0.003440 0.000000
# 4 0.000000 0.000000 0.000000 0.044510 0.000000 0.004792
# 5 -0.009141 0.002155 0.003440 0.000000 0.053084 0.000000
# 6 0.000000 0.000000 0.000000 0.004792 0.000000 0.023158
#
#
# Mechanical properties :
#
#
# Convention : Reuss Voigt Hill
#
# Bulk Modulus (GPa) = 44.75857 45.83366 45.29612
# Shear Modulus (GPa) = 25.06305 28.37085 26.71695
#
# Velocity S-wave (km/s) = 3.33145 3.54448 3.43961
# Velocity P-wave (km/s) = 5.88373 6.08666 5.98605
#
# Compressibility (1/GPa) = 0.02234209
#
# Stress axis : x y z
#
# Youngs Moduli (GPa) = 66.23788 61.24979 64.95206
#
# Poissons Ratio (x) = 0.28162 0.28428
# Poissons Ratio (y) = 0.30455 0.21202
# Poissons Ratio (z) = 0.28990 0.19993
#
# Static dielectric constant tensor:
#      x y z
#    x 4.077330 0.000000 -0.127120 
#    y 0.000000 4.327110 0.000000 
#    z -0.127120 0.000000 3.755020 
# 
# 
# High freq. dielectric constant tensor:
#      x y z
#    x 1.890420 0.000000 -0.006670 
#    y 0.000000 1.899720 0.000000 
#    z -0.006670 0.000000 1.874280 
# 
# From -- ./inp_files/44633.got.cif
#   From: 2010.03.12/outbox.cif.g09.slc.cpg/sg14_23_cif.got.tgz:44633.got - 2010.03.31 13:35:05.
