data_PCOD8127291
_publ_section_title
;
Structure prediction by ZEFSAII (Michael W. Deem and Ramdas Pophale) SiO2 
 PCOD8127291
Probable space group: P 21/C
;
_chemical_formula_sum "Si O2"
_cell_formula_units_Z 20
_cell_length_a 9.244799
_cell_length_b 8.593792
_cell_length_c 12.254583
_cell_angle_alpha 90.000000
_cell_angle_beta 72.803399
_cell_angle_gamma 90.000000
_cell_volume 930.076698
_symmetry_space_group_name_H-M "P 21/C"
_symmetry_group_IT_number 14
_symmetry_cell_setting 'monoclinic'
loop_
_space_group_symop_operation_xyz
x,y,z
-x,1/2+y,1/2-z
-x,-y,-z
x,1/2-y,1/2+z
loop_
_atom_site_type_symbol
_atom_site_label
_atom_site_fract_x
_atom_site_fract_y
_atom_site_fract_z
Si Si1 0.549444 0.026312 0.108797
Si Si2 0.862364 0.173979 0.045331
Si Si3 0.876154 0.493594 0.120253
Si Si4 0.037779 0.434548 0.312821
Si Si5 0.664875 0.761041 0.222432
O O1 0.723881 0.062400 0.057310
O O2 0.441686 0.163884 0.173967
O O3 0.547202 0.867161 0.180011
O O4 0.500000 0.000000 0.000000
O O5 0.793371 0.332133 0.109880
O O6 0.966367 0.092945 0.114841
O O7 0.953131 0.194679 0.909246
O O8 0.757524 0.633559 0.131158
O O9 0.946466 0.479707 0.225301
O O10 0.000000 0.500000 0.000000
O O11 0.207448 0.370388 0.246684
#
# Coordination Sequence:
#
# PCOD8127291 Si02
#       5
#     4   4   4   4   4
#     4  11  25  45  69  91 142 176 217 275 331 396
#     4  10  22  41  64  97 127 177 216 274 334 386
#     4  12  23  38  66 100 130 165 223 276 325 391
#     4  10  22  41  67  93 136 168 221 276 331 387
#     4  11  24  44  65 101 130 180 223 264 332 401
#
# _framework density 21.503602999999998
#
# number of rings (size 3 to 8) (size 9 to 14) (size 15 to 20)
#    0.000    1.200    2.000    3.600    2.800    0.000 
#    3.600    2.000    0.000    0.000    0.000    0.000 
#    0.000    0.000    0.000    0.000    0.000    0.000 
#
# Total GULP energy -247812.145910 kJ/mol
# GULP energy per Si atom -12390.607295 kJ/mol
# Density = 2.145466 g / cm^3
# Si number density = 21.503603 Si / 1000 Ang^3
#
#
#
# Elastic Constant Matrix: (Units=GPa)
#
#
# Indices 1 2 3 4 5 6 
#
# 1 62.4215 27.9776 48.7805 0.0000 -4.2396 0.0000
# 2 27.9776 96.5445 35.5906 0.0000 13.1533 0.0000
# 3 48.7805 35.5906 134.6891 0.0000 10.2953 0.0000
# 4 0.0000 0.0000 0.0000 36.8971 0.0000 -15.1917
# 5 -4.2396 13.1533 10.2953 0.0000 33.7477 0.0000
# 6 0.0000 0.0000 0.0000 -15.1917 0.0000 41.7539
#
#
#
# Elastic Compliance Matrix: (Units=1/GPa)
#
#
# Indices 1 2 3 4 5 6 
#
# 1 0.025556 -0.005368 -0.008439 0.000000 0.007877 0.000000
# 2 -0.005368 0.013055 -0.001091 0.000000 -0.005430 0.000000
# 3 -0.008439 -0.001091 0.011076 0.000000 -0.004014 0.000000
# 4 0.000000 0.000000 0.000000 0.031878 0.000000 0.011598
# 5 0.007877 -0.005430 -0.004014 0.000000 0.033962 0.000000
# 6 0.000000 0.000000 0.000000 0.011598 0.000000 0.028170
#
#
# Mechanical properties :
#
#
# Convention : Reuss Voigt Hill
#
# Bulk Modulus (GPa) = 50.27241 57.59470 53.93356
# Shear Modulus (GPa) = 27.75869 34.56684 31.16276
#
# Velocity S-wave (km/s) = 3.59679 4.01370 3.81095
# Velocity P-wave (km/s) = 6.37797 6.95138 6.67084
#
# Compressibility (1/GPa) = 0.01989163
#
# Stress axis : x y z
#
# Youngs Moduli (GPa) = 39.12943 76.59709 90.28521
#
# Poissons Ratio (x) = 0.41117 0.76195
# Poissons Ratio (y) = 0.21005 0.09846
# Poissons Ratio (z) = 0.33023 0.08354
#
# Static dielectric constant tensor:
#      x y z
#    x 3.846810 0.000000 -0.155850 
#    y 0.000000 4.708540 0.000000 
#    z -0.155850 0.000000 3.916290 
# 
# 
# High freq. dielectric constant tensor:
#      x y z
#    x 1.840260 0.000000 -0.008590 
#    y 0.000000 1.864330 0.000000 
#    z -0.008590 0.000000 1.837960 
# 
# From -- ./inp_files/22974.got.cif
#   From: 2010.03.12/outbox.cif.g09.slc.cpg/sg14_12_cif.got.tgz:22974.got - 2010.03.31 13:35:05.
