data_PCOD8127791
_publ_section_title
;
Structure prediction by ZEFSAII (Michael W. Deem and Ramdas Pophale) SiO2 
 PCOD8127791
Probable space group: P 21/C
;
_chemical_formula_sum "Si O2"
_cell_formula_units_Z 32
_cell_length_a 12.437162
_cell_length_b 12.971614
_cell_length_c 18.018093
_cell_angle_alpha 90.000000
_cell_angle_beta 30.742158
_cell_angle_gamma 90.000000
_cell_volume 1485.915541
_symmetry_space_group_name_H-M "P 21/C"
_symmetry_group_IT_number 14
_symmetry_cell_setting 'monoclinic'
loop_
_space_group_symop_operation_xyz
x,y,z
-x,1/2+y,1/2-z
-x,-y,-z
x,1/2-y,1/2+z
loop_
_atom_site_type_symbol
_atom_site_label
_atom_site_fract_x
_atom_site_fract_y
_atom_site_fract_z
Si Si1 0.263925 0.920246 0.159104
Si Si2 0.431729 0.506075 0.415183
Si Si3 0.750966 0.103235 0.256700
Si Si4 0.193344 0.371746 0.293104
Si Si5 0.391129 0.322655 0.327102
Si Si6 0.584273 0.730967 0.967358
Si Si7 0.914641 0.733138 0.892134
Si Si8 0.274165 0.665612 0.396721
O O1 0.341117 0.999125 0.177812
O O2 0.036752 0.875739 0.315259
O O3 0.434954 0.829073 0.051624
O O4 0.255441 0.977362 0.084334
O O5 0.395126 0.399523 0.394263
O O6 0.426072 0.599084 0.359985
O O7 0.529067 0.135160 0.424208
O O8 0.742224 0.114233 0.173571
O O9 0.929989 0.172224 0.186838
O O10 0.807572 0.985464 0.241673
O O11 0.282671 0.379205 0.323126
O O12 0.350535 0.298876 0.154512
O O13 0.958137 0.325385 0.430745
O O14 0.247793 0.227283 0.442009
O O15 0.622995 0.279507 0.170420
O O16 0.798184 0.754931 0.884087
#
# Coordination Sequence:
#
# PCOD8127791 Si02
#       8
#     4   4   4   4   4   4   4   4
#     4  10  23  41  67  95 132 179 224 273 335 413
#     4  11  22  42  67  94 134 175 222 272 335 402
#     4  11  22  42  68  97 128 178 227 273 336 407
#     4  12  25  40  68 103 132 173 232 280 328 412
#     4  12  23  41  70  96 139 175 218 283 344 394
#     4  11  23  42  66  96 137 174 221 286 334 392
#     4  11  21  40  66  93 130 181 217 270 341 395
#     4  12  23  41  69  99 128 180 222 275 339 407
#
# _framework density 21.535546
#
# number of rings (size 3 to 8) (size 9 to 14) (size 15 to 20)
#    0.000    0.750    5.000    3.750    0.000    1.000 
#    0.000    0.625    8.250    0.000    0.000    0.000 
#    0.000    0.000    0.000    0.000    0.000    0.000 
#
# Total GULP energy -396825.262504 kJ/mol
# GULP energy per Si atom -12400.789453 kJ/mol
# Density = 2.148653 g / cm^3
# Si number density = 21.535546 Si / 1000 Ang^3
#
#
#
# Elastic Constant Matrix: (Units=GPa)
#
#
# Indices 1 2 3 4 5 6 
#
# 1 117.8140 34.3290 38.8819 0.0000 6.6407 0.0000
# 2 34.3290 63.3548 36.4766 0.0000 -2.3837 0.0000
# 3 38.8819 36.4766 104.1423 0.0000 5.1601 0.0000
# 4 0.0000 0.0000 0.0000 34.8971 0.0000 5.3998
# 5 6.6407 -2.3837 5.1601 0.0000 31.1817 0.0000
# 6 0.0000 0.0000 0.0000 5.3998 0.0000 40.4223
#
#
#
# Elastic Compliance Matrix: (Units=1/GPa)
#
#
# Indices 1 2 3 4 5 6 
#
# 1 0.010699 -0.004567 -0.002283 0.000000 -0.002250 0.000000
# 2 -0.004567 0.021946 -0.006163 0.000000 0.003670 0.000000
# 3 -0.002283 -0.006163 0.012717 0.000000 -0.002089 0.000000
# 4 0.000000 0.000000 0.000000 0.029261 0.000000 -0.003909
# 5 -0.002250 0.003670 -0.002089 0.000000 0.033176 0.000000
# 6 0.000000 0.000000 0.000000 -0.003909 0.000000 0.025261
#
#
# Mechanical properties :
#
#
# Convention : Reuss Voigt Hill
#
# Bulk Modulus (GPa) = 51.72276 56.07620 53.89948
# Shear Modulus (GPa) = 30.20580 33.00847 31.60714
#
# Velocity S-wave (km/s) = 3.74920 3.91927 3.83518
# Velocity P-wave (km/s) = 6.54305 6.82469 6.68535
#
# Compressibility (1/GPa) = 0.01933385
#
# Stress axis : x y z
#
# Youngs Moduli (GPa) = 93.46492 45.56741 78.63516
#
# Poissons Ratio (x) = 0.20812 0.17955
# Poissons Ratio (y) = 0.42689 0.48464
# Poissons Ratio (z) = 0.21341 0.28084
#
# Static dielectric constant tensor:
#      x y z
#    x 4.022750 0.000000 0.001610 
#    y 0.000000 3.818830 0.000000 
#    z 0.001610 0.000000 3.990220 
# 
# 
# High freq. dielectric constant tensor:
#      x y z
#    x 1.863260 0.000000 0.003310 
#    y 0.000000 1.833320 0.000000 
#    z 0.003310 0.000000 1.835610 
# 
# From -- ./inp_files/57976.got.cif
#   From: 2010.03.12/outbox.cif.g09.slc.cpg/sg14_29_cif.got.tgz:57976.got - 2010.03.31 13:35:05.
