data_PCOD8127650
_publ_section_title
;
Structure prediction by ZEFSAII (Michael W. Deem and Ramdas Pophale) SiO2 
 PCOD8127650
Probable space group: P 21/C
;
_chemical_formula_sum "Si O2"
_cell_formula_units_Z 20
_cell_length_a 5.401698
_cell_length_b 11.415497
_cell_length_c 15.347679
_cell_angle_alpha 90.000000
_cell_angle_beta 124.226791
_cell_angle_gamma 90.000000
_cell_volume 782.487800
_symmetry_space_group_name_H-M "P 21/C"
_symmetry_group_IT_number 14
_symmetry_cell_setting 'monoclinic'
loop_
_space_group_symop_operation_xyz
x,y,z
-x,1/2+y,1/2-z
-x,-y,-z
x,1/2-y,1/2+z
loop_
_atom_site_type_symbol
_atom_site_label
_atom_site_fract_x
_atom_site_fract_y
_atom_site_fract_z
Si Si1 0.941874 0.674769 0.541882
Si Si2 0.071436 0.056799 0.145004
Si Si3 0.856047 0.017991 0.567786
Si Si4 0.318815 0.658900 0.203983
Si Si5 0.670237 0.254766 0.114335
O O1 0.888821 0.604536 0.444257
O O2 0.650352 0.757762 0.498547
O O3 0.989912 0.580435 0.629086
O O4 0.225026 0.764303 0.599552
O O5 0.382703 0.084245 0.257279
O O6 0.795085 0.123376 0.131474
O O7 0.043350 0.931982 0.668804
O O8 0.500000 0.000000 0.500000
O O9 0.894498 0.149236 0.616449
O O10 0.000000 0.000000 0.500000
O O11 0.361278 0.759105 0.286919
#
# Coordination Sequence:
#
# PCOD8127650 Si02
#       5
#     4   4   4   4   4
#     4  10  22  46  66 100 147 187 254 306 383 452
#     4  10  24  42  70 100 141 198 246 311 380 455
#     4  12  28  50  77 109 156 202 254 322 394 456
#     4  11  26  42  71 109 148 197 255 317 381 461
#     4  11  25  43  72 103 146 197 255 309 389 457
#
# _framework density 25.559504
#
# number of rings (size 3 to 8) (size 9 to 14) (size 15 to 20)
#    0.000    1.200    2.000    1.800   11.200    1.600 
#    0.000    0.000    0.000    0.000    0.000    0.000 
#    0.000    0.000    0.000    0.000    0.000    0.000 
#
# Total GULP energy -247787.078938 kJ/mol
# GULP energy per Si atom -12389.353947 kJ/mol
# Density = 2.550133 g / cm^3
# Si number density = 25.559504 Si / 1000 Ang^3
#
#
#
# Elastic Constant Matrix: (Units=GPa)
#
#
# Indices 1 2 3 4 5 6 
#
# 1 82.1147 -7.4320 32.6503 0.0000 13.9545 0.0000
# 2 -7.4320 83.8467 45.1132 0.0000 5.8200 0.0000
# 3 32.6503 45.1132 113.7167 0.0000 41.2686 0.0000
# 4 0.0000 0.0000 0.0000 45.8430 0.0000 6.5324
# 5 13.9545 5.8200 41.2686 0.0000 33.8339 0.0000
# 6 0.0000 0.0000 0.0000 6.5324 0.0000 33.2309
#
#
#
# Elastic Compliance Matrix: (Units=1/GPa)
#
#
# Indices 1 2 3 4 5 6 
#
# 1 0.015069 0.004820 -0.006607 0.000000 0.001015 0.000000
# 2 0.004820 0.018196 -0.012102 0.000000 0.009644 0.000000
# 3 -0.006607 -0.012102 0.024666 0.000000 -0.025279 0.000000
# 4 0.000000 0.000000 0.000000 0.022442 0.000000 -0.004412
# 5 0.001015 0.009644 -0.025279 0.000000 0.058313 0.000000
# 6 0.000000 0.000000 0.000000 -0.004412 0.000000 0.030960
#
#
# Mechanical properties :
#
#
# Convention : Reuss Voigt Hill
#
# Bulk Modulus (GPa) = 33.16474 46.70455 39.93465
# Shear Modulus (GPa) = 24.09923 36.53798 30.31860
#
# Velocity S-wave (km/s) = 3.07395 3.78501 3.44786
# Velocity P-wave (km/s) = 5.05989 6.11672 5.61323
#
# Compressibility (1/GPa) = 0.03015250
#
# Stress axis : x y z
#
# Youngs Moduli (GPa) = 66.36133 54.95718 40.54155
#
# Poissons Ratio (x) = -0.26490 0.26786
# Poissons Ratio (y) = -0.31987 0.49065
# Poissons Ratio (z) = 0.43845 0.66511
#
# Static dielectric constant tensor:
#      x y z
#    x 4.174950 0.000000 0.125060 
#    y 0.000000 5.238720 0.000000 
#    z 0.125060 0.000000 5.010230 
# 
# 
# High freq. dielectric constant tensor:
#      x y z
#    x 1.988330 0.000000 0.012290 
#    y 0.000000 2.036070 0.000000 
#    z 0.012290 0.000000 2.036570 
# 
# From -- ./inp_files/53066.got.cif
#   From: 2010.03.12/outbox.cif.g09.slc.cpg/sg14_27_cif.got.tgz:53066.got - 2010.03.31 13:35:05.
