data_PCOD8127654
_publ_section_title
;
Structure prediction by ZEFSAII (Michael W. Deem and Ramdas Pophale) SiO2 
 PCOD8127654
Probable space group: P 21/C
;
_chemical_formula_sum "Si O2"
_cell_formula_units_Z 24
_cell_length_a 6.324551
_cell_length_b 13.730744
_cell_length_c 12.809451
_cell_angle_alpha 90.000000
_cell_angle_beta 61.754140
_cell_angle_gamma 90.000000
_cell_volume 979.925794
_symmetry_space_group_name_H-M "P 21/C"
_symmetry_group_IT_number 14
_symmetry_cell_setting 'monoclinic'
loop_
_space_group_symop_operation_xyz
x,y,z
-x,1/2+y,1/2-z
-x,-y,-z
x,1/2-y,1/2+z
loop_
_atom_site_type_symbol
_atom_site_label
_atom_site_fract_x
_atom_site_fract_y
_atom_site_fract_z
Si Si1 0.696468 0.447151 0.323959
Si Si2 0.592620 0.710337 0.693894
Si Si3 0.369149 0.590762 0.283640
Si Si4 0.185318 0.483752 0.120174
Si Si5 0.136802 0.657809 0.531621
Si Si6 0.593627 0.349412 0.042447
O O1 0.536403 0.349759 0.366137
O O2 0.534332 0.539223 0.333183
O O3 0.805114 0.441474 0.416328
O O4 0.915500 0.445090 0.190100
O O5 0.526969 0.823203 0.697097
O O6 0.473322 0.658375 0.821471
O O7 0.876844 0.697164 0.624431
O O8 0.272166 0.523076 0.214370
O O9 0.149022 0.633751 0.404799
O O10 0.352452 0.393283 0.043506
O O11 0.199416 0.570098 0.030792
O O12 0.323727 0.744429 0.517843
#
# Coordination Sequence:
#
# PCOD8127654 Si02
#       6
#     4   4   4   4   4   4
#     4  12  23  43  70  99 136 175 223 273 338 392
#     4  11  24  46  66 102 137 176 226 271 334 393
#     4  11  25  44  68 100 134 179 222 275 336 394
#     4  11  23  45  69  99 133 171 230 276 328 399
#     4  11  24  44  66  99 138 174 222 275 330 404
#     4  10  22  46  67  95 136 172 220 281 325 394
#
# _framework density 24.49165
#
# number of rings (size 3 to 8) (size 9 to 14) (size 15 to 20)
#    0.000    1.000    3.333    2.500    0.000    4.667 
#   18.000    0.000    0.000    0.000    0.000    0.000 
#    0.000    0.000    0.000    0.000    0.000    0.000 
#
# Total GULP energy -297354.474976 kJ/mol
# GULP energy per Si atom -12389.769791 kJ/mol
# Density = 2.443591 g / cm^3
# Si number density = 24.491650 Si / 1000 Ang^3
#
#
#
# Elastic Constant Matrix: (Units=GPa)
#
#
# Indices 1 2 3 4 5 6 
#
# 1 37.4613 27.5428 5.5008 0.0000 -15.8473 0.0000
# 2 27.5428 107.5221 9.4816 0.0000 -12.9507 0.0000
# 3 5.5008 9.4816 70.0939 0.0000 -16.5691 0.0000
# 4 0.0000 0.0000 0.0000 41.9471 0.0000 -4.9534
# 5 -15.8473 -12.9507 -16.5691 0.0000 25.6753 0.0000
# 6 0.0000 0.0000 0.0000 -4.9534 0.0000 26.0953
#
#
#
# Elastic Compliance Matrix: (Units=1/GPa)
#
#
# Indices 1 2 3 4 5 6 
#
# 1 0.042582 -0.008282 0.003545 0.000000 0.024392 0.000000
# 2 -0.008282 0.011515 -0.000877 0.000000 0.000130 0.000000
# 3 0.003545 -0.000877 0.017133 0.000000 0.012802 0.000000
# 4 0.000000 0.000000 0.000000 0.024386 0.000000 0.004629
# 5 0.024392 0.000130 0.012802 0.000000 0.062330 0.000000
# 6 0.000000 0.000000 0.000000 0.004629 0.000000 0.039200
#
#
# Mechanical properties :
#
#
# Convention : Reuss Voigt Hill
#
# Bulk Modulus (GPa) = 16.66647 33.34752 25.00700
# Shear Modulus (GPa) = 21.89371 30.24701 26.07036
#
# Velocity S-wave (km/s) = 2.99310 3.51806 3.26614
# Velocity P-wave (km/s) = 4.33181 5.49070 4.94532
#
# Compressibility (1/GPa) = 0.06000069
#
# Stress axis : x y z
#
# Youngs Moduli (GPa) = 23.48421 86.84302 58.36610
#
# Poissons Ratio (x) = 0.71926 -0.20688
# Poissons Ratio (y) = 0.19450 0.05118
# Poissons Ratio (z) = -0.08324 0.07615
#
# Static dielectric constant tensor:
#      x y z
#    x 4.023260 0.000000 -0.189330 
#    y 0.000000 4.452730 0.000000 
#    z -0.189330 0.000000 4.601670 
# 
# 
# High freq. dielectric constant tensor:
#      x y z
#    x 1.949100 0.000000 -0.008710 
#    y 0.000000 1.977370 0.000000 
#    z -0.008710 0.000000 1.993550 
# 
# From -- ./inp_files/37249.got.cif
#   From: 2010.03.12/outbox.cif.g09.slc.cpg/sg14_19_cif.got.tgz:37249.got - 2010.03.31 13:35:05.
