data_PCOD8127874
_publ_section_title
;
Structure prediction by ZEFSAII (Michael W. Deem and Ramdas Pophale) SiO2 
 PCOD8127874
Probable space group: P 21/C
;
_chemical_formula_sum "Si O2"
_cell_formula_units_Z 20
_cell_length_a 9.069083
_cell_length_b 7.136680
_cell_length_c 17.167388
_cell_angle_alpha 90.000000
_cell_angle_beta 119.984290
_cell_angle_gamma 90.000000
_cell_volume 962.416774
_symmetry_space_group_name_H-M "P 21/C"
_symmetry_group_IT_number 14
_symmetry_cell_setting 'monoclinic'
loop_
_space_group_symop_operation_xyz
x,y,z
-x,1/2+y,1/2-z
-x,-y,-z
x,1/2-y,1/2+z
loop_
_atom_site_type_symbol
_atom_site_label
_atom_site_fract_x
_atom_site_fract_y
_atom_site_fract_z
Si Si1 0.252560 0.982998 0.624364
Si Si2 0.039798 0.283277 0.494563
Si Si3 0.141945 0.227673 0.848151
Si Si4 0.778447 0.358935 0.710248
Si Si5 0.573710 0.015625 0.605402
O O1 0.164544 0.189018 0.591785
O O2 0.435309 0.964136 0.633356
O O3 0.275849 0.943892 0.721348
O O4 0.138513 0.825449 0.552232
O O5 0.137096 0.248766 0.439463
O O6 0.000000 0.500000 0.500000
O O7 0.266773 0.378343 0.842699
O O8 0.956094 0.249202 0.761831
O O9 0.209924 0.021901 0.849553
O O10 0.633004 0.225612 0.638598
O O11 0.500000 0.000000 0.500000
#
# Coordination Sequence:
#
# PCOD8127874 Si02
#       5
#     4   4   4   4   4
#     4  10  25  44  64 104 135 178 230 290 341 414
#     4  10  23  42  73  97 138 179 224 284 360 414
#     4  11  24  44  71  98 132 188 230 280 347 418
#     4  11  26  43  71  96 138 186 232 284 343 414
#     4  12  26  46  68 102 144 175 234 294 344 411
#
# _framework density 20.781019000000001
#
# number of rings (size 3 to 8) (size 9 to 14) (size 15 to 20)
#    0.000    1.200    4.000    0.000    8.400    2.400 
#    0.000    0.000    0.000    0.000    0.000    0.000 
#    0.000    0.000    0.000    0.000    0.000    0.000 
#
# Total GULP energy -248100.277619 kJ/mol
# GULP energy per Si atom -12405.013881 kJ/mol
# Density = 2.073372 g / cm^3
# Si number density = 20.781019 Si / 1000 Ang^3
#
#
#
# Elastic Constant Matrix: (Units=GPa)
#
#
# Indices 1 2 3 4 5 6 
#
# 1 155.6370 61.5884 38.3443 0.0000 5.4922 0.0000
# 2 61.5884 152.4115 46.0520 0.0000 -3.1244 0.0000
# 3 38.3443 46.0520 101.9520 0.0000 -0.3259 0.0000
# 4 0.0000 0.0000 0.0000 41.3656 0.0000 3.2616
# 5 5.4922 -3.1244 -0.3259 0.0000 11.8074 0.0000
# 6 0.0000 0.0000 0.0000 3.2616 0.0000 37.6476
#
#
#
# Elastic Compliance Matrix: (Units=1/GPa)
#
#
# Indices 1 2 3 4 5 6 
#
# 1 0.008157 -0.002848 -0.001796 0.000000 -0.004597 0.000000
# 2 -0.002848 0.008636 -0.002819 0.000000 0.003532 0.000000
# 3 -0.001796 -0.002819 0.011759 0.000000 0.000414 0.000000
# 4 0.000000 0.000000 0.000000 0.024341 0.000000 -0.002109
# 5 -0.004597 0.003532 0.000414 0.000000 0.087777 0.000000
# 6 0.000000 0.000000 0.000000 -0.002109 0.000000 0.026745
#
#
# Mechanical properties :
#
#
# Convention : Reuss Voigt Hill
#
# Bulk Modulus (GPa) = 73.38642 77.99666 75.69154
# Shear Modulus (GPa) = 26.75498 35.76517 31.26008
#
# Velocity S-wave (km/s) = 3.59203 4.15305 3.88269
# Velocity P-wave (km/s) = 7.25220 7.78532 7.52349
#
# Compressibility (1/GPa) = 0.01362650
#
# Stress axis : x y z
#
# Youngs Moduli (GPa) = 122.59671 115.79508 85.04423
#
# Poissons Ratio (x) = 0.32974 0.15276
# Poissons Ratio (y) = 0.34911 0.23970
# Poissons Ratio (z) = 0.22021 0.32638
#
# Static dielectric constant tensor:
#      x y z
#    x 3.991540 0.000000 0.042440 
#    y 0.000000 4.251280 0.000000 
#    z 0.042440 0.000000 3.645920 
# 
# 
# High freq. dielectric constant tensor:
#      x y z
#    x 1.828160 0.000000 -0.001900 
#    y 0.000000 1.821750 0.000000 
#    z -0.001900 0.000000 1.808140 
# 
# From -- ./inp_files/64227.got.cif
#   From: 2010.03.12/outbox.cif.g09.slc.cpg/sg14_33_cif.got.tgz:64227.got - 2010.03.31 13:35:05.
