data_PCOD8127470
_publ_section_title
;
Structure prediction by ZEFSAII (Michael W. Deem and Ramdas Pophale) SiO2 
 PCOD8127470
Probable space group: P 21/C
;
_chemical_formula_sum "Si O2"
_cell_formula_units_Z 20
_cell_length_a 8.452933
_cell_length_b 10.730707
_cell_length_c 8.965651
_cell_angle_alpha 90.000000
_cell_angle_beta 89.352380
_cell_angle_gamma 90.000000
_cell_volume 813.185918
_symmetry_space_group_name_H-M "P 21/C"
_symmetry_group_IT_number 14
_symmetry_cell_setting 'monoclinic'
loop_
_space_group_symop_operation_xyz
x,y,z
-x,1/2+y,1/2-z
-x,-y,-z
x,1/2-y,1/2+z
loop_
_atom_site_type_symbol
_atom_site_label
_atom_site_fract_x
_atom_site_fract_y
_atom_site_fract_z
Si Si1 0.036725 0.873706 0.414273
Si Si2 0.868876 0.834278 0.111941
Si Si3 0.369069 0.778111 0.459891
Si Si4 0.585098 0.664458 0.205165
Si Si5 0.328479 0.521289 0.569444
O O1 0.981640 0.881806 0.243271
O O2 0.956364 0.757817 0.497860
O O3 0.225352 0.862291 0.407532
O O4 0.000000 0.000000 0.500000
O O5 0.717315 0.768852 0.184914
O O6 0.810602 0.955404 0.022887
O O7 0.456553 0.716553 0.320900
O O8 0.494514 0.861749 0.551211
O O9 0.297847 0.669038 0.568986
O O10 0.665672 0.536757 0.263276
O O11 0.500000 0.500000 0.500000
#
# Coordination Sequence:
#
# PCOD8127470 Si02
#       5
#     4   4   4   4   4
#     4  12  30  47  69 107 148 192 234 293 358 429
#     4  12  24  48  70 103 144 182 243 290 355 420
#     4  11  25  44  70 101 144 181 235 285 357 418
#     4  11  21  44  72 105 127 185 237 288 346 420
#     4  10  22  42  74  97 136 180 231 290 351 410
#
# _framework density 24.594622000000001
#
# number of rings (size 3 to 8) (size 9 to 14) (size 15 to 20)
#    0.000    0.800    6.000    1.200    8.400    4.000 
#    0.000    3.000    0.000    0.000    0.000    0.000 
#    0.000    0.000    0.000    0.000    0.000    0.000 
#
# Total GULP energy -248032.287973 kJ/mol
# GULP energy per Si atom -12401.614399 kJ/mol
# Density = 2.453864 g / cm^3
# Si number density = 24.594622 Si / 1000 Ang^3
#
#
#
# Elastic Constant Matrix: (Units=GPa)
#
#
# Indices 1 2 3 4 5 6 
#
# 1 74.4383 5.1059 22.2576 0.0000 41.5609 0.0000
# 2 5.1059 50.0697 14.1417 0.0000 15.9871 0.0000
# 3 22.2576 14.1417 82.4014 0.0000 38.4703 0.0000
# 4 0.0000 0.0000 0.0000 22.0563 0.0000 -3.5685
# 5 41.5609 15.9871 38.4703 0.0000 55.5521 0.0000
# 6 0.0000 0.0000 0.0000 -3.5685 0.0000 35.0568
#
#
#
# Elastic Compliance Matrix: (Units=1/GPa)
#
#
# Indices 1 2 3 4 5 6 
#
# 1 0.024009 0.003443 0.002619 0.000000 -0.020767 0.000000
# 2 0.003443 0.022569 -0.000840 0.000000 -0.008489 0.000000
# 3 0.002619 -0.000840 0.018287 0.000000 -0.014382 0.000000
# 4 0.000000 0.000000 0.000000 0.046098 0.000000 0.004692
# 5 -0.020767 -0.008489 -0.014382 0.000000 0.045940 0.000000
# 6 0.000000 0.000000 0.000000 0.004692 0.000000 0.029003
#
#
# Mechanical properties :
#
#
# Convention : Reuss Voigt Hill
#
# Bulk Modulus (GPa) = 13.27863 32.21332 22.74597
# Shear Modulus (GPa) = 24.92964 33.55997 29.24481
#
# Velocity S-wave (km/s) = 3.18720 3.69795 3.45204
# Velocity P-wave (km/s) = 4.35374 5.59994 5.01569
#
# Compressibility (1/GPa) = 0.07530899
#
# Stress axis : x y z
#
# Youngs Moduli (GPa) = 41.65024 44.30888 54.68494
#
# Poissons Ratio (x) = -0.15254 -0.14324
# Poissons Ratio (y) = -0.14339 0.04594
# Poissons Ratio (z) = -0.10910 0.03722
#
# Static dielectric constant tensor:
#      x y z
#    x 4.733280 0.000000 0.478710 
#    y 0.000000 4.910880 0.000000 
#    z 0.478710 0.000000 5.478710 
# 
# 
# High freq. dielectric constant tensor:
#      x y z
#    x 1.993380 0.000000 0.006400 
#    y 0.000000 1.975760 0.000000 
#    z 0.006400 0.000000 1.989410 
# 
# From -- ./inp_files/7848.got.cif
#   From: 2010.03.12/outbox.cif.g09.slc.cpg/sg14_4_cif.got.tgz:7848.got - 2010.03.31 13:35:05.
