data_PCOD8127665
_publ_section_title
;
Structure prediction by ZEFSAII (Michael W. Deem and Ramdas Pophale) SiO2 
 PCOD8127665
Probable space group: P 21/C
;
_chemical_formula_sum "Si O2"
_cell_formula_units_Z 20
_cell_length_a 5.267070
_cell_length_b 10.167697
_cell_length_c 16.506759
_cell_angle_alpha 90.000000
_cell_angle_beta 71.238167
_cell_angle_gamma 90.000000
_cell_volume 837.029906
_symmetry_space_group_name_H-M "P 21/C"
_symmetry_group_IT_number 14
_symmetry_cell_setting 'monoclinic'
loop_
_space_group_symop_operation_xyz
x,y,z
-x,1/2+y,1/2-z
-x,-y,-z
x,1/2-y,1/2+z
loop_
_atom_site_type_symbol
_atom_site_label
_atom_site_fract_x
_atom_site_fract_y
_atom_site_fract_z
Si Si1 0.406507 0.870060 0.965162
Si Si2 0.859831 0.559086 0.137998
Si Si3 0.537923 0.968797 0.190513
Si Si4 0.286433 0.115996 0.520635
Si Si5 0.923732 0.181205 0.857641
O O1 0.370330 0.907162 0.874525
O O2 0.616651 0.750546 0.948779
O O3 0.133384 0.828084 0.039039
O O4 0.500000 0.000000 0.000000
O O5 0.596900 0.520375 0.214134
O O6 0.774380 0.640690 0.067148
O O7 0.040444 0.664629 0.169362
O O8 0.022583 0.427868 0.097586
O O9 0.804136 0.894388 0.191779
O O10 0.328407 0.873861 0.166178
O O11 0.500000 0.000000 0.500000
#
# Coordination Sequence:
#
# PCOD8127665 Si02
#       5
#     4   4   4   4   4
#     4  10  22  46  73 102 141 193 236 289 361 432
#     4  11  26  44  71 106 144 191 240 307 358 434
#     4  11  27  42  75 106 143 189 246 301 362 428
#     4  11  24  46  73 101 146 192 238 291 369 429
#     4  11  24  47  70 104 148 185 242 302 361 432
#
# _framework density 23.894009
#
# number of rings (size 3 to 8) (size 9 to 14) (size 15 to 20)
#    0.000    1.200    2.000    3.000    5.600    1.600 
#    3.600    0.000    0.000    0.000    0.000    0.000 
#    0.000    0.000    0.000    0.000    0.000    0.000 
#
# Total GULP energy -247970.327502 kJ/mol
# GULP energy per Si atom -12398.516375 kJ/mol
# Density = 2.383962 g / cm^3
# Si number density = 23.894009 Si / 1000 Ang^3
#
#
#
# Elastic Constant Matrix: (Units=GPa)
#
#
# Indices 1 2 3 4 5 6 
#
# 1 69.5803 12.7016 1.5695 0.0000 -19.5279 0.0000
# 2 12.7016 118.1738 21.7559 0.0000 -7.9774 0.0000
# 3 1.5695 21.7559 104.2871 0.0000 -40.5188 0.0000
# 4 0.0000 0.0000 0.0000 20.1693 0.0000 -12.8420
# 5 -19.5279 -7.9774 -40.5188 0.0000 41.1180 0.0000
# 6 0.0000 0.0000 0.0000 -12.8420 0.0000 42.9350
#
#
#
# Elastic Compliance Matrix: (Units=1/GPa)
#
#
# Indices 1 2 3 4 5 6 
#
# 1 0.018509 -0.002073 0.005531 0.000000 0.013838 0.000000
# 2 -0.002073 0.009033 -0.002520 0.000000 -0.001715 0.000000
# 3 0.005531 -0.002520 0.017601 0.000000 0.019482 0.000000
# 4 0.000000 0.000000 0.000000 0.061244 0.000000 0.018318
# 5 0.013838 -0.001715 0.019482 0.000000 0.049757 0.000000
# 6 0.000000 0.000000 0.000000 0.018318 0.000000 0.028770
#
#
# Mechanical properties :
#
#
# Convention : Reuss Voigt Hill
#
# Bulk Modulus (GPa) = 21.26843 40.45504 30.86173
# Shear Modulus (GPa) = 25.16206 37.91208 31.53707
#
# Velocity S-wave (km/s) = 3.24862 3.98763 3.63695
# Velocity P-wave (km/s) = 4.79499 6.17814 5.52998
#
# Compressibility (1/GPa) = 0.04701804
#
# Stress axis : x y z
#
# Youngs Moduli (GPa) = 54.02674 110.70449 56.81617
#
# Poissons Ratio (x) = 0.22954 -0.31423
# Poissons Ratio (y) = 0.11202 0.14315
# Poissons Ratio (z) = -0.29880 0.27893
#
# Static dielectric constant tensor:
#      x y z
#    x 4.109920 0.000000 -0.263040 
#    y 0.000000 4.590980 0.000000 
#    z -0.263040 0.000000 4.739300 
# 
# 
# High freq. dielectric constant tensor:
#      x y z
#    x 1.939500 0.000000 -0.020560 
#    y 0.000000 1.960250 0.000000 
#    z -0.020560 0.000000 1.947120 
# 
# From -- ./inp_files/52854.got.cif
#   From: 2010.03.12/outbox.cif.g09.slc.cpg/sg14_27_cif.got.tgz:52854.got - 2010.03.31 13:35:05.
