data_PCOD8127187
_publ_section_title
;
Structure prediction by ZEFSAII (Michael W. Deem and Ramdas Pophale) SiO2 
 PCOD8127187
Probable space group: P 21/C
;
_chemical_formula_sum "Si O2"
_cell_formula_units_Z 24
_cell_length_a 14.622781
_cell_length_b 8.770141
_cell_length_c 9.119823
_cell_angle_alpha 90.000000
_cell_angle_beta 99.341639
_cell_angle_gamma 90.000000
_cell_volume 1154.050517
_symmetry_space_group_name_H-M "P 21/C"
_symmetry_group_IT_number 14
_symmetry_cell_setting 'monoclinic'
loop_
_space_group_symop_operation_xyz
x,y,z
-x,1/2+y,1/2-z
-x,-y,-z
x,1/2-y,1/2+z
loop_
_atom_site_type_symbol
_atom_site_label
_atom_site_fract_x
_atom_site_fract_y
_atom_site_fract_z
Si Si1 0.421235 0.131826 0.317606
Si Si2 0.246585 0.407664 0.598877
Si Si3 0.034330 0.574863 0.154197
Si Si4 0.599653 0.938662 0.351253
Si Si5 0.929509 0.431131 0.368800
Si Si6 0.777263 0.594673 0.746326
O O1 0.344922 0.045071 0.197237
O O2 0.426662 0.305316 0.268311
O O3 0.392789 0.121310 0.480513
O O4 0.523285 0.067876 0.316657
O O5 0.176199 0.547605 0.607298
O O6 0.207900 0.255993 0.668431
O O7 0.258005 0.377679 0.428682
O O8 0.048900 0.754562 0.150180
O O9 0.128445 0.499170 0.236155
O O10 0.946857 0.533893 0.231570
O O11 0.000000 0.500000 0.000000
O O12 0.699763 0.999518 0.320298
O O13 0.000000 0.500000 0.500000
#
# Coordination Sequence:
#
# PCOD8127187 Si02
#       6
#     4   4   4   4   4   4
#     4  10  22  40  63  94 125 169 207 263 314 379
#     4  11  23  40  66  91 128 164 215 262 320 382
#     4  12  27  42  68  93 130 171 211 269 317 380
#     4  10  22  40  63  93 128 163 215 256 320 376
#     4  12  25  46  62  97 128 167 219 260 322 380
#     4  11  23  41  64  95 123 168 211 264 321 379
#
# _framework density 20.796316000000001
#
# number of rings (size 3 to 8) (size 9 to 14) (size 15 to 20)
#    0.000    1.000    1.667    7.000    4.667    4.000 
#    0.000    3.333    0.000    0.000    0.000    0.000 
#    0.000    0.000    0.000    0.000    0.000    0.000 
#
# Total GULP energy -297494.449135 kJ/mol
# GULP energy per Si atom -12395.602047 kJ/mol
# Density = 2.074898 g / cm^3
# Si number density = 20.796316 Si / 1000 Ang^3
#
#
#
# Elastic Constant Matrix: (Units=GPa)
#
#
# Indices 1 2 3 4 5 6 
#
# 1 91.7312 15.4067 19.2053 0.0000 -7.8501 0.0000
# 2 15.4067 79.7657 17.6821 0.0000 -2.4896 0.0000
# 3 19.2053 17.6821 130.2499 0.0000 -10.7830 0.0000
# 4 0.0000 0.0000 0.0000 28.0257 0.0000 0.2573
# 5 -7.8501 -2.4896 -10.7830 0.0000 39.5516 0.0000
# 6 0.0000 0.0000 0.0000 0.2573 0.0000 40.7891
#
#
#
# Elastic Compliance Matrix: (Units=1/GPa)
#
#
# Indices 1 2 3 4 5 6 
#
# 1 0.011652 -0.001903 -0.001308 0.000000 0.001836 0.000000
# 2 -0.001903 0.013241 -0.001513 0.000000 0.000043 0.000000
# 3 -0.001308 -0.001513 0.008232 0.000000 0.001890 0.000000
# 4 0.000000 0.000000 0.000000 0.035684 0.000000 -0.000225
# 5 0.001836 0.000043 0.001890 0.000000 0.026166 0.000000
# 6 0.000000 0.000000 0.000000 -0.000225 0.000000 0.024518
#
#
# Mechanical properties :
#
#
# Convention : Reuss Voigt Hill
#
# Bulk Modulus (GPa) = 42.23567 45.14831 43.69199
# Shear Modulus (GPa) = 36.54073 38.30346 37.42210
#
# Velocity S-wave (km/s) = 4.19630 4.29632 4.24660
# Velocity P-wave (km/s) = 6.62056 6.80941 6.71565
#
# Compressibility (1/GPa) = 0.02367667
#
# Stress axis : x y z
#
# Youngs Moduli (GPa) = 85.82193 75.52201 121.47364
#
# Poissons Ratio (x) = 0.14375 0.15885
# Poissons Ratio (y) = 0.16335 0.18383
# Poissons Ratio (z) = 0.11223 0.11429
#
# Static dielectric constant tensor:
#      x y z
#    x 3.978960 0.000000 -0.172570 
#    y 0.000000 3.656260 0.000000 
#    z -0.172570 0.000000 4.185220 
# 
# 
# High freq. dielectric constant tensor:
#      x y z
#    x 1.831370 0.000000 -0.005830 
#    y 0.000000 1.793580 0.000000 
#    z -0.005830 0.000000 1.838510 
# 
# From -- ./inp_files/15144.got.cif
#   From: 2010.03.12/outbox.cif.g09.slc.cpg/sg14_8_cif.got.tgz:15144.got - 2010.03.31 13:35:05.
