data_PCOD8127055
_publ_section_title
;
Structure prediction by ZEFSAII (Michael W. Deem and Ramdas Pophale) SiO2 
 PCOD8127055
Probable space group: P 21/C
;
_chemical_formula_sum "Si O2"
_cell_formula_units_Z 24
_cell_length_a 8.787136
_cell_length_b 15.766714
_cell_length_c 17.696308
_cell_angle_alpha 90.000000
_cell_angle_beta 32.081061
_cell_angle_gamma 90.000000
_cell_volume 1302.154946
_symmetry_space_group_name_H-M "P 21/C"
_symmetry_group_IT_number 14
_symmetry_cell_setting 'monoclinic'
loop_
_space_group_symop_operation_xyz
x,y,z
-x,1/2+y,1/2-z
-x,-y,-z
x,1/2-y,1/2+z
loop_
_atom_site_type_symbol
_atom_site_label
_atom_site_fract_x
_atom_site_fract_y
_atom_site_fract_z
Si Si1 0.922099 0.834355 0.643105
Si Si2 0.191019 0.517909 0.598950
Si Si3 0.137511 0.564953 0.384833
Si Si4 0.184355 0.494303 0.102965
Si Si5 0.283698 0.824508 0.953475
Si Si6 0.229976 0.433044 0.927899
O O1 0.627333 0.811949 0.810489
O O2 0.841975 0.848385 0.588492
O O3 0.143783 0.757486 0.550238
O O4 0.067867 0.915567 0.621163
O O5 0.500000 0.500000 0.500000
O O6 0.192918 0.597355 0.543238
O O7 0.061706 0.436047 0.607082
O O8 0.005575 0.541175 0.749742
O O9 0.167431 0.655312 0.416619
O O10 0.452931 0.533503 0.226995
O O11 0.000000 0.500000 0.500000
O O12 0.500000 0.500000 0.000000
O O13 0.192043 0.422692 0.033852
O O14 0.000000 0.500000 0.000000
#
# Coordination Sequence:
#
# PCOD8127055 Si02
#       6
#     4   4   4   4   4   4
#     4  10  22  39  57  84 118 153 198 243 292 349
#     4  11  21  39  61  86 118 155 198 241 296 353
#     4   9  19  35  57  80 108 149 192 231 279 346
#     4  11  21  37  63  88 116 155 197 246 293 353
#     4  10  22  39  58  83 117 155 196 244 294 347
#     4   9  19  35  56  82 109 145 193 233 277 345
#
# _framework density 18.430986000000001
#
# number of rings (size 3 to 8) (size 9 to 14) (size 15 to 20)
#    0.000    2.000    3.333    0.000    4.667    1.333 
#    0.000    3.333    0.000    0.000    0.000    0.000 
#    0.000    0.000    0.000    0.000    0.000    0.000 
#
# Total GULP energy -297319.042386 kJ/mol
# GULP energy per Si atom -12388.293433 kJ/mol
# Density = 1.838904 g / cm^3
# Si number density = 18.430986 Si / 1000 Ang^3
#
#
#
# Elastic Constant Matrix: (Units=GPa)
#
#
# Indices 1 2 3 4 5 6 
#
# 1 116.2995 24.9778 56.2397 0.0000 -4.9085 0.0000
# 2 24.9778 66.0760 36.8434 0.0000 -3.4297 0.0000
# 3 56.2397 36.8434 152.1578 0.0000 -1.1839 0.0000
# 4 0.0000 0.0000 0.0000 30.1551 0.0000 -2.0813
# 5 -4.9085 -3.4297 -1.1839 0.0000 41.4809 0.0000
# 6 0.0000 0.0000 0.0000 -2.0813 0.0000 20.5012
#
#
#
# Elastic Compliance Matrix: (Units=1/GPa)
#
#
# Indices 1 2 3 4 5 6 
#
# 1 0.010765 -0.002084 -0.003466 0.000000 0.001003 0.000000
# 2 -0.002084 0.017973 -0.003573 0.000000 0.001137 0.000000
# 3 -0.003466 -0.003573 0.008715 0.000000 -0.000457 0.000000
# 4 0.000000 0.000000 0.000000 0.033396 0.000000 0.003390
# 5 0.001003 0.001137 -0.000457 0.000000 0.024307 0.000000
# 6 0.000000 0.000000 0.000000 0.003390 0.000000 0.049122
#
#
# Mechanical properties :
#
#
# Convention : Reuss Voigt Hill
#
# Bulk Modulus (GPa) = 52.06742 63.40613 57.73677
# Shear Modulus (GPa) = 29.59870 32.85894 31.22882
#
# Velocity S-wave (km/s) = 4.01174 4.22691 4.12073
# Velocity P-wave (km/s) = 7.05479 7.63538 7.35082
#
# Compressibility (1/GPa) = 0.01920587
#
# Stress axis : x y z
#
# Youngs Moduli (GPa) = 92.89642 55.63845 114.74681
#
# Poissons Ratio (x) = 0.11598 0.39774
# Poissons Ratio (y) = 0.19364 0.40996
# Poissons Ratio (z) = 0.32200 0.19878
#
# Static dielectric constant tensor:
#      x y z
#    x 4.151640 0.000000 -0.009190 
#    y 0.000000 3.778790 0.000000 
#    z -0.009190 0.000000 3.575930 
# 
# 
# High freq. dielectric constant tensor:
#      x y z
#    x 1.729540 0.000000 -0.000690 
#    y 0.000000 1.668000 0.000000 
#    z -0.000690 0.000000 1.741810 
# 
# From -- ./inp_files/8451.got.cif
#   From: 2010.03.12/outbox.cif.g09.slc.cpg/sg14_5_cif.got.tgz:8451.got - 2010.03.31 13:35:05.
