data_PCOD8127689
_publ_section_title
;
Structure prediction by ZEFSAII (Michael W. Deem and Ramdas Pophale) SiO2 
 PCOD8127689
Probable space group: P 21/C
;
_chemical_formula_sum "Si O2"
_cell_formula_units_Z 28
_cell_length_a 20.806434
_cell_length_b 13.371031
_cell_length_c 9.342128
_cell_angle_alpha 90.000000
_cell_angle_beta 28.664378
_cell_angle_gamma 90.000000
_cell_volume 1246.689268
_symmetry_space_group_name_H-M "P 21/C"
_symmetry_group_IT_number 14
_symmetry_cell_setting 'monoclinic'
loop_
_space_group_symop_operation_xyz
x,y,z
-x,1/2+y,1/2-z
-x,-y,-z
x,1/2-y,1/2+z
loop_
_atom_site_type_symbol
_atom_site_label
_atom_site_fract_x
_atom_site_fract_y
_atom_site_fract_z
Si Si1 0.402300 0.217159 0.615051
Si Si2 0.581245 0.615005 0.208853
Si Si3 0.696881 0.211333 0.047568
Si Si4 0.766037 0.429802 0.875200
Si Si5 0.185574 0.082255 0.185569
Si Si6 0.716512 0.057994 0.775391
Si Si7 0.897976 0.394377 0.337129
O O1 0.396544 0.202230 0.454315
O O2 0.392381 0.332585 0.688217
O O3 0.547369 0.172074 0.380947
O O4 0.278999 0.159944 0.924590
O O5 0.433628 0.567374 0.492346
O O6 0.680993 0.523769 0.985665
O O7 0.679606 0.327649 0.044608
O O8 0.755437 0.153507 0.795327
O O9 0.797274 0.194002 0.984550
O O10 0.889024 0.412766 0.525647
O O11 0.814364 0.447761 0.944983
O O12 0.049549 0.136606 0.503607
O O13 0.265452 0.041493 0.166939
O O14 0.147205 0.995022 0.152329
#
# Coordination Sequence:
#
# PCOD8127689 Si02
#       7
#     4   4   4   4   4   4   4
#     4  11  24  43  66 100 131 174 221 279 333 393
#     4  11  25  39  67 100 135 172 219 284 336 389
#     4  10  23  40  68  95 132 176 221 270 336 395
#     4  12  22  41  64 100 132 175 223 279 327 397
#     4  10  23  46  66  93 135 176 225 261 342 396
#     4  10  23  37  65 101 129 170 217 282 325 396
#     4  10  23  44  68  92 131 183 217 274 326 406
#
# _framework density 22.459485999999998
#
# number of rings (size 3 to 8) (size 9 to 14) (size 15 to 20)
#    0.000    1.429    2.857    1.286    6.000    2.286 
#    2.571    1.429    0.000    0.000    0.000    0.000 
#    0.000    0.000    0.000    0.000    0.000    0.000 
#
# Total GULP energy -347056.663233 kJ/mol
# GULP energy per Si atom -12394.880830 kJ/mol
# Density = 2.240837 g / cm^3
# Si number density = 22.459486 Si / 1000 Ang^3
#
#
#
# Elastic Constant Matrix: (Units=GPa)
#
#
# Indices 1 2 3 4 5 6 
#
# 1 55.1178 14.1735 38.1312 0.0000 12.6513 0.0000
# 2 14.1735 65.5167 21.1867 0.0000 -11.6458 0.0000
# 3 38.1312 21.1867 138.3036 0.0000 10.3325 0.0000
# 4 0.0000 0.0000 0.0000 26.1849 0.0000 6.1486
# 5 12.6513 -11.6458 10.3325 0.0000 34.8278 0.0000
# 6 0.0000 0.0000 0.0000 6.1486 0.0000 26.6959
#
#
#
# Elastic Compliance Matrix: (Units=1/GPa)
#
#
# Indices 1 2 3 4 5 6 
#
# 1 0.025508 -0.005420 -0.005497 0.000000 -0.009447 0.000000
# 2 -0.005420 0.018655 -0.002021 0.000000 0.008806 0.000000
# 3 -0.005497 -0.002021 0.009160 0.000000 -0.001397 0.000000
# 4 0.000000 0.000000 0.000000 0.040373 0.000000 -0.009299
# 5 -0.009447 0.008806 -0.001397 0.000000 0.035504 0.000000
# 6 0.000000 0.000000 0.000000 -0.009299 0.000000 0.039601
#
#
# Mechanical properties :
#
#
# Convention : Reuss Voigt Hill
#
# Bulk Modulus (GPa) = 36.43423 45.10231 40.76827
# Shear Modulus (GPa) = 24.53086 29.90484 27.21785
#
# Velocity S-wave (km/s) = 3.30847 3.65293 3.48496
# Velocity P-wave (km/s) = 5.55446 6.15769 5.86384
#
# Compressibility (1/GPa) = 0.02744671
#
# Stress axis : x y z
#
# Youngs Moduli (GPa) = 39.20366 53.60546 109.17149
#
# Poissons Ratio (x) = 0.29054 0.60007
# Poissons Ratio (y) = 0.21249 0.22067
# Poissons Ratio (z) = 0.21549 0.10835
#
# Static dielectric constant tensor:
#      x y z
#    x 4.088500 0.000000 0.285440 
#    y 0.000000 3.904120 0.000000 
#    z 0.285440 0.000000 4.146150 
# 
# 
# High freq. dielectric constant tensor:
#      x y z
#    x 1.875470 0.000000 0.025160 
#    y 0.000000 1.875940 0.000000 
#    z 0.025160 0.000000 1.884690 
# 
# From -- ./inp_files/19050.got.cif
#   From: 2010.03.12/outbox.cif.g09.slc.cpg/sg14_10_cif.got.tgz:19050.got - 2010.03.31 13:35:05.
