data_PCOD8127721
_publ_section_title
;
Structure prediction by ZEFSAII (Michael W. Deem and Ramdas Pophale) SiO2 
 PCOD8127721
Probable space group: P 21/C
;
_chemical_formula_sum "Si O2"
_cell_formula_units_Z 24
_cell_length_a 16.042776
_cell_length_b 9.371021
_cell_length_c 14.445764
_cell_angle_alpha 90.000000
_cell_angle_beta 34.145470
_cell_angle_gamma 90.000000
_cell_volume 1218.986423
_symmetry_space_group_name_H-M "P 21/C"
_symmetry_group_IT_number 14
_symmetry_cell_setting 'monoclinic'
loop_
_space_group_symop_operation_xyz
x,y,z
-x,1/2+y,1/2-z
-x,-y,-z
x,1/2-y,1/2+z
loop_
_atom_site_type_symbol
_atom_site_label
_atom_site_fract_x
_atom_site_fract_y
_atom_site_fract_z
Si Si1 0.264625 0.744872 0.114761
Si Si2 0.453392 0.860949 0.099520
Si Si3 0.568810 0.042840 0.675149
Si Si4 0.957885 0.003687 0.143356
Si Si5 0.722325 0.796023 0.433608
Si Si6 0.232161 0.009833 0.019016
O O1 0.330971 0.770592 0.156251
O O2 0.113937 0.654333 0.261469
O O3 0.225658 0.897193 0.107953
O O4 0.384739 0.665315 0.939812
O O5 0.391485 0.907001 0.257182
O O6 0.594516 0.758416 0.982295
O O7 0.500000 0.000000 0.000000
O O8 0.655790 0.896962 0.575091
O O9 0.394087 0.012918 0.822904
O O10 0.841081 0.877744 0.263590
O O11 0.106988 0.969513 0.061511
O O12 0.000000 0.000000 0.000000
O O13 0.804810 0.664599 0.406048
#
# Coordination Sequence:
#
# PCOD8127721 Si02
#       6
#     4   4   4   4   4   4
#     4  11  24  43  66  96 126 171 210 268 317 378
#     4  11  22  39  69 101 124 156 222 263 322 372
#     4  10  23  39  70  96 127 164 209 274 320 368
#     4  11  27  40  61  91 128 171 210 255 317 380
#     4  10  23  42  64  92 127 166 207 267 314 375
#     4  11  21  43  63  88 128 166 207 255 317 379
#
# _framework density 19.688488
#
# number of rings (size 3 to 8) (size 9 to 14) (size 15 to 20)
#    0.000    1.333    3.333    3.000    7.000    1.333 
#    0.000    0.833    0.000    0.000    0.000    0.000 
#    0.000    0.000    0.000    0.000    0.000    0.000 
#
# Total GULP energy -297667.497610 kJ/mol
# GULP energy per Si atom -12402.812400 kJ/mol
# Density = 1.964368 g / cm^3
# Si number density = 19.688488 Si / 1000 Ang^3
#
#
#
# Elastic Constant Matrix: (Units=GPa)
#
#
# Indices 1 2 3 4 5 6 
#
# 1 154.6583 46.5093 54.8588 0.0000 3.3238 0.0000
# 2 46.5093 135.8698 59.2906 0.0000 7.5771 0.0000
# 3 54.8588 59.2906 132.6077 0.0000 13.0862 0.0000
# 4 0.0000 0.0000 0.0000 18.4621 0.0000 2.6976
# 5 3.3238 7.5771 13.0862 0.0000 23.8447 0.0000
# 6 0.0000 0.0000 0.0000 2.6976 0.0000 34.4056
#
#
#
# Elastic Compliance Matrix: (Units=1/GPa)
#
#
# Indices 1 2 3 4 5 6 
#
# 1 0.007857 -0.001593 -0.002622 0.000000 0.000850 0.000000
# 2 -0.001593 0.009478 -0.003493 0.000000 -0.000873 0.000000
# 3 -0.002622 -0.003493 0.010617 0.000000 -0.004351 0.000000
# 4 0.000000 0.000000 0.000000 0.054793 0.000000 -0.004296
# 5 0.000850 -0.000873 -0.004351 0.000000 0.044485 0.000000
# 6 0.000000 0.000000 0.000000 -0.004296 0.000000 0.029402
#
#
# Mechanical properties :
#
#
# Convention : Reuss Voigt Hill
#
# Bulk Modulus (GPa) = 79.76593 82.71702 81.24148
# Shear Modulus (GPa) = 28.37289 32.84095 30.60692
#
# Velocity S-wave (km/s) = 3.80029 4.08858 3.94707
# Velocity P-wave (km/s) = 7.73681 8.02451 7.88197
#
# Compressibility (1/GPa) = 0.01253668
#
# Stress axis : x y z
#
# Youngs Moduli (GPa) = 127.28180 105.50779 94.19040
#
# Poissons Ratio (x) = 0.16803 0.24697
# Poissons Ratio (y) = 0.20271 0.32898
# Poissons Ratio (z) = 0.33374 0.36851
#
# Static dielectric constant tensor:
#      x y z
#    x 3.702790 0.000000 0.127120 
#    y 0.000000 3.909630 0.000000 
#    z 0.127120 0.000000 3.248020 
# 
# 
# High freq. dielectric constant tensor:
#      x y z
#    x 1.768830 0.000000 0.002370 
#    y 0.000000 1.788670 0.000000 
#    z 0.002370 0.000000 1.763170 
# 
# From -- ./inp_files/48501.got.cif
#   From: 2010.03.12/outbox.cif.g09.slc.cpg/sg14_25_cif.got.tgz:48501.got - 2010.03.31 13:35:05.
