data_PCOD8127488
_publ_section_title
;
Structure prediction by ZEFSAII (Michael W. Deem and Ramdas Pophale) SiO2 
 PCOD8127488
Probable space group: P 21/C
;
_chemical_formula_sum "Si O2"
_cell_formula_units_Z 16
_cell_length_a 17.148814
_cell_length_b 7.459648
_cell_length_c 13.994962
_cell_angle_alpha 90.000000
_cell_angle_beta 23.262741
_cell_angle_gamma 90.000000
_cell_volume 707.072983
_symmetry_space_group_name_H-M "P 21/C"
_symmetry_group_IT_number 14
_symmetry_cell_setting 'monoclinic'
loop_
_space_group_symop_operation_xyz
x,y,z
-x,1/2+y,1/2-z
-x,-y,-z
x,1/2-y,1/2+z
loop_
_atom_site_type_symbol
_atom_site_label
_atom_site_fract_x
_atom_site_fract_y
_atom_site_fract_z
Si Si1 0.868713 0.658753 0.187050
Si Si2 0.866170 0.192000 0.948933
Si Si3 0.533394 0.017582 0.850535
Si Si4 0.199063 0.292631 0.440137
O O1 0.678098 0.571811 0.456313
O O2 0.800005 0.782951 0.176105
O O3 0.986421 0.780985 0.128243
O O4 0.000000 0.500000 0.000000
O O5 0.990363 0.212614 0.711752
O O6 0.691001 0.332260 0.146836
O O7 0.770744 0.995710 0.060803
O O8 0.620529 0.825454 0.718167
O O9 0.500000 0.000000 0.000000
#
# Coordination Sequence:
#
# PCOD8127488 Si02
#       4
#     4   4   4   4
#     4  11  22  44  67  94 133 173 214 269 330 390
#     4  12  22  45  66  96 134 172 218 270 330 389
#     4  10  22  43  65  94 131 168 218 270 324 383
#     4  11  23  43  69  95 133 171 216 276 322 389
#
# _framework density 22.628498
#
# number of rings (size 3 to 8) (size 9 to 14) (size 15 to 20)
#    0.000    1.000    7.500    0.750    0.000    4.000 
#   13.500    0.000    0.000    0.000    0.000    0.000 
#    0.000    0.000    0.000    0.000    0.000    0.000 
#
# Total GULP energy -198395.556654 kJ/mol
# GULP energy per Si atom -12399.722291 kJ/mol
# Density = 2.257699 g / cm^3
# Si number density = 22.628498 Si / 1000 Ang^3
#
#
#
# Elastic Constant Matrix: (Units=GPa)
#
#
# Indices 1 2 3 4 5 6 
#
# 1 45.5035 20.1453 20.1004 0.0000 -2.5585 0.0000
# 2 20.1453 168.9652 58.2268 0.0000 -6.7527 0.0000
# 3 20.1004 58.2268 157.4304 0.0000 -6.1707 0.0000
# 4 0.0000 0.0000 0.0000 45.2067 0.0000 1.3732
# 5 -2.5585 -6.7527 -6.1707 0.0000 27.5677 0.0000
# 6 0.0000 0.0000 0.0000 1.3732 0.0000 23.4022
#
#
#
# Elastic Compliance Matrix: (Units=1/GPa)
#
#
# Indices 1 2 3 4 5 6 
#
# 1 0.023940 -0.002027 -0.002259 0.000000 0.001220 0.000000
# 2 -0.002027 0.006988 -0.002286 0.000000 0.001012 0.000000
# 3 -0.002259 -0.002286 0.007522 0.000000 0.000914 0.000000
# 4 0.000000 0.000000 0.000000 0.022160 0.000000 -0.001300
# 5 0.001220 0.001012 0.000914 0.000000 0.036840 0.000000
# 6 0.000000 0.000000 0.000000 -0.001300 0.000000 0.042807
#
#
# Mechanical properties :
#
#
# Convention : Reuss Voigt Hill
#
# Bulk Modulus (GPa) = 39.51686 63.20489 51.36088
# Shear Modulus (GPa) = 30.89510 37.46376 34.17943
#
# Velocity S-wave (km/s) = 3.69903 4.07332 3.89068
# Velocity P-wave (km/s) = 5.97871 7.07918 6.55209
#
# Compressibility (1/GPa) = 0.02530565
#
# Stress axis : x y z
#
# Youngs Moduli (GPa) = 41.77064 143.09528 132.94599
#
# Poissons Ratio (x) = 0.29007 0.30034
# Poissons Ratio (y) = 0.08467 0.30394
# Poissons Ratio (z) = 0.09436 0.32715
#
# Static dielectric constant tensor:
#      x y z
#    x 4.532090 0.000000 -0.266410 
#    y 0.000000 4.138350 0.000000 
#    z -0.266410 0.000000 5.146760 
# 
# 
# High freq. dielectric constant tensor:
#      x y z
#    x 1.874080 0.000000 0.008900 
#    y 0.000000 1.895650 0.000000 
#    z 0.008900 0.000000 1.909900 
# 
# From -- ./inp_files/48346.got.cif
#   From: 2010.03.12/outbox.cif.g09.slc.cpg/sg14_25_cif.got.tgz:48346.got - 2010.03.31 13:35:05.
