data_PCOD8127758
_publ_section_title
;
Structure prediction by ZEFSAII (Michael W. Deem and Ramdas Pophale) SiO2 
 PCOD8127758
Probable space group: P 21/C
;
_chemical_formula_sum "Si O2"
_cell_formula_units_Z 24
_cell_length_a 11.755680
_cell_length_b 19.054373
_cell_length_c 8.052130
_cell_angle_alpha 90.000000
_cell_angle_beta 142.908313
_cell_angle_gamma 90.000000
_cell_volume 1087.769685
_symmetry_space_group_name_H-M "P 21/C"
_symmetry_group_IT_number 14
_symmetry_cell_setting 'monoclinic'
loop_
_space_group_symop_operation_xyz
x,y,z
-x,1/2+y,1/2-z
-x,-y,-z
x,1/2-y,1/2+z
loop_
_atom_site_type_symbol
_atom_site_label
_atom_site_fract_x
_atom_site_fract_y
_atom_site_fract_z
Si Si1 0.723495 0.054012 0.892971
Si Si2 0.350474 0.669556 0.449049
Si Si3 0.936805 0.641902 0.338151
Si Si4 0.956580 0.768727 0.539749
Si Si5 0.369040 0.092558 0.293463
Si Si6 0.427381 0.210489 0.101772
O O1 0.651448 0.091342 0.976800
O O2 0.581704 0.069757 0.577259
O O3 0.733441 0.969840 0.930985
O O4 0.925147 0.082474 0.068447
O O5 0.133066 0.690329 0.168575
O O6 0.444578 0.667345 0.378637
O O7 0.457542 0.720821 0.704242
O O8 0.741840 0.604281 0.161585
O O9 0.012076 0.685176 0.589110
O O10 0.907011 0.702555 0.163757
O O11 0.766587 0.772148 0.212329
O O12 0.375740 0.164451 0.200685
#
# Coordination Sequence:
#
# PCOD8127758 Si02
#       6
#     4   4   4   4   4   4
#     4  10  23  41  60  83 119 160 199 242 295 356
#     4  11  23  40  60  91 121 153 199 248 299 351
#     4  11  21  38  59  86 118 151 196 247 296 349
#     4  11  22  36  62  90 116 152 197 250 298 346
#     4  11  23  39  60  86 117 160 199 239 299 356
#     4  12  23  38  63  90 120 154 198 250 297 351
#
# _framework density 22.063496000000001
#
# number of rings (size 3 to 8) (size 9 to 14) (size 15 to 20)
#    0.000    1.000    0.000    9.500    0.000    2.000 
#    0.000    3.333    0.000    0.000    0.000    0.000 
#    0.000    0.000    0.000    0.000    0.000    0.000 
#
# Total GULP energy -297464.932187 kJ/mol
# GULP energy per Si atom -12394.372174 kJ/mol
# Density = 2.201328 g / cm^3
# Si number density = 22.063496 Si / 1000 Ang^3
#
#
#
# Elastic Constant Matrix: (Units=GPa)
#
#
# Indices 1 2 3 4 5 6 
#
# 1 128.7027 -2.1841 27.8491 0.0000 17.0809 0.0000
# 2 -2.1841 56.5747 4.9225 0.0000 9.6263 0.0000
# 3 27.8491 4.9225 42.9937 0.0000 7.2536 0.0000
# 4 0.0000 0.0000 0.0000 18.7359 0.0000 -2.2434
# 5 17.0809 9.6263 7.2536 0.0000 19.8816 0.0000
# 6 0.0000 0.0000 0.0000 -2.2434 0.0000 33.1566
#
#
#
# Elastic Compliance Matrix: (Units=1/GPa)
#
#
# Indices 1 2 3 4 5 6 
#
# 1 0.009998 0.002161 -0.005432 0.000000 -0.007654 0.000000
# 2 0.002161 0.019748 -0.001848 0.000000 -0.010744 0.000000
# 3 -0.005432 -0.001848 0.027760 0.000000 -0.004566 0.000000
# 4 0.000000 0.000000 0.000000 0.053809 0.000000 0.003641
# 5 -0.007654 -0.010744 -0.004566 0.000000 0.063741 0.000000
# 6 0.000000 0.000000 0.000000 0.003641 0.000000 0.030406
#
#
# Mechanical properties :
#
#
# Convention : Reuss Voigt Hill
#
# Bulk Modulus (GPa) = 21.15639 32.16066 26.65852
# Shear Modulus (GPa) = 21.60230 27.53373 24.56802
#
# Velocity S-wave (km/s) = 3.13245 3.53644 3.34056
# Velocity P-wave (km/s) = 4.76368 5.59314 5.19499
#
# Compressibility (1/GPa) = 0.04726705
#
# Stress axis : x y z
#
# Youngs Moduli (GPa) = 100.02284 50.63779 36.02325
#
# Poissons Ratio (x) = -0.10942 0.19568
# Poissons Ratio (y) = -0.21614 0.06657
# Poissons Ratio (z) = 0.54334 0.09358
#
# Static dielectric constant tensor:
#      x y z
#    x 4.478110 0.000000 0.102250 
#    y 0.000000 4.147640 0.000000 
#    z 0.102250 0.000000 3.975150 
# 
# 
# High freq. dielectric constant tensor:
#      x y z
#    x 1.887460 0.000000 0.022030 
#    y 0.000000 1.860350 0.000000 
#    z 0.022030 0.000000 1.856930 
# 
# From -- ./inp_files/14096.got.cif
#   From: 2010.03.12/outbox.cif.g09.slc.cpg/sg14_8_cif.got.tgz:14096.got - 2010.03.31 13:35:05.
