data_PCOD8127386
_publ_section_title
;
Structure prediction by ZEFSAII (Michael W. Deem and Ramdas Pophale) SiO2 
 PCOD8127386
Probable space group: P 21/C
;
_chemical_formula_sum "Si O2"
_cell_formula_units_Z 32
_cell_length_a 11.462160
_cell_length_b 11.751385
_cell_length_c 20.401927
_cell_angle_alpha 90.000000
_cell_angle_beta 148.208265
_cell_angle_gamma 90.000000
_cell_volume 1447.770888
_symmetry_space_group_name_H-M "P 21/C"
_symmetry_group_IT_number 14
_symmetry_cell_setting 'monoclinic'
loop_
_space_group_symop_operation_xyz
x,y,z
-x,1/2+y,1/2-z
-x,-y,-z
x,1/2-y,1/2+z
loop_
_atom_site_type_symbol
_atom_site_label
_atom_site_fract_x
_atom_site_fract_y
_atom_site_fract_z
Si Si1 0.526494 0.328789 0.096718
Si Si2 0.688986 0.536439 0.392098
Si Si3 0.147913 0.675071 0.859288
Si Si4 0.765636 0.126622 0.360723
Si Si5 0.148880 0.865869 0.130859
Si Si6 0.659188 0.102011 0.999296
Si Si7 0.718754 0.635531 0.585869
Si Si8 0.855226 0.508226 0.034263
O O1 0.631259 0.360708 0.075729
O O2 0.728548 0.328791 0.244274
O O3 0.413987 0.204087 0.034432
O O4 0.341893 0.415995 0.031817
O O5 0.483009 0.620770 0.285928
O O6 0.751478 0.481652 0.351789
O O7 0.629576 0.428190 0.408966
O O8 0.888624 0.610628 0.518855
O O9 0.176784 0.792083 0.912998
O O10 0.077314 0.578399 0.876625
O O11 0.949922 0.695800 0.713137
O O12 0.826750 0.257424 0.405860
O O13 0.771782 0.056017 0.430076
O O14 0.931008 0.081410 0.383282
O O15 0.765279 0.992937 0.085785
O O16 0.420688 0.133266 0.913774
#
# Coordination Sequence:
#
# PCOD8127386 Si02
#       8
#     4   4   4   4   4   4   4   4
#     4  11  24  43  66 100 135 175 225 282 338 403
#     4  11  23  45  67  98 135 179 229 280 341 408
#     4  11  24  42  68  96 136 175 220 283 337 402
#     4  11  25  43  73  96 139 179 222 288 333 416
#     4  11  25  42  68 101 132 180 228 279 340 405
#     4  10  22  42  64  96 129 172 228 275 333 400
#     4  10  23  41  68  97 130 179 225 275 340 407
#     4  11  25  44  64 105 133 177 225 273 349 398
#
# _framework density 22.102944000000001
#
# number of rings (size 3 to 8) (size 9 to 14) (size 15 to 20)
#    0.000    1.250    1.250    3.375    7.000    1.000 
#    4.500    3.750    0.000    0.000    0.000    0.000 
#    0.000    0.000    0.000    0.000    0.000    0.000 
#
# Total GULP energy -396840.026187 kJ/mol
# GULP energy per Si atom -12401.250818 kJ/mol
# Density = 2.205264 g / cm^3
# Si number density = 22.102944 Si / 1000 Ang^3
#
#
#
# Elastic Constant Matrix: (Units=GPa)
#
#
# Indices 1 2 3 4 5 6 
#
# 1 92.9586 31.5148 40.8283 0.0000 7.1475 0.0000
# 2 31.5148 109.6549 40.3523 0.0000 11.6244 0.0000
# 3 40.8283 40.3523 121.3220 0.0000 15.6535 0.0000
# 4 0.0000 0.0000 0.0000 30.2474 0.0000 -7.8201
# 5 7.1475 11.6244 15.6535 0.0000 29.8214 0.0000
# 6 0.0000 0.0000 0.0000 -7.8201 0.0000 31.5975
#
#
#
# Elastic Compliance Matrix: (Units=1/GPa)
#
#
# Indices 1 2 3 4 5 6 
#
# 1 0.013182 -0.002435 -0.003584 0.000000 -0.000329 0.000000
# 2 -0.002435 0.011004 -0.002534 0.000000 -0.002376 0.000000
# 3 -0.003584 -0.002534 0.010783 0.000000 -0.003814 0.000000
# 4 0.000000 0.000000 0.000000 0.035321 0.000000 0.008742
# 5 -0.000329 -0.002376 -0.003814 0.000000 0.036540 0.000000
# 6 0.000000 0.000000 0.000000 0.008742 0.000000 0.033812
#
#
# Mechanical properties :
#
#
# Convention : Reuss Voigt Hill
#
# Bulk Modulus (GPa) = 55.97858 61.03625 58.50742
# Shear Modulus (GPa) = 30.54340 32.41593 31.47966
#
# Velocity S-wave (km/s) = 3.72138 3.83376 3.77799
# Velocity P-wave (km/s) = 6.62165 6.87542 6.74973
#
# Compressibility (1/GPa) = 0.01786398
#
# Stress axis : x y z
#
# Youngs Moduli (GPa) = 75.85905 90.87936 92.73447
#
# Poissons Ratio (x) = 0.22128 0.33235
# Poissons Ratio (y) = 0.18471 0.23498
# Poissons Ratio (z) = 0.27187 0.23028
#
# Static dielectric constant tensor:
#      x y z
#    x 4.102290 0.000000 0.078770 
#    y 0.000000 3.931320 0.000000 
#    z 0.078770 0.000000 3.815660 
# 
# 
# High freq. dielectric constant tensor:
#      x y z
#    x 1.885550 0.000000 0.005550 
#    y 0.000000 1.869650 0.000000 
#    z 0.005550 0.000000 1.864390 
# 
# From -- ./inp_files/67428.got.cif
#   From: 2010.03.12/outbox.cif.g09.slc.cpg/sg14_34_cif.got.tgz:67428.got - 2010.03.31 13:35:05.
