data_PCOD8127299
_publ_section_title
;
Structure prediction by ZEFSAII (Michael W. Deem and Ramdas Pophale) SiO2 
 PCOD8127299
Probable space group: P 21/C
;
_chemical_formula_sum "Si O2"
_cell_formula_units_Z 32
_cell_length_a 15.766864
_cell_length_b 14.300545
_cell_length_c 21.755277
_cell_angle_alpha 90.000000
_cell_angle_beta 18.383415
_cell_angle_gamma 90.000000
_cell_volume 1546.994997
_symmetry_space_group_name_H-M "P 21/C"
_symmetry_group_IT_number 14
_symmetry_cell_setting 'monoclinic'
loop_
_space_group_symop_operation_xyz
x,y,z
-x,1/2+y,1/2-z
-x,-y,-z
x,1/2-y,1/2+z
loop_
_atom_site_type_symbol
_atom_site_label
_atom_site_fract_x
_atom_site_fract_y
_atom_site_fract_z
Si Si1 0.652907 0.169440 0.598227
Si Si2 0.998487 0.598815 0.034365
Si Si3 0.089437 0.263291 0.012676
Si Si4 0.671665 0.474465 0.977463
Si Si5 0.347258 0.621095 0.132881
Si Si6 0.558695 0.899403 0.934531
Si Si7 0.158094 0.244978 0.700047
Si Si8 0.028376 0.141802 0.674267
O O1 0.595482 0.102144 0.580121
O O2 0.759706 0.109320 0.582910
O O3 0.866618 0.252965 0.434658
O O4 0.368684 0.212814 0.809727
O O5 0.713171 0.602477 0.264277
O O6 0.019418 0.685007 0.972856
O O7 0.000000 0.500000 0.000000
O O8 0.145298 0.342505 0.025869
O O9 0.862348 0.190947 0.191436
O O10 0.780727 0.423915 0.840589
O O11 0.905457 0.539265 0.845396
O O12 0.415793 0.539585 0.135399
O O13 0.629134 0.670787 0.917753
O O14 0.729074 0.849650 0.871003
O O15 0.288977 0.842501 0.108646
O O16 0.500000 0.000000 0.000000
O O17 0.138954 0.224117 0.641262
#
# Coordination Sequence:
#
# PCOD8127299 Si02
#       8
#     4   4   4   4   4   4   4   4
#     4  11  25  40  66  95 135 174 217 269 337 397
#     4  11  26  43  61  99 140 170 213 276 337 395
#     4  12  25  41  67 100 135 179 214 278 339 402
#     4  10  23  44  64  99 128 176 223 280 319 399
#     4  10  23  43  72  92 134 172 230 275 329 390
#     4  11  22  40  67  94 125 174 216 271 316 386
#     4  10  22  41  65  94 126 170 223 271 317 396
#     4  11  22  40  68  95 128 171 224 269 321 396
#
# _framework density 20.685265000000001
#
# number of rings (size 3 to 8) (size 9 to 14) (size 15 to 20)
#    0.000    1.250    1.250    4.500    7.000    1.500 
#    0.000    5.000    0.000    0.000    0.000    0.000 
#    0.000    0.000    0.000    0.000    0.000    0.000 
#
# Total GULP energy -396734.972073 kJ/mol
# GULP energy per Si atom -12397.967877 kJ/mol
# Density = 2.063818 g / cm^3
# Si number density = 20.685265 Si / 1000 Ang^3
#
#
#
# Elastic Constant Matrix: (Units=GPa)
#
#
# Indices 1 2 3 4 5 6 
#
# 1 134.3274 57.0894 52.7811 0.0000 11.4590 0.0000
# 2 57.0894 108.9347 63.6910 0.0000 11.9158 0.0000
# 3 52.7811 63.6910 133.8108 0.0000 6.1485 0.0000
# 4 0.0000 0.0000 0.0000 31.3895 0.0000 6.7322
# 5 11.4590 11.9158 6.1485 0.0000 24.0008 0.0000
# 6 0.0000 0.0000 0.0000 6.7322 0.0000 56.0695
#
#
#
# Elastic Compliance Matrix: (Units=1/GPa)
#
#
# Indices 1 2 3 4 5 6 
#
# 1 0.010077 -0.003824 -0.002045 0.000000 -0.002389 0.000000
# 2 -0.003824 0.014747 -0.005321 0.000000 -0.004133 0.000000
# 3 -0.002045 -0.005321 0.010773 0.000000 0.000858 0.000000
# 4 0.000000 0.000000 0.000000 0.032700 0.000000 -0.003926
# 5 -0.002389 -0.004133 0.000858 0.000000 0.044638 0.000000
# 6 0.000000 0.000000 0.000000 -0.003926 0.000000 0.018306
#
#
# Mechanical properties :
#
#
# Convention : Reuss Voigt Hill
#
# Bulk Modulus (GPa) = 75.65949 80.46622 78.06286
# Shear Modulus (GPa) = 31.64021 35.85938 33.74980
#
# Velocity S-wave (km/s) = 3.91525 4.16813 4.04367
# Velocity P-wave (km/s) = 7.55612 7.88347 7.72153
#
# Compressibility (1/GPa) = 0.01321711
#
# Stress axis : x y z
#
# Youngs Moduli (GPa) = 99.23539 67.81039 92.82449
#
# Poissons Ratio (x) = 0.25932 0.18981
# Poissons Ratio (y) = 0.37950 0.49391
# Poissons Ratio (z) = 0.20292 0.36081
#
# Static dielectric constant tensor:
#      x y z
#    x 4.134140 0.000000 -0.267490 
#    y 0.000000 3.878580 0.000000 
#    z -0.267490 0.000000 3.972180 
# 
# 
# High freq. dielectric constant tensor:
#      x y z
#    x 1.826020 0.000000 -0.009190 
#    y 0.000000 1.819400 0.000000 
#    z -0.009190 0.000000 1.797050 
# 
# From -- ./inp_files/68711.got.cif
#   From: 2010.03.12/outbox.cif.g09.slc.cpg/sg14_35_cif.got.tgz:68711.got - 2010.03.31 13:35:05.
