data_PCOD8127644
_publ_section_title
;
Structure prediction by ZEFSAII (Michael W. Deem and Ramdas Pophale) SiO2 
 PCOD8127644
Probable space group: P 21/C
;
_chemical_formula_sum "Si O2"
_cell_formula_units_Z 32
_cell_length_a 17.670636
_cell_length_b 11.747997
_cell_length_c 14.280466
_cell_angle_alpha 90.000000
_cell_angle_beta 151.275102
_cell_angle_gamma 90.000000
_cell_volume 1424.775133
_symmetry_space_group_name_H-M "P 21/C"
_symmetry_group_IT_number 14
_symmetry_cell_setting 'monoclinic'
loop_
_space_group_symop_operation_xyz
x,y,z
-x,1/2+y,1/2-z
-x,-y,-z
x,1/2-y,1/2+z
loop_
_atom_site_type_symbol
_atom_site_label
_atom_site_fract_x
_atom_site_fract_y
_atom_site_fract_z
Si Si1 0.190212 0.728264 0.153271
Si Si2 0.925352 0.499066 0.022596
Si Si3 0.365344 0.858918 0.191945
Si Si4 0.384524 0.012168 0.462546
Si Si5 0.125014 0.454548 0.417422
Si Si6 0.911757 0.883879 0.802097
Si Si7 0.400507 0.736051 0.049368
Si Si8 0.765402 0.703713 0.951991
O O1 0.193493 0.607669 0.104333
O O2 0.302606 0.815797 0.222879
O O3 0.271036 0.706966 0.341038
O O4 0.014877 0.785410 0.964858
O O5 0.833169 0.614869 0.948585
O O6 0.000000 0.500000 0.000000
O O7 0.057818 0.469166 0.240881
O O8 0.549685 0.885073 0.401681
O O9 0.333664 0.765319 0.079127
O O10 0.290722 0.981627 0.090149
O O11 0.387469 0.898396 0.526071
O O12 0.500000 0.000000 0.500000
O O13 0.206132 0.056120 0.249333
O O14 0.150855 0.324409 0.475199
O O15 0.017045 0.513339 0.378165
O O16 0.811299 0.833801 0.606445
O O17 0.577328 0.785297 0.229831
#
# Coordination Sequence:
#
# PCOD8127644 Si02
#       8
#     4   4   4   4   4   4   4   4
#     4  11  25  47  69 109 142 185 245 299 364 438
#     4  11  25  44  68 104 145 181 242 304 359 431
#     4  11  24  45  70 103 148 181 240 305 355 432
#     4  12  25  46  69 107 144 190 250 299 361 438
#     4  10  22  45  72 100 136 191 241 289 360 440
#     4  10  24  44  74 101 141 189 239 301 359 426
#     4  12  26  43  76 106 143 199 237 308 378 428
#     4  11  23  45  71 102 142 195 236 289 373 438
#
# _framework density 22.459685
#
# number of rings (size 3 to 8) (size 9 to 14) (size 15 to 20)
#    0.000    1.000    5.000    0.750    3.500    3.000 
#    2.250    0.000    0.000    0.000    0.000    0.000 
#    0.000    0.000    0.000    0.000    0.000    0.000 
#
# Total GULP energy -396587.942302 kJ/mol
# GULP energy per Si atom -12393.373197 kJ/mol
# Density = 2.240857 g / cm^3
# Si number density = 22.459685 Si / 1000 Ang^3
#
#
#
# Elastic Constant Matrix: (Units=GPa)
#
#
# Indices 1 2 3 4 5 6 
#
# 1 78.1983 30.4782 38.4288 0.0000 9.6302 0.0000
# 2 30.4782 134.1834 36.7864 0.0000 14.3248 0.0000
# 3 38.4288 36.7864 127.2187 0.0000 8.9267 0.0000
# 4 0.0000 0.0000 0.0000 27.0555 0.0000 -5.6867
# 5 9.6302 14.3248 8.9267 0.0000 33.5668 0.0000
# 6 0.0000 0.0000 0.0000 -5.6867 0.0000 27.6891
#
#
#
# Elastic Compliance Matrix: (Units=1/GPa)
#
#
# Indices 1 2 3 4 5 6 
#
# 1 0.015939 -0.002256 -0.003983 0.000000 -0.002551 0.000000
# 2 -0.002256 0.008697 -0.001649 0.000000 -0.002626 0.000000
# 3 -0.003983 -0.001649 0.009590 0.000000 -0.000704 0.000000
# 4 0.000000 0.000000 0.000000 0.038629 0.000000 0.007933
# 5 -0.002551 -0.002626 -0.000704 0.000000 0.031831 0.000000
# 6 0.000000 0.000000 0.000000 0.007933 0.000000 0.037745
#
#
# Mechanical properties :
#
#
# Convention : Reuss Voigt Hill
#
# Bulk Modulus (GPa) = 54.20290 61.22081 57.71185
# Shear Modulus (GPa) = 30.42155 33.25608 31.83882
#
# Velocity S-wave (km/s) = 3.68434 3.85216 3.76919
# Velocity P-wave (km/s) = 6.50269 6.86315 6.68535
#
# Compressibility (1/GPa) = 0.01844920
#
# Stress axis : x y z
#
# Youngs Moduli (GPa) = 62.73946 114.97746 104.27551
#
# Poissons Ratio (x) = 0.25939 0.41536
# Poissons Ratio (y) = 0.14154 0.17197
# Poissons Ratio (z) = 0.24991 0.18962
#
# Static dielectric constant tensor:
#      x y z
#    x 3.894590 0.000000 -0.064140 
#    y 0.000000 4.343290 0.000000 
#    z -0.064140 0.000000 4.417500 
# 
# 
# High freq. dielectric constant tensor:
#      x y z
#    x 1.875820 0.000000 -0.002340 
#    y 0.000000 1.896870 0.000000 
#    z -0.002340 0.000000 1.903820 
# 
# From -- ./inp_files/48933.got.cif
#   From: 2010.03.12/outbox.cif.g09.slc.cpg/sg14_25_cif.got.tgz:48933.got - 2010.03.31 13:35:05.
