data_PCOD8127675
_publ_section_title
;
Structure prediction by ZEFSAII (Michael W. Deem and Ramdas Pophale) SiO2 
 PCOD8127675
Probable space group: P 21/C
;
_chemical_formula_sum "Si O2"
_cell_formula_units_Z 32
_cell_length_a 16.516926
_cell_length_b 11.178396
_cell_length_c 14.929302
_cell_angle_alpha 90.000000
_cell_angle_beta 29.194695
_cell_angle_gamma 90.000000
_cell_volume 1344.532077
_symmetry_space_group_name_H-M "P 21/C"
_symmetry_group_IT_number 14
_symmetry_cell_setting 'monoclinic'
loop_
_space_group_symop_operation_xyz
x,y,z
-x,1/2+y,1/2-z
-x,-y,-z
x,1/2-y,1/2+z
loop_
_atom_site_type_symbol
_atom_site_label
_atom_site_fract_x
_atom_site_fract_y
_atom_site_fract_z
Si Si1 0.492334 0.880197 0.561210
Si Si2 0.336829 0.850777 0.183168
Si Si3 0.013008 0.383885 0.583433
Si Si4 0.138902 0.367293 0.273126
Si Si5 0.017063 0.661204 0.759988
Si Si6 0.327984 0.058470 0.058079
Si Si7 0.030791 0.948672 0.566213
Si Si8 0.299518 0.522360 0.402245
O O1 0.356429 0.791479 0.645947
O O2 0.674520 0.822278 0.390651
O O3 0.441316 0.909511 0.711855
O O4 0.500000 0.000000 0.500000
O O5 0.197606 0.868157 0.395944
O O6 0.296937 0.925287 0.131953
O O7 0.523358 0.879765 0.034696
O O8 0.028940 0.330039 0.466966
O O9 0.964707 0.278651 0.697272
O O10 0.189215 0.441970 0.441833
O O11 0.873547 0.487336 0.722476
O O12 0.081295 0.307716 0.235825
O O13 0.931343 0.552127 0.897449
O O14 0.197860 0.621601 0.554768
O O15 0.143347 0.122340 0.242729
O O16 0.381437 0.056266 0.902246
O O17 0.000000 0.000000 0.500000
#
# Coordination Sequence:
#
# PCOD8127675 Si02
#       8
#     4   4   4   4   4   4   4   4
#     4  12  26  46  64  97 142 192 230 282 359 438
#     4  10  23  43  68 102 137 180 230 297 355 416
#     4  10  22  47  71  97 141 184 232 300 351 438
#     4  10  24  44  67 101 139 184 237 289 359 443
#     4  10  23  44  72 104 133 184 243 292 366 425
#     4   9  21  44  68 101 137 174 232 297 356 413
#     4   9  20  42  67 105 135 171 228 295 357 419
#     4  10  23  45  63  99 136 175 239 284 344 435
#
# _framework density 23.800101999999999
#
# number of rings (size 3 to 8) (size 9 to 14) (size 15 to 20)
#    0.000    2.000    1.250    0.000    3.500    9.000 
#    9.000    0.000    0.000    0.000    0.000    0.000 
#    0.000    0.000    0.000    0.000    0.000    0.000 
#
# Total GULP energy -396555.725669 kJ/mol
# GULP energy per Si atom -12392.366427 kJ/mol
# Density = 2.374593 g / cm^3
# Si number density = 23.800102 Si / 1000 Ang^3
#
#
#
# Elastic Constant Matrix: (Units=GPa)
#
#
# Indices 1 2 3 4 5 6 
#
# 1 100.5020 19.1654 35.9978 0.0000 24.3004 0.0000
# 2 19.1654 73.6136 53.1994 0.0000 5.5190 0.0000
# 3 35.9978 53.1994 121.9897 0.0000 14.2229 0.0000
# 4 0.0000 0.0000 0.0000 33.7234 0.0000 5.6348
# 5 24.3004 5.5190 14.2229 0.0000 42.4686 0.0000
# 6 0.0000 0.0000 0.0000 5.6348 0.0000 40.9650
#
#
#
# Elastic Compliance Matrix: (Units=1/GPa)
#
#
# Indices 1 2 3 4 5 6 
#
# 1 0.012549 -0.000947 -0.002567 0.000000 -0.006197 0.000000
# 2 -0.000947 0.019912 -0.008497 0.000000 0.000800 0.000000
# 3 -0.002567 -0.008497 0.012863 0.000000 -0.001734 0.000000
# 4 0.000000 0.000000 0.000000 0.030351 0.000000 -0.004175
# 5 -0.006197 0.000800 -0.001734 0.000000 0.027570 0.000000
# 6 0.000000 0.000000 0.000000 -0.004175 0.000000 0.024985
#
#
# Mechanical properties :
#
#
# Convention : Reuss Voigt Hill
#
# Bulk Modulus (GPa) = 46.94835 56.98117 51.96476
# Shear Modulus (GPa) = 31.37690 35.94760 33.66225
#
# Velocity S-wave (km/s) = 3.63485 3.89060 3.76490
# Velocity P-wave (km/s) = 6.11434 6.64649 6.38596
#
# Compressibility (1/GPa) = 0.02130000
#
# Stress axis : x y z
#
# Youngs Moduli (GPa) = 79.68933 50.22110 77.74268
#
# Poissons Ratio (x) = 0.04756 0.19960
# Poissons Ratio (y) = 0.07546 0.66061
# Poissons Ratio (z) = 0.20460 0.42675
#
# Static dielectric constant tensor:
#      x y z
#    x 4.443920 0.000000 -0.630800 
#    y 0.000000 4.406500 0.000000 
#    z -0.630800 0.000000 4.624220 
# 
# 
# High freq. dielectric constant tensor:
#      x y z
#    x 1.948790 0.000000 0.005290 
#    y 0.000000 1.944150 0.000000 
#    z 0.005290 0.000000 1.943230 
# 
# From -- ./inp_files/48993.got.cif
#   From: 2010.03.12/outbox.cif.g09.slc.cpg/sg14_25_cif.got.tgz:48993.got - 2010.03.31 13:35:05.
