data_PCOD8127469
_publ_section_title
;
Structure prediction by ZEFSAII (Michael W. Deem and Ramdas Pophale) SiO2 
 PCOD8127469
Probable space group: P 21/C
;
_chemical_formula_sum "Si O2"
_cell_formula_units_Z 20
_cell_length_a 14.502310
_cell_length_b 8.737857
_cell_length_c 19.409780
_cell_angle_alpha 90.000000
_cell_angle_beta 159.291114
_cell_angle_gamma 90.000000
_cell_volume 869.760036
_symmetry_space_group_name_H-M "P 21/C"
_symmetry_group_IT_number 14
_symmetry_cell_setting 'monoclinic'
loop_
_space_group_symop_operation_xyz
x,y,z
-x,1/2+y,1/2-z
-x,-y,-z
x,1/2-y,1/2+z
loop_
_atom_site_type_symbol
_atom_site_label
_atom_site_fract_x
_atom_site_fract_y
_atom_site_fract_z
Si Si1 0.733235 0.372835 0.930152
Si Si2 0.666624 0.043832 0.926997
Si Si3 0.502558 0.248029 0.020971
Si Si4 0.245968 0.472256 0.241112
Si Si5 0.801619 0.028206 0.632229
O O1 0.763518 0.190461 0.952257
O O2 0.441326 0.417611 0.702192
O O3 0.795768 0.447959 0.046997
O O4 0.935166 0.441328 0.013147
O O5 0.430134 0.096527 0.810846
O O6 0.899938 0.973539 0.134433
O O7 0.663901 0.331088 0.073859
O O8 0.697855 0.152981 0.207256
O O9 0.300689 0.126638 0.848510
O O10 0.342506 0.368851 0.954157
#
# Coordination Sequence:
#
# PCOD8127469 Si02
#       5
#     4   4   4   4   4
#     4  12  28  46  71 104 139 184 232 282 346 411
#     4  12  28  46  71 104 139 184 232 282 346 411
#     4  10  22  42  74 105 133 185 229 286 339 407
#     4  11  23  44  69 101 142 175 235 283 340 412
#     4  11  24  47  72 100 144 181 232 281 346 406
#
# _framework density 22.994848000000001
#
# number of rings (size 3 to 8) (size 9 to 14) (size 15 to 20)
#    0.000    0.800    4.000    3.000    5.600    0.000 
#    0.000    5.000    0.000    0.000    0.000    0.000 
#    0.000    0.000    0.000    0.000    0.000    0.000 
#
# Total GULP energy -248101.043016 kJ/mol
# GULP energy per Si atom -12405.052151 kJ/mol
# Density = 2.294251 g / cm^3
# Si number density = 22.994848 Si / 1000 Ang^3
#
#
#
# Elastic Constant Matrix: (Units=GPa)
#
#
# Indices 1 2 3 4 5 6 
#
# 1 68.7822 3.7437 21.4597 0.0000 17.6376 0.0000
# 2 3.7437 88.1774 20.7234 0.0000 1.3796 0.0000
# 3 21.4597 20.7234 122.7173 0.0000 -0.8869 0.0000
# 4 0.0000 0.0000 0.0000 30.3179 0.0000 -3.9045
# 5 17.6376 1.3796 -0.8869 0.0000 37.3990 0.0000
# 6 0.0000 0.0000 0.0000 -3.9045 0.0000 23.0589
#
#
#
# Elastic Compliance Matrix: (Units=1/GPa)
#
#
# Indices 1 2 3 4 5 6 
#
# 1 0.017681 0.000127 -0.003174 0.000000 -0.008418 0.000000
# 2 0.000127 0.011819 -0.002022 0.000000 -0.000544 0.000000
# 3 -0.003174 -0.002022 0.009058 0.000000 0.001786 0.000000
# 4 0.000000 0.000000 0.000000 0.033719 0.000000 0.005709
# 5 -0.008418 -0.000544 0.001786 0.000000 0.030771 0.000000
# 6 0.000000 0.000000 0.000000 0.005709 0.000000 0.044334
#
#
# Mechanical properties :
#
#
# Convention : Reuss Voigt Hill
#
# Bulk Modulus (GPa) = 35.18673 41.28115 38.23394
# Shear Modulus (GPa) = 29.94122 33.73851 31.83986
#
# Velocity S-wave (km/s) = 3.61235 3.83459 3.72513
# Velocity P-wave (km/s) = 5.72137 6.13162 5.93004
#
# Compressibility (1/GPa) = 0.02841980
#
# Stress axis : x y z
#
# Youngs Moduli (GPa) = 56.55875 84.60872 110.39662
#
# Poissons Ratio (x) = -0.01075 0.35041
# Poissons Ratio (y) = -0.00719 0.22323
# Poissons Ratio (z) = 0.17953 0.17108
#
# Static dielectric constant tensor:
#      x y z
#    x 3.971990 0.000000 0.039150 
#    y 0.000000 4.137360 0.000000 
#    z 0.039150 0.000000 4.329810 
# 
# 
# High freq. dielectric constant tensor:
#      x y z
#    x 1.910870 0.000000 0.001940 
#    y 0.000000 1.911960 0.000000 
#    z 0.001940 0.000000 1.919320 
# 
# From -- ./inp_files/23031.got.cif
#   From: 2010.03.12/outbox.cif.g09.slc.cpg/sg14_12_cif.got.tgz:23031.got - 2010.03.31 13:35:05.
