data_PCOD8127880
_publ_section_title
;
Structure prediction by ZEFSAII (Michael W. Deem and Ramdas Pophale) SiO2 
 PCOD8127880
Probable space group: P 21/C
;
_chemical_formula_sum "Si O2"
_cell_formula_units_Z 16
_cell_length_a 9.143582
_cell_length_b 6.602907
_cell_length_c 25.906514
_cell_angle_alpha 90.000000
_cell_angle_beta 27.548491
_cell_angle_gamma 90.000000
_cell_volume 723.388268
_symmetry_space_group_name_H-M "P 21/C"
_symmetry_group_IT_number 14
_symmetry_cell_setting 'monoclinic'
loop_
_space_group_symop_operation_xyz
x,y,z
-x,1/2+y,1/2-z
-x,-y,-z
x,1/2-y,1/2+z
loop_
_atom_site_type_symbol
_atom_site_label
_atom_site_fract_x
_atom_site_fract_y
_atom_site_fract_z
Si Si1 0.985279 0.609111 0.342365
Si Si2 0.627251 0.168065 0.028965
Si Si3 0.892144 0.994384 0.640707
Si Si4 0.529413 0.306456 0.169768
O O1 0.730763 0.632732 0.376617
O O2 0.836347 0.516401 0.441505
O O3 0.110249 0.831239 0.315882
O O4 0.265756 0.467850 0.233051
O O5 0.645551 0.172377 0.085240
O O6 0.769163 0.381435 0.964072
O O7 0.822543 0.078160 0.604929
O O8 0.611281 0.840710 0.742568
#
# Coordination Sequence:
#
# PCOD8127880 Si02
#       4
#     4   4   4   4
#     4  10  23  43  61  95 128 157 215 255 302 379
#     4  10  24  41  65  92 123 167 207 256 314 362
#     4  11  22  42  62  92 131 161 210 257 301 374
#     4  11  23  40  65  95 125 168 206 254 311 365
#
# _framework density 22.118136
#
# number of rings (size 3 to 8) (size 9 to 14) (size 15 to 20)
#    0.000    1.500    2.500    1.500    3.500    3.000 
#    0.000    0.000    0.000    0.000    0.000    0.000 
#    0.000    0.000    0.000    0.000    0.000    0.000 
#
# Total GULP energy -198447.194721 kJ/mol
# GULP energy per Si atom -12402.949670 kJ/mol
# Density = 2.206779 g / cm^3
# Si number density = 22.118136 Si / 1000 Ang^3
#
#
#
# Elastic Constant Matrix: (Units=GPa)
#
#
# Indices 1 2 3 4 5 6 
#
# 1 56.0799 18.9426 -4.4357 0.0000 10.8848 0.0000
# 2 18.9426 84.0306 2.6597 0.0000 -6.9522 0.0000
# 3 -4.4357 2.6597 25.0065 0.0000 2.2456 0.0000
# 4 0.0000 0.0000 0.0000 18.2055 0.0000 -3.3725
# 5 10.8848 -6.9522 2.2456 0.0000 38.1136 0.0000
# 6 0.0000 0.0000 0.0000 -3.3725 0.0000 42.6273
#
#
#
# Elastic Compliance Matrix: (Units=1/GPa)
#
#
# Indices 1 2 3 4 5 6 
#
# 1 0.021600 -0.005651 0.005106 0.000000 -0.007501 0.000000
# 2 -0.005651 0.013617 -0.002834 0.000000 0.004265 0.000000
# 3 0.005106 -0.002834 0.041594 0.000000 -0.004426 0.000000
# 4 0.000000 0.000000 0.000000 0.055745 0.000000 0.004410
# 5 -0.007501 0.004265 -0.004426 0.000000 0.029418 0.000000
# 6 0.000000 0.000000 0.000000 0.004410 0.000000 0.023808
#
#
# Mechanical properties :
#
#
# Convention : Reuss Voigt Hill
#
# Bulk Modulus (GPa) = 14.27484 22.16114 18.21799
# Shear Modulus (GPa) = 23.15973 29.65265 26.40619
#
# Velocity S-wave (km/s) = 3.23939 3.66546 3.45899
# Velocity P-wave (km/s) = 4.52321 5.28728 4.92010
#
# Compressibility (1/GPa) = 0.07005334
#
# Stress axis : x y z
#
# Youngs Moduli (GPa) = 46.29560 73.43793 24.04184
#
# Poissons Ratio (x) = 0.41503 -0.12276
# Poissons Ratio (y) = 0.26164 0.06813
# Poissons Ratio (z) = -0.23639 0.20810
#
# Static dielectric constant tensor:
#      x y z
#    x 3.737510 0.000000 -0.170580 
#    y 0.000000 4.074850 0.000000 
#    z -0.170580 0.000000 3.848670 
# 
# 
# High freq. dielectric constant tensor:
#      x y z
#    x 1.864870 0.000000 -0.012130 
#    y 0.000000 1.880350 0.000000 
#    z -0.012130 0.000000 1.858150 
# 
# From -- ./inp_files/22454.got.cif
#   From: 2010.03.12/outbox.cif.g09.slc.cpg/sg14_12_cif.got.tgz:22454.got - 2010.03.31 13:35:05.
