data_PCOD8127698
_publ_section_title
;
Structure prediction by ZEFSAII (Michael W. Deem and Ramdas Pophale) SiO2 
 PCOD8127698
Probable space group: P 21/C
;
_chemical_formula_sum "Si O2"
_cell_formula_units_Z 32
_cell_length_a 11.321487
_cell_length_b 15.118295
_cell_length_c 8.935361
_cell_angle_alpha 90.000000
_cell_angle_beta 89.107374
_cell_angle_gamma 90.000000
_cell_volume 1529.204911
_symmetry_space_group_name_H-M "P 21/C"
_symmetry_group_IT_number 14
_symmetry_cell_setting 'monoclinic'
loop_
_space_group_symop_operation_xyz
x,y,z
-x,1/2+y,1/2-z
-x,-y,-z
x,1/2-y,1/2+z
loop_
_atom_site_type_symbol
_atom_site_label
_atom_site_fract_x
_atom_site_fract_y
_atom_site_fract_z
Si Si1 0.420844 0.736215 0.540325
Si Si2 0.822577 0.781189 0.776769
Si Si3 0.577258 0.074908 0.576320
Si Si4 0.321243 0.163566 0.940947
Si Si5 0.072772 0.367107 0.015702
Si Si6 0.169897 0.942817 0.559435
Si Si7 0.448077 0.013184 0.841409
Si Si8 0.315765 0.847942 0.781299
O O1 0.463940 0.827969 0.467612
O O2 0.539370 0.679321 0.537262
O O3 0.358921 0.758524 0.698182
O O4 0.316215 0.682548 0.453657
O O5 0.727455 0.732649 0.676442
O O6 0.894327 0.843094 0.658512
O O7 0.751565 0.838453 0.901870
O O8 0.905523 0.712709 0.867202
O O9 0.716131 0.064271 0.547105
O O10 0.500000 0.000000 0.500000
O O11 0.549945 0.066581 0.752456
O O12 0.323128 0.066895 0.863363
O O13 0.934795 0.390472 0.020918
O O14 0.142441 0.452941 0.076282
O O15 0.195020 0.891007 0.717492
O O16 0.415968 0.923333 0.754078
O O17 0.500000 0.000000 0.000000
#
# Coordination Sequence:
#
# PCOD8127698 Si02
#       8
#     4   4   4   4   4   4   4   4
#     4  11  22  37  58  91 129 164 213 244 329 389
#     4  10  23  38  68  92 123 167 226 277 316 371
#     4  11  23  39  64  91 127 177 203 258 322 402
#     4  11  22  37  62  93 132 166 208 275 312 393
#     4  10  23  44  67  95 119 175 227 273 323 373
#     4  10  23  42  70  87 133 171 220 265 325 389
#     4  12  23  35  56  94 135 161 204 249 327 383
#     4  11  23  40  58  91 128 172 205 263 313 395
#
# _framework density 20.925906999999999
#
# number of rings (size 3 to 8) (size 9 to 14) (size 15 to 20)
#    0.000    1.250    3.750    3.000    5.250    2.000 
#    0.000    0.000    5.500    6.750    0.000    0.000 
#    0.000    0.000    0.000    0.000    0.000    0.000 
#
# Total GULP energy -396451.708305 kJ/mol
# GULP energy per Si atom -12389.115885 kJ/mol
# Density = 2.087828 g / cm^3
# Si number density = 20.925907 Si / 1000 Ang^3
#
#
#
# Elastic Constant Matrix: (Units=GPa)
#
#
# Indices 1 2 3 4 5 6 
#
# 1 99.1084 30.7104 41.7469 0.0000 0.1234 0.0000
# 2 30.7104 75.2311 19.0517 0.0000 1.7130 0.0000
# 3 41.7469 19.0517 90.6570 0.0000 -0.4937 0.0000
# 4 0.0000 0.0000 0.0000 37.6543 0.0000 7.3859
# 5 0.1234 1.7130 -0.4937 0.0000 28.3424 0.0000
# 6 0.0000 0.0000 0.0000 7.3859 0.0000 31.9678
#
#
#
# Elastic Compliance Matrix: (Units=1/GPa)
#
#
# Indices 1 2 3 4 5 6 
#
# 1 0.013675 -0.004214 -0.005411 0.000000 0.000101 0.000000
# 2 -0.004214 0.015361 -0.001293 0.000000 -0.000933 0.000000
# 3 -0.005411 -0.001293 0.013796 0.000000 0.000342 0.000000
# 4 0.000000 0.000000 0.000000 0.027818 0.000000 -0.006427
# 5 0.000101 -0.000933 0.000342 0.000000 0.035345 0.000000
# 6 0.000000 0.000000 0.000000 -0.006427 0.000000 0.032766
#
#
# Mechanical properties :
#
#
# Convention : Reuss Voigt Hill
#
# Bulk Modulus (GPa) = 47.62773 49.77940 48.70356
# Shear Modulus (GPa) = 29.83364 31.15872 30.49618
#
# Velocity S-wave (km/s) = 3.77991 3.86294 3.82165
# Velocity P-wave (km/s) = 6.46992 6.61336 6.54203
#
# Compressibility (1/GPa) = 0.02099617
#
# Stress axis : x y z
#
# Youngs Moduli (GPa) = 73.12625 65.09869 72.48564
#
# Poissons Ratio (x) = 0.27435 0.39222
# Poissons Ratio (y) = 0.30818 0.09370
# Poissons Ratio (z) = 0.39569 0.08415
#
# Static dielectric constant tensor:
#      x y z
#    x 3.470880 0.000000 0.304570 
#    y 0.000000 4.587300 0.000000 
#    z 0.304570 0.000000 4.049140 
# 
# 
# High freq. dielectric constant tensor:
#      x y z
#    x 1.789820 0.000000 0.014060 
#    y 0.000000 1.840020 0.000000 
#    z 0.014060 0.000000 1.830770 
# 
# From -- ./inp_files/13333.got.cif
#   From: 2010.03.12/outbox.cif.g09.slc.cpg/sg14_7_cif.got.tgz:13333.got - 2010.03.31 13:35:05.
