data_PCOD8127136
_publ_section_title
;
Structure prediction by ZEFSAII (Michael W. Deem and Ramdas Pophale) SiO2 
 PCOD8127136
Probable space group: P 21/C
;
_chemical_formula_sum "Si O2"
_cell_formula_units_Z 28
_cell_length_a 10.893574
_cell_length_b 8.781631
_cell_length_c 14.604269
_cell_angle_alpha 90.000000
_cell_angle_beta 67.953415
_cell_angle_gamma 90.000000
_cell_volume 1294.936357
_symmetry_space_group_name_H-M "P 21/C"
_symmetry_group_IT_number 14
_symmetry_cell_setting 'monoclinic'
loop_
_space_group_symop_operation_xyz
x,y,z
-x,1/2+y,1/2-z
-x,-y,-z
x,1/2-y,1/2+z
loop_
_atom_site_type_symbol
_atom_site_label
_atom_site_fract_x
_atom_site_fract_y
_atom_site_fract_z
Si Si1 0.790946 0.130025 0.734120
Si Si2 0.974676 0.322718 0.021757
Si Si3 0.673124 0.442730 0.765594
Si Si4 0.367534 0.425171 0.844812
Si Si5 0.777050 0.141824 0.945135
Si Si6 0.762604 0.869822 0.080581
Si Si7 0.356126 0.567265 0.029588
O O1 0.917846 0.185647 0.640551
O O2 0.682783 0.261914 0.750275
O O3 0.833240 0.105106 0.827887
O O4 0.722279 0.974583 0.716436
O O5 0.880876 0.245232 0.971925
O O6 0.107298 0.224561 0.978112
O O7 0.000000 0.500000 0.000000
O O8 0.518370 0.480793 0.790369
O O9 0.772959 0.529357 0.669772
O O10 0.719770 0.486028 0.856293
O O11 0.359742 0.244453 0.866158
O O12 0.294770 0.503537 0.953002
O O13 0.645479 0.247746 0.973662
O O14 0.735281 0.984534 0.004504
O O15 0.500000 0.500000 0.000000
#
# Coordination Sequence:
#
# PCOD8127136 Si02
#       7
#     4   4   4   4   4   4   4
#     4  11  23  44  66  95 137 176 223 280 351 402
#     4  12  24  47  68  92 137 180 224 285 346 412
#     4  10  22  39  67  94 129 176 223 276 334 406
#     4  11  21  42  63  95 136 178 218 276 344 401
#     4  11  24  42  67 103 132 174 233 285 336 417
#     4  12  24  41  68 100 130 177 229 283 340 409
#     4   9  19  40  67  93 131 177 220 272 336 398
#
# _framework density 21.622685000000001
#
# number of rings (size 3 to 8) (size 9 to 14) (size 15 to 20)
#    0.000    1.143    4.286    1.286    0.000    3.429 
#    5.143   11.429    0.000    0.000    0.000    0.000 
#    0.000    0.000    0.000    0.000    0.000    0.000 
#
# Total GULP energy -346925.350556 kJ/mol
# GULP energy per Si atom -12390.191091 kJ/mol
# Density = 2.157347 g / cm^3
# Si number density = 21.622685 Si / 1000 Ang^3
#
#
#
# Elastic Constant Matrix: (Units=GPa)
#
#
# Indices 1 2 3 4 5 6 
#
# 1 49.6017 36.9461 33.2157 0.0000 -1.0500 0.0000
# 2 36.9461 136.3474 66.1651 0.0000 9.5143 0.0000
# 3 33.2157 66.1651 168.4456 0.0000 21.3043 0.0000
# 4 0.0000 0.0000 0.0000 38.5176 0.0000 -3.2986
# 5 -1.0500 9.5143 21.3043 0.0000 32.7420 0.0000
# 6 0.0000 0.0000 0.0000 -3.2986 0.0000 35.9135
#
#
#
# Elastic Compliance Matrix: (Units=1/GPa)
#
#
# Indices 1 2 3 4 5 6 
#
# 1 0.027123 -0.005925 -0.003649 0.000000 0.004966 0.000000
# 2 -0.005925 0.010359 -0.002720 0.000000 -0.001431 0.000000
# 3 -0.003649 -0.002720 0.008324 0.000000 -0.004743 0.000000
# 4 0.000000 0.000000 0.000000 0.026168 0.000000 0.002403
# 5 0.004966 -0.001431 -0.004743 0.000000 0.034203 0.000000
# 6 0.000000 0.000000 0.000000 0.002403 0.000000 0.028065
#
#
# Mechanical properties :
#
#
# Convention : Reuss Voigt Hill
#
# Bulk Modulus (GPa) = 47.12874 69.67206 58.40040
# Shear Modulus (GPa) = 30.13793 35.97248 33.05521
#
# Velocity S-wave (km/s) = 3.73743 4.08321 3.91414
# Velocity P-wave (km/s) = 6.36143 7.38389 6.89165
#
# Compressibility (1/GPa) = 0.02121848
#
# Stress axis : x y z
#
# Youngs Moduli (GPa) = 36.86952 96.53023 120.12856
#
# Poissons Ratio (x) = 0.57196 0.43834
# Poissons Ratio (y) = 0.21846 0.32673
# Poissons Ratio (z) = 0.13454 0.26255
#
# Static dielectric constant tensor:
#      x y z
#    x 3.678370 0.000000 0.165560 
#    y 0.000000 4.219090 0.000000 
#    z 0.165560 0.000000 4.577570 
# 
# 
# High freq. dielectric constant tensor:
#      x y z
#    x 1.820910 0.000000 0.004770 
#    y 0.000000 1.856520 0.000000 
#    z 0.004770 0.000000 1.869240 
# 
# From -- ./inp_files/43629.got.cif
#   From: 2010.03.12/outbox.cif.g09.slc.cpg/sg14_22_cif.got.tgz:43629.got - 2010.03.31 13:35:05.
