data_PCOD8127842
_publ_section_title
;
Structure prediction by ZEFSAII (Michael W. Deem and Ramdas Pophale) SiO2 
 PCOD8127842
Probable space group: P 21/C
;
_chemical_formula_sum "Si O2"
_cell_formula_units_Z 28
_cell_length_a 8.468841
_cell_length_b 19.293319
_cell_length_c 11.110422
_cell_angle_alpha 90.000000
_cell_angle_beta 137.425429
_cell_angle_gamma 90.000000
_cell_volume 1228.176743
_symmetry_space_group_name_H-M "P 21/C"
_symmetry_group_IT_number 14
_symmetry_cell_setting 'monoclinic'
loop_
_space_group_symop_operation_xyz
x,y,z
-x,1/2+y,1/2-z
-x,-y,-z
x,1/2-y,1/2+z
loop_
_atom_site_type_symbol
_atom_site_label
_atom_site_fract_x
_atom_site_fract_y
_atom_site_fract_z
Si Si1 0.354499 0.817771 0.029571
Si Si2 0.528105 0.462591 0.647799
Si Si3 0.660858 0.016322 0.476945
Si Si4 0.266556 0.166053 0.962374
Si Si5 0.743845 0.167934 0.587013
Si Si6 0.025934 0.902515 0.690159
Si Si7 0.393818 0.311132 0.099618
O O1 0.582043 0.826705 0.073893
O O2 0.266159 0.738711 0.994488
O O3 0.139647 0.867944 0.873238
O O4 0.436248 0.842149 0.205186
O O5 0.500000 0.500000 0.500000
O O6 0.316676 0.408823 0.549483
O O7 0.765449 0.418347 0.783658
O O8 0.547921 0.508210 0.783236
O O9 0.719723 0.097848 0.496427
O O10 0.500000 0.000000 0.500000
O O11 0.896228 0.974906 0.641516
O O12 0.347770 0.229236 0.093496
O O13 0.990824 0.169653 0.792034
O O14 0.519414 0.169684 0.546927
O O15 0.856054 0.847763 0.532666
#
# Coordination Sequence:
#
# PCOD8127842 Si02
#       7
#     4   4   4   4   4   4   4
#     4  10  24  42  71  97 136 183 236 287 350 422
#     4  11  26  46  72 103 139 194 242 287 352 434
#     4  12  26  43  70 103 147 183 233 296 358 417
#     4  10  23  42  67 102 134 180 240 286 348 424
#     4  11  23  44  64 102 140 180 229 293 356 415
#     4  11  24  45  69 103 137 181 239 284 354 421
#     4  11  23  43  68 101 140 181 230 297 355 417
#
# _framework density 22.798023000000001
#
# number of rings (size 3 to 8) (size 9 to 14) (size 15 to 20)
#    0.000    1.143    2.857    2.143    6.000    2.286 
#    0.000    2.143    0.000    0.000    0.000    0.000 
#    0.000    0.000    0.000    0.000    0.000    0.000 
#
# Total GULP energy -346938.489242 kJ/mol
# GULP energy per Si atom -12390.660330 kJ/mol
# Density = 2.274613 g / cm^3
# Si number density = 22.798023 Si / 1000 Ang^3
#
#
#
# Elastic Constant Matrix: (Units=GPa)
#
#
# Indices 1 2 3 4 5 6 
#
# 1 55.2964 24.4075 44.4832 0.0000 -2.9250 0.0000
# 2 24.4075 116.5725 41.9291 0.0000 -4.4880 0.0000
# 3 44.4832 41.9291 151.1934 0.0000 -9.6718 0.0000
# 4 0.0000 0.0000 0.0000 41.5925 0.0000 13.7291
# 5 -2.9250 -4.4880 -9.6718 0.0000 43.0750 0.0000
# 6 0.0000 0.0000 0.0000 13.7291 0.0000 22.9583
#
#
#
# Elastic Compliance Matrix: (Units=1/GPa)
#
#
# Indices 1 2 3 4 5 6 
#
# 1 0.024498 -0.002819 -0.006431 0.000000 -0.000074 0.000000
# 2 -0.002819 0.009860 -0.001879 0.000000 0.000414 0.000000
# 3 -0.006431 -0.001879 0.009117 0.000000 0.001415 0.000000
# 4 0.000000 0.000000 0.000000 0.029956 0.000000 -0.017914
# 5 -0.000074 0.000414 0.001415 0.000000 0.023571 0.000000
# 6 0.000000 0.000000 0.000000 -0.017914 0.000000 0.054270
#
#
# Mechanical properties :
#
#
# Convention : Reuss Voigt Hill
#
# Bulk Modulus (GPa) = 47.12736 60.52244 53.82490
# Shear Modulus (GPa) = 27.68525 35.67467 31.67996
#
# Velocity S-wave (km/s) = 3.48856 3.96006 3.73177
# Velocity P-wave (km/s) = 6.07810 6.89306 6.49837
#
# Compressibility (1/GPa) = 0.02121909
#
# Stress axis : x y z
#
# Youngs Moduli (GPa) = 40.81992 101.41750 109.67981
#
# Poissons Ratio (x) = 0.28591 0.70530
# Poissons Ratio (y) = 0.11508 0.20604
# Poissons Ratio (z) = 0.26249 0.19051
#
# Static dielectric constant tensor:
#      x y z
#    x 3.850140 0.000000 0.166340 
#    y 0.000000 4.652680 0.000000 
#    z 0.166340 0.000000 4.305530 
# 
# 
# High freq. dielectric constant tensor:
#      x y z
#    x 1.878610 0.000000 0.013760 
#    y 0.000000 1.917680 0.000000 
#    z 0.013760 0.000000 1.905870 
# 
# From -- ./inp_files/26840.got.cif
#   From: 2010.03.12/outbox.cif.g09.slc.cpg/sg14_14_cif.got.tgz:26840.got - 2010.03.31 13:35:05.
