data_PCOD8127855
_publ_section_title
;
Structure prediction by ZEFSAII (Michael W. Deem and Ramdas Pophale) SiO2 
 PCOD8127855
Probable space group: P 21/C
;
_chemical_formula_sum "Si O2"
_cell_formula_units_Z 16
_cell_length_a 12.605604
_cell_length_b 7.941646
_cell_length_c 9.580657
_cell_angle_alpha 90.000000
_cell_angle_beta 136.893347
_cell_angle_gamma 90.000000
_cell_volume 655.417617
_symmetry_space_group_name_H-M "P 21/C"
_symmetry_group_IT_number 14
_symmetry_cell_setting 'monoclinic'
loop_
_space_group_symop_operation_xyz
x,y,z
-x,1/2+y,1/2-z
-x,-y,-z
x,1/2-y,1/2+z
loop_
_atom_site_type_symbol
_atom_site_label
_atom_site_fract_x
_atom_site_fract_y
_atom_site_fract_z
Si Si1 0.956852 0.172214 0.534568
Si Si2 0.225565 0.767560 0.891657
Si Si3 0.551571 0.685455 0.094087
Si Si4 0.259457 0.153694 0.958470
O O1 0.822496 0.150766 0.523556
O O2 0.880861 0.290625 0.342086
O O3 0.107590 0.256514 0.755620
O O4 0.000000 0.000000 0.500000
O O5 0.200721 0.963032 0.901212
O O6 0.406806 0.760471 0.035734
O O7 0.696924 0.695231 0.340317
O O8 0.595972 0.799149 0.003233
O O9 0.500000 0.500000 0.000000
#
# Coordination Sequence:
#
# PCOD8127855 Si02
#       4
#     4   4   4   4
#     4  10  23  42  68  97 130 172 219 272 327 388
#     4  11  23  44  66  95 132 174 219 270 327 390
#     4  12  25  41  66  98 133 172 218 271 327 388
#     4  11  24  43  66  96 130 174 219 269 326 390
#
# _framework density 24.411916999999999
#
# number of rings (size 3 to 8) (size 9 to 14) (size 15 to 20)
#    0.000    1.000    0.000    6.750    0.000   10.000 
#    0.000    8.750    0.000    0.000    0.000    0.000 
#    0.000    0.000    0.000    0.000    0.000    0.000 
#
# Total GULP energy -198286.646870 kJ/mol
# GULP energy per Si atom -12392.915429 kJ/mol
# Density = 2.435635 g / cm^3
# Si number density = 24.411917 Si / 1000 Ang^3
#
#
#
# Elastic Constant Matrix: (Units=GPa)
#
#
# Indices 1 2 3 4 5 6 
#
# 1 117.6820 15.7280 7.2173 0.0000 -14.6618 0.0000
# 2 15.7280 46.0143 20.4972 0.0000 -7.3028 0.0000
# 3 7.2173 20.4972 173.5805 0.0000 -17.3493 0.0000
# 4 0.0000 0.0000 0.0000 25.6637 0.0000 -4.7274
# 5 -14.6618 -7.3028 -17.3493 0.0000 45.1165 0.0000
# 6 0.0000 0.0000 0.0000 -4.7274 0.0000 43.7325
#
#
#
# Elastic Compliance Matrix: (Units=1/GPa)
#
#
# Indices 1 2 3 4 5 6 
#
# 1 0.009187 -0.002820 0.000212 0.000000 0.002610 0.000000
# 2 -0.002820 0.024145 -0.002532 0.000000 0.002018 0.000000
# 3 0.000212 -0.002532 0.006258 0.000000 0.002065 0.000000
# 4 0.000000 0.000000 0.000000 0.039757 0.000000 0.004298
# 5 0.002610 0.002018 0.002065 0.000000 0.024134 0.000000
# 6 0.000000 0.000000 0.000000 0.004298 0.000000 0.023331
#
#
# Mechanical properties :
#
#
# Convention : Reuss Voigt Hill
#
# Bulk Modulus (GPa) = 34.12027 47.12908 40.62467
# Shear Modulus (GPa) = 34.04579 42.49149 38.26864
#
# Velocity S-wave (km/s) = 3.73854 4.17658 3.96361
# Velocity P-wave (km/s) = 5.71339 6.52734 6.13388
#
# Compressibility (1/GPa) = 0.02930809
#
# Stress axis : x y z
#
# Youngs Moduli (GPa) = 108.85397 41.41718 159.80456
#
# Poissons Ratio (x) = 0.11680 -0.03387
# Poissons Ratio (y) = 0.30699 0.40465
# Poissons Ratio (z) = -0.02307 0.10487
#
# Static dielectric constant tensor:
#      x y z
#    x 4.926620 0.000000 1.029340 
#    y 0.000000 4.715010 0.000000 
#    z 1.029340 0.000000 7.359140 
# 
# 
# High freq. dielectric constant tensor:
#      x y z
#    x 1.978090 0.000000 -0.002330 
#    y 0.000000 1.928890 0.000000 
#    z -0.002330 0.000000 2.005590 
# 
# From -- ./inp_files/7202.got.cif
#   From: 2010.03.12/outbox.cif.g09.slc.cpg/sg14_4_cif.got.tgz:7202.got - 2010.03.31 13:35:05.
