data_PCOD8127419
_publ_section_title
;
Structure prediction by ZEFSAII (Michael W. Deem and Ramdas Pophale) SiO2 
 PCOD8127419
Probable space group: P 21/C
;
_chemical_formula_sum "Si O2"
_cell_formula_units_Z 24
_cell_length_a 6.794252
_cell_length_b 11.059510
_cell_length_c 16.720129
_cell_angle_alpha 90.000000
_cell_angle_beta 115.497492
_cell_angle_gamma 90.000000
_cell_volume 1134.003711
_symmetry_space_group_name_H-M "P 21/C"
_symmetry_group_IT_number 14
_symmetry_cell_setting 'monoclinic'
loop_
_space_group_symop_operation_xyz
x,y,z
-x,1/2+y,1/2-z
-x,-y,-z
x,1/2-y,1/2+z
loop_
_atom_site_type_symbol
_atom_site_label
_atom_site_fract_x
_atom_site_fract_y
_atom_site_fract_z
Si Si1 0.114351 0.076780 0.131173
Si Si2 0.024626 0.816121 0.316328
Si Si3 0.860276 0.709215 0.125336
Si Si4 0.708645 0.574970 0.507760
Si Si5 0.139323 0.523041 0.102871
Si Si6 0.643081 0.495779 0.168096
O O1 0.257799 0.032955 0.229619
O O2 0.988249 0.203014 0.125659
O O3 0.282030 0.084326 0.086496
O O4 0.929574 0.980136 0.081294
O O5 0.906350 0.783458 0.213384
O O6 0.900506 0.929518 0.332352
O O7 0.273054 0.860439 0.341231
O O8 0.708123 0.789030 0.041030
O O9 0.720814 0.588967 0.114648
O O10 0.085771 0.660225 0.123973
O O11 0.500000 0.500000 0.500000
O O12 0.387063 0.505048 0.123145
O O13 0.000000 0.500000 0.000000
#
# Coordination Sequence:
#
# PCOD8127419 Si02
#       6
#     4   4   4   4   4   4
#     4  10  23  41  61 100 126 169 215 265 320 389
#     4  10  22  42  67  92 132 166 220 261 324 390
#     4  10  23  42  63  97 129 167 214 270 318 389
#     4  11  24  40  68  93 135 166 216 265 323 381
#     4  11  25  42  65  94 128 169 221 269 323 385
#     4  10  23  42  69  90 129 172 213 268 326 382
#
# _framework density 21.163951999999998
#
# number of rings (size 3 to 8) (size 9 to 14) (size 15 to 20)
#    0.000    1.667    1.667    1.000    2.333   12.000 
#    0.000    0.000    0.000    0.000    0.000    0.000 
#    0.000    0.000    0.000    0.000    0.000    0.000 
#
# Total GULP energy -297560.045684 kJ/mol
# GULP energy per Si atom -12398.335237 kJ/mol
# Density = 2.111578 g / cm^3
# Si number density = 21.163952 Si / 1000 Ang^3
#
#
#
# Elastic Constant Matrix: (Units=GPa)
#
#
# Indices 1 2 3 4 5 6 
#
# 1 146.6571 44.1932 53.4737 0.0000 -0.7849 0.0000
# 2 44.1932 106.1446 40.0285 0.0000 -10.2935 0.0000
# 3 53.4737 40.0285 87.8563 0.0000 -7.5223 0.0000
# 4 0.0000 0.0000 0.0000 26.6387 0.0000 -5.8625
# 5 -0.7849 -10.2935 -7.5223 0.0000 35.8847 0.0000
# 6 0.0000 0.0000 0.0000 -5.8625 0.0000 40.6145
#
#
#
# Elastic Compliance Matrix: (Units=1/GPa)
#
#
# Indices 1 2 3 4 5 6 
#
# 1 0.009190 -0.002184 -0.004720 0.000000 -0.001415 0.000000
# 2 -0.002184 0.012070 -0.003949 0.000000 0.002587 0.000000
# 3 -0.004720 -0.003949 0.016240 0.000000 0.002168 0.000000
# 4 0.000000 0.000000 0.000000 0.038771 0.000000 0.005596
# 5 -0.001415 0.002587 0.002168 0.000000 0.029033 0.000000
# 6 0.000000 0.000000 0.000000 0.005596 0.000000 0.025430
#
#
# Mechanical properties :
#
#
# Convention : Reuss Voigt Hill
#
# Bulk Modulus (GPa) = 63.30882 68.44988 65.87935
# Shear Modulus (GPa) = 31.70525 34.15841 32.93183
#
# Velocity S-wave (km/s) = 3.87470 4.02181 3.94894
# Velocity P-wave (km/s) = 7.07080 7.34707 7.21026
#
# Compressibility (1/GPa) = 0.01579559
#
# Stress axis : x y z
#
# Youngs Moduli (GPa) = 108.81484 82.84829 61.57756
#
# Poissons Ratio (x) = 0.18090 0.29063
# Poissons Ratio (y) = 0.23760 0.24316
# Poissons Ratio (z) = 0.51357 0.32716
#
# Static dielectric constant tensor:
#      x y z
#    x 4.041820 0.000000 -0.309980 
#    y 0.000000 4.174530 0.000000 
#    z -0.309980 0.000000 3.864100 
# 
# 
# High freq. dielectric constant tensor:
#      x y z
#    x 1.828860 0.000000 -0.020140 
#    y 0.000000 1.841170 0.000000 
#    z -0.020140 0.000000 1.834690 
# 
# From -- ./inp_files/53042.got.cif
#   From: 2010.03.12/outbox.cif.g09.slc.cpg/sg14_27_cif.got.tgz:53042.got - 2010.03.31 13:35:05.
