data_PCOD8127812
_publ_section_title
;
Structure prediction by ZEFSAII (Michael W. Deem and Ramdas Pophale) SiO2 
 PCOD8127812
Probable space group: P 21/C
;
_chemical_formula_sum "Si O2"
_cell_formula_units_Z 24
_cell_length_a 8.558686
_cell_length_b 8.824413
_cell_length_c 27.441869
_cell_angle_alpha 90.000000
_cell_angle_beta 33.372681
_cell_angle_gamma 90.000000
_cell_volume 1140.077899
_symmetry_space_group_name_H-M "P 21/C"
_symmetry_group_IT_number 14
_symmetry_cell_setting 'monoclinic'
loop_
_space_group_symop_operation_xyz
x,y,z
-x,1/2+y,1/2-z
-x,-y,-z
x,1/2-y,1/2+z
loop_
_atom_site_type_symbol
_atom_site_label
_atom_site_fract_x
_atom_site_fract_y
_atom_site_fract_z
Si Si1 0.336792 0.933047 0.087679
Si Si2 0.687485 0.056493 0.086816
Si Si3 0.628301 0.885002 0.739903
Si Si4 0.687142 0.542785 0.759976
Si Si5 0.737904 0.107312 0.553633
Si Si6 0.743160 0.379646 0.939831
O O1 0.330128 0.753251 0.079445
O O2 0.019118 0.997826 0.175766
O O3 0.500018 0.984548 0.093127
O O4 0.500000 0.000000 0.000000
O O5 0.529760 0.013464 0.178045
O O6 0.737001 0.234302 0.081097
O O7 0.000000 0.000000 0.000000
O O8 0.641030 0.705500 0.746495
O O9 0.950192 0.948503 0.653032
O O10 0.467992 0.913170 0.730940
O O11 0.553744 0.531250 0.849619
O O12 0.741000 0.163442 0.497230
O O13 0.000000 0.000000 0.500000
O O14 0.500000 0.500000 0.000000
#
# Coordination Sequence:
#
# PCOD8127812 Si02
#       6
#     4   4   4   4   4   4
#     4  11  23  44  66  93 128 168 218 276 319 386
#     4  11  25  42  68  94 127 170 222 267 329 388
#     4  10  23  42  62  96 126 169 214 262 323 391
#     4  10  23  42  66  92 131 165 215 266 321 386
#     4  11  23  44  65  95 130 171 214 264 325 395
#     4  11  25  42  65  95 132 168 217 263 329 388
#
# _framework density 21.051192
#
# number of rings (size 3 to 8) (size 9 to 14) (size 15 to 20)
#    0.000    1.333    3.333    1.000    7.000    1.333 
#    0.000    0.000    0.000    0.000    0.000    0.000 
#    0.000    0.000    0.000    0.000    0.000    0.000 
#
# Total GULP energy -297350.336730 kJ/mol
# GULP energy per Si atom -12389.597364 kJ/mol
# Density = 2.100328 g / cm^3
# Si number density = 21.051192 Si / 1000 Ang^3
#
#
#
# Elastic Constant Matrix: (Units=GPa)
#
#
# Indices 1 2 3 4 5 6 
#
# 1 96.3692 35.6131 53.1947 0.0000 -13.9232 0.0000
# 2 35.6131 56.2704 35.3014 0.0000 -16.7942 0.0000
# 3 53.1947 35.3014 211.5497 0.0000 -14.3352 0.0000
# 4 0.0000 0.0000 0.0000 33.1568 0.0000 -5.9065
# 5 -13.9232 -16.7942 -14.3352 0.0000 48.6724 0.0000
# 6 0.0000 0.0000 0.0000 -5.9065 0.0000 36.0195
#
#
#
# Elastic Compliance Matrix: (Units=1/GPa)
#
#
# Indices 1 2 3 4 5 6 
#
# 1 0.014569 -0.007476 -0.002355 0.000000 0.000894 0.000000
# 2 -0.007476 0.025561 -0.001972 0.000000 0.006100 0.000000
# 3 -0.002355 -0.001972 0.005670 0.000000 0.000316 0.000000
# 4 0.000000 0.000000 0.000000 0.031067 0.000000 0.005094
# 5 0.000894 0.006100 0.000316 0.000000 0.022999 0.000000
# 6 0.000000 0.000000 0.000000 0.005094 0.000000 0.028598
#
#
# Mechanical properties :
#
#
# Convention : Reuss Voigt Hill
#
# Bulk Modulus (GPa) = 45.06025 68.04529 56.55277
# Shear Modulus (GPa) = 31.35431 39.57510 35.46470
#
# Velocity S-wave (km/s) = 3.86350 4.34054 4.10895
# Velocity P-wave (km/s) = 6.43069 7.58382 7.03093
#
# Compressibility (1/GPa) = 0.02219251
#
# Stress axis : x y z
#
# Youngs Moduli (GPa) = 68.64004 39.12265 176.37547
#
# Poissons Ratio (x) = 0.29248 0.41540
# Poissons Ratio (y) = 0.51315 0.34783
# Poissons Ratio (z) = 0.16166 0.07715
#
# Static dielectric constant tensor:
#      x y z
#    x -0.631350 0.000000 -3.059580 
#    y 0.000000 3.669340 0.000000 
#    z -3.059580 0.000000 2.588890 
# 
# 
# High freq. dielectric constant tensor:
#      x y z
#    x 1.815910 0.000000 0.007110 
#    y 0.000000 1.813190 0.000000 
#    z 0.007110 0.000000 1.863390 
# 
# From -- ./inp_files/79448.got.cif
#   From: 2010.03.12/outbox.cif.g09.slc.cpg/sg14_40_cif.got.tgz:79448.got - 2010.03.31 13:35:05.
