data_PCOD8127994
_publ_section_title
;
Structure prediction by ZEFSAII (Michael W. Deem and Ramdas Pophale) SiO2 
 PCOD8127994
Probable space group: P 21/C
;
_chemical_formula_sum "Si O2"
_cell_formula_units_Z 20
_cell_length_a 11.757874
_cell_length_b 5.003759
_cell_length_c 13.128781
_cell_angle_alpha 90.000000
_cell_angle_beta 97.297631
_cell_angle_gamma 90.000000
_cell_volume 766.156247
_symmetry_space_group_name_H-M "P 21/C"
_symmetry_group_IT_number 14
_symmetry_cell_setting 'monoclinic'
loop_
_space_group_symop_operation_xyz
x,y,z
-x,1/2+y,1/2-z
-x,-y,-z
x,1/2-y,1/2+z
loop_
_atom_site_type_symbol
_atom_site_label
_atom_site_fract_x
_atom_site_fract_y
_atom_site_fract_z
Si Si1 0.573498 0.447864 0.278183
Si Si2 0.725153 0.558614 0.475892
Si Si3 0.962401 0.571263 0.800128
Si Si4 0.770097 0.289608 0.678665
Si Si5 0.130073 0.577446 0.004253
O O1 0.490203 0.665603 0.219705
O O2 0.610893 0.537938 0.395571
O O3 0.684789 0.422114 0.218989
O O4 0.698127 0.469715 0.589318
O O5 0.823813 0.356021 0.443722
O O6 0.771258 0.857944 0.475591
O O7 0.829047 0.477069 0.769726
O O8 0.975307 0.518468 0.927473
O O9 0.962729 0.878471 0.764702
O O10 0.873983 0.137415 0.623888
#
# Coordination Sequence:
#
# PCOD8127994 Si02
#       5
#     4   4   4   4   4
#     4  12  27  43  71 105 137 180 234 281 344 407
#     4  10  23  44  69  95 136 181 224 275 345 397
#     4  12  27  43  71 105 137 180 234 281 344 407
#     4  10  26  46  72  96 144 184 218 296 334 404
#     4  10  23  44  69  95 136 181 224 275 345 397
#
# _framework density 26.104334000000001
#
# number of rings (size 3 to 8) (size 9 to 14) (size 15 to 20)
#    1.200    0.000    2.000    2.400    5.600    3.200 
#    0.000    0.000    0.000    0.000    0.000    0.000 
#    0.000    0.000    0.000    0.000    0.000    0.000 
#
# Total GULP energy -247967.242315 kJ/mol
# GULP energy per Si atom -12398.362116 kJ/mol
# Density = 2.604492 g / cm^3
# Si number density = 26.104334 Si / 1000 Ang^3
#
#
#
# Elastic Constant Matrix: (Units=GPa)
#
#
# Indices 1 2 3 4 5 6 
#
# 1 101.5878 8.2662 46.7306 0.0000 11.1518 0.0000
# 2 8.2662 74.8244 4.9564 0.0000 6.0052 0.0000
# 3 46.7306 4.9564 142.3994 0.0000 36.1057 0.0000
# 4 0.0000 0.0000 0.0000 34.7268 0.0000 4.5596
# 5 11.1518 6.0052 36.1057 0.0000 37.0996 0.0000
# 6 0.0000 0.0000 0.0000 4.5596 0.0000 60.5700
#
#
#
# Elastic Compliance Matrix: (Units=1/GPa)
#
#
# Indices 1 2 3 4 5 6 
#
# 1 0.011680 -0.001069 -0.003916 0.000000 0.000473 0.000000
# 2 -0.001069 0.013640 0.000470 0.000000 -0.002344 0.000000
# 3 -0.003916 0.000470 0.010637 0.000000 -0.009251 0.000000
# 4 0.000000 0.000000 0.000000 0.029084 0.000000 -0.002189
# 5 0.000473 -0.002344 -0.009251 0.000000 0.036195 0.000000
# 6 0.000000 0.000000 0.000000 -0.002189 0.000000 0.016675
#
#
# Mechanical properties :
#
#
# Convention : Reuss Voigt Hill
#
# Bulk Modulus (GPa) = 37.13589 48.74645 42.94117
# Shear Modulus (GPa) = 36.78798 43.73649 40.26224
#
# Velocity S-wave (km/s) = 3.75809 4.09767 3.93155
# Velocity P-wave (km/s) = 5.75220 6.41109 6.09056
#
# Compressibility (1/GPa) = 0.02692813
#
# Stress axis : x y z
#
# Youngs Moduli (GPa) = 85.61656 73.31539 94.01402
#
# Poissons Ratio (x) = 0.07837 0.36813
# Poissons Ratio (y) = 0.09152 -0.04423
# Poissons Ratio (z) = 0.33525 -0.03449
#
# Static dielectric constant tensor:
#      x y z
#    x 4.642170 0.000000 0.313740 
#    y 0.000000 4.443000 0.000000 
#    z 0.313740 0.000000 5.128450 
# 
# 
# High freq. dielectric constant tensor:
#      x y z
#    x 2.055980 0.000000 0.024660 
#    y 0.000000 2.044200 0.000000 
#    z 0.024660 0.000000 2.089480 
# 
# From -- ./inp_files/42439.got.cif
#   From: 2010.03.12/outbox.cif.g09.slc.cpg/sg14_22_cif.got.tgz:42439.got - 2010.03.31 13:35:05.
