data_PCOD8127747
_publ_section_title
;
Structure prediction by ZEFSAII (Michael W. Deem and Ramdas Pophale) SiO2 
 PCOD8127747
Probable space group: P 21/C
;
_chemical_formula_sum "Si O2"
_cell_formula_units_Z 28
_cell_length_a 15.465811
_cell_length_b 8.749879
_cell_length_c 21.166433
_cell_angle_alpha 90.000000
_cell_angle_beta 25.588589
_cell_angle_gamma 90.000000
_cell_volume 1237.119897
_symmetry_space_group_name_H-M "P 21/C"
_symmetry_group_IT_number 14
_symmetry_cell_setting 'monoclinic'
loop_
_space_group_symop_operation_xyz
x,y,z
-x,1/2+y,1/2-z
-x,-y,-z
x,1/2-y,1/2+z
loop_
_atom_site_type_symbol
_atom_site_label
_atom_site_fract_x
_atom_site_fract_y
_atom_site_fract_z
Si Si1 0.367799 0.250537 0.193810
Si Si2 0.230915 0.336816 0.084502
Si Si3 0.009380 0.282883 0.621123
Si Si4 0.314234 0.883311 0.440293
Si Si5 0.007796 0.127327 0.858708
Si Si6 0.801079 0.944778 0.599332
Si Si7 0.564997 0.173888 0.939634
O O1 0.141850 0.283857 0.321578
O O2 0.352054 0.090667 0.242182
O O3 0.457194 0.365391 0.187385
O O4 0.522793 0.259405 0.033605
O O5 0.227556 0.484014 0.041304
O O6 0.126432 0.393015 0.216146
O O7 0.103739 0.213896 0.129152
O O8 0.438491 0.253318 0.966668
O O9 0.013414 0.459375 0.597522
O O10 0.793916 0.196834 0.767950
O O11 0.146823 0.200505 0.478758
O O12 0.192734 0.722890 0.524361
O O13 0.309374 0.928438 0.369995
O O14 0.000000 0.000000 0.500000
O O15 0.500000 0.000000 0.000000
#
# Coordination Sequence:
#
# PCOD8127747 Si02
#       7
#     4   4   4   4   4   4   4
#     4  11  24  43  67  93 135 172 227 270 344 395
#     4  10  23  40  67 102 137 174 223 275 346 408
#     4  11  25  41  69 101 135 171 231 275 337 413
#     4  11  24  43  68  95 138 182 224 283 341 407
#     4  11  22  41  68  99 137 176 215 290 339 401
#     4  11  24  49  64  93 135 181 221 278 340 407
#     4  11  24  42  71 104 134 177 226 286 339 407
#
# _framework density 22.633216000000001
#
# number of rings (size 3 to 8) (size 9 to 14) (size 15 to 20)
#    0.000    1.143    1.429    4.286   10.000    4.000 
#   10.286    0.000    0.000    0.000    0.000    0.000 
#    0.000    0.000    0.000    0.000    0.000    0.000 
#
# Total GULP energy -346928.790638 kJ/mol
# GULP energy per Si atom -12390.313951 kJ/mol
# Density = 2.258170 g / cm^3
# Si number density = 22.633216 Si / 1000 Ang^3
#
#
#
# Elastic Constant Matrix: (Units=GPa)
#
#
# Indices 1 2 3 4 5 6 
#
# 1 143.0127 19.1527 12.9871 0.0000 -15.6125 0.0000
# 2 19.1527 95.1854 -1.6189 0.0000 -0.4101 0.0000
# 3 12.9871 -1.6189 48.9735 0.0000 -6.8158 0.0000
# 4 0.0000 0.0000 0.0000 28.4014 0.0000 -7.1329
# 5 -15.6125 -0.4101 -6.8158 0.0000 19.5423 0.0000
# 6 0.0000 0.0000 0.0000 -7.1329 0.0000 39.4249
#
#
#
# Elastic Compliance Matrix: (Units=1/GPa)
#
#
# Indices 1 2 3 4 5 6 
#
# 1 0.007969 -0.001601 -0.001350 0.000000 0.005862 0.000000
# 2 -0.001601 0.010836 0.000669 0.000000 -0.000819 0.000000
# 3 -0.001350 0.000669 0.021705 0.000000 0.006505 0.000000
# 4 0.000000 0.000000 0.000000 0.036886 0.000000 0.006673
# 5 0.005862 -0.000819 0.006505 0.000000 0.058106 0.000000
# 6 0.000000 0.000000 0.000000 0.006673 0.000000 0.026572
#
#
# Mechanical properties :
#
#
# Convention : Reuss Voigt Hill
#
# Bulk Modulus (GPa) = 27.82072 38.69037 33.25555
# Shear Modulus (GPa) = 27.99227 34.58377 31.28802
#
# Velocity S-wave (km/s) = 3.52060 3.91322 3.72209
# Velocity P-wave (km/s) = 5.37074 6.12775 5.76169
#
# Compressibility (1/GPa) = 0.03594443
#
# Stress axis : x y z
#
# Youngs Moduli (GPa) = 125.47923 92.28608 46.07282
#
# Poissons Ratio (x) = 0.14778 0.06222
# Poissons Ratio (y) = 0.20093 -0.03082
# Poissons Ratio (z) = 0.16945 -0.06173
#
# Static dielectric constant tensor:
#      x y z
#    x 4.612050 0.000000 0.065010 
#    y 0.000000 4.347590 0.000000 
#    z 0.065010 0.000000 4.227640 
# 
# 
# High freq. dielectric constant tensor:
#      x y z
#    x 1.922900 0.000000 -0.001960 
#    y 0.000000 1.892500 0.000000 
#    z -0.001960 0.000000 1.871370 
# 
# From -- ./inp_files/68298.got.cif
#   From: 2010.03.12/outbox.cif.g09.slc.cpg/sg14_35_cif.got.tgz:68298.got - 2010.03.31 13:35:05.
