data_PCOD8127853
_publ_section_title
;
Structure prediction by ZEFSAII (Michael W. Deem and Ramdas Pophale) SiO2 
 PCOD8127853
Probable space group: P 21/C
;
_chemical_formula_sum "Si O2"
_cell_formula_units_Z 28
_cell_length_a 11.415935
_cell_length_b 11.535207
_cell_length_c 13.780257
_cell_angle_alpha 90.000000
_cell_angle_beta 48.322841
_cell_angle_gamma 90.000000
_cell_volume 1355.372237
_symmetry_space_group_name_H-M "P 21/C"
_symmetry_group_IT_number 14
_symmetry_cell_setting 'monoclinic'
loop_
_space_group_symop_operation_xyz
x,y,z
-x,1/2+y,1/2-z
-x,-y,-z
x,1/2-y,1/2+z
loop_
_atom_site_type_symbol
_atom_site_label
_atom_site_fract_x
_atom_site_fract_y
_atom_site_fract_z
Si Si1 0.473793 0.863183 0.507321
Si Si2 0.790802 0.757606 0.264008
Si Si3 0.731635 0.921812 0.131182
Si Si4 0.254540 0.673631 0.298933
Si Si5 0.926290 0.719109 0.389342
Si Si6 0.628246 0.124188 0.640133
Si Si7 0.845538 0.576208 0.074143
O O1 0.627191 0.785032 0.406968
O O2 0.402098 0.820109 0.646748
O O3 0.356527 0.844288 0.481669
O O4 0.500000 0.000000 0.500000
O O5 0.827840 0.861935 0.167852
O O6 0.919461 0.744218 0.278042
O O7 0.794281 0.637306 0.202739
O O8 0.554244 0.874651 0.229696
O O9 0.742085 0.059081 0.137174
O O10 0.810331 0.885497 0.985992
O O11 0.265839 0.782851 0.362893
O O12 0.100587 0.680216 0.318891
O O13 0.875354 0.834030 0.472525
O O14 0.696584 0.998202 0.623981
O O15 0.000000 0.500000 0.000000
#
# Coordination Sequence:
#
# PCOD8127853 Si02
#       7
#     4   4   4   4   4   4   4
#     4  11  22  42  69  96 126 177 226 267 334 404
#     4  10  23  42  68  95 129 179 220 272 340 399
#     4  10  24  42  69  95 133 176 223 280 335 401
#     4  12  24  42  65 102 130 174 229 268 345 399
#     4  11  24  42  67  96 139 171 221 283 337 404
#     4  11  24  42  70  94 129 179 220 280 325 408
#     4  11  24  44  65  97 135 175 222 275 344 399
#
# _framework density 20.658532000000001
#
# number of rings (size 3 to 8) (size 9 to 14) (size 15 to 20)
#    0.000    1.143    4.286    2.143    8.000    0.000 
#    2.571    1.429    0.000    0.000    0.000    0.000 
#    0.000    0.000    0.000    0.000    0.000    0.000 
#
# Total GULP energy -347230.125074 kJ/mol
# GULP energy per Si atom -12401.075896 kJ/mol
# Density = 2.061151 g / cm^3
# Si number density = 20.658532 Si / 1000 Ang^3
#
#
#
# Elastic Constant Matrix: (Units=GPa)
#
#
# Indices 1 2 3 4 5 6 
#
# 1 80.7598 12.5340 -0.8442 0.0000 2.0549 0.0000
# 2 12.5340 92.6934 21.2714 0.0000 -5.3218 0.0000
# 3 -0.8442 21.2714 48.5913 0.0000 0.4471 0.0000
# 4 0.0000 0.0000 0.0000 33.6090 0.0000 -4.1780
# 5 2.0549 -5.3218 0.4471 0.0000 29.2960 0.0000
# 6 0.0000 0.0000 0.0000 -4.1780 0.0000 33.3054
#
#
#
# Elastic Compliance Matrix: (Units=1/GPa)
#
#
# Indices 1 2 3 4 5 6 
#
# 1 0.012746 -0.002058 0.001134 0.000000 -0.001285 0.000000
# 2 -0.002058 0.012477 -0.005520 0.000000 0.002495 0.000000
# 3 0.001134 -0.005520 0.023029 0.000000 -0.001434 0.000000
# 4 0.000000 0.000000 0.000000 0.030225 0.000000 0.003792
# 5 -0.001285 0.002495 -0.001434 0.000000 0.034700 0.000000
# 6 0.000000 0.000000 0.000000 0.003792 0.000000 0.030501
#
#
# Mechanical properties :
#
#
# Convention : Reuss Voigt Hill
#
# Bulk Modulus (GPa) = 28.27723 31.99632 30.13677
# Shear Modulus (GPa) = 29.69933 31.84764 30.77348
#
# Velocity S-wave (km/s) = 3.79572 3.93061 3.86375
# Velocity P-wave (km/s) = 5.73826 6.01011 5.87576
#
# Compressibility (1/GPa) = 0.03536415
#
# Stress axis : x y z
#
# Youngs Moduli (GPa) = 78.45423 80.15028 43.42285
#
# Poissons Ratio (x) = 0.16491 -0.04924
# Poissons Ratio (y) = 0.16142 0.23971
# Poissons Ratio (z) = -0.08897 0.44247
#
# Static dielectric constant tensor:
#      x y z
#    x 3.863370 0.000000 0.138710 
#    y 0.000000 3.856700 0.000000 
#    z 0.138710 0.000000 4.672980 
# 
# 
# High freq. dielectric constant tensor:
#      x y z
#    x 1.814850 0.000000 0.001640 
#    y 0.000000 1.811260 0.000000 
#    z 0.001640 0.000000 1.808020 
# 
# From -- ./inp_files/44329.got.cif
#   From: 2010.03.12/outbox.cif.g09.slc.cpg/sg14_23_cif.got.tgz:44329.got - 2010.03.31 13:35:05.
