data_PCOD8127999
_publ_section_title
;
Structure prediction by ZEFSAII (Michael W. Deem and Ramdas Pophale) SiO2 
 PCOD8127999
Probable space group: P 21/C
;
_chemical_formula_sum "Si O2"
_cell_formula_units_Z 32
_cell_length_a 18.985511
_cell_length_b 15.806568
_cell_length_c 13.417759
_cell_angle_alpha 90.000000
_cell_angle_beta 22.108081
_cell_angle_gamma 90.000000
_cell_volume 1515.435580
_symmetry_space_group_name_H-M "P 21/C"
_symmetry_group_IT_number 14
_symmetry_cell_setting 'monoclinic'
loop_
_space_group_symop_operation_xyz
x,y,z
-x,1/2+y,1/2-z
-x,-y,-z
x,1/2-y,1/2+z
loop_
_atom_site_type_symbol
_atom_site_label
_atom_site_fract_x
_atom_site_fract_y
_atom_site_fract_z
Si Si1 0.307261 0.401813 0.332704
Si Si2 0.153590 0.065796 0.828844
Si Si3 0.443143 0.521348 0.833200
Si Si4 0.300849 0.694964 0.925455
Si Si5 0.008845 0.246099 0.536758
Si Si6 0.387773 0.223435 0.134943
Si Si7 0.048007 0.857980 0.583152
Si Si8 0.590564 0.064571 0.955805
O O1 0.239747 0.454304 0.325020
O O2 0.468896 0.451176 0.177551
O O3 0.388178 0.310377 0.195705
O O4 0.142292 0.398586 0.629775
O O5 0.304387 0.054732 0.543851
O O6 0.069352 0.158145 0.941378
O O7 0.000000 0.000000 0.000000
O O8 0.342413 0.601552 0.913745
O O9 0.585138 0.475040 0.572647
O O10 0.489681 0.733327 0.628399
O O11 0.200175 0.755746 0.139398
O O12 0.141207 0.691641 0.051507
O O13 0.998050 0.206518 0.443409
O O14 0.172917 0.200182 0.386511
O O15 0.480041 0.153312 0.086206
O O16 0.190213 0.928729 0.356061
O O17 0.500000 0.000000 0.000000
#
# Coordination Sequence:
#
# PCOD8127999 Si02
#       8
#     4   4   4   4   4   4   4   4
#     4  11  25  45  68 101 137 178 226 285 335 410
#     4  11  23  43  70  97 135 180 218 279 347 398
#     4  12  24  43  69  99 140 174 229 284 339 408
#     4  11  22  43  67  97 137 175 217 282 335 398
#     4  11  24  43  68 102 130 179 230 276 341 406
#     4  10  23  44  70  93 137 178 226 278 342 404
#     4  11  23  43  68  96 134 176 226 278 335 407
#     4  11  25  44  67  99 133 185 222 279 349 397
#
# _framework density 21.116040999999999
#
# number of rings (size 3 to 8) (size 9 to 14) (size 15 to 20)
#    0.000    1.000    6.250    1.125    5.250    2.500 
#    0.000    1.250    0.000    0.000    0.000    0.000 
#    0.000    0.000    0.000    0.000    0.000    0.000 
#
# Total GULP energy -396643.121396 kJ/mol
# GULP energy per Si atom -12395.097544 kJ/mol
# Density = 2.106798 g / cm^3
# Si number density = 21.116041 Si / 1000 Ang^3
#
#
#
# Elastic Constant Matrix: (Units=GPa)
#
#
# Indices 1 2 3 4 5 6 
#
# 1 98.9762 35.3343 18.4253 0.0000 6.0910 0.0000
# 2 35.3343 62.1672 34.2673 0.0000 0.3202 0.0000
# 3 18.4253 34.2673 131.4510 0.0000 22.3772 0.0000
# 4 0.0000 0.0000 0.0000 27.9228 0.0000 16.5810
# 5 6.0910 0.3202 22.3772 0.0000 37.1171 0.0000
# 6 0.0000 0.0000 0.0000 16.5810 0.0000 40.8509
#
#
#
# Elastic Compliance Matrix: (Units=1/GPa)
#
#
# Indices 1 2 3 4 5 6 
#
# 1 0.012863 -0.007626 0.000594 0.000000 -0.002403 0.000000
# 2 -0.007626 0.023634 -0.005873 0.000000 0.004588 0.000000
# 3 0.000594 -0.005873 0.010100 0.000000 -0.006136 0.000000
# 4 0.000000 0.000000 0.000000 0.047186 0.000000 -0.019152
# 5 -0.002403 0.004588 -0.006136 0.000000 0.030996 0.000000
# 6 0.000000 0.000000 0.000000 -0.019152 0.000000 0.032253
#
#
# Mechanical properties :
#
#
# Convention : Reuss Voigt Hill
#
# Bulk Modulus (GPa) = 48.10856 52.07203 50.09029
# Shear Modulus (GPa) = 26.34754 34.81599 30.58176
#
# Velocity S-wave (km/s) = 3.53618 4.06494 3.80975
# Velocity P-wave (km/s) = 6.28532 6.83704 6.56697
#
# Compressibility (1/GPa) = 0.02078632
#
# Stress axis : x y z
#
# Youngs Moduli (GPa) = 77.74059 42.31200 99.01317
#
# Poissons Ratio (x) = 0.32268 -0.05883
# Poissons Ratio (y) = 0.59287 0.58152
# Poissons Ratio (z) = -0.04619 0.24851
#
# Static dielectric constant tensor:
#      x y z
#    x 3.206340 0.000000 0.064230 
#    y 0.000000 3.742470 0.000000 
#    z 0.064230 0.000000 4.678520 
# 
# 
# High freq. dielectric constant tensor:
#      x y z
#    x 1.839190 0.000000 0.004490 
#    y 0.000000 1.808210 0.000000 
#    z 0.004490 0.000000 1.846130 
# 
# From -- ./inp_files/50662.got.cif
#   From: 2010.03.12/outbox.cif.g09.slc.cpg/sg14_26_cif.got.tgz:50662.got - 2010.03.31 13:35:05.
