data_PCOD8127857
_publ_section_title
;
Structure prediction by ZEFSAII (Michael W. Deem and Ramdas Pophale) SiO2 
 PCOD8127857
Probable space group: P 21/C
;
_chemical_formula_sum "Si O2"
_cell_formula_units_Z 28
_cell_length_a 12.978322
_cell_length_b 9.536151
_cell_length_c 17.262426
_cell_angle_alpha 90.000000
_cell_angle_beta 146.024820
_cell_angle_gamma 90.000000
_cell_volume 1193.922392
_symmetry_space_group_name_H-M "P 21/C"
_symmetry_group_IT_number 14
_symmetry_cell_setting 'monoclinic'
loop_
_space_group_symop_operation_xyz
x,y,z
-x,1/2+y,1/2-z
-x,-y,-z
x,1/2-y,1/2+z
loop_
_atom_site_type_symbol
_atom_site_label
_atom_site_fract_x
_atom_site_fract_y
_atom_site_fract_z
Si Si1 0.622835 0.132043 0.929373
Si Si2 0.748665 0.854247 0.384566
Si Si3 0.144516 0.919604 0.271690
Si Si4 0.142917 0.897432 0.443424
Si Si5 0.514054 0.239932 0.011462
Si Si6 0.837483 0.799552 0.795031
Si Si7 0.249196 0.342983 0.481957
O O1 0.420532 0.094427 0.772299
O O2 0.704090 0.276674 0.945038
O O3 0.625081 0.132474 0.025340
O O4 0.747300 0.000855 0.982771
O O5 0.867072 0.747338 0.403657
O O6 0.670611 0.767204 0.407566
O O7 0.857106 0.989607 0.486426
O O8 0.181255 0.971677 0.383804
O O9 0.331432 0.844909 0.356773
O O10 0.969970 0.811967 0.167118
O O11 0.086727 0.046341 0.178458
O O12 0.944280 0.821567 0.313903
O O13 0.376120 0.313860 0.863773
O O14 0.387897 0.167131 0.996392
#
# Coordination Sequence:
#
# PCOD8127857 Si02
#       7
#     4   4   4   4   4   4   4
#     4  10  23  44  67  98 138 183 233 292 344 417
#     4  11  26  41  65  99 137 189 228 280 356 416
#     4  11  24  42  75 105 135 184 233 291 351 412
#     4  11  22  43  71  98 140 183 234 285 351 409
#     4  10  23  42  69 106 132 179 235 295 347 412
#     4  11  22  45  66  99 144 176 235 287 343 422
#     4  12  23  45  70 100 142 179 234 292 350 417
#
# _framework density 23.452110999999999
#
# number of rings (size 3 to 8) (size 9 to 14) (size 15 to 20)
#    0.000    1.143    2.857    3.000    0.000    4.000 
#   10.286    0.000    0.000    0.000    0.000    0.000 
#    0.000    0.000    0.000    0.000    0.000    0.000 
#
# Total GULP energy -346900.498385 kJ/mol
# GULP energy per Si atom -12389.303514 kJ/mol
# Density = 2.339873 g / cm^3
# Si number density = 23.452111 Si / 1000 Ang^3
#
#
#
# Elastic Constant Matrix: (Units=GPa)
#
#
# Indices 1 2 3 4 5 6 
#
# 1 87.8167 53.8497 42.3355 0.0000 6.5416 0.0000
# 2 53.8497 125.2671 47.5954 0.0000 0.4369 0.0000
# 3 42.3355 47.5954 84.6591 0.0000 12.7233 0.0000
# 4 0.0000 0.0000 0.0000 34.1402 0.0000 0.6824
# 5 6.5416 0.4369 12.7233 0.0000 33.1405 0.0000
# 6 0.0000 0.0000 0.0000 0.6824 0.0000 34.4334
#
#
#
# Elastic Compliance Matrix: (Units=1/GPa)
#
#
# Indices 1 2 3 4 5 6 
#
# 1 0.017446 -0.005408 -0.005494 0.000000 -0.001263 0.000000
# 2 -0.005408 0.011979 -0.004422 0.000000 0.002607 0.000000
# 3 -0.005494 -0.004422 0.017907 0.000000 -0.005732 0.000000
# 4 0.000000 0.000000 0.000000 0.029303 0.000000 -0.000581
# 5 -0.001263 0.002607 -0.005732 0.000000 0.032590 0.000000
# 6 0.000000 0.000000 0.000000 -0.000581 0.000000 0.029053
#
#
# Mechanical properties :
#
#
# Convention : Reuss Voigt Hill
#
# Bulk Modulus (GPa) = 59.93783 65.03380 62.48582
# Shear Modulus (GPa) = 28.65539 30.60698 29.63119
#
# Velocity S-wave (km/s) = 3.49932 3.61651 3.55840
# Velocity P-wave (km/s) = 6.47611 6.72529 6.60188
#
# Compressibility (1/GPa) = 0.01668395
#
# Stress axis : x y z
#
# Youngs Moduli (GPa) = 57.31884 83.48151 55.84385
#
# Poissons Ratio (x) = 0.45145 0.30682
# Poissons Ratio (y) = 0.30997 0.24694
# Poissons Ratio (z) = 0.31492 0.36915
#
# Static dielectric constant tensor:
#      x y z
#    x 4.350620 0.000000 0.089960 
#    y 0.000000 4.001990 0.000000 
#    z 0.089960 0.000000 4.020350 
# 
# 
# High freq. dielectric constant tensor:
#      x y z
#    x 1.927510 0.000000 0.013750 
#    y 0.000000 1.917120 0.000000 
#    z 0.013750 0.000000 1.921150 
# 
# From -- ./inp_files/68370.got.cif
#   From: 2010.03.12/outbox.cif.g09.slc.cpg/sg14_35_cif.got.tgz:68370.got - 2010.03.31 13:35:05.
