data_PCOD8127779
_publ_section_title
;
Structure prediction by ZEFSAII (Michael W. Deem and Ramdas Pophale) SiO2 
 PCOD8127779
Probable space group: P 21/C
;
_chemical_formula_sum "Si O2"
_cell_formula_units_Z 32
_cell_length_a 6.552235
_cell_length_b 16.490324
_cell_length_c 14.763834
_cell_angle_alpha 90.000000
_cell_angle_beta 113.105192
_cell_angle_gamma 90.000000
_cell_volume 1467.251542
_symmetry_space_group_name_H-M "P 21/C"
_symmetry_group_IT_number 14
_symmetry_cell_setting 'monoclinic'
loop_
_space_group_symop_operation_xyz
x,y,z
-x,1/2+y,1/2-z
-x,-y,-z
x,1/2-y,1/2+z
loop_
_atom_site_type_symbol
_atom_site_label
_atom_site_fract_x
_atom_site_fract_y
_atom_site_fract_z
Si Si1 0.687602 0.510916 0.250977
Si Si2 0.892419 0.438214 0.109922
Si Si3 0.691933 0.128249 0.885567
Si Si4 0.598924 0.695618 0.514101
Si Si5 0.091832 0.119896 0.068478
Si Si6 0.047086 0.722440 0.146703
Si Si7 0.762528 0.439422 0.892634
Si Si8 0.860429 0.245711 0.635226
O O1 0.793309 0.490584 0.173522
O O2 0.616272 0.428954 0.290353
O O3 0.862994 0.561808 0.339499
O O4 0.474103 0.567064 0.197338
O O5 0.935925 0.347241 0.151546
O O6 0.124846 0.476746 0.119136
O O7 0.727219 0.439374 0.995022
O O8 0.483117 0.143014 0.914589
O O9 0.779507 0.213180 0.862468
O O10 0.890124 0.082294 0.974342
O O11 0.689785 0.632489 0.454810
O O12 0.399409 0.747467 0.435885
O O13 0.793133 0.754396 0.582244
O O14 0.008130 0.208400 0.086474
O O15 0.085773 0.636526 0.106681
O O16 0.089439 0.712948 0.260344
#
# Coordination Sequence:
#
# PCOD8127779 Si02
#       8
#     4   4   4   4   4   4   4   4
#     4  12  24  42  68  98 133 175 218 268 338 389
#     4  11  25  44  62  95 139 172 220 278 320 391
#     4  10  23  42  67  99 130 172 219 270 330 393
#     4  10  23  41  67  94 130 175 218 276 325 388
#     4  10  23  41  65  99 133 169 217 273 326 392
#     4  11  23  45  68  96 133 171 226 272 325 398
#     4  11  26  43  65  98 134 176 221 270 333 394
#     4  11  23  42  68  97 129 176 224 266 329 391
#
# _framework density 21.809484000000001
#
# number of rings (size 3 to 8) (size 9 to 14) (size 15 to 20)
#    0.000    1.250    1.250    4.500    1.750    9.500 
#    0.000    0.000    0.000    0.000    0.000    0.000 
#    0.000    0.000    0.000    0.000    0.000    0.000 
#
# Total GULP energy -396975.650471 kJ/mol
# GULP energy per Si atom -12405.489077 kJ/mol
# Density = 2.175984 g / cm^3
# Si number density = 21.809484 Si / 1000 Ang^3
#
#
#
# Elastic Constant Matrix: (Units=GPa)
#
#
# Indices 1 2 3 4 5 6 
#
# 1 99.5900 28.8862 36.9659 0.0000 -18.1401 0.0000
# 2 28.8862 77.5213 20.3175 0.0000 -4.0678 0.0000
# 3 36.9659 20.3175 115.2698 0.0000 -10.9385 0.0000
# 4 0.0000 0.0000 0.0000 40.0450 0.0000 -4.0522
# 5 -18.1401 -4.0678 -10.9385 0.0000 33.7209 0.0000
# 6 0.0000 0.0000 0.0000 -4.0522 0.0000 26.2701
#
#
#
# Elastic Compliance Matrix: (Units=1/GPa)
#
#
# Indices 1 2 3 4 5 6 
#
# 1 0.013338 -0.003870 -0.003053 0.000000 0.005718 0.000000
# 2 -0.003870 0.014673 -0.001418 0.000000 -0.000772 0.000000
# 3 -0.003053 -0.001418 0.010041 0.000000 0.001444 0.000000
# 4 0.000000 0.000000 0.000000 0.025368 0.000000 0.003913
# 5 0.005718 -0.000772 0.001444 0.000000 0.033107 0.000000
# 6 0.000000 0.000000 0.000000 0.003913 0.000000 0.038670
#
#
# Mechanical properties :
#
#
# Convention : Reuss Voigt Hill
#
# Bulk Modulus (GPa) = 46.79398 51.63559 49.21479
# Shear Modulus (GPa) = 31.44604 33.75464 32.60034
#
# Velocity S-wave (km/s) = 3.80129 3.93836 3.87043
# Velocity P-wave (km/s) = 6.38504 6.66393 6.52598
#
# Compressibility (1/GPa) = 0.02137027
#
# Stress axis : x y z
#
# Youngs Moduli (GPa) = 74.97178 68.15241 99.58858
#
# Poissons Ratio (x) = 0.26375 0.30401
# Poissons Ratio (y) = 0.29014 0.14126
# Poissons Ratio (z) = 0.22887 0.09667
#
# Static dielectric constant tensor:
#      x y z
#    x 3.814600 0.000000 -0.137450 
#    y 0.000000 3.729940 0.000000 
#    z -0.137450 0.000000 4.227500 
# 
# 
# High freq. dielectric constant tensor:
#      x y z
#    x 1.853380 0.000000 -0.011060 
#    y 0.000000 1.854220 0.000000 
#    z -0.011060 0.000000 1.878480 
# 
# From -- ./inp_files/37891.got.cif
#   From: 2010.03.12/outbox.cif.g09.slc.cpg/sg14_19_cif.got.tgz:37891.got - 2010.03.31 13:35:05.
