data_PCOD8127717
_publ_section_title
;
Structure prediction by ZEFSAII (Michael W. Deem and Ramdas Pophale) SiO2 
 PCOD8127717
Probable space group: P 21/C
;
_chemical_formula_sum "Si O2"
_cell_formula_units_Z 20
_cell_length_a 4.847499
_cell_length_b 8.769576
_cell_length_c 18.916661
_cell_angle_alpha 90.000000
_cell_angle_beta 78.015295
_cell_angle_gamma 90.000000
_cell_volume 786.628769
_symmetry_space_group_name_H-M "P 21/C"
_symmetry_group_IT_number 14
_symmetry_cell_setting 'monoclinic'
loop_
_space_group_symop_operation_xyz
x,y,z
-x,1/2+y,1/2-z
-x,-y,-z
x,1/2-y,1/2+z
loop_
_atom_site_type_symbol
_atom_site_label
_atom_site_fract_x
_atom_site_fract_y
_atom_site_fract_z
Si Si1 0.594115 0.666803 0.018792
Si Si2 0.346478 0.068939 0.331969
Si Si3 0.869009 0.344083 0.533436
Si Si4 0.769327 0.385893 0.694383
Si Si5 0.143171 0.388913 0.203886
O O1 0.650354 0.676920 0.099830
O O2 0.500000 0.500000 0.000000
O O3 0.353873 0.787901 0.012366
O O4 0.887962 0.716689 0.965782
O O5 0.491676 0.157936 0.256938
O O6 0.033556 0.013596 0.332321
O O7 0.532076 0.913637 0.339424
O O8 0.704276 0.377457 0.615252
O O9 0.000000 0.500000 0.500000
O O10 0.870556 0.555998 0.712680
O O11 0.031694 0.279332 0.701808
#
# Coordination Sequence:
#
# PCOD8127717 Si02
#       5
#     4   4   4   4   4
#     4  12  25  46  72  99 141 185 232 279 350 414
#     4  10  24  39  70  92 132 174 233 263 335 401
#     4  12  28  44  70 105 147 178 226 293 354 404
#     4  10  26  42  70  95 140 171 235 271 343 396
#     4  10  23  39  67  96 128 173 229 284 324 394
#
# _framework density 25.424956000000002
#
# number of rings (size 3 to 8) (size 9 to 14) (size 15 to 20)
#    1.200    0.000    0.000    4.800    8.400    1.600 
#    0.000    0.000    0.000    0.000    0.000    0.000 
#    0.000    0.000    0.000    0.000    0.000    0.000 
#
# Total GULP energy -247921.886487 kJ/mol
# GULP energy per Si atom -12396.094324 kJ/mol
# Density = 2.536709 g / cm^3
# Si number density = 25.424956 Si / 1000 Ang^3
#
#
#
# Elastic Constant Matrix: (Units=GPa)
#
#
# Indices 1 2 3 4 5 6 
#
# 1 73.6842 -24.3748 12.4828 0.0000 4.0087 0.0000
# 2 -24.3748 36.4602 30.7846 0.0000 8.6203 0.0000
# 3 12.4828 30.7846 149.6110 0.0000 6.8243 0.0000
# 4 0.0000 0.0000 0.0000 27.2656 0.0000 -2.7200
# 5 4.0087 8.6203 6.8243 0.0000 27.0326 0.0000
# 6 0.0000 0.0000 0.0000 -2.7200 0.0000 30.7788
#
#
#
# Elastic Compliance Matrix: (Units=1/GPa)
#
#
# Indices 1 2 3 4 5 6 
#
# 1 0.022407 0.022164 -0.006025 0.000000 -0.008869 0.000000
# 2 0.022164 0.057414 -0.012826 0.000000 -0.018357 0.000000
# 3 -0.006025 -0.012826 0.009710 0.000000 0.002532 0.000000
# 4 0.000000 0.000000 0.000000 0.037002 0.000000 0.003270
# 5 -0.008869 -0.018357 0.002532 0.000000 0.043522 0.000000
# 6 0.000000 0.000000 0.000000 0.003270 0.000000 0.032779
#
#
# Mechanical properties :
#
#
# Convention : Reuss Voigt Hill
#
# Bulk Modulus (GPa) = 10.39975 33.06007 21.72991
# Shear Modulus (GPa) = 21.90481 33.07291 27.48886
#
# Velocity S-wave (km/s) = 2.93840 3.61058 3.29169
# Velocity P-wave (km/s) = 3.95114 5.51479 4.79711
#
# Compressibility (1/GPa) = 0.09615616
#
# Stress axis : x y z
#
# Youngs Moduli (GPa) = 44.62984 17.41747 102.98362
#
# Poissons Ratio (x) = -0.38604 0.62052
# Poissons Ratio (y) = -0.98917 1.32082
# Poissons Ratio (z) = 0.26892 0.22339
#
# Static dielectric constant tensor:
#      x y z
#    x 4.652300 0.000000 0.082650 
#    y 0.000000 4.343630 0.000000 
#    z 0.082650 0.000000 4.817460 
# 
# 
# High freq. dielectric constant tensor:
#      x y z
#    x 2.027770 0.000000 0.010490 
#    y 0.000000 2.004840 0.000000 
#    z 0.010490 0.000000 2.012020 
# 
# From -- ./inp_files/63007.got.cif
#   From: 2010.03.12/outbox.cif.g09.slc.cpg/sg14_32_cif.got.tgz:63007.got - 2010.03.31 13:35:05.
