data_PCOD8127173
_publ_section_title
;
Structure prediction by ZEFSAII (Michael W. Deem and Ramdas Pophale) SiO2 
 PCOD8127173
Probable space group: P 21/C
;
_chemical_formula_sum "Si O2"
_cell_formula_units_Z 32
_cell_length_a 30.436442
_cell_length_b 5.694466
_cell_length_c 18.411322
_cell_angle_alpha 90.000000
_cell_angle_beta 26.620138
_cell_angle_gamma 90.000000
_cell_volume 1429.818649
_symmetry_space_group_name_H-M "P 21/C"
_symmetry_group_IT_number 14
_symmetry_cell_setting 'monoclinic'
loop_
_space_group_symop_operation_xyz
x,y,z
-x,1/2+y,1/2-z
-x,-y,-z
x,1/2-y,1/2+z
loop_
_atom_site_type_symbol
_atom_site_label
_atom_site_fract_x
_atom_site_fract_y
_atom_site_fract_z
Si Si1 0.068295 0.385253 0.981362
Si Si2 0.275875 0.394282 0.492277
Si Si3 0.757333 0.880819 0.315376
Si Si4 0.744615 0.952325 0.597719
Si Si5 0.870583 0.280683 0.231905
Si Si6 0.949530 0.098318 0.346054
Si Si7 0.371838 0.133146 0.624243
Si Si8 0.590510 0.323245 0.797798
O O1 0.165719 0.237232 0.854281
O O2 0.092419 0.494301 0.867594
O O3 0.053652 0.590044 0.061994
O O4 0.972932 0.207111 0.120206
O O5 0.288708 0.284422 0.553638
O O6 0.221265 0.221358 0.517011
O O7 0.208100 0.626583 0.593916
O O8 0.380445 0.475501 0.304180
O O9 0.669721 0.961105 0.391682
O O10 0.818376 0.088910 0.260786
O O11 0.838631 0.108470 0.479623
O O12 0.702204 0.819557 0.730828
O O13 0.657604 0.097207 0.688557
O O14 0.997523 0.842979 0.252822
O O15 0.477884 0.251362 0.452836
O O16 0.389179 0.910994 0.650279
#
# Coordination Sequence:
#
# PCOD8127173 Si02
#       8
#     4   4   4   4   4   4   4   4
#     4  10  23  40  60  95 131 180 230 273 342 426
#     4  10  23  41  60  99 127 180 225 283 353 417
#     4  11  22  40  67  96 132 180 226 291 350 424
#     4  11  23  43  71  92 140 181 234 287 359 426
#     4  10  22  40  63  87 136 178 220 277 348 421
#     4  12  29  42  69 107 144 188 238 300 358 430
#     4  10  23  43  67 102 128 174 242 287 364 421
#     4  10  23  43  69  93 133 180 228 302 353 431
#
# _framework density 22.380462000000001
#
# number of rings (size 3 to 8) (size 9 to 14) (size 15 to 20)
#    0.000    1.500    1.250    2.250   10.500    0.000 
#    4.500    0.000    0.000    0.000    0.000    0.000 
#    0.000    0.000    0.000    0.000    0.000    0.000 
#
# Total GULP energy -396554.237383 kJ/mol
# GULP energy per Si atom -12392.319918 kJ/mol
# Density = 2.232952 g / cm^3
# Si number density = 22.380462 Si / 1000 Ang^3
#
#
#
# Elastic Constant Matrix: (Units=GPa)
#
#
# Indices 1 2 3 4 5 6 
#
# 1 99.1161 5.5165 38.7963 0.0000 -3.7784 0.0000
# 2 5.5165 60.8656 14.9635 0.0000 -0.5333 0.0000
# 3 38.7963 14.9635 97.8153 0.0000 0.2274 0.0000
# 4 0.0000 0.0000 0.0000 22.4725 0.0000 -5.7546
# 5 -3.7784 -0.5333 0.2274 0.0000 31.7644 0.0000
# 6 0.0000 0.0000 0.0000 -5.7546 0.0000 24.3407
#
#
#
# Elastic Compliance Matrix: (Units=1/GPa)
#
#
# Indices 1 2 3 4 5 6 
#
# 1 0.012012 0.000100 -0.004783 0.000000 0.001465 0.000000
# 2 0.000100 0.017075 -0.002653 0.000000 0.000318 0.000000
# 3 -0.004783 -0.002653 0.012528 0.000000 -0.000703 0.000000
# 4 0.000000 0.000000 0.000000 0.047366 0.000000 0.011198
# 5 0.001465 0.000318 -0.000703 0.000000 0.031666 0.000000
# 6 0.000000 0.000000 0.000000 0.011198 0.000000 0.043731
#
#
# Mechanical properties :
#
#
# Convention : Reuss Voigt Hill
#
# Bulk Modulus (GPa) = 37.11396 41.81663 39.46530
# Shear Modulus (GPa) = 26.59142 28.95024 27.77083
#
# Velocity S-wave (km/s) = 3.45070 3.60050 3.52639
# Velocity P-wave (km/s) = 5.70049 6.00081 5.85258
#
# Compressibility (1/GPa) = 0.02694404
#
# Stress axis : x y z
#
# Youngs Moduli (GPa) = 83.25318 58.56356 79.82267
#
# Poissons Ratio (x) = -0.00586 0.38178
# Poissons Ratio (y) = -0.00833 0.21173
# Poissons Ratio (z) = 0.39819 0.15534
#
# Static dielectric constant tensor:
#      x y z
#    x 3.901000 0.000000 -0.010530 
#    y 0.000000 3.800590 0.000000 
#    z -0.010530 0.000000 4.400670 
# 
# 
# High freq. dielectric constant tensor:
#      x y z
#    x 1.877560 0.000000 0.005910 
#    y 0.000000 1.864660 0.000000 
#    z 0.005910 0.000000 1.898130 
# 
# From -- ./inp_files/62442.got.cif
#   From: 2010.03.12/outbox.cif.g09.slc.cpg/sg14_32_cif.got.tgz:62442.got - 2010.03.31 13:35:05.
