data_PCOD8127264
_publ_section_title
;
Structure prediction by ZEFSAII (Michael W. Deem and Ramdas Pophale) SiO2 
 PCOD8127264
Probable space group: P 21/C
;
_chemical_formula_sum "Si O2"
_cell_formula_units_Z 28
_cell_length_a 7.088629
_cell_length_b 8.290534
_cell_length_c 27.328289
_cell_angle_alpha 90.000000
_cell_angle_beta 118.127256
_cell_angle_gamma 90.000000
_cell_volume 1416.373743
_symmetry_space_group_name_H-M "P 21/C"
_symmetry_group_IT_number 14
_symmetry_cell_setting 'monoclinic'
loop_
_space_group_symop_operation_xyz
x,y,z
-x,1/2+y,1/2-z
-x,-y,-z
x,1/2-y,1/2+z
loop_
_atom_site_type_symbol
_atom_site_label
_atom_site_fract_x
_atom_site_fract_y
_atom_site_fract_z
Si Si1 0.363418 0.304970 0.584686
Si Si2 0.261175 0.812819 0.701516
Si Si3 0.932874 0.318296 0.002153
Si Si4 0.380126 0.829133 0.115429
Si Si5 0.220327 0.391448 0.842743
Si Si6 0.347533 0.896344 0.446828
Si Si7 0.486709 0.605437 0.808336
O O1 0.407337 0.484195 0.607627
O O2 0.536989 0.249660 0.566515
O O3 0.371116 0.183896 0.631462
O O4 0.136779 0.297847 0.529425
O O5 0.278338 0.695934 0.656623
O O6 0.402922 0.742564 0.762405
O O7 0.019551 0.825756 0.691850
O O8 0.352935 0.988646 0.700793
O O9 0.827310 0.306528 0.042277
O O10 0.773227 0.260799 0.940998
O O11 0.000000 0.500000 0.000000
O O12 0.616967 0.757654 0.139710
O O13 0.234434 0.481472 0.896055
O O14 0.282445 0.511104 0.805857
O O15 0.500000 0.000000 0.500000
#
# Coordination Sequence:
#
# PCOD8127264 Si02
#       7
#     4   4   4   4   4   4   4
#     4  11  24  39  59  90 128 159 208 259 304 370
#     4  11  23  42  69  86 126 161 202 259 313 364
#     4  12  21  38  63  87 123 167 205 251 311 369
#     4  11  24  39  59  96 126 157 210 254 306 377
#     4  10  22  41  62  92 120 162 206 250 314 371
#     4  11  20  38  62  86 122 167 206 252 306 374
#     4  10  23  42  61  91 116 159 208 251 305 370
#
# _framework density 19.768792999999999
#
# number of rings (size 3 to 8) (size 9 to 14) (size 15 to 20)
#    0.000    1.143    2.857    4.714    0.000    5.143 
#    0.000    2.857    0.000    0.000    0.000    0.000 
#    0.000    0.000    0.000    0.000    0.000    0.000 
#
# Total GULP energy -347314.005600 kJ/mol
# GULP energy per Si atom -12404.071629 kJ/mol
# Density = 1.972380 g / cm^3
# Si number density = 19.768793 Si / 1000 Ang^3
#
#
#
# Elastic Constant Matrix: (Units=GPa)
#
#
# Indices 1 2 3 4 5 6 
#
# 1 109.2866 35.5402 40.0904 0.0000 6.6899 0.0000
# 2 35.5402 98.1007 30.8888 0.0000 6.4909 0.0000
# 3 40.0904 30.8888 74.2083 0.0000 0.4492 0.0000
# 4 0.0000 0.0000 0.0000 38.8152 0.0000 -3.5389
# 5 6.6899 6.4909 0.4492 0.0000 29.1724 0.0000
# 6 0.0000 0.0000 0.0000 -3.5389 0.0000 23.8113
#
#
#
# Elastic Compliance Matrix: (Units=1/GPa)
#
#
# Indices 1 2 3 4 5 6 
#
# 1 0.012111 -0.002521 -0.005481 0.000000 -0.002132 0.000000
# 2 -0.002521 0.012446 -0.003806 0.000000 -0.002133 0.000000
# 3 -0.005481 -0.003806 0.018010 0.000000 0.001826 0.000000
# 4 0.000000 0.000000 0.000000 0.026117 0.000000 0.003882
# 5 -0.002132 -0.002133 0.001826 0.000000 0.035214 0.000000
# 6 0.000000 0.000000 0.000000 0.003882 0.000000 0.042574
#
#
# Mechanical properties :
#
#
# Convention : Reuss Voigt Hill
#
# Bulk Modulus (GPa) = 52.76477 54.95939 53.86208
# Shear Modulus (GPa) = 28.34396 30.03153 29.18774
#
# Velocity S-wave (km/s) = 3.79063 3.90184 3.84664
# Velocity P-wave (km/s) = 6.77550 6.93978 6.85813
#
# Compressibility (1/GPa) = 0.01895204
#
# Stress axis : x y z
#
# Youngs Moduli (GPa) = 82.56898 80.34488 55.52588
#
# Poissons Ratio (x) = 0.20254 0.30432
# Poissons Ratio (y) = 0.20815 0.21133
# Poissons Ratio (z) = 0.45254 0.30579
#
# Static dielectric constant tensor:
#      x y z
#    x 3.874120 0.000000 -0.133730 
#    y 0.000000 3.633200 0.000000 
#    z -0.133730 0.000000 3.605480 
# 
# 
# High freq. dielectric constant tensor:
#      x y z
#    x 1.780640 0.000000 -0.005640 
#    y 0.000000 1.769700 0.000000 
#    z -0.005640 0.000000 1.779470 
# 
# From -- ./inp_files/78752.got.cif
#   From: 2010.03.12/outbox.cif.g09.slc.cpg/sg14_40_cif.got.tgz:78752.got - 2010.03.31 13:35:05.
