data_PCOD8127891
_publ_section_title
;
Structure prediction by ZEFSAII (Michael W. Deem and Ramdas Pophale) SiO2 
 PCOD8127891
Probable space group: P 21/C
;
_chemical_formula_sum "Si O2"
_cell_formula_units_Z 32
_cell_length_a 21.909779
_cell_length_b 5.221886
_cell_length_c 12.959252
_cell_angle_alpha 90.000000
_cell_angle_beta 113.307783
_cell_angle_gamma 90.000000
_cell_volume 1361.675784
_symmetry_space_group_name_H-M "P 21/C"
_symmetry_group_IT_number 14
_symmetry_cell_setting 'monoclinic'
loop_
_space_group_symop_operation_xyz
x,y,z
-x,1/2+y,1/2-z
-x,-y,-z
x,1/2-y,1/2+z
loop_
_atom_site_type_symbol
_atom_site_label
_atom_site_fract_x
_atom_site_fract_y
_atom_site_fract_z
Si Si1 0.729058 0.993108 0.101495
Si Si2 0.105375 0.465865 0.570361
Si Si3 0.503899 0.421509 0.318758
Si Si4 0.304519 0.189173 0.607617
Si Si5 0.811288 0.035777 0.347568
Si Si6 0.377218 0.651351 0.012678
Si Si7 0.618025 0.790924 0.655154
Si Si8 0.999377 0.002979 0.177958
O O1 0.795433 0.009354 0.214297
O O2 0.667459 0.864452 0.116884
O O3 0.700437 0.273235 0.056876
O O4 0.742308 0.844199 0.003342
O O5 0.136162 0.182752 0.588215
O O6 0.065141 0.500499 0.437734
O O7 0.062659 0.496496 0.645387
O O8 0.161519 0.683021 0.610127
O O9 0.502212 0.708291 0.275070
O O10 0.575084 0.383366 0.422162
O O11 0.445272 0.384067 0.361823
O O12 0.256586 0.989334 0.633809
O O13 0.340395 0.376535 0.714941
O O14 0.368961 0.052088 0.599881
O O15 0.406625 0.536109 0.925990
O O16 0.998420 0.253817 0.248474
#
# Coordination Sequence:
#
# PCOD8127891 Si02
#       8
#     4   4   4   4   4   4   4   4
#     4  10  25  41  68  93 134 180 230 278 346 412
#     4  11  26  47  70 113 145 183 241 279 336 404
#     4  12  26  43  69  97 127 169 226 288 352 428
#     4  10  23  44  63  96 134 181 226 282 348 409
#     4  11  26  43  70 101 146 183 226 287 328 403
#     4  11  24  42  68  92 129 180 226 284 351 422
#     4  10  23  43  64  94 129 171 224 292 354 411
#     4  11  24  47  78 106 149 191 227 287 339 392
#
# _framework density 23.500454000000001
#
# number of rings (size 3 to 8) (size 9 to 14) (size 15 to 20)
#    0.000    1.250    1.250    2.625   10.500    6.500 
#    0.000    0.000    0.000    0.000    0.000    0.000 
#    0.000    0.000    0.000    0.000    0.000    0.000 
#
# Total GULP energy -396751.402787 kJ/mol
# GULP energy per Si atom -12398.481337 kJ/mol
# Density = 2.344697 g / cm^3
# Si number density = 23.500454 Si / 1000 Ang^3
#
#
#
# Elastic Constant Matrix: (Units=GPa)
#
#
# Indices 1 2 3 4 5 6 
#
# 1 56.4977 0.0936 33.9184 0.0000 3.1996 0.0000
# 2 0.0936 65.3721 22.2949 0.0000 -3.1180 0.0000
# 3 33.9184 22.2949 138.7321 0.0000 2.1199 0.0000
# 4 0.0000 0.0000 0.0000 38.1171 0.0000 11.1809
# 5 3.1996 -3.1180 2.1199 0.0000 35.6904 0.0000
# 6 0.0000 0.0000 0.0000 11.1809 0.0000 28.6302
#
#
#
# Elastic Compliance Matrix: (Units=1/GPa)
#
#
# Indices 1 2 3 4 5 6 
#
# 1 0.021017 0.001743 -0.005397 0.000000 -0.001411 0.000000
# 2 0.001743 0.016417 -0.003087 0.000000 0.001461 0.000000
# 3 -0.005397 -0.003087 0.009029 0.000000 -0.000322 0.000000
# 4 0.000000 0.000000 0.000000 0.029629 0.000000 -0.011571
# 5 -0.001411 0.001461 -0.000322 0.000000 0.028292 0.000000
# 6 0.000000 0.000000 0.000000 -0.011571 0.000000 0.039447
#
#
# Mechanical properties :
#
#
# Convention : Reuss Voigt Hill
#
# Bulk Modulus (GPa) = 30.32010 41.46841 35.89425
# Shear Modulus (GPa) = 29.70786 34.10721 31.90754
#
# Velocity S-wave (km/s) = 3.55933 3.81378 3.68875
# Velocity P-wave (km/s) = 5.46093 6.08912 5.78356
#
# Compressibility (1/GPa) = 0.03298142
#
# Stress axis : x y z
#
# Youngs Moduli (GPa) = 47.58061 60.91252 110.75884
#
# Poissons Ratio (x) = -0.10618 0.59776
# Poissons Ratio (y) = -0.08294 0.34189
# Poissons Ratio (z) = 0.25679 0.18803
#
# Static dielectric constant tensor:
#      x y z
#    x 4.135230 0.000000 -0.077230 
#    y 0.000000 4.188360 0.000000 
#    z -0.077230 0.000000 4.671760 
# 
# 
# High freq. dielectric constant tensor:
#      x y z
#    x 1.922920 0.000000 -0.004460 
#    y 0.000000 1.926000 0.000000 
#    z -0.004460 0.000000 1.955340 
# 
# From -- ./inp_files/35606.got.cif
#   From: 2010.03.12/outbox.cif.g09.slc.cpg/sg14_18_cif.got.tgz:35606.got - 2010.03.31 13:35:05.
