data_PCOD8127001
_publ_section_title
;
Structure prediction by ZEFSAII (Michael W. Deem and Ramdas Pophale) SiO2 
 PCOD8127001
Probable space group: P 21/C
;
_chemical_formula_sum "Si O2"
_cell_formula_units_Z 24
_cell_length_a 16.676077
_cell_length_b 11.362842
_cell_length_c 10.953841
_cell_angle_alpha 90.000000
_cell_angle_beta 149.465045
_cell_angle_gamma 90.000000
_cell_volume 1054.546310
_symmetry_space_group_name_H-M "P 21/C"
_symmetry_group_IT_number 14
_symmetry_cell_setting 'monoclinic'
loop_
_space_group_symop_operation_xyz
x,y,z
-x,1/2+y,1/2-z
-x,-y,-z
x,1/2-y,1/2+z
loop_
_atom_site_type_symbol
_atom_site_label
_atom_site_fract_x
_atom_site_fract_y
_atom_site_fract_z
Si Si1 0.980631 0.518864 0.301587
Si Si2 0.792821 0.202894 0.579717
Si Si3 0.304193 0.375646 0.184011
Si Si4 0.057975 0.743801 0.988392
Si Si5 0.492060 0.064353 0.168507
Si Si6 0.228653 0.378688 0.494053
O O1 0.885423 0.414239 0.238533
O O2 0.998527 0.621942 0.424360
O O3 0.151910 0.473523 0.483757
O O4 0.872610 0.570075 0.048471
O O5 0.843070 0.242981 0.509474
O O6 0.607314 0.176288 0.337948
O O7 0.839926 0.290307 0.755632
O O8 0.413557 0.442168 0.226095
O O9 0.377539 0.402737 0.409103
O O10 0.294698 0.236414 0.149431
O O11 0.906598 0.658410 0.781486
O O12 0.377334 0.052334 0.133482
#
# Coordination Sequence:
#
# PCOD8127001 Si02
#       6
#     4   4   4   4   4   4
#     4   9  20  40  61  90 120 163 218 265 319 372
#     4  10  22  40  60  90 126 169 208 264 325 373
#     4   9  21  42  59  89 131 162 210 263 319 372
#     4  10  22  40  63  90 127 167 214 269 310 385
#     4  10  22  39  62  89 129 172 206 261 320 377
#     4  10  22  37  66  93 120 169 218 258 316 381
#
# _framework density 22.758603000000001
#
# number of rings (size 3 to 8) (size 9 to 14) (size 15 to 20)
#    0.000    2.333    0.000    0.500    9.333    2.000 
#    6.000    0.833    0.000    0.000    0.000    0.000 
#    0.000    0.000    0.000    0.000    0.000    0.000 
#
# Total GULP energy -297355.440158 kJ/mol
# GULP energy per Si atom -12389.810007 kJ/mol
# Density = 2.270680 g / cm^3
# Si number density = 22.758603 Si / 1000 Ang^3
#
#
#
# Elastic Constant Matrix: (Units=GPa)
#
#
# Indices 1 2 3 4 5 6 
#
# 1 84.6896 4.9498 31.6952 0.0000 12.3161 0.0000
# 2 4.9498 50.1758 1.7804 0.0000 12.8105 0.0000
# 3 31.6952 1.7804 69.1943 0.0000 3.5553 0.0000
# 4 0.0000 0.0000 0.0000 26.2213 0.0000 10.5458
# 5 12.3161 12.8105 3.5553 0.0000 43.2377 0.0000
# 6 0.0000 0.0000 0.0000 10.5458 0.0000 15.5862
#
#
#
# Elastic Compliance Matrix: (Units=1/GPa)
#
#
# Indices 1 2 3 4 5 6 
#
# 1 0.014815 -0.000312 -0.006594 0.000000 -0.003585 0.000000
# 2 -0.000312 0.021571 -0.000089 0.000000 -0.006295 0.000000
# 3 -0.006594 -0.000089 0.017451 0.000000 0.000470 0.000000
# 4 0.000000 0.000000 0.000000 0.052395 0.000000 -0.035451
# 5 -0.003585 -0.006295 0.000470 0.000000 0.025976 0.000000
# 6 0.000000 0.000000 0.000000 -0.035451 0.000000 0.088146
#
#
# Mechanical properties :
#
#
# Convention : Reuss Voigt Hill
#
# Bulk Modulus (GPa) = 25.09577 31.21230 28.15403
# Shear Modulus (GPa) = 20.19178 28.05131 24.12155
#
# Velocity S-wave (km/s) = 2.98185 3.51459 3.25912
# Velocity P-wave (km/s) = 4.78603 5.49673 5.15365
#
# Compressibility (1/GPa) = 0.03984735
#
# Stress axis : x y z
#
# Youngs Moduli (GPa) = 67.49767 46.35847 57.30433
#
# Poissons Ratio (x) = 0.01447 0.37787
# Poissons Ratio (y) = 0.02107 0.00508
# Poissons Ratio (z) = 0.44508 0.00411
#
# Static dielectric constant tensor:
#      x y z
#    x 3.801980 0.000000 0.180920 
#    y 0.000000 4.147880 0.000000 
#    z 0.180920 0.000000 4.241780 
# 
# 
# High freq. dielectric constant tensor:
#      x y z
#    x 1.879510 0.000000 0.004490 
#    y 0.000000 1.889750 0.000000 
#    z 0.004490 0.000000 1.905420 
# 
# From -- ./inp_files/24092.got.cif
#   From: 2010.03.12/outbox.cif.g09.slc.cpg/sg14_13_cif.got.tgz:24092.got - 2010.03.31 13:35:05.
