data_PCOD8127792
_publ_section_title
;
Structure prediction by ZEFSAII (Michael W. Deem and Ramdas Pophale) SiO2 
 PCOD8127792
Probable space group: P 21/C
;
_chemical_formula_sum "Si O2"
_cell_formula_units_Z 20
_cell_length_a 7.428165
_cell_length_b 18.534018
_cell_length_c 5.021516
_cell_angle_alpha 90.000000
_cell_angle_beta 90.906003
_cell_angle_gamma 90.000000
_cell_volume 691.244478
_symmetry_space_group_name_H-M "P 21/C"
_symmetry_group_IT_number 14
_symmetry_cell_setting 'monoclinic'
loop_
_space_group_symop_operation_xyz
x,y,z
-x,1/2+y,1/2-z
-x,-y,-z
x,1/2-y,1/2+z
loop_
_atom_site_type_symbol
_atom_site_label
_atom_site_fract_x
_atom_site_fract_y
_atom_site_fract_z
Si Si1 0.750000 0.042804 0.500000
Si Si2 0.453977 0.702982 0.545255
Si Si3 0.046024 0.797018 0.954744
Si Si4 0.615287 0.594289 0.203749
Si Si5 0.115287 0.405711 0.203749
O O1 0.585790 0.094928 0.426472
O O2 0.914211 0.094928 0.573529
O O3 0.685372 0.988630 0.740468
O O4 0.814628 0.988630 0.259532
O O5 0.492393 0.768259 0.340123
O O6 0.250000 0.675085 0.499999
O O7 0.592047 0.636351 0.485563
O O8 0.007607 0.731742 0.159876
O O9 0.907953 0.863648 0.014436
O O10 0.750000 0.635178 1.000000
#
# Coordination Sequence:
#
# PCOD8127792 Si02
#       5
#     4   4   4   4   4
#     4   8  18  36  68  94 136 166 220 270 334 382
#     4  10  23  41  67  97 133 175 219 276 333 387
#     4  10  23  41  67  97 133 175 219 276 333 387
#     4   9  18  38  67  94 133 169 222 269 328 395
#     4   9  18  38  67  94 133 169 222 269 328 395
#
# _framework density 28.933326000000001
#
# number of rings (size 3 to 8) (size 9 to 14) (size 15 to 20)
#    1.200    1.600    0.000    0.000    8.400    1.600 
#    0.000    2.000    0.000    0.000    0.000    0.000 
#    0.000    0.000    0.000    0.000    0.000    0.000 
#
# Total GULP energy -247809.367705 kJ/mol
# GULP energy per Si atom -12390.468385 kJ/mol
# Density = 2.886747 g / cm^3
# Si number density = 28.933326 Si / 1000 Ang^3
#
#
#
# Elastic Constant Matrix: (Units=GPa)
#
#
# Indices 1 2 3 4 5 6 
#
# 1 169.4036 32.3152 31.8200 0.0000 -36.9991 0.0000
# 2 32.3152 94.3700 24.4227 0.0000 -38.9841 0.0000
# 3 31.8200 24.4227 75.0848 0.0000 -33.9665 0.0000
# 4 0.0000 0.0000 0.0000 27.0659 0.0000 -31.9538
# 5 -36.9991 -38.9841 -33.9665 0.0000 38.4812 0.0000
# 6 0.0000 0.0000 0.0000 -31.9538 0.0000 29.2704
#
#
#
# Elastic Compliance Matrix: (Units=1/GPa)
#
#
# Indices 1 2 3 4 5 6 
#
# 1 0.007504 0.000763 0.000308 0.000000 0.008259 0.000000
# 2 0.000763 0.019066 0.004236 0.000000 0.023787 0.000000
# 3 0.000308 0.004236 0.023115 0.000000 0.024991 0.000000
# 4 0.000000 0.000000 0.000000 -0.127921 0.000000 -0.139648
# 5 0.008259 0.023787 0.024991 0.000000 0.080085 0.000000
# 6 0.000000 0.000000 0.000000 -0.139648 0.000000 -0.118286
#
#
# Mechanical properties :
#
#
# Convention : Reuss Voigt Hill
#
# Bulk Modulus (GPa) = 16.58418 57.33048 36.95733
# Shear Modulus (GPa) = -46.74990 35.65021 -5.54985
#
# Velocity S-wave (km/s) = -4.02404 3.51401 -1.38648
# Velocity P-wave (km/s) = 3.98073 6.02678 3.19967
#
# Compressibility (1/GPa) = 0.06029842
#
# Stress axis : x y z
#
# Youngs Moduli (GPa) = 133.26992 52.45054 43.26182
#
# Poissons Ratio (x) = -0.04000 -0.01334
# Poissons Ratio (y) = -0.10164 -0.18326
# Poissons Ratio (z) = -0.04109 -0.22218
#
# Static dielectric constant tensor:
#      x y z
#    x 5.503380 0.000000 -0.589250 
#    y 0.000000 4.789230 0.000000 
#    z -0.589250 0.000000 4.878210 
# 
# 
# High freq. dielectric constant tensor:
#      x y z
#    x 2.204790 0.000000 -0.024720 
#    y 0.000000 2.158280 0.000000 
#    z -0.024720 0.000000 2.144840 
# 
# From -- ./inp_files/1144.got.cif
#   From: 2010.03.12/outbox.cif.g09.slc.cpg/sg14_1_cif.got.tgz:1144.got - 2010.03.31 13:35:05.
