data_PCOD8127172
_publ_section_title
;
Structure prediction by ZEFSAII (Michael W. Deem and Ramdas Pophale) SiO2 
 PCOD8127172
Probable space group: P 21/C
;
_chemical_formula_sum "Si O2"
_cell_formula_units_Z 28
_cell_length_a 7.147816
_cell_length_b 8.306767
_cell_length_c 29.403404
_cell_angle_alpha 90.000000
_cell_angle_beta 133.460052
_cell_angle_gamma 90.000000
_cell_volume 1267.220990
_symmetry_space_group_name_H-M "P 21/C"
_symmetry_group_IT_number 14
_symmetry_cell_setting 'monoclinic'
loop_
_space_group_symop_operation_xyz
x,y,z
-x,1/2+y,1/2-z
-x,-y,-z
x,1/2-y,1/2+z
loop_
_atom_site_type_symbol
_atom_site_label
_atom_site_fract_x
_atom_site_fract_y
_atom_site_fract_z
Si Si1 0.467050 0.314216 0.625500
Si Si2 0.721322 0.817117 0.659369
Si Si3 0.977129 0.476703 0.715015
Si Si4 0.128556 0.308217 0.915457
Si Si5 0.209655 0.976738 0.574528
Si Si6 0.074763 0.043248 0.130214
Si Si7 0.460855 0.655169 0.463886
O O1 0.771193 0.331202 0.686572
O O2 0.314425 0.407522 0.639423
O O3 0.421345 0.381423 0.566618
O O4 0.387417 0.129979 0.611873
O O5 0.806693 0.639848 0.690004
O O6 0.844856 0.859481 0.631826
O O7 0.410968 0.828847 0.600497
O O8 0.815973 0.953899 0.710494
O O9 0.138733 0.470283 0.694786
O O10 0.942329 0.441678 0.904817
O O11 0.400719 0.307630 0.988998
O O12 0.015183 0.129781 0.902847
O O13 0.000000 0.000000 0.500000
O O14 0.848743 0.179060 0.088994
O O15 0.500000 0.500000 0.500000
#
# Coordination Sequence:
#
# PCOD8127172 Si02
#       7
#     4   4   4   4   4   4   4
#     4  11  22  40  65  94 133 172 215 273 325 392
#     4  11  25  45  71  92 135 172 222 283 331 394
#     4  10  23  46  69  99 125 176 228 277 335 396
#     4  10  22  40  62  96 130 175 216 269 336 390
#     4  12  26  41  61 101 136 174 217 268 332 399
#     4   9  21  39  67  94 125 172 227 272 326 395
#     4   9  19  35  58  92 128 170 216 258 326 391
#
# _framework density 22.095593999999998
#
# number of rings (size 3 to 8) (size 9 to 14) (size 15 to 20)
#    0.000    1.714    1.429    2.571    2.000    7.429 
#    0.000    0.000    0.000    0.000    0.000    0.000 
#    0.000    0.000    0.000    0.000    0.000    0.000 
#
# Total GULP energy -347011.229050 kJ/mol
# GULP energy per Si atom -12393.258180 kJ/mol
# Density = 2.204530 g / cm^3
# Si number density = 22.095594 Si / 1000 Ang^3
#
#
#
# Elastic Constant Matrix: (Units=GPa)
#
#
# Indices 1 2 3 4 5 6 
#
# 1 132.5606 35.5611 54.8025 0.0000 -20.4818 0.0000
# 2 35.5611 58.4805 37.1632 0.0000 -2.4586 0.0000
# 3 54.8025 37.1632 125.6085 0.0000 -6.7375 0.0000
# 4 0.0000 0.0000 0.0000 31.1145 0.0000 1.7947
# 5 -20.4818 -2.4586 -6.7375 0.0000 31.1938 0.0000
# 6 0.0000 0.0000 0.0000 1.7947 0.0000 39.4597
#
#
#
# Elastic Compliance Matrix: (Units=1/GPa)
#
#
# Indices 1 2 3 4 5 6 
#
# 1 0.010989 -0.004417 -0.003156 0.000000 0.006186 0.000000
# 2 -0.004417 0.022837 -0.004946 0.000000 -0.002168 0.000000
# 3 -0.003156 -0.004946 0.010795 0.000000 -0.000131 0.000000
# 4 0.000000 0.000000 0.000000 0.032224 0.000000 -0.001466
# 5 0.006186 -0.002168 -0.000131 0.000000 0.035920 0.000000
# 6 0.000000 0.000000 0.000000 -0.001466 0.000000 0.025409
#
#
# Mechanical properties :
#
#
# Convention : Reuss Voigt Hill
#
# Bulk Modulus (GPa) = 51.06332 63.52258 57.29295
# Shear Modulus (GPa) = 29.45698 32.96179 31.20939
#
# Velocity S-wave (km/s) = 3.65521 3.86655 3.76236
# Velocity P-wave (km/s) = 6.40113 6.98176 6.69774
#
# Compressibility (1/GPa) = 0.01958353
#
# Stress axis : x y z
#
# Youngs Moduli (GPa) = 91.00035 43.78775 92.63935
#
# Poissons Ratio (x) = 0.19340 0.29236
# Poissons Ratio (y) = 0.40192 0.45821
# Poissons Ratio (z) = 0.28719 0.21658
#
# Static dielectric constant tensor:
#      x y z
#    x 4.109570 0.000000 0.124860 
#    y 0.000000 3.939060 0.000000 
#    z 0.124860 0.000000 4.310350 
# 
# 
# High freq. dielectric constant tensor:
#      x y z
#    x 1.873860 0.000000 -0.007350 
#    y 0.000000 1.857610 0.000000 
#    z -0.007350 0.000000 1.870990 
# 
# From -- ./inp_files/78747.got.cif
#   From: 2010.03.12/outbox.cif.g09.slc.cpg/sg14_40_cif.got.tgz:78747.got - 2010.03.31 13:35:05.
