data_PCOD8127126
_publ_section_title
;
Structure prediction by ZEFSAII (Michael W. Deem and Ramdas Pophale) SiO2 
 PCOD8127126
Probable space group: P 21/C
;
_chemical_formula_sum "Si O2"
_cell_formula_units_Z 32
_cell_length_a 11.932181
_cell_length_b 8.616319
_cell_length_c 15.135994
_cell_angle_alpha 90.000000
_cell_angle_beta 93.483219
_cell_angle_gamma 90.000000
_cell_volume 1553.279129
_symmetry_space_group_name_H-M "P 21/C"
_symmetry_group_IT_number 14
_symmetry_cell_setting 'monoclinic'
loop_
_space_group_symop_operation_xyz
x,y,z
-x,1/2+y,1/2-z
-x,-y,-z
x,1/2-y,1/2+z
loop_
_atom_site_type_symbol
_atom_site_label
_atom_site_fract_x
_atom_site_fract_y
_atom_site_fract_z
Si Si1 0.142142 0.196131 0.880963
Si Si2 0.967361 0.093991 0.085994
Si Si3 0.481092 0.768520 0.673365
Si Si4 0.590194 0.914804 0.845871
Si Si5 0.636625 0.778997 0.514184
Si Si6 0.937495 0.349652 0.965550
Si Si7 0.283077 0.513701 0.113850
Si Si8 0.189212 0.296685 0.693953
O O1 0.240779 0.207242 0.957937
O O2 0.177816 0.293159 0.798101
O O3 0.023543 0.261255 0.906892
O O4 0.116512 0.013075 0.859487
O O5 0.072737 0.155379 0.145733
O O6 0.903755 0.248175 0.049977
O O7 0.000000 0.000000 0.000000
O O8 0.536175 0.798584 0.771119
O O9 0.459880 0.585712 0.661707
O O10 0.563990 0.812107 0.597451
O O11 0.370441 0.874605 0.667222
O O12 0.722269 0.928527 0.829872
O O13 0.574018 0.837986 0.942515
O O14 0.658280 0.947188 0.471642
O O15 0.823358 0.379971 0.909586
O O16 0.000000 0.500000 0.000000
O O17 0.240002 0.369264 0.168974
#
# Coordination Sequence:
#
# PCOD8127126 Si02
#       8
#     4   4   4   4   4   4   4   4
#     4  11  24  40  67  94 135 173 221 272 334 403
#     4  10  22  39  65  92 131 175 219 267 338 396
#     4  12  26  44  70  99 130 180 226 275 341 405
#     4  11  24  45  69  95 136 172 224 280 335 400
#     4  11  23  47  68  96 133 177 221 281 336 396
#     4  11  20  41  64  95 127 173 217 267 334 398
#     4  11  24  41  68  95 134 171 218 278 336 397
#     4  11  23  43  63  96 138 174 216 284 331 397
#
# _framework density 20.601578
#
# number of rings (size 3 to 8) (size 9 to 14) (size 15 to 20)
#    0.000    1.000    3.750    4.500    7.000    0.000 
#    0.000    2.500    0.000    0.000    0.000    0.000 
#    0.000    0.000    0.000    0.000    0.000    0.000 
#
# Total GULP energy -396670.473830 kJ/mol
# GULP energy per Si atom -12395.952307 kJ/mol
# Density = 2.055469 g / cm^3
# Si number density = 20.601578 Si / 1000 Ang^3
#
#
#
# Elastic Constant Matrix: (Units=GPa)
#
#
# Indices 1 2 3 4 5 6 
#
# 1 82.6350 20.5664 26.9172 0.0000 22.0531 0.0000
# 2 20.5664 82.7224 20.0333 0.0000 10.9641 0.0000
# 3 26.9172 20.0333 98.1385 0.0000 13.7362 0.0000
# 4 0.0000 0.0000 0.0000 24.8314 0.0000 10.8096
# 5 22.0531 10.9641 13.7362 0.0000 32.6802 0.0000
# 6 0.0000 0.0000 0.0000 10.8096 0.0000 38.5095
#
#
#
# Elastic Compliance Matrix: (Units=1/GPa)
#
#
# Indices 1 2 3 4 5 6 
#
# 1 0.015869 -0.002121 -0.002678 0.000000 -0.008872 0.000000
# 2 -0.002121 0.013361 -0.001826 0.000000 -0.002284 0.000000
# 3 -0.002678 -0.001826 0.011643 0.000000 -0.002474 0.000000
# 4 0.000000 0.000000 0.000000 0.045878 0.000000 -0.012878
# 5 -0.008872 -0.002284 -0.002474 0.000000 0.038392 0.000000
# 6 0.000000 0.000000 0.000000 -0.012878 0.000000 0.029582
#
#
# Mechanical properties :
#
#
# Convention : Reuss Voigt Hill
#
# Bulk Modulus (GPa) = 36.20108 44.28109 40.24109
# Shear Modulus (GPa) = 28.21939 32.26947 30.24443
#
# Velocity S-wave (km/s) = 3.70505 3.96202 3.83569
# Velocity P-wave (km/s) = 5.99278 6.51696 6.26036
#
# Compressibility (1/GPa) = 0.02762348
#
# Stress axis : x y z
#
# Youngs Moduli (GPa) = 63.01533 74.84551 85.88685
#
# Poissons Ratio (x) = 0.15875 0.22999
# Poissons Ratio (y) = 0.13366 0.15683
# Poissons Ratio (z) = 0.16875 0.13667
#
# Static dielectric constant tensor:
#      x y z
#    x 3.845220 0.000000 0.005130 
#    y 0.000000 4.368270 0.000000 
#    z 0.005130 0.000000 3.769590 
# 
# 
# High freq. dielectric constant tensor:
#      x y z
#    x 1.810180 0.000000 0.013480 
#    y 0.000000 1.812740 0.000000 
#    z 0.013480 0.000000 1.806680 
# 
# From -- ./inp_files/43727.got.cif
#   From: 2010.03.12/outbox.cif.g09.slc.cpg/sg14_22_cif.got.tgz:43727.got - 2010.03.31 13:35:05.
