data_PCOD8127508
_publ_section_title
;
Structure prediction by ZEFSAII (Michael W. Deem and Ramdas Pophale) SiO2 
 PCOD8127508
Probable space group: P 21/C
;
_chemical_formula_sum "Si O2"
_cell_formula_units_Z 32
_cell_length_a 5.210310
_cell_length_b 26.389515
_cell_length_c 10.323147
_cell_angle_alpha 90.000000
_cell_angle_beta 73.957408
_cell_angle_gamma 90.000000
_cell_volume 1364.130809
_symmetry_space_group_name_H-M "P 21/C"
_symmetry_group_IT_number 14
_symmetry_cell_setting 'monoclinic'
loop_
_space_group_symop_operation_xyz
x,y,z
-x,1/2+y,1/2-z
-x,-y,-z
x,1/2-y,1/2+z
loop_
_atom_site_type_symbol
_atom_site_label
_atom_site_fract_x
_atom_site_fract_y
_atom_site_fract_z
Si Si1 0.598650 0.177162 0.201347
Si Si2 0.855528 0.541963 0.257016
Si Si3 0.098396 0.297971 0.479674
Si Si4 0.616237 0.887891 0.971911
Si Si5 0.716701 0.769186 0.306135
Si Si6 0.834926 0.076646 0.798788
Si Si7 0.593757 0.617387 0.834866
Si Si8 0.584968 0.086746 0.370432
O O1 0.368213 0.145201 0.162281
O O2 0.508227 0.235019 0.235314
O O3 0.660808 0.145441 0.322177
O O4 0.830530 0.176025 0.062990
O O5 0.823160 0.566824 0.406323
O O6 0.854117 0.482327 0.271635
O O7 0.601416 0.557679 0.205585
O O8 0.135504 0.557454 0.153284
O O9 0.300857 0.346027 0.430842
O O10 0.062225 0.274072 0.340657
O O11 0.178246 0.256457 0.577273
O O12 0.330409 0.912352 0.046576
O O13 0.593038 0.822650 0.362775
O O14 0.670434 0.103486 0.707491
O O15 0.131790 0.099388 0.771946
O O16 0.572765 0.587782 0.973238
#
# Coordination Sequence:
#
# PCOD8127508 Si02
#       8
#     4   4   4   4   4   4   4   4
#     4  10  23  43  68  96 136 181 227 291 345 422
#     4  11  24  44  73 100 133 188 234 292 356 420
#     4  11  22  43  68  97 137 179 233 289 354 420
#     4  10  22  43  67  99 136 175 232 291 346 422
#     4  11  25  41  67 101 134 185 232 283 357 422
#     4  12  26  44  70 101 141 183 233 293 354 415
#     4  12  27  44  67 101 143 185 229 297 344 428
#     4  11  24  46  69 101 140 180 240 285 355 421
#
# _framework density 23.458158000000001
#
# number of rings (size 3 to 8) (size 9 to 14) (size 15 to 20)
#    0.000    1.000    2.500    3.375    1.750    6.000 
#    0.000    3.125    0.000    0.000    0.000    0.000 
#    0.000    0.000    0.000    0.000    0.000    0.000 
#
# Total GULP energy -396570.160176 kJ/mol
# GULP energy per Si atom -12392.817506 kJ/mol
# Density = 2.340477 g / cm^3
# Si number density = 23.458158 Si / 1000 Ang^3
#
#
#
# Elastic Constant Matrix: (Units=GPa)
#
#
# Indices 1 2 3 4 5 6 
#
# 1 69.3121 31.2894 10.1838 0.0000 -11.4102 0.0000
# 2 31.2894 155.5837 24.9163 0.0000 -1.5623 0.0000
# 3 10.1838 24.9163 94.1827 0.0000 -5.2818 0.0000
# 4 0.0000 0.0000 0.0000 26.3665 0.0000 -7.8659
# 5 -11.4102 -1.5623 -5.2818 0.0000 38.8859 0.0000
# 6 0.0000 0.0000 0.0000 -7.8659 0.0000 31.1548
#
#
#
# Elastic Compliance Matrix: (Units=1/GPa)
#
#
# Indices 1 2 3 4 5 6 
#
# 1 0.016752 -0.003210 -0.000699 0.000000 0.004691 0.000000
# 2 -0.003210 0.007327 -0.001640 0.000000 -0.000870 0.000000
# 3 -0.000699 -0.001640 0.011197 0.000000 0.001250 0.000000
# 4 0.000000 0.000000 0.000000 0.041016 0.000000 0.010356
# 5 0.004691 -0.000870 0.001250 0.000000 0.027228 0.000000
# 6 0.000000 0.000000 0.000000 0.010356 0.000000 0.034712
#
#
# Mechanical properties :
#
#
# Convention : Reuss Voigt Hill
#
# Bulk Modulus (GPa) = 41.36038 50.20637 45.78337
# Shear Modulus (GPa) = 31.76840 36.12737 33.94789
#
# Velocity S-wave (km/s) = 3.68402 3.92864 3.80829
# Velocity P-wave (km/s) = 5.98045 6.48289 6.23674
#
# Compressibility (1/GPa) = 0.02417773
#
# Stress axis : x y z
#
# Youngs Moduli (GPa) = 59.69604 136.48426 89.30779
#
# Poissons Ratio (x) = 0.43809 0.06243
# Poissons Ratio (y) = 0.19161 0.14647
# Poissons Ratio (z) = 0.04173 0.22384
#
# Static dielectric constant tensor:
#      x y z
#    x 4.054580 0.000000 -0.048950 
#    y 0.000000 4.470850 0.000000 
#    z -0.048950 0.000000 4.271180 
# 
# 
# High freq. dielectric constant tensor:
#      x y z
#    x 1.913160 0.000000 -0.003220 
#    y 0.000000 1.946950 0.000000 
#    z -0.003220 0.000000 1.935250 
# 
# From -- ./inp_files/22294.got.cif
#   From: 2010.03.12/outbox.cif.g09.slc.cpg/sg14_12_cif.got.tgz:22294.got - 2010.03.31 13:35:05.
