data_PCOD8127276
_publ_section_title
;
Structure prediction by ZEFSAII (Michael W. Deem and Ramdas Pophale) SiO2 
 PCOD8127276
Probable space group: P 21/C
;
_chemical_formula_sum "Si O2"
_cell_formula_units_Z 32
_cell_length_a 11.374005
_cell_length_b 8.753573
_cell_length_c 14.803124
_cell_angle_alpha 90.000000
_cell_angle_beta 93.751107
_cell_angle_gamma 90.000000
_cell_volume 1470.688664
_symmetry_space_group_name_H-M "P 21/C"
_symmetry_group_IT_number 14
_symmetry_cell_setting 'monoclinic'
loop_
_space_group_symop_operation_xyz
x,y,z
-x,1/2+y,1/2-z
-x,-y,-z
x,1/2-y,1/2+z
loop_
_atom_site_type_symbol
_atom_site_label
_atom_site_fract_x
_atom_site_fract_y
_atom_site_fract_z
Si Si1 0.684381 0.038349 0.541451
Si Si2 0.253717 0.084082 0.275443
Si Si3 0.646287 0.590092 0.725384
Si Si4 0.064647 0.880337 0.194502
Si Si5 0.411540 0.983891 0.132729
Si Si6 0.201392 0.810806 0.027903
Si Si7 0.855512 0.097340 0.177916
Si Si8 0.549020 0.672959 0.908350
O O1 0.767165 0.131448 0.477162
O O2 0.588778 0.151810 0.580761
O O3 0.766080 0.976831 0.625169
O O4 0.623933 0.893392 0.494124
O O5 0.269459 0.264699 0.279282
O O6 0.137964 0.035765 0.215243
O O7 0.364627 0.002839 0.232654
O O8 0.539066 0.598121 0.646981
O O9 0.726226 0.439507 0.712840
O O10 0.589452 0.582194 0.821357
O O11 0.096382 0.824466 0.095037
O O12 0.090902 0.744611 0.267325
O O13 0.931506 0.941629 0.193498
O O14 0.321876 0.892602 0.065152
O O15 0.425151 0.149202 0.090099
O O16 0.155884 0.870519 0.929191
#
# Coordination Sequence:
#
# PCOD8127276 Si02
#       8
#     4   4   4   4   4   4   4   4
#     4  11  21  38  61  95 131 175 215 267 323 389
#     4  10  22  41  63  91 131 174 214 272 321 386
#     4  11  23  40  65  95 137 181 218 269 327 393
#     4  11  25  48  70  97 128 170 227 282 330 392
#     4  10  23  39  62  96 135 173 216 263 327 393
#     4  11  25  43  70  99 133 173 220 274 330 397
#     4  12  25  45  72  95 129 174 224 274 340 388
#     4  10  23  36  59  96 139 175 219 262 322 392
#
# _framework density 21.758514000000002
#
# number of rings (size 3 to 8) (size 9 to 14) (size 15 to 20)
#    0.000    1.250    2.500    2.625    5.250    2.000 
#    0.000    0.625    0.000    0.000    0.000    0.000 
#    0.000    0.000    0.000    0.000    0.000    0.000 
#
# Total GULP energy -396751.199734 kJ/mol
# GULP energy per Si atom -12398.474992 kJ/mol
# Density = 2.170899 g / cm^3
# Si number density = 21.758514 Si / 1000 Ang^3
#
#
#
# Elastic Constant Matrix: (Units=GPa)
#
#
# Indices 1 2 3 4 5 6 
#
# 1 70.5973 27.2188 16.6618 0.0000 -2.3259 0.0000
# 2 27.2188 73.2170 45.9277 0.0000 1.4780 0.0000
# 3 16.6618 45.9277 97.9969 0.0000 1.5263 0.0000
# 4 0.0000 0.0000 0.0000 26.8785 0.0000 -5.6277
# 5 -2.3259 1.4780 1.5263 0.0000 25.1470 0.0000
# 6 0.0000 0.0000 0.0000 -5.6277 0.0000 33.6850
#
#
#
# Elastic Compliance Matrix: (Units=1/GPa)
#
#
# Indices 1 2 3 4 5 6 
#
# 1 0.016626 -0.006271 0.000083 0.000000 0.001901 0.000000
# 2 -0.006271 0.021719 -0.009092 0.000000 -0.001305 0.000000
# 3 0.000083 -0.009092 0.014457 0.000000 -0.000335 0.000000
# 4 0.000000 0.000000 0.000000 0.038553 0.000000 0.006441
# 5 0.001901 -0.001305 -0.000335 0.000000 0.040039 0.000000
# 6 0.000000 0.000000 0.000000 0.006441 0.000000 0.030763
#
#
# Mechanical properties :
#
#
# Convention : Reuss Voigt Hill
#
# Bulk Modulus (GPa) = 44.96363 46.82533 45.89448
# Shear Modulus (GPa) = 24.98356 27.27564 26.12960
#
# Velocity S-wave (km/s) = 3.39222 3.54441 3.46915
# Velocity P-wave (km/s) = 6.00438 6.19012 6.09796
#
# Compressibility (1/GPa) = 0.02224020
#
# Stress axis : x y z
#
# Youngs Moduli (GPa) = 60.14772 46.04238 69.17108
#
# Poissons Ratio (x) = 0.28873 -0.00571
# Poissons Ratio (y) = 0.37718 0.62894
# Poissons Ratio (z) = -0.00496 0.41864
#
# Static dielectric constant tensor:
#      x y z
#    x 3.884330 0.000000 -0.049030 
#    y 0.000000 3.833740 0.000000 
#    z -0.049030 0.000000 3.977120 
# 
# 
# High freq. dielectric constant tensor:
#      x y z
#    x 1.847460 0.000000 0.002030 
#    y 0.000000 1.857570 0.000000 
#    z 0.002030 0.000000 1.863130 
# 
# From -- ./inp_files/43725.got.cif
#   From: 2010.03.12/outbox.cif.g09.slc.cpg/sg14_22_cif.got.tgz:43725.got - 2010.03.31 13:35:05.
