data_PCOD8127640
_publ_section_title
;
Structure prediction by ZEFSAII (Michael W. Deem and Ramdas Pophale) SiO2 
 PCOD8127640
Probable space group: P 21/C
;
_chemical_formula_sum "Si O2"
_cell_formula_units_Z 20
_cell_length_a 8.942724
_cell_length_b 17.441471
_cell_length_c 11.519640
_cell_angle_alpha 90.000000
_cell_angle_beta 29.278398
_cell_angle_gamma 90.000000
_cell_volume 878.715579
_symmetry_space_group_name_H-M "P 21/C"
_symmetry_group_IT_number 14
_symmetry_cell_setting 'monoclinic'
loop_
_space_group_symop_operation_xyz
x,y,z
-x,1/2+y,1/2-z
-x,-y,-z
x,1/2-y,1/2+z
loop_
_atom_site_type_symbol
_atom_site_label
_atom_site_fract_x
_atom_site_fract_y
_atom_site_fract_z
Si Si1 0.205502 0.839377 0.604411
Si Si2 0.395658 0.073432 0.259469
Si Si3 0.572165 0.801281 0.944246
Si Si4 0.733672 0.043586 0.252834
Si Si5 0.692619 0.092668 0.697986
O O1 0.455837 0.780943 0.483738
O O2 0.091076 0.892013 0.788809
O O3 0.351408 0.896252 0.410385
O O4 0.934259 0.794562 0.721768
O O5 0.531496 0.135874 0.080184
O O6 0.526125 0.087595 0.299333
O O7 0.035094 0.083147 0.510373
O O8 0.482645 0.987340 0.155206
O O9 0.434832 0.830565 0.157768
O O10 0.500000 0.000000 0.500000
O O11 0.000000 0.000000 0.000000
#
# Coordination Sequence:
#
# PCOD8127640 Si02
#       5
#     4   4   4   4   4
#     4  11  27  44  69 107 147 195 250 312 385 453
#     4  10  23  43  71 102 136 194 245 306 370 449
#     4  11  26  44  70 100 146 195 243 314 381 458
#     4  12  27  47  76 111 150 197 255 315 372 452
#     4  10  22  45  70  99 142 184 256 297 381 444
#
# _framework density 22.760491999999999
#
# number of rings (size 3 to 8) (size 9 to 14) (size 15 to 20)
#    0.000    1.200    2.000    1.800    8.400    1.600 
#    0.000    0.000    0.000    0.000    0.000    0.000 
#    0.000    0.000    0.000    0.000    0.000    0.000 
#
# Total GULP energy -247875.043373 kJ/mol
# GULP energy per Si atom -12393.752169 kJ/mol
# Density = 2.270869 g / cm^3
# Si number density = 22.760492 Si / 1000 Ang^3
#
#
#
# Elastic Constant Matrix: (Units=GPa)
#
#
# Indices 1 2 3 4 5 6 
#
# 1 160.2868 50.6710 30.8737 0.0000 14.8335 0.0000
# 2 50.6710 99.1184 35.1700 0.0000 -1.0150 0.0000
# 3 30.8737 35.1700 84.9348 0.0000 16.8396 0.0000
# 4 0.0000 0.0000 0.0000 32.0882 0.0000 -2.0003
# 5 14.8335 -1.0150 16.8396 0.0000 24.5659 0.0000
# 6 0.0000 0.0000 0.0000 -2.0003 0.0000 46.3077
#
#
#
# Elastic Compliance Matrix: (Units=1/GPa)
#
#
# Indices 1 2 3 4 5 6 
#
# 1 0.008019 -0.004048 -0.000284 0.000000 -0.004814 0.000000
# 2 -0.004048 0.014306 -0.005849 0.000000 0.007045 0.000000
# 3 -0.000284 -0.005849 0.016564 0.000000 -0.011425 0.000000
# 4 0.000000 0.000000 0.000000 0.031248 0.000000 0.001350
# 5 -0.004814 0.007045 -0.011425 0.000000 0.051736 0.000000
# 6 0.000000 0.000000 0.000000 0.001350 0.000000 0.021653
#
#
# Mechanical properties :
#
#
# Convention : Reuss Voigt Hill
#
# Bulk Modulus (GPa) = 53.97673 64.19660 59.08667
# Shear Modulus (GPa) = 29.40072 35.76739 32.58405
#
# Velocity S-wave (km/s) = 3.59798 3.96848 3.78776
# Velocity P-wave (km/s) = 6.40525 7.01890 6.71908
#
# Compressibility (1/GPa) = 0.01852650
#
# Stress axis : x y z
#
# Youngs Moduli (GPa) = 124.70853 69.90164 60.37135
#
# Poissons Ratio (x) = 0.28295 0.01715
# Poissons Ratio (y) = 0.50479 0.35312
# Poissons Ratio (z) = 0.03544 0.40887
#
# Static dielectric constant tensor:
#      x y z
#    x 4.436610 0.000000 0.046550 
#    y 0.000000 3.996910 0.000000 
#    z 0.046550 0.000000 3.892560 
# 
# 
# High freq. dielectric constant tensor:
#      x y z
#    x 1.925500 0.000000 -0.000230 
#    y 0.000000 1.890260 0.000000 
#    z -0.000230 0.000000 1.883080 
# 
# From -- ./inp_files/21136.got.cif
#   From: 2010.03.12/outbox.cif.g09.slc.cpg/sg14_11_cif.got.tgz:21136.got - 2010.03.31 13:35:05.
