data_PCOD8127531
_publ_section_title
;
Structure prediction by ZEFSAII (Michael W. Deem and Ramdas Pophale) SiO2 
 PCOD8127531
Probable space group: P 21/C
;
_chemical_formula_sum "Si O2"
_cell_formula_units_Z 24
_cell_length_a 4.802408
_cell_length_b 19.722073
_cell_length_c 11.913281
_cell_angle_alpha 90.000000
_cell_angle_beta 115.101812
_cell_angle_gamma 90.000000
_cell_volume 1021.781460
_symmetry_space_group_name_H-M "P 21/C"
_symmetry_group_IT_number 14
_symmetry_cell_setting 'monoclinic'
loop_
_space_group_symop_operation_xyz
x,y,z
-x,1/2+y,1/2-z
-x,-y,-z
x,1/2-y,1/2+z
loop_
_atom_site_type_symbol
_atom_site_label
_atom_site_fract_x
_atom_site_fract_y
_atom_site_fract_z
Si Si1 0.005996 0.280665 0.624278
Si Si2 0.372278 0.853771 0.385640
Si Si3 0.266582 0.120831 0.335881
Si Si4 0.248328 0.100507 0.752351
Si Si5 0.367061 0.948161 0.776364
Si Si6 0.611965 0.651982 0.486876
O O1 0.193147 0.306626 0.765485
O O2 0.446538 0.148857 0.702169
O O3 0.850319 0.209888 0.627142
O O4 0.739101 0.332397 0.544555
O O5 0.643367 0.865123 0.520800
O O6 0.767319 0.716090 0.446203
O O7 0.108681 0.912177 0.344868
O O8 0.558286 0.083610 0.331786
O O9 0.987056 0.069799 0.267082
O O10 0.418595 0.028572 0.789242
O O11 0.219004 0.136813 0.868141
O O12 0.604353 0.914914 0.906486
#
# Coordination Sequence:
#
# PCOD8127531 Si02
#       6
#     4   4   4   4   4   4
#     4  10  23  44  67  89 132 176 223 271 324 392
#     4  12  26  41  65 100 136 178 216 277 328 395
#     4  10  23  43  67  93 129 182 220 262 343 386
#     4  12  25  41  66 106 133 168 224 274 333 387
#     4  10  22  43  70  95 134 174 219 274 326 398
#     4  10  22  44  68  97 126 179 219 274 330 380
#
# _framework density 23.488391
#
# number of rings (size 3 to 8) (size 9 to 14) (size 15 to 20)
#    0.000    1.333    0.000    4.500    2.333    4.000 
#    9.000    6.667    0.000    0.000    0.000    0.000 
#    0.000    0.000    0.000    0.000    0.000    0.000 
#
# Total GULP energy -297513.089791 kJ/mol
# GULP energy per Si atom -12396.378741 kJ/mol
# Density = 2.343493 g / cm^3
# Si number density = 23.488391 Si / 1000 Ang^3
#
#
#
# Elastic Constant Matrix: (Units=GPa)
#
#
# Indices 1 2 3 4 5 6 
#
# 1 103.8020 8.8146 44.8353 0.0000 -5.9299 0.0000
# 2 8.8146 68.9245 44.5545 0.0000 -13.0723 0.0000
# 3 44.8353 44.5545 144.0669 0.0000 -15.7817 0.0000
# 4 0.0000 0.0000 0.0000 15.8182 0.0000 0.1503
# 5 -5.9299 -13.0723 -15.7817 0.0000 35.2907 0.0000
# 6 0.0000 0.0000 0.0000 0.1503 0.0000 34.9681
#
#
#
# Elastic Compliance Matrix: (Units=1/GPa)
#
#
# Indices 1 2 3 4 5 6 
#
# 1 0.011200 0.001117 -0.003764 0.000000 0.000612 0.000000
# 2 0.001117 0.018927 -0.005691 0.000000 0.004654 0.000000
# 3 -0.003764 -0.005691 0.010066 0.000000 0.001761 0.000000
# 4 0.000000 0.000000 0.000000 0.063221 0.000000 -0.000272
# 5 0.000612 0.004654 0.001761 0.000000 0.030950 0.000000
# 6 0.000000 0.000000 0.000000 -0.000272 0.000000 0.028599
#
#
# Mechanical properties :
#
#
# Convention : Reuss Voigt Hill
#
# Bulk Modulus (GPa) = 42.52419 57.02246 49.77332
# Shear Modulus (GPa) = 26.66991 31.78801 29.22896
#
# Velocity S-wave (km/s) = 3.37330 3.68278 3.53143
# Velocity P-wave (km/s) = 5.77199 6.51256 6.15342
#
# Compressibility (1/GPa) = 0.02351603
#
# Stress axis : x y z
#
# Youngs Moduli (GPa) = 89.28937 52.83336 99.34910
#
# Poissons Ratio (x) = -0.05901 0.37392
# Poissons Ratio (y) = -0.09972 0.56543
# Poissons Ratio (z) = 0.33606 0.30069
#
# Static dielectric constant tensor:
#      x y z
#    x 4.435880 0.000000 -0.000610 
#    y 0.000000 4.028320 0.000000 
#    z -0.000610 0.000000 4.075370 
# 
# 
# High freq. dielectric constant tensor:
#      x y z
#    x 1.950680 0.000000 -0.001100 
#    y 0.000000 1.917320 0.000000 
#    z -0.001100 0.000000 1.924670 
# 
# From -- ./inp_files/21290.got.cif
#   From: 2010.03.12/outbox.cif.g09.slc.cpg/sg14_11_cif.got.tgz:21290.got - 2010.03.31 13:35:05.
