data_PCOD8127953
_publ_section_title
;
Structure prediction by ZEFSAII (Michael W. Deem and Ramdas Pophale) SiO2 
 PCOD8127953
Probable space group: P 21/C
;
_chemical_formula_sum "Si O2"
_cell_formula_units_Z 32
_cell_length_a 12.289849
_cell_length_b 17.165029
_cell_length_c 5.614964
_cell_angle_alpha 90.000000
_cell_angle_beta 76.947644
_cell_angle_gamma 90.000000
_cell_volume 1153.905347
_symmetry_space_group_name_H-M "P 21/C"
_symmetry_group_IT_number 14
_symmetry_cell_setting 'monoclinic'
loop_
_space_group_symop_operation_xyz
x,y,z
-x,1/2+y,1/2-z
-x,-y,-z
x,1/2-y,1/2+z
loop_
_atom_site_type_symbol
_atom_site_label
_atom_site_fract_x
_atom_site_fract_y
_atom_site_fract_z
Si Si1 0.929852 0.278990 0.982714
Si Si2 0.345725 0.953184 0.010871
Si Si3 0.170363 0.445431 0.368359
Si Si4 0.164481 0.218554 0.643129
Si Si5 0.434604 0.048514 0.344697
Si Si6 0.012564 0.558834 0.202072
Si Si7 0.586408 0.778816 0.531170
Si Si8 0.683831 0.221485 0.057813
O O1 0.984035 0.231101 0.726574
O O2 0.921202 0.368441 0.928540
O O3 0.802833 0.253898 0.081105
O O4 0.290415 0.868240 0.025433
O O5 0.335504 0.995757 0.275990
O O6 0.475700 0.932655 0.906036
O O7 0.293189 0.016845 0.851244
O O8 0.172500 0.375209 0.177186
O O9 0.093441 0.519598 0.352619
O O10 0.108761 0.413431 0.636999
O O11 0.109228 0.236429 0.405034
O O12 0.287906 0.257081 0.546470
O O13 0.394334 0.128671 0.479603
O O14 0.500000 0.000000 0.500000
O O15 0.000000 0.500000 0.000000
O O16 0.527058 0.750376 0.811143
O O17 0.624121 0.266640 0.856007
#
# Coordination Sequence:
#
# PCOD8127953 Si02
#       8
#     4   4   4   4   4   4   4   4
#     4  10  23  45  74 102 148 191 243 311 375 440
#     4  11  27  46  75 109 149 202 253 313 388 456
#     4  11  26  47  73 106 149 200 253 314 383 461
#     4  10  24  44  71 106 141 190 250 307 375 449
#     4  11  27  47  73 110 154 198 255 318 382 459
#     4  11  28  45  73 110 151 201 253 314 387 463
#     4  10  24  45  75 104 149 197 251 313 382 450
#     4  10  23  43  72 106 143 190 248 307 374 448
#
# _framework density 27.731912000000001
#
# number of rings (size 3 to 8) (size 9 to 14) (size 15 to 20)
#    0.000    1.500    0.000    2.250   19.250    3.000 
#    0.000    0.000    0.000    0.000    0.000    0.000 
#    0.000    0.000    0.000    0.000    0.000    0.000 
#
# Total GULP energy -396669.182167 kJ/mol
# GULP energy per Si atom -12395.911943 kJ/mol
# Density = 2.766879 g / cm^3
# Si number density = 27.731912 Si / 1000 Ang^3
#
#
#
# Elastic Constant Matrix: (Units=GPa)
#
#
# Indices 1 2 3 4 5 6 
#
# 1 53.1259 7.4577 45.4417 0.0000 21.6202 0.0000
# 2 7.4577 185.8181 58.3649 0.0000 24.6408 0.0000
# 3 45.4417 58.3649 190.0854 0.0000 24.0613 0.0000
# 4 0.0000 0.0000 0.0000 57.0700 0.0000 2.4895
# 5 21.6202 24.6408 24.0613 0.0000 55.2648 0.0000
# 6 0.0000 0.0000 0.0000 2.4895 0.0000 34.3552
#
#
#
# Elastic Compliance Matrix: (Units=1/GPa)
#
#
# Indices 1 2 3 4 5 6 
#
# 1 0.027329 0.001978 -0.006007 0.000000 -0.008958 0.000000
# 2 0.001978 0.006308 -0.002070 0.000000 -0.002685 0.000000
# 3 -0.006007 -0.002070 0.007321 0.000000 0.000085 0.000000
# 4 0.000000 0.000000 0.000000 0.017578 0.000000 -0.001274
# 5 -0.008958 -0.002685 0.000085 0.000000 0.022759 0.000000
# 6 0.000000 0.000000 0.000000 -0.001274 0.000000 0.029200
#
#
# Mechanical properties :
#
#
# Convention : Reuss Voigt Hill
#
# Bulk Modulus (GPa) = 34.76877 72.39532 53.58204
# Shear Modulus (GPa) = 37.79841 50.52236 44.16038
#
# Velocity S-wave (km/s) = 3.69588 4.27290 3.99482
# Velocity P-wave (km/s) = 5.54774 7.10673 6.37507
#
# Compressibility (1/GPa) = 0.02876144
#
# Stress axis : x y z
#
# Youngs Moduli (GPa) = 36.59128 158.51738 136.58417
#
# Poissons Ratio (x) = -0.31350 0.82040
# Poissons Ratio (y) = -0.07237 0.28271
# Poissons Ratio (z) = 0.21979 0.32811
#
# Static dielectric constant tensor:
#      x y z
#    x 9.737400 0.000000 -0.576820 
#    y 0.000000 5.178060 0.000000 
#    z -0.576820 0.000000 5.703310 
# 
# 
# High freq. dielectric constant tensor:
#      x y z
#    x 2.164340 0.000000 -0.003060 
#    y 0.000000 2.105510 0.000000 
#    z -0.003060 0.000000 2.154640 
# 
# From -- ./inp_files/3797.got.cif
#   From: 2010.03.12/outbox.cif.g09.slc.cpg/sg14_2_cif.got.tgz:3797.got - 2010.03.31 13:35:05.
