data_PCOD8127365
_publ_section_title
;
Structure prediction by ZEFSAII (Michael W. Deem and Ramdas Pophale) SiO2 
 PCOD8127365
Probable space group: P 21/C
;
_chemical_formula_sum "Si O2"
_cell_formula_units_Z 32
_cell_length_a 8.247878
_cell_length_b 10.921441
_cell_length_c 16.468829
_cell_angle_alpha 90.000000
_cell_angle_beta 87.827042
_cell_angle_gamma 90.000000
_cell_volume 1482.424176
_symmetry_space_group_name_H-M "P 21/C"
_symmetry_group_IT_number 14
_symmetry_cell_setting 'monoclinic'
loop_
_space_group_symop_operation_xyz
x,y,z
-x,1/2+y,1/2-z
-x,-y,-z
x,1/2-y,1/2+z
loop_
_atom_site_type_symbol
_atom_site_label
_atom_site_fract_x
_atom_site_fract_y
_atom_site_fract_z
Si Si1 0.053682 0.415525 0.924304
Si Si2 0.151453 0.792490 0.141423
Si Si3 0.274239 0.183542 0.708554
Si Si4 0.430590 0.627930 0.533286
Si Si5 0.610547 0.243095 0.133563
Si Si6 0.365343 0.188601 0.369114
Si Si7 0.937805 0.369749 0.190334
Si Si8 0.352131 0.585263 0.223724
O O1 0.241070 0.377905 0.932248
O O2 0.035895 0.492479 0.841937
O O3 0.957078 0.286894 0.919024
O O4 0.000000 0.500000 0.000000
O O5 0.266736 0.886126 0.089530
O O6 0.060912 0.875220 0.210668
O O7 0.246597 0.696936 0.194494
O O8 0.437679 0.191265 0.652595
O O9 0.277172 0.264097 0.789486
O O10 0.102196 0.210060 0.664690
O O11 0.258215 0.040525 0.730292
O O12 0.500000 0.500000 0.500000
O O13 0.380318 0.716215 0.461164
O O14 0.562104 0.694381 0.586678
O O15 0.771117 0.320164 0.154024
O O16 0.599870 0.117215 0.184555
O O17 0.492859 0.084144 0.339566
#
# Coordination Sequence:
#
# PCOD8127365 Si02
#       8
#     4   4   4   4   4   4   4   4
#     4  12  24  40  63  99 136 171 218 284 347 393
#     4  10  22  42  62  94 131 168 222 274 322 413
#     4  11  20  39  68  94 124 172 226 267 336 398
#     4  11  24  45  65  91 133 174 215 278 340 398
#     4  10  23  39  63  96 129 167 222 272 326 404
#     4  10  23  39  64  94 131 171 222 272 333 412
#     4  11  23  42  68  96 132 175 221 277 339 406
#     4   9  19  38  64  90 122 166 217 270 323 390
#
# _framework density 21.586265000000001
#
# number of rings (size 3 to 8) (size 9 to 14) (size 15 to 20)
#    0.000    1.500    2.500    3.000    1.750    2.000 
#    0.000    3.750    0.000    0.000    0.000    0.000 
#    0.000    0.000    0.000    0.000    0.000    0.000 
#
# Total GULP energy -396478.762564 kJ/mol
# GULP energy per Si atom -12389.961330 kJ/mol
# Density = 2.153713 g / cm^3
# Si number density = 21.586265 Si / 1000 Ang^3
#
#
#
# Elastic Constant Matrix: (Units=GPa)
#
#
# Indices 1 2 3 4 5 6 
#
# 1 138.1832 15.8913 25.0809 0.0000 -9.6260 0.0000
# 2 15.8913 60.1783 21.2883 0.0000 -17.5951 0.0000
# 3 25.0809 21.2883 65.6146 0.0000 -13.4441 0.0000
# 4 0.0000 0.0000 0.0000 34.9094 0.0000 -5.5628
# 5 -9.6260 -17.5951 -13.4441 0.0000 29.0721 0.0000
# 6 0.0000 0.0000 0.0000 -5.5628 0.0000 24.1383
#
#
#
# Elastic Compliance Matrix: (Units=1/GPa)
#
#
# Indices 1 2 3 4 5 6 
#
# 1 0.007863 -0.000927 -0.002525 0.000000 0.000874 0.000000
# 2 -0.000927 0.021561 -0.004452 0.000000 0.010683 0.000000
# 3 -0.002525 -0.004452 0.018699 0.000000 0.005116 0.000000
# 4 0.000000 0.000000 0.000000 0.029738 0.000000 0.006853
# 5 0.000874 0.010683 0.005116 0.000000 0.043519 0.000000
# 6 0.000000 0.000000 0.000000 0.006853 0.000000 0.043007
#
#
# Mechanical properties :
#
#
# Convention : Reuss Voigt Hill
#
# Bulk Modulus (GPa) = 30.94758 43.16635 37.05696
# Shear Modulus (GPa) = 26.18276 31.07168 28.62722
#
# Velocity S-wave (km/s) = 3.48650 3.79808 3.64562
# Velocity P-wave (km/s) = 5.52950 6.26693 5.90973
#
# Compressibility (1/GPa) = 0.03231270
#
# Stress axis : x y z
#
# Youngs Moduli (GPa) = 127.18270 46.38086 53.48010
#
# Poissons Ratio (x) = 0.04301 0.13506
# Poissons Ratio (y) = 0.11793 0.23808
# Poissons Ratio (z) = 0.32120 0.20648
#
# Static dielectric constant tensor:
#      x y z
#    x 4.287560 0.000000 -0.140060 
#    y 0.000000 3.683450 0.000000 
#    z -0.140060 0.000000 3.909400 
# 
# 
# High freq. dielectric constant tensor:
#      x y z
#    x 1.867940 0.000000 -0.007280 
#    y 0.000000 1.829070 0.000000 
#    z -0.007280 0.000000 1.839090 
# 
# From -- ./inp_files/40318.got.cif
#   From: 2010.03.12/outbox.cif.g09.slc.cpg/sg14_21_cif.got.tgz:40318.got - 2010.03.31 13:35:05.
