data_PCOD8127054
_publ_section_title
;
Structure prediction by ZEFSAII (Michael W. Deem and Ramdas Pophale) SiO2 
 PCOD8127054
Probable space group: P 21/C
;
_chemical_formula_sum "Si O2"
_cell_formula_units_Z 24
_cell_length_a 8.595819
_cell_length_b 9.426321
_cell_length_c 17.313859
_cell_angle_alpha 90.000000
_cell_angle_beta 121.628292
_cell_angle_gamma 90.000000
_cell_volume 1194.515367
_symmetry_space_group_name_H-M "P 21/C"
_symmetry_group_IT_number 14
_symmetry_cell_setting 'monoclinic'
loop_
_space_group_symop_operation_xyz
x,y,z
-x,1/2+y,1/2-z
-x,-y,-z
x,1/2-y,1/2+z
loop_
_atom_site_type_symbol
_atom_site_label
_atom_site_fract_x
_atom_site_fract_y
_atom_site_fract_z
Si Si1 0.050347 0.269915 0.809045
Si Si2 0.013923 0.039283 0.159433
Si Si3 0.408243 0.981052 0.249656
Si Si4 0.433302 0.382576 0.923831
Si Si5 0.638039 0.371695 0.537444
Si Si6 0.655106 0.175984 0.221412
O O1 0.232316 0.328368 0.898629
O O2 0.053786 0.324719 0.722621
O O3 0.867297 0.328460 0.803808
O O4 0.043675 0.098619 0.804690
O O5 0.839548 0.077590 0.060416
O O6 0.201972 0.006819 0.162807
O O7 0.432986 0.058958 0.337510
O O8 0.552715 0.036386 0.224868
O O9 0.444910 0.814172 0.269746
O O10 0.500000 0.500000 0.000000
O O11 0.572746 0.250852 0.962770
O O12 0.500000 0.500000 0.500000
O O13 0.649935 0.313338 0.627710
#
# Coordination Sequence:
#
# PCOD8127054 Si02
#       6
#     4   4   4   4   4   4
#     4   9  19  35  57  81 112 149 189 227 277 343
#     4   9  19  35  56  83 110 149 190 226 278 343
#     4  10  22  39  58  81 116 152 188 230 282 342
#     4  11  21  39  60  84 116 147 190 241 281 328
#     4  11  21  37  62  86 112 146 192 238 281 332
#     4  10  22  39  57  84 115 151 189 229 282 341
#
# _framework density 20.091830000000002
#
# number of rings (size 3 to 8) (size 9 to 14) (size 15 to 20)
#    0.000    2.000    3.333    0.000    4.667    1.333 
#    0.000    3.333    0.000    0.000    0.000    0.000 
#    0.000    0.000    0.000    0.000    0.000    0.000 
#
# Total GULP energy -297478.140914 kJ/mol
# GULP energy per Si atom -12394.922538 kJ/mol
# Density = 2.004610 g / cm^3
# Si number density = 20.091830 Si / 1000 Ang^3
#
#
#
# Elastic Constant Matrix: (Units=GPa)
#
#
# Indices 1 2 3 4 5 6 
#
# 1 53.0080 -1.3777 20.2496 0.0000 16.2739 0.0000
# 2 -1.3777 69.4095 13.9597 0.0000 15.0731 0.0000
# 3 20.2496 13.9597 77.2406 0.0000 32.1212 0.0000
# 4 0.0000 0.0000 0.0000 37.8222 0.0000 1.8712
# 5 16.2739 15.0731 32.1212 0.0000 33.7038 0.0000
# 6 0.0000 0.0000 0.0000 1.8712 0.0000 34.2479
#
#
#
# Elastic Compliance Matrix: (Units=1/GPa)
#
#
# Indices 1 2 3 4 5 6 
#
# 1 0.022997 0.003161 -0.002310 0.000000 -0.010316 0.000000
# 2 0.003161 0.016392 -0.000179 0.000000 -0.008687 0.000000
# 3 -0.002310 -0.000179 0.021680 0.000000 -0.019466 0.000000
# 4 0.000000 0.000000 0.000000 0.026511 0.000000 -0.001448
# 5 -0.010316 -0.008687 -0.019466 0.000000 0.057089 0.000000
# 6 0.000000 0.000000 0.000000 -0.001448 0.000000 0.029278
#
#
# Mechanical properties :
#
#
# Convention : Reuss Voigt Hill
#
# Bulk Modulus (GPa) = 16.02206 29.48015 22.75110
# Shear Modulus (GPa) = 25.85221 32.27654 29.06438
#
# Velocity S-wave (km/s) = 3.59096 4.01240 3.80752
# Velocity P-wave (km/s) = 5.01847 6.01418 5.53875
#
# Compressibility (1/GPa) = 0.06241395
#
# Stress axis : x y z
#
# Youngs Moduli (GPa) = 43.48414 61.00360 46.12587
#
# Poissons Ratio (x) = -0.19285 0.10656
# Poissons Ratio (y) = -0.13747 0.00825
# Poissons Ratio (z) = 0.10046 0.01090
#
# Static dielectric constant tensor:
#      x y z
#    x 3.629840 0.000000 0.782020 
#    y 0.000000 6.193860 0.000000 
#    z 0.782020 0.000000 4.447740 
# 
# 
# High freq. dielectric constant tensor:
#      x y z
#    x 1.761400 0.000000 0.039670 
#    y 0.000000 1.801230 0.000000 
#    z 0.039670 0.000000 1.773860 
# 
# From -- ./inp_files/38912.got.cif
#   From: 2010.03.12/outbox.cif.g09.slc.cpg/sg14_20_cif.got.tgz:38912.got - 2010.03.31 13:35:05.
