data_PCOD8127920
_publ_section_title
;
Structure prediction by ZEFSAII (Michael W. Deem and Ramdas Pophale) SiO2 
 PCOD8127920
Probable space group: P 21/C
;
_chemical_formula_sum "Si O2"
_cell_formula_units_Z 32
_cell_length_a 13.921609
_cell_length_b 11.906447
_cell_length_c 9.327445
_cell_angle_alpha 90.000000
_cell_angle_beta 122.358651
_cell_angle_gamma 90.000000
_cell_volume 1306.003104
_symmetry_space_group_name_H-M "P 21/C"
_symmetry_group_IT_number 14
_symmetry_cell_setting 'monoclinic'
loop_
_space_group_symop_operation_xyz
x,y,z
-x,1/2+y,1/2-z
-x,-y,-z
x,1/2-y,1/2+z
loop_
_atom_site_type_symbol
_atom_site_label
_atom_site_fract_x
_atom_site_fract_y
_atom_site_fract_z
Si Si1 0.700688 0.982070 0.608912
Si Si2 0.085767 0.682444 0.304934
Si Si3 0.371533 0.296627 0.743791
Si Si4 0.576142 0.605120 0.501945
Si Si5 0.158217 0.174172 0.486305
Si Si6 0.646380 0.389150 0.800577
Si Si7 0.808517 0.985476 0.248633
Si Si8 0.220354 0.807018 0.182518
O O1 0.625790 0.064398 0.445248
O O2 0.755558 0.061774 0.772620
O O3 0.622377 0.893564 0.631567
O O4 0.792918 0.912954 0.591245
O O5 0.099156 0.549928 0.274149
O O6 0.183179 0.753223 0.303114
O O7 0.110971 0.699475 0.491613
O O8 0.959056 0.724006 0.168284
O O9 0.450363 0.322866 0.668557
O O10 0.244421 0.277664 0.578920
O O11 0.415432 0.180948 0.849550
O O12 0.447277 0.549277 0.386112
O O13 0.695339 0.543662 0.564440
O O14 0.135862 0.121326 0.627106
O O15 0.768821 0.435030 0.847659
O O16 0.666151 0.254687 0.793618
#
# Coordination Sequence:
#
# PCOD8127920 Si02
#       8
#     4   4   4   4   4   4   4   4
#     4  11  23  46  66  98 138 172 222 282 320 406
#     4  11  23  41  67  97 132 177 220 277 334 393
#     4  11  24  43  64  99 135 170 227 275 325 402
#     4  11  23  41  67  97 132 177 220 277 334 393
#     4  10  23  43  67  94 135 174 216 281 338 386
#     4  10  23  43  67  94 135 174 216 281 338 386
#     4   9  21  42  64  96 130 170 224 276 330 404
#     4  11  24  43  64  99 135 170 227 275 325 402
#
# _framework density 24.502237999999998
#
# number of rings (size 3 to 8) (size 9 to 14) (size 15 to 20)
#    0.000    1.500    2.500    1.500    3.500    1.000 
#    4.500    0.000    0.000    0.000    0.000    0.000 
#    0.000    0.000    0.000    0.000    0.000    0.000 
#
# Total GULP energy -396623.717976 kJ/mol
# GULP energy per Si atom -12394.491187 kJ/mol
# Density = 2.444647 g / cm^3
# Si number density = 24.502238 Si / 1000 Ang^3
#
#
#
# Elastic Constant Matrix: (Units=GPa)
#
#
# Indices 1 2 3 4 5 6 
#
# 1 34.3504 -3.7788 20.0667 0.0000 4.1861 0.0000
# 2 -3.7788 69.0560 9.8680 0.0000 -2.9716 0.0000
# 3 20.0667 9.8680 123.2753 0.0000 13.8059 0.0000
# 4 0.0000 0.0000 0.0000 33.7123 0.0000 -2.0811
# 5 4.1861 -2.9716 13.8059 0.0000 39.1678 0.0000
# 6 0.0000 0.0000 0.0000 -2.0811 0.0000 18.0277
#
#
#
# Elastic Compliance Matrix: (Units=1/GPa)
#
#
# Indices 1 2 3 4 5 6 
#
# 1 0.032691 0.002494 -0.005363 0.000000 -0.001414 0.000000
# 2 0.002494 0.014934 -0.001768 0.000000 0.001490 0.000000
# 3 -0.005363 -0.001768 0.009450 0.000000 -0.002892 0.000000
# 4 0.000000 0.000000 0.000000 0.029876 0.000000 0.003449
# 5 -0.001414 0.001490 -0.002892 0.000000 0.026815 0.000000
# 6 0.000000 0.000000 0.000000 0.003449 0.000000 0.055868
#
#
# Mechanical properties :
#
#
# Convention : Reuss Voigt Hill
#
# Bulk Modulus (GPa) = 20.91945 30.99931 25.95938
# Shear Modulus (GPa) = 25.66177 31.54993 28.60585
#
# Velocity S-wave (km/s) = 3.23975 3.59226 3.42055
# Velocity P-wave (km/s) = 4.74878 5.46670 5.12034
#
# Compressibility (1/GPa) = 0.04780240
#
# Stress axis : x y z
#
# Youngs Moduli (GPa) = 30.58919 66.96001 105.81660
#
# Poissons Ratio (x) = -0.16702 0.56747
# Poissons Ratio (y) = -0.07630 0.18712
# Poissons Ratio (z) = 0.16404 0.11841
#
# Static dielectric constant tensor:
#      x y z
#    x 4.147760 0.000000 -0.121800 
#    y 0.000000 4.595880 0.000000 
#    z -0.121800 0.000000 4.522860 
# 
# 
# High freq. dielectric constant tensor:
#      x y z
#    x 1.952370 0.000000 -0.005560 
#    y 0.000000 1.974380 0.000000 
#    z -0.005560 0.000000 1.990420 
# 
# From -- ./inp_files/16267.got.cif
#   From: 2010.03.12/outbox.cif.g09.slc.cpg/sg14_9_cif.got.tgz:16267.got - 2010.03.31 13:35:05.
