data_PCOD8127450
_publ_section_title
;
Structure prediction by ZEFSAII (Michael W. Deem and Ramdas Pophale) SiO2 
 PCOD8127450
Probable space group: P 21/C
;
_chemical_formula_sum "Si O2"
_cell_formula_units_Z 24
_cell_length_a 11.673968
_cell_length_b 10.579519
_cell_length_c 8.419680
_cell_angle_alpha 90.000000
_cell_angle_beta 70.491278
_cell_angle_gamma 90.000000
_cell_volume 980.173918
_symmetry_space_group_name_H-M "P 21/C"
_symmetry_group_IT_number 14
_symmetry_cell_setting 'monoclinic'
loop_
_space_group_symop_operation_xyz
x,y,z
-x,1/2+y,1/2-z
-x,-y,-z
x,1/2-y,1/2+z
loop_
_atom_site_type_symbol
_atom_site_label
_atom_site_fract_x
_atom_site_fract_y
_atom_site_fract_z
Si Si1 0.776350 0.380913 0.036115
Si Si2 0.504621 0.630603 0.409527
Si Si3 0.020152 0.052857 0.164167
Si Si4 0.980504 0.668589 0.918312
Si Si5 0.353782 0.815620 0.697986
Si Si6 0.233758 0.385497 0.769874
O O1 0.727678 0.253645 0.134911
O O2 0.714431 0.495608 0.156912
O O3 0.922556 0.381504 0.995356
O O4 0.741210 0.395872 0.865900
O O5 0.500000 0.500000 0.500000
O O6 0.428409 0.731131 0.541792
O O7 0.449783 0.605239 0.258312
O O8 0.643075 0.686833 0.336512
O O9 0.975510 0.201737 0.188923
O O10 0.162257 0.060127 0.148670
O O11 0.954923 0.946925 0.307017
O O12 0.000000 0.000000 0.000000
O O13 0.856521 0.695994 0.075129
#
# Coordination Sequence:
#
# PCOD8127450 Si02
#       6
#     4   4   4   4   4   4
#     4  10  22  42  70 100 135 184 241 302 357 443
#     4  11  24  49  67 103 140 186 242 294 360 433
#     4  11  25  44  71 109 148 196 236 299 371 436
#     4  11  26  45  71 108 150 188 246 300 375 440
#     4  10  24  43  73  99 135 190 244 294 357 434
#     4  11  25  44  66 104 146 183 238 305 361 438
#
# _framework density 24.485451000000001
#
# number of rings (size 3 to 8) (size 9 to 14) (size 15 to 20)
#    0.000    1.333    1.667    3.000   11.667    0.667 
#    0.000    0.000    0.000    0.000    0.000    0.000 
#    0.000    0.000    0.000    0.000    0.000    0.000 
#
# Total GULP energy -297353.597850 kJ/mol
# GULP energy per Si atom -12389.733244 kJ/mol
# Density = 2.442972 g / cm^3
# Si number density = 24.485451 Si / 1000 Ang^3
#
#
#
# Elastic Constant Matrix: (Units=GPa)
#
#
# Indices 1 2 3 4 5 6 
#
# 1 141.7599 17.6357 74.5502 0.0000 25.6682 0.0000
# 2 17.6357 113.4964 34.7164 0.0000 25.0166 0.0000
# 3 74.5502 34.7164 124.3549 0.0000 29.1501 0.0000
# 4 0.0000 0.0000 0.0000 28.8032 0.0000 10.4153
# 5 25.6682 25.0166 29.1501 0.0000 65.4891 0.0000
# 6 0.0000 0.0000 0.0000 10.4153 0.0000 34.7606
#
#
#
# Elastic Compliance Matrix: (Units=1/GPa)
#
#
# Indices 1 2 3 4 5 6 
#
# 1 0.010459 0.000585 -0.006051 0.000000 -0.001629 0.000000
# 2 0.000585 0.010139 -0.002478 0.000000 -0.002999 0.000000
# 3 -0.006051 -0.002478 0.012933 0.000000 -0.002438 0.000000
# 4 0.000000 0.000000 0.000000 0.038937 0.000000 -0.011667
# 5 -0.001629 -0.002999 -0.002438 0.000000 0.018139 0.000000
# 6 0.000000 0.000000 0.000000 -0.011667 0.000000 0.032264
#
#
# Mechanical properties :
#
#
# Convention : Reuss Voigt Hill
#
# Bulk Modulus (GPa) = 56.68527 70.37954 63.53241
# Shear Modulus (GPa) = 34.56851 42.65783 38.61317
#
# Velocity S-wave (km/s) = 3.76147 4.17846 3.97543
# Velocity P-wave (km/s) = 6.48581 7.21701 6.86115
#
# Compressibility (1/GPa) = 0.01764127
#
# Stress axis : x y z
#
# Youngs Moduli (GPa) = 95.61347 98.62829 77.32388
#
# Poissons Ratio (x) = -0.05769 0.46792
# Poissons Ratio (y) = -0.05593 0.19162
# Poissons Ratio (z) = 0.57860 0.24442
#
# Static dielectric constant tensor:
#      x y z
#    x 5.221380 0.000000 0.232580 
#    y 0.000000 4.262560 0.000000 
#    z 0.232580 0.000000 4.578390 
# 
# 
# High freq. dielectric constant tensor:
#      x y z
#    x 1.985340 0.000000 0.012740 
#    y 0.000000 1.952390 0.000000 
#    z 0.012740 0.000000 1.985600 
# 
# From -- ./inp_files/12380.got.cif
#   From: 2010.03.12/outbox.cif.g09.slc.cpg/sg14_7_cif.got.tgz:12380.got - 2010.03.31 13:35:05.
