data_PCOD8127448
_publ_section_title
;
Structure prediction by ZEFSAII (Michael W. Deem and Ramdas Pophale) SiO2 
 PCOD8127448
Probable space group: P 21/C
;
_chemical_formula_sum "Si O2"
_cell_formula_units_Z 24
_cell_length_a 9.598880
_cell_length_b 17.628945
_cell_length_c 9.366429
_cell_angle_alpha 90.000000
_cell_angle_beta 134.757104
_cell_angle_gamma 90.000000
_cell_volume 1125.483855
_symmetry_space_group_name_H-M "P 21/C"
_symmetry_group_IT_number 14
_symmetry_cell_setting 'monoclinic'
loop_
_space_group_symop_operation_xyz
x,y,z
-x,1/2+y,1/2-z
-x,-y,-z
x,1/2-y,1/2+z
loop_
_atom_site_type_symbol
_atom_site_label
_atom_site_fract_x
_atom_site_fract_y
_atom_site_fract_z
Si Si1 0.245239 0.838573 0.379924
Si Si2 0.403367 0.591647 0.716363
Si Si3 0.825089 0.499233 0.675958
Si Si4 0.736980 0.018588 0.432313
Si Si5 0.803547 0.672096 0.589735
Si Si6 0.414752 0.234147 0.799076
O O1 0.271289 0.888386 0.256712
O O2 0.279227 0.892800 0.541031
O O3 0.028354 0.803919 0.228190
O O4 0.392153 0.768084 0.487528
O O5 0.254465 0.564604 0.487047
O O6 0.529111 0.663102 0.756593
O O7 0.558900 0.527362 0.875030
O O8 0.056707 0.485066 0.863321
O O9 0.779321 0.581542 0.577991
O O10 0.714003 0.490058 0.745823
O O11 0.736928 0.709418 0.689408
O O12 0.681054 0.701316 0.367389
#
# Coordination Sequence:
#
# PCOD8127448 Si02
#       6
#     4   4   4   4   4   4
#     4  11  27  44  67 102 133 178 220 278 331 398
#     4  12  24  41  69 101 132 172 221 278 332 386
#     4  10  23  43  70  99 131 179 219 273 333 399
#     4  10  22  42  69  99 134 171 222 272 333 394
#     4  11  26  47  66  95 136 177 223 270 337 395
#     4  12  26  44  66  98 135 177 221 273 331 398
#
# _framework density 21.324162000000001
#
# number of rings (size 3 to 8) (size 9 to 14) (size 15 to 20)
#    0.000    1.000    3.333    2.000    4.667    5.333 
#    0.000    0.000    0.000    0.000    0.000    0.000 
#    0.000    0.000    0.000    0.000    0.000    0.000 
#
# Total GULP energy -297798.262789 kJ/mol
# GULP energy per Si atom -12408.260950 kJ/mol
# Density = 2.127563 g / cm^3
# Si number density = 21.324162 Si / 1000 Ang^3
#
#
#
# Elastic Constant Matrix: (Units=GPa)
#
#
# Indices 1 2 3 4 5 6 
#
# 1 122.2659 19.2419 32.0765 0.0000 5.5107 0.0000
# 2 19.2419 57.9089 34.6521 0.0000 5.9014 0.0000
# 3 32.0765 34.6521 91.3403 0.0000 2.8582 0.0000
# 4 0.0000 0.0000 0.0000 31.2933 0.0000 5.8865
# 5 5.5107 5.9014 2.8582 0.0000 28.5933 0.0000
# 6 0.0000 0.0000 0.0000 5.8865 0.0000 31.2459
#
#
#
# Elastic Compliance Matrix: (Units=1/GPa)
#
#
# Indices 1 2 3 4 5 6 
#
# 1 0.009142 -0.001313 -0.002674 0.000000 -0.001224 0.000000
# 2 -0.001313 0.022942 -0.008128 0.000000 -0.003670 0.000000
# 3 -0.002674 -0.008128 0.014949 0.000000 0.000699 0.000000
# 4 0.000000 0.000000 0.000000 0.033130 0.000000 -0.006241
# 5 -0.001224 -0.003670 0.000699 0.000000 0.035897 0.000000
# 6 0.000000 0.000000 0.000000 -0.006241 0.000000 0.033180
#
#
# Mechanical properties :
#
#
# Convention : Reuss Voigt Hill
#
# Bulk Modulus (GPa) = 43.85273 49.27289 46.56281
# Shear Modulus (GPa) = 27.61354 30.59616 29.10485
#
# Velocity S-wave (km/s) = 3.60243 3.79200 3.69843
# Velocity P-wave (km/s) = 6.15734 6.50608 6.33411
#
# Compressibility (1/GPa) = 0.02280360
#
# Stress axis : x y z
#
# Youngs Moduli (GPa) = 109.38249 43.58760 66.89503
#
# Poissons Ratio (x) = 0.05723 0.17889
# Poissons Ratio (y) = 0.14361 0.54371
# Poissons Ratio (z) = 0.29251 0.35427
#
# Static dielectric constant tensor:
#      x y z
#    x 4.012930 0.000000 0.054430 
#    y 0.000000 3.795770 0.000000 
#    z 0.054430 0.000000 3.809630 
# 
# 
# High freq. dielectric constant tensor:
#      x y z
#    x 1.851120 0.000000 0.004810 
#    y 0.000000 1.836510 0.000000 
#    z 0.004810 0.000000 1.841490 
# 
# From -- ./inp_files/10298.got.cif
#   From: 2010.03.12/outbox.cif.g09.slc.cpg/sg14_6_cif.got.tgz:10298.got - 2010.03.31 13:35:05.
