data_PCOD8127053
_publ_section_title
;
Structure prediction by ZEFSAII (Michael W. Deem and Ramdas Pophale) SiO2 
 PCOD8127053
Probable space group: P 21/C
;
_chemical_formula_sum "Si O2"
_cell_formula_units_Z 20
_cell_length_a 6.860837
_cell_length_b 17.257548
_cell_length_c 8.300506
_cell_angle_alpha 90.000000
_cell_angle_beta 70.907739
_cell_angle_gamma 90.000000
_cell_volume 928.729835
_symmetry_space_group_name_H-M "P 21/C"
_symmetry_group_IT_number 14
_symmetry_cell_setting 'monoclinic'
loop_
_space_group_symop_operation_xyz
x,y,z
-x,1/2+y,1/2-z
-x,-y,-z
x,1/2-y,1/2+z
loop_
_atom_site_type_symbol
_atom_site_label
_atom_site_fract_x
_atom_site_fract_y
_atom_site_fract_z
Si Si1 0.394054 0.681518 0.318702
Si Si2 0.957890 0.086267 0.962258
Si Si3 0.246869 0.834419 0.514960
Si Si4 0.848555 0.034595 0.668390
Si Si5 0.180546 0.129131 0.198326
O O1 0.270081 0.758844 0.398741
O O2 0.401256 0.671309 0.123807
O O3 0.627053 0.685019 0.321305
O O4 0.275938 0.608904 0.428673
O O5 0.973928 0.089257 0.763410
O O6 0.117573 0.137865 0.025467
O O7 0.000000 0.000000 0.000000
O O8 0.307881 0.908794 0.386620
O O9 0.010968 0.843312 0.639867
O O10 0.746419 0.959987 0.783298
O O11 0.000000 0.000000 0.500000
#
# Coordination Sequence:
#
# PCOD8127053 Si02
#       5
#     4   4   4   4   4
#     4  11  22  38  59  86 117 155 196 239 298 353
#     4   9  19  37  59  84 116 149 189 240 286 342
#     4  10  22  39  57  83 118 151 195 246 289 349
#     4   9  18  38  62  84 115 154 193 239 288 337
#     4   9  21  39  61  86 114 153 198 243 294 347
#
# _framework density 21.534787999999999
#
# number of rings (size 3 to 8) (size 9 to 14) (size 15 to 20)
#    0.000    2.400    0.000    2.400    0.000    7.200 
#    0.000   10.000    0.000    0.000    0.000    0.000 
#    0.000    0.000    0.000    0.000    0.000    0.000 
#
# Total GULP energy -247766.166497 kJ/mol
# GULP energy per Si atom -12388.308325 kJ/mol
# Density = 2.148577 g / cm^3
# Si number density = 21.534788 Si / 1000 Ang^3
#
#
#
# Elastic Constant Matrix: (Units=GPa)
#
#
# Indices 1 2 3 4 5 6 
#
# 1 113.6449 28.5154 36.8118 0.0000 18.8325 0.0000
# 2 28.5154 80.2957 32.3732 0.0000 5.4063 0.0000
# 3 36.8118 32.3732 122.4505 0.0000 43.1371 0.0000
# 4 0.0000 0.0000 0.0000 36.3737 0.0000 4.9202
# 5 18.8325 5.4063 43.1371 0.0000 34.8739 0.0000
# 6 0.0000 0.0000 0.0000 4.9202 0.0000 24.0817
#
#
#
# Elastic Compliance Matrix: (Units=1/GPa)
#
#
# Indices 1 2 3 4 5 6 
#
# 1 0.010551 -0.003105 -0.000910 0.000000 -0.004091 0.000000
# 2 -0.003105 0.015218 -0.005050 0.000000 0.005564 0.000000
# 3 -0.000910 -0.005050 0.016529 0.000000 -0.019171 0.000000
# 4 0.000000 0.000000 0.000000 0.028274 0.000000 -0.005777
# 5 -0.004091 0.005564 -0.019171 0.000000 0.053735 0.000000
# 6 0.000000 0.000000 0.000000 -0.005777 0.000000 0.042706
#
#
# Mechanical properties :
#
#
# Convention : Reuss Voigt Hill
#
# Bulk Modulus (GPa) = 41.37637 56.86576 49.12107
# Shear Modulus (GPa) = 25.88027 33.64524 29.76275
#
# Velocity S-wave (km/s) = 3.47044 3.95697 3.72166
# Velocity P-wave (km/s) = 5.94257 6.88045 6.42863
#
# Compressibility (1/GPa) = 0.02416839
#
# Stress axis : x y z
#
# Youngs Moduli (GPa) = 94.77762 65.71191 60.50041
#
# Poissons Ratio (x) = 0.20401 0.05505
# Poissons Ratio (y) = 0.29425 0.30553
# Poissons Ratio (z) = 0.08625 0.33185
#
# Static dielectric constant tensor:
#      x y z
#    x 3.717440 0.000000 0.467930 
#    y 0.000000 4.189690 0.000000 
#    z 0.467930 0.000000 2.868870 
# 
# 
# High freq. dielectric constant tensor:
#      x y z
#    x 1.815010 0.000000 0.033020 
#    y 0.000000 1.845470 0.000000 
#    z 0.033020 0.000000 1.852370 
# 
# From -- ./inp_files/5447.got.cif
#   From: 2010.03.12/outbox.cif.g09.slc.cpg/sg14_3_cif.got.tgz:5447.got - 2010.03.31 13:35:05.
