data_PCOD8127175
_publ_section_title
;
Structure prediction by ZEFSAII (Michael W. Deem and Ramdas Pophale) SiO2 
 PCOD8127175
Probable space group: P 21/C
;
_chemical_formula_sum "Si O2"
_cell_formula_units_Z 20
_cell_length_a 8.362609
_cell_length_b 4.865257
_cell_length_c 23.264902
_cell_angle_alpha 90.000000
_cell_angle_beta 56.019914
_cell_angle_gamma 90.000000
_cell_volume 784.918914
_symmetry_space_group_name_H-M "P 21/C"
_symmetry_group_IT_number 14
_symmetry_cell_setting 'monoclinic'
loop_
_space_group_symop_operation_xyz
x,y,z
-x,1/2+y,1/2-z
-x,-y,-z
x,1/2-y,1/2+z
loop_
_atom_site_type_symbol
_atom_site_label
_atom_site_fract_x
_atom_site_fract_y
_atom_site_fract_z
Si Si1 0.481329 0.607544 0.177655
Si Si2 0.725672 0.894057 0.738902
Si Si3 0.913530 0.621452 0.884098
Si Si4 0.504158 0.158498 0.558331
Si Si5 0.885359 0.099796 0.967301
O O1 0.402131 0.917858 0.192496
O O2 0.654174 0.569313 0.187803
O O3 0.572036 0.532007 0.097940
O O4 0.301078 0.414431 0.233257
O O5 0.945640 0.998510 0.692814
O O6 0.722671 0.713827 0.886807
O O7 0.900875 0.415075 0.941948
O O8 0.974395 0.912294 0.899079
O O9 0.650707 0.422884 0.525459
O O10 0.500000 0.000000 0.500000
O O11 0.000000 0.000000 0.000000
#
# Coordination Sequence:
#
# PCOD8127175 Si02
#       5
#     4   4   4   4   4
#     4  10  22  40  63  89 125 163 212 261 309 378
#     4  10  22  40  63  91 119 166 215 260 310 370
#     4  11  23  40  62  92 128 161 212 264 320 382
#     4  10  24  42  63  95 131 166 206 263 327 384
#     4  11  23  40  64  91 125 170 212 258 313 384
#
# _framework density 25.480340000000002
#
# number of rings (size 3 to 8) (size 9 to 14) (size 15 to 20)
#    0.000    1.600    0.000    3.600    0.000   12.800 
#    0.000    0.000    0.000    0.000    0.000    0.000 
#    0.000    0.000    0.000    0.000    0.000    0.000 
#
# Total GULP energy -247773.672148 kJ/mol
# GULP energy per Si atom -12388.683607 kJ/mol
# Density = 2.542235 g / cm^3
# Si number density = 25.480340 Si / 1000 Ang^3
#
#
#
# Elastic Constant Matrix: (Units=GPa)
#
#
# Indices 1 2 3 4 5 6 
#
# 1 103.7688 19.1335 12.0671 0.0000 -12.3205 0.0000
# 2 19.1335 70.3828 -15.7857 0.0000 6.6066 0.0000
# 3 12.0671 -15.7857 56.4147 0.0000 7.8573 0.0000
# 4 0.0000 0.0000 0.0000 16.6010 0.0000 0.9193
# 5 -12.3205 6.6066 7.8573 0.0000 53.9002 0.0000
# 6 0.0000 0.0000 0.0000 0.9193 0.0000 31.2474
#
#
#
# Elastic Compliance Matrix: (Units=1/GPa)
#
#
# Indices 1 2 3 4 5 6 
#
# 1 0.011376 -0.004382 -0.004181 0.000000 0.003747 0.000000
# 2 -0.004382 0.017192 0.006309 0.000000 -0.004029 0.000000
# 3 -0.004181 0.006309 0.021054 0.000000 -0.004798 0.000000
# 4 0.000000 0.000000 0.000000 0.060336 0.000000 -0.001775
# 5 0.003747 -0.004029 -0.004798 0.000000 0.020603 0.000000
# 6 0.000000 0.000000 0.000000 -0.001775 0.000000 0.032055
#
#
# Mechanical properties :
#
#
# Convention : Reuss Voigt Hill
#
# Bulk Modulus (GPa) = 22.16617 29.04401 25.60509
# Shear Modulus (GPa) = 27.44813 34.69314 31.07064
#
# Velocity S-wave (km/s) = 3.28568 3.69394 3.49577
# Velocity P-wave (km/s) = 4.80754 5.44215 5.13466
#
# Compressibility (1/GPa) = 0.04511380
#
# Stress axis : x y z
#
# Youngs Moduli (GPa) = 87.90502 58.16505 47.49707
#
# Poissons Ratio (x) = 0.25488 0.19860
# Poissons Ratio (y) = 0.38520 -0.29967
# Poissons Ratio (z) = 0.36756 -0.36697
#
# Static dielectric constant tensor:
#      x y z
#    x 2.934350 0.000000 2.396080 
#    y 0.000000 4.345780 0.000000 
#    z 2.396080 0.000000 1.485160 
# 
# 
# High freq. dielectric constant tensor:
#      x y z
#    x 2.015770 0.000000 0.000920 
#    y 0.000000 2.009960 0.000000 
#    z 0.000920 0.000000 2.018310 
# 
# From -- ./inp_files/71519.got.cif
#   From: 2010.03.12/outbox.cif.g09.slc.cpg/sg14_36_cif.got.tgz:71519.got - 2010.03.31 13:35:05.
