data_PCOD8127863
_publ_section_title
;
Structure prediction by ZEFSAII (Michael W. Deem and Ramdas Pophale) SiO2 
 PCOD8127863
Probable space group: P 21/C
;
_chemical_formula_sum "Si O2"
_cell_formula_units_Z 20
_cell_length_a 6.546564
_cell_length_b 7.237277
_cell_length_c 20.100748
_cell_angle_alpha 90.000000
_cell_angle_beta 117.063159
_cell_angle_gamma 90.000000
_cell_volume 848.081237
_symmetry_space_group_name_H-M "P 21/C"
_symmetry_group_IT_number 14
_symmetry_cell_setting 'monoclinic'
loop_
_space_group_symop_operation_xyz
x,y,z
-x,1/2+y,1/2-z
-x,-y,-z
x,1/2-y,1/2+z
loop_
_atom_site_type_symbol
_atom_site_label
_atom_site_fract_x
_atom_site_fract_y
_atom_site_fract_z
Si Si1 0.492538 0.572021 0.333083
Si Si2 0.259926 0.709558 0.169717
Si Si3 0.808815 0.698356 0.544746
Si Si4 0.315815 0.808569 0.950170
Si Si5 0.869014 0.851024 0.414431
O O1 0.315012 0.645558 0.252092
O O2 0.556141 0.357896 0.330036
O O3 0.374355 0.608665 0.386317
O O4 0.730240 0.681117 0.362540
O O5 0.273657 0.535095 0.122193
O O6 0.993928 0.780562 0.131419
O O7 0.788071 0.480070 0.522235
O O8 0.546930 0.766075 0.520874
O O9 0.903904 0.823745 0.498456
O O10 0.124201 0.647642 0.918803
#
# Coordination Sequence:
#
# PCOD8127863 Si02
#       5
#     4   4   4   4   4
#     4  11  25  45  66 100 136 181 226 281 337 408
#     4  12  24  45  70  95 140 184 223 279 345 401
#     4  10  23  42  70 102 137 173 223 289 339 402
#     4  10  23  43  70 100 136 175 226 283 340 404
#     4  11  23  46  68 101 135 176 225 280 345 402
#
# _framework density 23.582643999999998
#
# number of rings (size 3 to 8) (size 9 to 14) (size 15 to 20)
#    0.000    1.200    4.000    1.200    5.600    2.400 
#    7.200    0.000    0.000    0.000    0.000    0.000 
#    0.000    0.000    0.000    0.000    0.000    0.000 
#
# Total GULP energy -247913.166529 kJ/mol
# GULP energy per Si atom -12395.658326 kJ/mol
# Density = 2.352897 g / cm^3
# Si number density = 23.582644 Si / 1000 Ang^3
#
#
#
# Elastic Constant Matrix: (Units=GPa)
#
#
# Indices 1 2 3 4 5 6 
#
# 1 119.1420 41.8337 52.8353 0.0000 19.7574 0.0000
# 2 41.8337 86.4758 25.1398 0.0000 4.2517 0.0000
# 3 52.8353 25.1398 145.0228 0.0000 25.3357 0.0000
# 4 0.0000 0.0000 0.0000 40.4655 0.0000 8.2065
# 5 19.7574 4.2517 25.3357 0.0000 30.8693 0.0000
# 6 0.0000 0.0000 0.0000 8.2065 0.0000 34.7433
#
#
#
# Elastic Compliance Matrix: (Units=1/GPa)
#
#
# Indices 1 2 3 4 5 6 
#
# 1 0.012098 -0.004822 -0.002726 0.000000 -0.004842 0.000000
# 2 -0.004822 0.014100 -0.001036 0.000000 0.001995 0.000000
# 3 -0.002726 -0.001036 0.009034 0.000000 -0.005527 0.000000
# 4 0.000000 0.000000 0.000000 0.025956 0.000000 -0.006131
# 5 -0.004842 0.001995 -0.005527 0.000000 0.039755 0.000000
# 6 0.000000 0.000000 0.000000 -0.006131 0.000000 0.030231
#
#
# Mechanical properties :
#
#
# Convention : Reuss Voigt Hill
#
# Bulk Modulus (GPa) = 55.35865 65.58426 60.47146
# Shear Modulus (GPa) = 32.39126 36.60439 34.49783
#
# Velocity S-wave (km/s) = 3.71013 3.94404 3.82887
# Velocity P-wave (km/s) = 6.47137 6.97219 6.72644
#
# Compressibility (1/GPa) = 0.01806403
#
# Stress axis : x y z
#
# Youngs Moduli (GPa) = 82.65621 70.92305 110.69646
#
# Poissons Ratio (x) = 0.34200 0.30175
# Poissons Ratio (y) = 0.39858 0.11466
# Poissons Ratio (z) = 0.22531 0.07346
#
# Static dielectric constant tensor:
#      x y z
#    x 4.020780 0.000000 0.418390 
#    y 0.000000 4.355600 0.000000 
#    z 0.418390 0.000000 4.427770 
# 
# 
# High freq. dielectric constant tensor:
#      x y z
#    x 1.914670 0.000000 0.031120 
#    y 0.000000 1.945550 0.000000 
#    z 0.031120 0.000000 1.937930 
# 
# From -- ./inp_files/63164.got.cif
#   From: 2010.03.12/outbox.cif.g09.slc.cpg/sg14_32_cif.got.tgz:63164.got - 2010.03.31 13:35:05.
