data_PCOD8127256
_publ_section_title
;
Structure prediction by ZEFSAII (Michael W. Deem and Ramdas Pophale) SiO2 
 PCOD8127256
Probable space group: P 21/C
;
_chemical_formula_sum "Si O2"
_cell_formula_units_Z 32
_cell_length_a 8.927735
_cell_length_b 14.718462
_cell_length_c 25.145582
_cell_angle_alpha 90.000000
_cell_angle_beta 151.191367
_cell_angle_gamma 90.000000
_cell_volume 1592.243400
_symmetry_space_group_name_H-M "P 21/C"
_symmetry_group_IT_number 14
_symmetry_cell_setting 'monoclinic'
loop_
_space_group_symop_operation_xyz
x,y,z
-x,1/2+y,1/2-z
-x,-y,-z
x,1/2-y,1/2+z
loop_
_atom_site_type_symbol
_atom_site_label
_atom_site_fract_x
_atom_site_fract_y
_atom_site_fract_z
Si Si1 0.661086 0.017423 0.872708
Si Si2 0.687948 0.927762 0.522466
Si Si3 0.639346 0.629425 0.177078
Si Si4 0.052204 0.600976 0.933432
Si Si5 0.766836 0.328260 0.199330
Si Si6 0.431452 0.544984 0.777551
Si Si7 0.849667 0.128311 0.249437
Si Si8 0.756848 0.822983 0.239424
O O1 0.686819 0.015363 0.817041
O O2 0.557652 0.118421 0.857538
O O3 0.412217 0.946467 0.819374
O O4 0.000000 0.000000 0.000000
O O5 0.486768 0.865374 0.421102
O O6 0.905009 0.863759 0.625915
O O7 0.500000 0.000000 0.500000
O O8 0.902638 0.991886 0.553084
O O9 0.521547 0.547294 0.175916
O O10 0.689616 0.717048 0.230108
O O11 0.950965 0.601989 0.241355
O O12 0.350842 0.653829 0.048510
O O13 0.739915 0.608843 0.871163
O O14 0.002559 0.640294 0.858849
O O15 0.804978 0.390710 0.263537
O O16 0.682078 0.225136 0.189466
O O17 0.101683 0.329927 0.275534
#
# Coordination Sequence:
#
# PCOD8127256 Si02
#       8
#     4   4   4   4   4   4   4   4
#     4  11  25  44  59  82 129 178 198 250 334 386
#     4  12  18  39  71  87 125 169 210 259 314 368
#     4  11  22  37  66  95 121 158 215 269 299 369
#     4  11  21  38  64  93 123 165 201 257 324 362
#     4  11  23  37  66 100 121 159 217 270 305 370
#     4  11  23  39  61  95 121 155 217 264 311 373
#     4  11  23  41  63  91 127 167 212 255 317 379
#     4  10  22  41  61  90 128 165 212 253 316 375
#
# _framework density 20.097429999999999
#
# number of rings (size 3 to 8) (size 9 to 14) (size 15 to 20)
#    0.000    1.000    6.250    1.125    0.000    5.000 
#    0.000    5.000    0.000    0.000    0.000    0.000 
#    0.000    0.000    0.000    0.000    0.000    0.000 
#
# Total GULP energy -396684.320750 kJ/mol
# GULP energy per Si atom -12396.385023 kJ/mol
# Density = 2.005169 g / cm^3
# Si number density = 20.097430 Si / 1000 Ang^3
#
#
#
# Elastic Constant Matrix: (Units=GPa)
#
#
# Indices 1 2 3 4 5 6 
#
# 1 98.6331 47.0007 36.6977 0.0000 -4.3401 0.0000
# 2 47.0007 104.8601 38.5901 0.0000 -7.2512 0.0000
# 3 36.6977 38.5901 109.3566 0.0000 1.8469 0.0000
# 4 0.0000 0.0000 0.0000 37.0500 0.0000 -1.9779
# 5 -4.3401 -7.2512 1.8469 0.0000 18.9798 0.0000
# 6 0.0000 0.0000 0.0000 -1.9779 0.0000 28.1017
#
#
#
# Elastic Compliance Matrix: (Units=1/GPa)
#
#
# Indices 1 2 3 4 5 6 
#
# 1 0.013626 -0.004955 -0.002849 0.000000 0.001500 0.000000
# 2 -0.004955 0.013173 -0.003056 0.000000 0.004197 0.000000
# 3 -0.002849 -0.003056 0.011228 0.000000 -0.002912 0.000000
# 4 0.000000 0.000000 0.000000 0.027092 0.000000 0.001907
# 5 0.001500 0.004197 -0.002912 0.000000 0.054917 0.000000
# 6 0.000000 0.000000 0.000000 0.001907 0.000000 0.035719
#
#
# Mechanical properties :
#
#
# Convention : Reuss Voigt Hill
#
# Bulk Modulus (GPa) = 61.33071 61.93631 61.63351
# Shear Modulus (GPa) = 27.33548 29.53039 28.43294
#
# Velocity S-wave (km/s) = 3.69202 3.83738 3.76540
# Velocity P-wave (km/s) = 6.98267 7.10767 7.04544
#
# Compressibility (1/GPa) = 0.01630504
#
# Stress axis : x y z
#
# Youngs Moduli (GPa) = 73.38946 75.91555 89.06065
#
# Poissons Ratio (x) = 0.37617 0.25376
# Poissons Ratio (y) = 0.36365 0.27221
# Poissons Ratio (z) = 0.20911 0.23203
#
# Static dielectric constant tensor:
#      x y z
#    x 3.900930 0.000000 -0.001170 
#    y 0.000000 3.794130 0.000000 
#    z -0.001170 0.000000 3.638160 
# 
# 
# High freq. dielectric constant tensor:
#      x y z
#    x 1.799710 0.000000 0.000340 
#    y 0.000000 1.783580 0.000000 
#    z 0.000340 0.000000 1.767010 
# 
# From -- ./inp_files/72497.got.cif
#   From: 2010.03.12/outbox.cif.g09.slc.cpg/sg14_37_cif.got.tgz:72497.got - 2010.03.31 13:35:05.
