data_PCOD8127954
_publ_section_title
;
Structure prediction by ZEFSAII (Michael W. Deem and Ramdas Pophale) SiO2 
 PCOD8127954
Probable space group: P 21/C
;
_chemical_formula_sum "Si O2"
_cell_formula_units_Z 28
_cell_length_a 26.905470
_cell_length_b 9.025429
_cell_length_c 10.711059
_cell_angle_alpha 90.000000
_cell_angle_beta 29.795413
_cell_angle_gamma 90.000000
_cell_volume 1292.450050
_symmetry_space_group_name_H-M "P 21/C"
_symmetry_group_IT_number 14
_symmetry_cell_setting 'monoclinic'
loop_
_space_group_symop_operation_xyz
x,y,z
-x,1/2+y,1/2-z
-x,-y,-z
x,1/2-y,1/2+z
loop_
_atom_site_type_symbol
_atom_site_label
_atom_site_fract_x
_atom_site_fract_y
_atom_site_fract_z
Si Si1 0.454330 0.499645 0.462722
Si Si2 0.251009 0.091028 0.322558
Si Si3 0.061988 0.546168 0.246342
Si Si4 0.153526 0.116728 0.108999
Si Si5 0.338532 0.046938 0.872549
Si Si6 0.984977 0.126712 0.683873
Si Si7 0.531422 0.165801 0.561537
O O1 0.500000 0.500000 0.500000
O O2 0.351102 0.404242 0.688996
O O3 0.436492 0.670803 0.465765
O O4 0.526897 0.432369 0.198172
O O5 0.185352 0.243522 0.453251
O O6 0.176118 0.970235 0.544390
O O7 0.279051 0.020170 0.128830
O O8 0.048855 0.707035 0.216043
O O9 0.000000 0.500000 0.500000
O O10 0.043539 0.431028 0.175210
O O11 0.059274 0.144126 0.404629
O O12 0.115896 0.973102 0.114258
O O13 0.258846 0.099798 0.946950
O O14 0.425609 0.166590 0.716701
O O15 0.387134 0.897328 0.712505
#
# Coordination Sequence:
#
# PCOD8127954 Si02
#       7
#     4   4   4   4   4   4   4
#     4  11  26  46  73 102 145 183 244 292 360 421
#     4  11  24  43  71  99 136 183 234 289 350 432
#     4  12  25  47  68 102 142 182 236 287 354 422
#     4  11  23  44  70  98 130 187 234 286 359 408
#     4  10  23  43  72  92 142 176 238 286 358 413
#     4  11  26  43  71  99 142 182 234 296 346 420
#     4  10  25  45  69 103 138 190 229 303 354 422
#
# _framework density 21.664279000000001
#
# number of rings (size 3 to 8) (size 9 to 14) (size 15 to 20)
#    0.000    1.143    2.857    1.714   14.000    0.000 
#    2.571    0.000    0.000    0.000    0.000    0.000 
#    0.000    0.000    0.000    0.000    0.000    0.000 
#
# Total GULP energy -346897.081927 kJ/mol
# GULP energy per Si atom -12389.181497 kJ/mol
# Density = 2.161497 g / cm^3
# Si number density = 21.664279 Si / 1000 Ang^3
#
#
#
# Elastic Constant Matrix: (Units=GPa)
#
#
# Indices 1 2 3 4 5 6 
#
# 1 108.4352 35.1730 40.3916 0.0000 5.5520 0.0000
# 2 35.1730 148.3900 54.4419 0.0000 5.9372 0.0000
# 3 40.3916 54.4419 136.7964 0.0000 8.7319 0.0000
# 4 0.0000 0.0000 0.0000 33.5609 0.0000 -0.7680
# 5 5.5520 5.9372 8.7319 0.0000 35.9456 0.0000
# 6 0.0000 0.0000 0.0000 -0.7680 0.0000 36.5471
#
#
#
# Elastic Compliance Matrix: (Units=1/GPa)
#
#
# Indices 1 2 3 4 5 6 
#
# 1 0.010702 -0.001598 -0.002474 0.000000 -0.000788 0.000000
# 2 -0.001598 0.008140 -0.002740 0.000000 -0.000432 0.000000
# 3 -0.002474 -0.002740 0.009221 0.000000 -0.001405 0.000000
# 4 0.000000 0.000000 0.000000 0.029811 0.000000 0.000626
# 5 -0.000788 -0.000432 -0.001405 0.000000 0.028354 0.000000
# 6 0.000000 0.000000 0.000000 0.000626 0.000000 0.027375
#
#
# Mechanical properties :
#
#
# Convention : Reuss Voigt Hill
#
# Bulk Modulus (GPa) = 69.25342 72.62606 70.93974
# Shear Modulus (GPa) = 37.86713 38.78507 38.32610
#
# Velocity S-wave (km/s) = 4.18533 4.23576 4.21062
# Velocity P-wave (km/s) = 7.44258 7.58409 7.51367
#
# Compressibility (1/GPa) = 0.01443972
#
# Stress axis : x y z
#
# Youngs Moduli (GPa) = 93.43902 122.84457 108.44929
#
# Poissons Ratio (x) = 0.19625 0.26829
# Poissons Ratio (y) = 0.14928 0.29719
# Poissons Ratio (z) = 0.23116 0.33664
#
# Static dielectric constant tensor:
#      x y z
#    x 3.955420 0.000000 -0.174190 
#    y 0.000000 4.096440 0.000000 
#    z -0.174190 0.000000 4.145770 
# 
# 
# High freq. dielectric constant tensor:
#      x y z
#    x 1.853230 0.000000 -0.006170 
#    y 0.000000 1.848570 0.000000 
#    z -0.006170 0.000000 1.859550 
# 
# From -- ./inp_files/36139.got.cif
#   From: 2010.03.12/outbox.cif.g09.slc.cpg/sg14_19_cif.got.tgz:36139.got - 2010.03.31 13:35:05.
