data_PCOD8127262
_publ_section_title
;
Structure prediction by ZEFSAII (Michael W. Deem and Ramdas Pophale) SiO2 
 PCOD8127262
Probable space group: P 21/C
;
_chemical_formula_sum "Si O2"
_cell_formula_units_Z 24
_cell_length_a 7.962172
_cell_length_b 13.625798
_cell_length_c 13.738885
_cell_angle_alpha 90.000000
_cell_angle_beta 38.402102
_cell_angle_gamma 90.000000
_cell_volume 925.891354
_symmetry_space_group_name_H-M "P 21/C"
_symmetry_group_IT_number 14
_symmetry_cell_setting 'monoclinic'
loop_
_space_group_symop_operation_xyz
x,y,z
-x,1/2+y,1/2-z
-x,-y,-z
x,1/2-y,1/2+z
loop_
_atom_site_type_symbol
_atom_site_label
_atom_site_fract_x
_atom_site_fract_y
_atom_site_fract_z
Si Si1 0.151671 0.035693 0.592170
Si Si2 0.170823 0.481945 0.578116
Si Si3 0.426395 0.140058 0.115399
Si Si4 0.823886 0.664418 0.084221
Si Si5 0.383749 0.662083 0.039724
Si Si6 0.190252 0.671167 0.328932
O O1 0.045914 0.073455 0.534926
O O2 0.355319 0.125464 0.520353
O O3 0.293901 0.930394 0.515028
O O4 0.935531 0.036325 0.776224
O O5 0.351939 0.563115 0.440438
O O6 0.352807 0.391873 0.538383
O O7 0.938049 0.440121 0.612192
O O8 0.155557 0.138522 0.308378
O O9 0.552854 0.248383 0.060227
O O10 0.495740 0.678282 0.228614
O O11 0.989311 0.762118 0.983952
O O12 0.175050 0.697172 0.219423
#
# Coordination Sequence:
#
# PCOD8127262 Si02
#       6
#     4   4   4   4   4   4
#     4   9  19  37  62  86 117 161 210 254 300 364
#     4  10  22  41  62  88 125 170 210 250 307 381
#     4  11  24  38  61  94 128 164 206 258 316 371
#     4  11  24  40  63  97 129 161 205 264 315 360
#     4   9  19  39  63  86 117 165 209 246 304 379
#     4  10  22  41  65  91 126 168 208 255 310 367
#
# _framework density 25.920966
#
# number of rings (size 3 to 8) (size 9 to 14) (size 15 to 20)
#    0.000    2.000    0.000    4.000    0.000    9.333 
#    0.000    0.000    0.000    0.000    0.000    0.000 
#    0.000    0.000    0.000    0.000    0.000    0.000 
#
# Total GULP energy -297391.052370 kJ/mol
# GULP energy per Si atom -12391.293849 kJ/mol
# Density = 2.586197 g / cm^3
# Si number density = 25.920966 Si / 1000 Ang^3
#
#
#
# Elastic Constant Matrix: (Units=GPa)
#
#
# Indices 1 2 3 4 5 6 
#
# 1 36.6172 16.6970 -6.0295 0.0000 -12.5193 0.0000
# 2 16.6970 112.8091 46.8069 0.0000 6.3611 0.0000
# 3 -6.0295 46.8069 116.5618 0.0000 4.3606 0.0000
# 4 0.0000 0.0000 0.0000 60.1953 0.0000 -1.6505
# 5 -12.5193 6.3611 4.3606 0.0000 41.9108 0.0000
# 6 0.0000 0.0000 0.0000 -1.6505 0.0000 12.1243
#
#
#
# Elastic Compliance Matrix: (Units=1/GPa)
#
#
# Indices 1 2 3 4 5 6 
#
# 1 0.035459 -0.007765 0.004530 0.000000 0.011299 0.000000
# 2 -0.007765 0.012395 -0.005242 0.000000 -0.003655 0.000000
# 3 0.004530 -0.005242 0.010881 0.000000 0.001017 0.000000
# 4 0.000000 0.000000 0.000000 0.016675 0.000000 0.002270
# 5 0.011299 -0.003655 0.001017 0.000000 0.027684 0.000000
# 6 0.000000 0.000000 0.000000 0.002270 0.000000 0.082788
#
#
# Mechanical properties :
#
#
# Convention : Reuss Voigt Hill
#
# Bulk Modulus (GPa) = 23.93504 42.32632 33.13068
# Shear Modulus (GPa) = 23.06651 36.74699 29.90675
#
# Velocity S-wave (km/s) = 2.98632 3.76926 3.40040
# Velocity P-wave (km/s) = 4.59834 5.94202 5.31283
#
# Compressibility (1/GPa) = 0.04177976
#
# Stress axis : x y z
#
# Youngs Moduli (GPa) = 28.20124 80.67698 91.90717
#
# Poissons Ratio (x) = 0.62646 -0.41631
# Poissons Ratio (y) = 0.21898 0.48181
# Poissons Ratio (z) = -0.12774 0.42294
#
# Static dielectric constant tensor:
#      x y z
#    x 4.724230 0.000000 0.026900 
#    y 0.000000 4.428670 0.000000 
#    z 0.026900 0.000000 4.942160 
# 
# 
# High freq. dielectric constant tensor:
#      x y z
#    x 2.036460 0.000000 -0.001320 
#    y 0.000000 2.031360 0.000000 
#    z -0.001320 0.000000 2.040960 
# 
# From -- ./inp_files/57650.got.cif
#   From: 2010.03.12/outbox.cif.g09.slc.cpg/sg14_29_cif.got.tgz:57650.got - 2010.03.31 13:35:05.
