data_PCOD8127919
_publ_section_title
;
Structure prediction by ZEFSAII (Michael W. Deem and Ramdas Pophale) SiO2 
 PCOD8127919
Probable space group: P 21/C
;
_chemical_formula_sum "Si O2"
_cell_formula_units_Z 28
_cell_length_a 20.068337
_cell_length_b 9.062757
_cell_length_c 14.510776
_cell_angle_alpha 90.000000
_cell_angle_beta 28.951278
_cell_angle_gamma 90.000000
_cell_volume 1277.516955
_symmetry_space_group_name_H-M "P 21/C"
_symmetry_group_IT_number 14
_symmetry_cell_setting 'monoclinic'
loop_
_space_group_symop_operation_xyz
x,y,z
-x,1/2+y,1/2-z
-x,-y,-z
x,1/2-y,1/2+z
loop_
_atom_site_type_symbol
_atom_site_label
_atom_site_fract_x
_atom_site_fract_y
_atom_site_fract_z
Si Si1 0.347396 0.915961 0.282700
Si Si2 0.153746 0.438018 0.316853
Si Si3 0.883687 0.899008 0.940377
Si Si4 0.397135 0.890484 0.021725
Si Si5 0.557659 0.434811 0.024611
Si Si6 0.137222 0.111910 0.639346
Si Si7 0.337904 0.601320 0.390316
O O1 0.327321 0.765459 0.362940
O O2 0.506107 0.965562 0.093433
O O3 0.264165 0.048686 0.428992
O O4 0.303539 0.893067 0.228128
O O5 0.169095 0.348064 0.394037
O O6 0.178848 0.342526 0.193914
O O7 0.000000 0.500000 0.500000
O O8 0.275654 0.560621 0.170838
O O9 0.922167 0.756000 0.836319
O O10 0.022903 0.987699 0.781777
O O11 0.770477 0.996800 0.027761
O O12 0.484250 0.737063 0.916295
O O13 0.306846 0.895281 0.037354
O O14 0.489215 0.530504 0.189802
O O15 0.500000 0.500000 0.000000
#
# Coordination Sequence:
#
# PCOD8127919 Si02
#       7
#     4   4   4   4   4   4   4
#     4  11  24  41  61  94 131 168 217 283 327 391
#     4  10  23  43  67  94 131 176 219 266 333 406
#     4  11  24  43  66  97 130 175 225 274 329 408
#     4  11  24  40  63  96 131 168 219 279 334 386
#     4  12  22  42  69  94 131 179 224 269 334 399
#     4  11  24  43  67  92 132 176 220 274 339 397
#     4  12  23  40  66  95 132 171 221 273 336 392
#
# _framework density 21.917518000000001
#
# number of rings (size 3 to 8) (size 9 to 14) (size 15 to 20)
#    0.000    0.857    2.857    4.286    0.000    4.571 
#    0.000    1.429    0.000    0.000    0.000    0.000 
#    0.000    0.000    0.000    0.000    0.000    0.000 
#
# Total GULP energy -347082.721112 kJ/mol
# GULP energy per Si atom -12395.811468 kJ/mol
# Density = 2.186763 g / cm^3
# Si number density = 21.917518 Si / 1000 Ang^3
#
#
#
# Elastic Constant Matrix: (Units=GPa)
#
#
# Indices 1 2 3 4 5 6 
#
# 1 159.2871 30.6514 39.9637 0.0000 51.9965 0.0000
# 2 30.6514 91.5411 4.3531 0.0000 22.2268 0.0000
# 3 39.9637 4.3531 69.1586 0.0000 12.8629 0.0000
# 4 0.0000 0.0000 0.0000 24.3797 0.0000 3.6964
# 5 51.9965 22.2268 12.8629 0.0000 52.6448 0.0000
# 6 0.0000 0.0000 0.0000 3.6964 0.0000 23.1343
#
#
#
# Elastic Compliance Matrix: (Units=1/GPa)
#
#
# Indices 1 2 3 4 5 6 
#
# 1 0.010454 -0.001164 -0.004336 0.000000 -0.008775 0.000000
# 2 -0.001164 0.012304 0.000681 0.000000 -0.004212 0.000000
# 3 -0.004336 0.000681 0.016949 0.000000 -0.000147 0.000000
# 4 0.000000 0.000000 0.000000 0.042036 0.000000 -0.006717
# 5 -0.008775 -0.004212 -0.000147 0.000000 0.029476 0.000000
# 6 0.000000 0.000000 0.000000 -0.006717 0.000000 0.044299
#
#
# Mechanical properties :
#
#
# Convention : Reuss Voigt Hill
#
# Bulk Modulus (GPa) = 33.25426 52.21369 42.73398
# Shear Modulus (GPa) = 28.54238 36.36632 32.45435
#
# Velocity S-wave (km/s) = 3.61260 4.07779 3.85223
# Velocity P-wave (km/s) = 5.71022 6.78570 6.27106
#
# Compressibility (1/GPa) = 0.03007133
#
# Stress axis : x y z
#
# Youngs Moduli (GPa) = 95.65718 81.27448 58.99948
#
# Poissons Ratio (x) = 0.09458 0.25580
# Poissons Ratio (y) = 0.11131 -0.04020
# Poissons Ratio (z) = 0.41474 -0.05538
#
# Static dielectric constant tensor:
#      x y z
#    x 4.408800 0.000000 0.479880 
#    y 0.000000 3.792920 0.000000 
#    z 0.479880 0.000000 4.293640 
# 
# 
# High freq. dielectric constant tensor:
#      x y z
#    x 1.880880 0.000000 0.022010 
#    y 0.000000 1.848900 0.000000 
#    z 0.022010 0.000000 1.860680 
# 
# From -- ./inp_files/50223.got.cif
#   From: 2010.03.12/outbox.cif.g09.slc.cpg/sg14_26_cif.got.tgz:50223.got - 2010.03.31 13:35:05.
