data_PCOD8127761
_publ_section_title
;
Structure prediction by ZEFSAII (Michael W. Deem and Ramdas Pophale) SiO2 
 PCOD8127761
Probable space group: P 21/C
;
_chemical_formula_sum "Si O2"
_cell_formula_units_Z 32
_cell_length_a 8.721613
_cell_length_b 8.704234
_cell_length_c 26.712999
_cell_angle_alpha 90.000000
_cell_angle_beta 131.559604
_cell_angle_gamma 90.000000
_cell_volume 1517.420792
_symmetry_space_group_name_H-M "P 21/C"
_symmetry_group_IT_number 14
_symmetry_cell_setting 'monoclinic'
loop_
_space_group_symop_operation_xyz
x,y,z
-x,1/2+y,1/2-z
-x,-y,-z
x,1/2-y,1/2+z
loop_
_atom_site_type_symbol
_atom_site_label
_atom_site_fract_x
_atom_site_fract_y
_atom_site_fract_z
Si Si1 0.726451 0.660250 0.776403
Si Si2 0.863888 0.198153 0.103403
Si Si3 0.372398 0.190187 0.858035
Si Si4 0.049437 0.155490 0.870891
Si Si5 0.152316 0.190127 0.495437
Si Si6 0.766295 0.161308 0.479203
Si Si7 0.453729 0.839669 0.881536
Si Si8 0.644222 0.191339 0.250674
O O1 0.707296 0.714139 0.715174
O O2 0.577970 0.760246 0.778560
O O3 0.677266 0.483071 0.773856
O O4 0.957235 0.683161 0.844883
O O5 0.677685 0.226116 0.101105
O O6 0.950249 0.027218 0.126318
O O7 0.781079 0.227706 0.030049
O O8 0.179286 0.217252 0.852172
O O9 0.544418 0.317618 0.906113
O O10 0.472290 0.023420 0.888121
O O11 0.149579 0.224893 0.942062
O O12 0.814755 0.204528 0.813929
O O13 0.319746 0.269597 0.567226
O O14 0.934650 0.208656 0.474958
O O15 0.208328 0.013504 0.498134
O O16 0.344630 0.788325 0.806650
#
# Coordination Sequence:
#
# PCOD8127761 Si02
#       8
#     4   4   4   4   4   4   4   4
#     4  11  23  40  62  89 121 156 196 241 292 348
#     4  11  23  40  62  88 119 155 197 243 293 349
#     4  10  23  41  61  87 119 156 196 242 295 349
#     4  11  23  40  62  88 119 155 197 243 293 349
#     4  11  24  40  60  88 120 155 197 244 293 348
#     4  11  24  40  60  88 120 155 197 244 293 348
#     4  10  23  41  61  87 119 156 196 242 295 349
#     4  11  23  40  62  89 121 156 196 241 292 348
#
# _framework density 21.088415000000001
#
# number of rings (size 3 to 8) (size 9 to 14) (size 15 to 20)
#    0.000    1.250    0.000    5.250    0.000   13.000 
#    0.000    0.000    0.000    0.000    0.000    0.000 
#    0.000    0.000    0.000    0.000    0.000    0.000 
#
# Total GULP energy -397107.336823 kJ/mol
# GULP energy per Si atom -12409.604276 kJ/mol
# Density = 2.104042 g / cm^3
# Si number density = 21.088415 Si / 1000 Ang^3
#
#
#
# Elastic Constant Matrix: (Units=GPa)
#
#
# Indices 1 2 3 4 5 6 
#
# 1 77.9585 19.0937 3.4352 0.0000 -10.6476 0.0000
# 2 19.0937 44.6782 11.8106 0.0000 -11.3662 0.0000
# 3 3.4352 11.8106 69.1129 0.0000 0.8930 0.0000
# 4 0.0000 0.0000 0.0000 36.3705 0.0000 2.7863
# 5 -10.6476 -11.3662 0.8930 0.0000 36.8366 0.0000
# 6 0.0000 0.0000 0.0000 2.7863 0.0000 32.5412
#
#
#
# Elastic Compliance Matrix: (Units=1/GPa)
#
#
# Indices 1 2 3 4 5 6 
#
# 1 0.014535 -0.005643 0.000210 0.000000 0.002455 0.000000
# 2 -0.005643 0.027794 -0.004560 0.000000 0.007056 0.000000
# 3 0.000210 -0.004560 0.015260 0.000000 -0.001716 0.000000
# 4 0.000000 0.000000 0.000000 0.027676 0.000000 -0.002370
# 5 0.002455 0.007056 -0.001716 0.000000 0.030075 0.000000
# 6 0.000000 0.000000 0.000000 -0.002370 0.000000 0.030933
#
#
# Mechanical properties :
#
#
# Convention : Reuss Voigt Hill
#
# Bulk Modulus (GPa) = 26.59319 28.93651 27.76485
# Shear Modulus (GPa) = 27.96494 31.64369 29.80432
#
# Velocity S-wave (km/s) = 3.64549 3.87786 3.76347
# Velocity P-wave (km/s) = 5.50973 5.81393 5.66387
#
# Compressibility (1/GPa) = 0.03760362
#
# Stress axis : x y z
#
# Youngs Moduli (GPa) = 68.79730 35.97866 65.53028
#
# Poissons Ratio (x) = 0.20302 -0.01377
# Poissons Ratio (y) = 0.38821 0.29884
# Poissons Ratio (z) = -0.01445 0.16408
#
# Static dielectric constant tensor:
#      x y z
#    x 3.879150 0.000000 -0.076140 
#    y 0.000000 3.758570 0.000000 
#    z -0.076140 0.000000 3.779930 
# 
# 
# High freq. dielectric constant tensor:
#      x y z
#    x 1.838240 0.000000 -0.002740 
#    y 0.000000 1.829700 0.000000 
#    z -0.002740 0.000000 1.838580 
# 
# From -- ./inp_files/76379.got.cif
#   From: 2010.03.12/outbox.cif.g09.slc.cpg/sg14_39_cif.got.tgz:76379.got - 2010.03.31 13:35:05.
