data_PCOD8127271
_publ_section_title
;
Structure prediction by ZEFSAII (Michael W. Deem and Ramdas Pophale) SiO2 
 PCOD8127271
Probable space group: P 21/C
;
_chemical_formula_sum "Si O2"
_cell_formula_units_Z 28
_cell_length_a 6.913569
_cell_length_b 9.105562
_cell_length_c 31.812530
_cell_angle_alpha 90.000000
_cell_angle_beta 46.187482
_cell_angle_gamma 90.000000
_cell_volume 1445.137606
_symmetry_space_group_name_H-M "P 21/C"
_symmetry_group_IT_number 14
_symmetry_cell_setting 'monoclinic'
loop_
_space_group_symop_operation_xyz
x,y,z
-x,1/2+y,1/2-z
-x,-y,-z
x,1/2-y,1/2+z
loop_
_atom_site_type_symbol
_atom_site_label
_atom_site_fract_x
_atom_site_fract_y
_atom_site_fract_z
Si Si1 0.769501 0.377842 0.893370
Si Si2 0.356230 0.898633 0.422919
Si Si3 0.651496 0.653091 0.330881
Si Si4 0.999567 0.660707 0.052655
Si Si5 0.323504 0.059303 0.267453
Si Si6 0.254662 0.736676 0.248851
Si Si7 0.508910 0.333634 0.372443
O O1 0.608045 0.526745 0.908274
O O2 0.600886 0.238572 0.902327
O O3 0.801658 0.357650 0.938181
O O4 0.054042 0.379676 0.827971
O O5 0.454732 0.783253 0.373661
O O6 0.175914 0.816165 0.484533
O O7 0.183261 0.015989 0.423205
O O8 0.633676 0.634525 0.283849
O O9 0.554390 0.506526 0.368895
O O10 0.949411 0.690457 0.300966
O O11 0.806458 0.801527 0.087900
O O12 0.568504 0.102610 0.260643
O O13 0.319774 0.883716 0.264949
O O14 0.313641 0.760831 0.191006
#
# Coordination Sequence:
#
# PCOD8127271 Si02
#       7
#     4   4   4   4   4   4   4
#     4  11  20  39  62  85 118 156 199 243 292 345
#     4  10  23  41  63  88 116 160 198 247 290 346
#     4  11  24  39  58  89 125 153 195 241 303 353
#     4  10  22  41  63  87 116 153 209 242 288 349
#     4  11  24  35  62  87 118 159 193 240 298 352
#     4  11  23  38  55  89 120 153 196 238 297 357
#     4  10  23  37  58  87 118 158 189 246 296 349
#
# _framework density 19.375316000000002
#
# number of rings (size 3 to 8) (size 9 to 14) (size 15 to 20)
#    0.000    1.429    4.286    0.429    4.000    0.571 
#    0.000    0.714    0.000    0.000    0.000    0.000 
#    0.000    0.000    0.000    0.000    0.000    0.000 
#
# Total GULP energy -347362.592100 kJ/mol
# GULP energy per Si atom -12405.806861 kJ/mol
# Density = 1.933122 g / cm^3
# Si number density = 19.375316 Si / 1000 Ang^3
#
#
#
# Elastic Constant Matrix: (Units=GPa)
#
#
# Indices 1 2 3 4 5 6 
#
# 1 87.7835 37.9936 14.2076 0.0000 5.1243 0.0000
# 2 37.9936 79.5845 21.4612 0.0000 -4.6079 0.0000
# 3 14.2076 21.4612 57.7422 0.0000 -15.8115 0.0000
# 4 0.0000 0.0000 0.0000 26.6189 0.0000 -0.6447
# 5 5.1243 -4.6079 -15.8115 0.0000 26.3179 0.0000
# 6 0.0000 0.0000 0.0000 -0.6447 0.0000 22.4549
#
#
#
# Elastic Compliance Matrix: (Units=1/GPa)
#
#
# Indices 1 2 3 4 5 6 
#
# 1 0.015128 -0.006808 -0.002783 0.000000 -0.005809 0.000000
# 2 -0.006808 0.017043 -0.004164 0.000000 0.001808 0.000000
# 3 -0.002783 -0.004164 0.023339 0.000000 0.013835 0.000000
# 4 0.000000 0.000000 0.000000 0.037593 0.000000 0.001079
# 5 -0.005809 0.001808 0.013835 0.000000 0.047756 0.000000
# 6 0.000000 0.000000 0.000000 0.001079 0.000000 0.044565
#
#
# Mechanical properties :
#
#
# Convention : Reuss Voigt Hill
#
# Bulk Modulus (GPa) = 35.71421 41.38167 38.54794
# Shear Modulus (GPa) = 22.49543 25.17484 23.83513
#
# Velocity S-wave (km/s) = 3.41109 3.60853 3.51120
# Velocity P-wave (km/s) = 5.82983 6.22625 6.03130
#
# Compressibility (1/GPa) = 0.02800006
#
# Stress axis : x y z
#
# Youngs Moduli (GPa) = 66.10401 58.67516 42.84649
#
# Poissons Ratio (x) = 0.39946 0.11923
# Poissons Ratio (y) = 0.45003 0.17843
# Poissons Ratio (z) = 0.18394 0.24434
#
# Static dielectric constant tensor:
#      x y z
#    x 3.544540 0.000000 -0.085560 
#    y 0.000000 3.459720 0.000000 
#    z -0.085560 0.000000 3.549140 
# 
# 
# High freq. dielectric constant tensor:
#      x y z
#    x 1.760070 0.000000 -0.004190 
#    y 0.000000 1.746770 0.000000 
#    z -0.004190 0.000000 1.757130 
# 
# From -- ./inp_files/75642.got.cif
#   From: 2010.03.12/outbox.cif.g09.slc.cpg/sg14_38_cif.got.tgz:75642.got - 2010.03.31 13:35:05.
