data_PCOD8127904
_publ_section_title
;
Structure prediction by ZEFSAII (Michael W. Deem and Ramdas Pophale) SiO2 
 PCOD8127904
Probable space group: P 21/C
;
_chemical_formula_sum "Si O2"
_cell_formula_units_Z 20
_cell_length_a 7.973331
_cell_length_b 12.235312
_cell_length_c 9.924457
_cell_angle_alpha 90.000000
_cell_angle_beta 85.282366
_cell_angle_gamma 90.000000
_cell_volume 964.912119
_symmetry_space_group_name_H-M "P 21/C"
_symmetry_group_IT_number 14
_symmetry_cell_setting 'monoclinic'
loop_
_space_group_symop_operation_xyz
x,y,z
-x,1/2+y,1/2-z
-x,-y,-z
x,1/2-y,1/2+z
loop_
_atom_site_type_symbol
_atom_site_label
_atom_site_fract_x
_atom_site_fract_y
_atom_site_fract_z
Si Si1 0.441402 0.122733 0.361386
Si Si2 0.726331 0.079048 0.528046
Si Si3 0.815919 0.802198 0.179100
Si Si4 0.231431 0.951139 0.769754
Si Si5 0.970248 0.239268 0.089503
O O1 0.541253 0.126788 0.498707
O O2 0.356506 0.238322 0.338588
O O3 0.576431 0.094459 0.234757
O O4 0.298550 0.028301 0.377910
O O5 0.826772 0.046750 0.383984
O O6 0.827553 0.167647 0.607440
O O7 0.876403 0.772336 0.324553
O O8 0.774190 0.929167 0.166384
O O9 0.962892 0.770034 0.066268
O O10 0.107302 0.876018 0.863146
#
# Coordination Sequence:
#
# PCOD8127904 Si02
#       5
#     4   4   4   4   4
#     4   9  22  42  71  94 126 179 231 260 323 404
#     4   9  21  45  68  93 132 185 217 264 331 408
#     4  12  25  42  69 101 133 173 222 276 337 389
#     4  10  23  43  65  97 133 170 225 268 329 386
#     4  12  25  42  68  98 141 167 221 277 337 394
#
# _framework density 20.727277000000001
#
# number of rings (size 3 to 8) (size 9 to 14) (size 15 to 20)
#    1.200    0.400    2.000    1.800    5.600    1.600 
#    0.000    2.000    0.000    0.000    0.000    0.000 
#    0.000    0.000    0.000    0.000    0.000    0.000 
#
# Total GULP energy -247997.784951 kJ/mol
# GULP energy per Si atom -12399.889248 kJ/mol
# Density = 2.068010 g / cm^3
# Si number density = 20.727277 Si / 1000 Ang^3
#
#
#
# Elastic Constant Matrix: (Units=GPa)
#
#
# Indices 1 2 3 4 5 6 
#
# 1 71.7967 47.2817 12.2413 0.0000 -3.4869 0.0000
# 2 47.2817 126.1528 11.5052 0.0000 -0.6112 0.0000
# 3 12.2413 11.5052 45.8061 0.0000 -0.0718 0.0000
# 4 0.0000 0.0000 0.0000 24.5899 0.0000 -11.0474
# 5 -3.4869 -0.6112 -0.0718 0.0000 27.9024 0.0000
# 6 0.0000 0.0000 0.0000 -11.0474 0.0000 41.5092
#
#
#
# Elastic Compliance Matrix: (Units=1/GPa)
#
#
# Indices 1 2 3 4 5 6 
#
# 1 0.019124 -0.006848 -0.003387 0.000000 0.002231 0.000000
# 2 -0.006848 0.010566 -0.000825 0.000000 -0.000626 0.000000
# 3 -0.003387 -0.000825 0.022943 0.000000 -0.000382 0.000000
# 4 0.000000 0.000000 0.000000 0.046190 0.000000 0.012293
# 5 0.002231 -0.000626 -0.000382 0.000000 0.036103 0.000000
# 6 0.000000 0.000000 0.000000 0.012293 0.000000 0.027363
#
#
# Mechanical properties :
#
#
# Convention : Reuss Voigt Hill
#
# Bulk Modulus (GPa) = 32.77315 42.86799 37.82057
# Shear Modulus (GPa) = 25.69655 30.31545 28.00600
#
# Velocity S-wave (km/s) = 3.52482 3.82853 3.67981
# Velocity P-wave (km/s) = 5.69313 6.34589 6.02835
#
# Compressibility (1/GPa) = 0.03051278
#
# Stress axis : x y z
#
# Youngs Moduli (GPa) = 52.29118 94.64670 43.58650
#
# Poissons Ratio (x) = 0.64812 0.14763
# Poissons Ratio (y) = 0.35808 0.03595
# Poissons Ratio (z) = 0.17712 0.07806
#
# Static dielectric constant tensor:
#      x y z
#    x 3.555550 0.000000 -0.126140 
#    y 0.000000 3.631360 0.000000 
#    z -0.126140 0.000000 3.493370 
# 
# 
# High freq. dielectric constant tensor:
#      x y z
#    x 1.805710 0.000000 -0.014570 
#    y 0.000000 1.818410 0.000000 
#    z -0.014570 0.000000 1.789490 
# 
# From -- ./inp_files/23463.got.cif
#   From: 2010.03.12/outbox.cif.g09.slc.cpg/sg14_12_cif.got.tgz:23463.got - 2010.03.31 13:35:05.
