data_PCOD8127124
_publ_section_title
;
Structure prediction by ZEFSAII (Michael W. Deem and Ramdas Pophale) SiO2 
 PCOD8127124
Probable space group: P 21/C
;
_chemical_formula_sum "Si O2"
_cell_formula_units_Z 24
_cell_length_a 8.858525
_cell_length_b 16.335823
_cell_length_c 16.469560
_cell_angle_alpha 90.000000
_cell_angle_beta 147.956325
_cell_angle_gamma 90.000000
_cell_volume 1264.513534
_symmetry_space_group_name_H-M "P 21/C"
_symmetry_group_IT_number 14
_symmetry_cell_setting 'monoclinic'
loop_
_space_group_symop_operation_xyz
x,y,z
-x,1/2+y,1/2-z
-x,-y,-z
x,1/2-y,1/2+z
loop_
_atom_site_type_symbol
_atom_site_label
_atom_site_fract_x
_atom_site_fract_y
_atom_site_fract_z
Si Si1 0.274117 0.186197 0.974035
Si Si2 0.803817 0.013514 0.333862
Si Si3 0.296015 0.156624 0.800119
Si Si4 0.943282 0.310313 0.605755
Si Si5 0.918771 0.160998 0.278233
Si Si6 0.192256 0.421207 0.583714
O O1 0.122221 0.125887 0.968181
O O2 0.604082 0.197491 0.146708
O O3 0.236722 0.145527 0.868681
O O4 0.137536 0.275731 0.918088
O O5 0.734080 0.929847 0.256563
O O6 0.519113 0.053943 0.237587
O O7 0.000000 0.000000 0.500000
O O8 0.956615 0.073915 0.339480
O O9 0.062858 0.218073 0.656899
O O10 0.612578 0.191945 0.929459
O O11 0.985657 0.350282 0.713669
O O12 0.130285 0.363684 0.631038
O O13 0.000000 0.500000 0.500000
#
# Coordination Sequence:
#
# PCOD8127124 Si02
#       6
#     4   4   4   4   4   4
#     4   9  21  38  63  85 115 155 198 236 298 349
#     4  11  25  40  59  89 123 157 199 245 296 344
#     4  10  22  41  62  85 119 160 194 244 294 358
#     4  10  22  39  65  87 118 154 202 240 301 350
#     4   9  21  41  62  85 118 157 197 243 295 354
#     4  11  23  38  61  89 116 155 197 243 292 352
#
# _framework density 18.979631000000001
#
# number of rings (size 3 to 8) (size 9 to 14) (size 15 to 20)
#    0.000    2.000    1.667    0.000    7.000    4.667 
#    0.000    0.833    0.000    0.000    0.000    0.000 
#    0.000    0.000    0.000    0.000    0.000    0.000 
#
# Total GULP energy -297685.222617 kJ/mol
# GULP energy per Si atom -12403.550942 kJ/mol
# Density = 1.893643 g / cm^3
# Si number density = 18.979631 Si / 1000 Ang^3
#
#
#
# Elastic Constant Matrix: (Units=GPa)
#
#
# Indices 1 2 3 4 5 6 
#
# 1 131.9783 80.0664 48.3313 0.0000 2.9234 0.0000
# 2 80.0664 134.7931 71.4848 0.0000 -4.2686 0.0000
# 3 48.3313 71.4848 103.3816 0.0000 -8.8632 0.0000
# 4 0.0000 0.0000 0.0000 35.4966 0.0000 2.9919
# 5 2.9234 -4.2686 -8.8632 0.0000 17.8936 0.0000
# 6 0.0000 0.0000 0.0000 2.9919 0.0000 42.1503
#
#
#
# Elastic Compliance Matrix: (Units=1/GPa)
#
#
# Indices 1 2 3 4 5 6 
#
# 1 0.012232 -0.006590 -0.001533 0.000000 -0.004330 0.000000
# 2 -0.006590 0.015293 -0.007403 0.000000 0.001058 0.000000
# 3 -0.001533 -0.007403 0.016061 0.000000 0.006440 0.000000
# 4 0.000000 0.000000 0.000000 0.028341 0.000000 -0.002012
# 5 -0.004330 0.001058 0.006440 0.000000 0.060036 0.000000
# 6 0.000000 0.000000 0.000000 -0.002012 0.000000 0.023867
#
#
# Mechanical properties :
#
#
# Convention : Reuss Voigt Hill
#
# Bulk Modulus (GPa) = 79.78517 85.54644 82.66580
# Shear Modulus (GPa) = 26.16991 30.45945 28.31468
#
# Velocity S-wave (km/s) = 3.71730 4.01040 3.86663
# Velocity P-wave (km/s) = 7.78158 8.16180 7.97396
#
# Compressibility (1/GPa) = 0.01253366
#
# Stress axis : x y z
#
# Youngs Moduli (GPa) = 81.75131 65.39133 62.26456
#
# Poissons Ratio (x) = 0.43092 0.09546
# Poissons Ratio (y) = 0.53873 0.46093
# Poissons Ratio (z) = 0.12534 0.48408
#
# Static dielectric constant tensor:
#      x y z
#    x 3.383830 0.000000 0.172910 
#    y 0.000000 3.498190 0.000000 
#    z 0.172910 0.000000 3.439680 
# 
# 
# High freq. dielectric constant tensor:
#      x y z
#    x 1.752300 0.000000 0.001640 
#    y 0.000000 1.740690 0.000000 
#    z 0.001640 0.000000 1.735960 
# 
# From -- ./inp_files/9192.got.cif
#   From: 2010.03.12/outbox.cif.g09.slc.cpg/sg14_5_cif.got.tgz:9192.got - 2010.03.31 13:35:05.
