data_PCOD8127862
_publ_section_title
;
Structure prediction by ZEFSAII (Michael W. Deem and Ramdas Pophale) SiO2 
 PCOD8127862
Probable space group: P 21/C
;
_chemical_formula_sum "Si O2"
_cell_formula_units_Z 32
_cell_length_a 18.580949
_cell_length_b 8.713783
_cell_length_c 24.448694
_cell_angle_alpha 90.000000
_cell_angle_beta 158.015928
_cell_angle_gamma 90.000000
_cell_volume 1481.858623
_symmetry_space_group_name_H-M "P 21/C"
_symmetry_group_IT_number 14
_symmetry_cell_setting 'monoclinic'
loop_
_space_group_symop_operation_xyz
x,y,z
-x,1/2+y,1/2-z
-x,-y,-z
x,1/2-y,1/2+z
loop_
_atom_site_type_symbol
_atom_site_label
_atom_site_fract_x
_atom_site_fract_y
_atom_site_fract_z
Si Si1 0.382487 0.116462 0.115456
Si Si2 0.587911 0.165402 0.552265
Si Si3 0.673710 0.219554 0.893586
Si Si4 0.650704 0.168582 0.206556
Si Si5 0.003115 0.607001 0.817037
Si Si6 0.996491 0.759189 0.194236
Si Si7 0.944002 0.336567 0.482791
Si Si8 0.262479 0.333738 0.269166
O O1 0.488246 0.183894 0.243529
O O2 0.485705 0.183875 0.135078
O O3 0.394795 0.931547 0.122411
O O4 0.163434 0.174527 0.959785
O O5 0.568094 0.255096 0.594531
O O6 0.806431 0.161089 0.685831
O O7 0.465608 0.249700 0.419356
O O8 0.500000 0.000000 0.500000
O O9 0.799764 0.157016 0.932166
O O10 0.791486 0.333793 0.016144
O O11 0.847616 0.246910 0.364764
O O12 0.702746 0.995819 0.232380
O O13 0.951433 0.690081 0.724148
O O14 0.001044 0.424239 0.808047
O O15 0.839269 0.654936 0.743908
O O16 0.000000 0.500000 0.500000
O O17 0.140074 0.256693 0.638444
#
# Coordination Sequence:
#
# PCOD8127862 Si02
#       8
#     4   4   4   4   4   4   4   4
#     4  11  25  44  69 100 136 178 223 280 339 408
#     4  12  28  44  69 101 135 180 229 281 338 397
#     4  10  24  44  70  98 139 172 226 282 338 410
#     4  11  24  45  69  99 132 180 225 279 341 406
#     4  11  25  44  69 101 133 180 224 276 344 403
#     4  12  27  44  71  97 140 180 224 280 338 403
#     4  10  23  42  70 100 131 173 224 280 338 404
#     4  11  24  45  68  96 138 173 225 278 334 408
#
# _framework density 21.594501999999999
#
# number of rings (size 3 to 8) (size 9 to 14) (size 15 to 20)
#    0.000    1.000    1.250    3.750   12.250    1.000 
#    0.000    0.000    0.000    0.000    0.000    0.000 
#    0.000    0.000    0.000    0.000    0.000    0.000 
#
# Total GULP energy -396990.752159 kJ/mol
# GULP energy per Si atom -12405.961005 kJ/mol
# Density = 2.154535 g / cm^3
# Si number density = 21.594502 Si / 1000 Ang^3
#
#
#
# Elastic Constant Matrix: (Units=GPa)
#
#
# Indices 1 2 3 4 5 6 
#
# 1 116.4657 13.6450 51.0529 0.0000 -40.4082 0.0000
# 2 13.6450 164.1136 63.9491 0.0000 0.7448 0.0000
# 3 51.0529 63.9491 186.2857 0.0000 -16.0422 0.0000
# 4 0.0000 0.0000 0.0000 42.9827 0.0000 -11.8089
# 5 -40.4082 0.7448 -16.0422 0.0000 50.5585 0.0000
# 6 0.0000 0.0000 0.0000 -11.8089 0.0000 35.4963
#
#
#
# Elastic Compliance Matrix: (Units=1/GPa)
#
#
# Indices 1 2 3 4 5 6 
#
# 1 0.013141 -0.000065 -0.002750 0.000000 0.009631 0.000000
# 2 -0.000065 0.007074 -0.002492 0.000000 -0.000947 0.000000
# 3 -0.002750 -0.002492 0.006982 0.000000 0.000054 0.000000
# 4 0.000000 0.000000 0.000000 0.025606 0.000000 0.008518
# 5 0.009631 -0.000947 0.000054 0.000000 0.027508 0.000000
# 6 0.000000 0.000000 0.000000 0.008518 0.000000 0.031006
#
#
# Mechanical properties :
#
#
# Convention : Reuss Voigt Hill
#
# Bulk Modulus (GPa) = 60.30174 80.46212 70.38193
# Shear Modulus (GPa) = 39.22895 48.35535 43.79215
#
# Velocity S-wave (km/s) = 4.26680 4.73720 4.50814
# Velocity P-wave (km/s) = 7.22906 8.20139 7.73053
#
# Compressibility (1/GPa) = 0.01658327
#
# Stress axis : x y z
#
# Youngs Moduli (GPa) = 76.09994 141.35964 143.22774
#
# Poissons Ratio (x) = 0.00916 0.39382
# Poissons Ratio (y) = 0.00493 0.35695
# Poissons Ratio (z) = 0.20925 0.35230
#
# Static dielectric constant tensor:
#      x y z
#    x 3.842620 0.000000 -0.126980 
#    y 0.000000 3.906810 0.000000 
#    z -0.126980 0.000000 4.122330 
# 
# 
# High freq. dielectric constant tensor:
#      x y z
#    x 1.847890 0.000000 -0.007080 
#    y 0.000000 1.860700 0.000000 
#    z -0.007080 0.000000 1.869310 
# 
# From -- ./inp_files/78018.got.cif
#   From: 2010.03.12/outbox.cif.g09.slc.cpg/sg14_40_cif.got.tgz:78018.got - 2010.03.31 13:35:05.
