data_PCOD8127598
_publ_section_title
;
Structure prediction by ZEFSAII (Michael W. Deem and Ramdas Pophale) SiO2 
 PCOD8127598
Probable space group: P 21/C
;
_chemical_formula_sum "Si O2"
_cell_formula_units_Z 28
_cell_length_a 10.503615
_cell_length_b 14.666964
_cell_length_c 9.069988
_cell_angle_alpha 90.000000
_cell_angle_beta 59.922866
_cell_angle_gamma 90.000000
_cell_volume 1209.144718
_symmetry_space_group_name_H-M "P 21/C"
_symmetry_group_IT_number 14
_symmetry_cell_setting 'monoclinic'
loop_
_space_group_symop_operation_xyz
x,y,z
-x,1/2+y,1/2-z
-x,-y,-z
x,1/2-y,1/2+z
loop_
_atom_site_type_symbol
_atom_site_label
_atom_site_fract_x
_atom_site_fract_y
_atom_site_fract_z
Si Si1 0.531313 0.341644 0.117236
Si Si2 0.087142 0.406605 0.963949
Si Si3 0.549649 0.509817 0.639005
Si Si4 0.641403 0.174106 0.229971
Si Si5 0.024364 0.790331 0.984839
Si Si6 0.771264 0.828717 0.357188
Si Si7 0.198006 0.134456 0.090307
O O1 0.567369 0.431700 0.194713
O O2 0.551028 0.257798 0.216226
O O3 0.361164 0.356238 0.171058
O O4 0.632471 0.330071 0.913473
O O5 0.189553 0.398008 0.762741
O O6 0.197142 0.407684 0.040713
O O7 0.000000 0.500000 0.000000
O O8 0.979951 0.318533 0.045232
O O9 0.500000 0.500000 0.500000
O O10 0.564574 0.413065 0.705820
O O11 0.706349 0.561531 0.553594
O O12 0.809599 0.180390 0.080774
O O13 0.964758 0.853184 0.885182
O O14 0.923375 0.811589 0.183348
O O15 0.724827 0.734188 0.465231
#
# Coordination Sequence:
#
# PCOD8127598 Si02
#       7
#     4   4   4   4   4   4   4
#     4  12  27  50  73 109 150 194 248 306 373 455
#     4  10  24  39  72 106 140 181 248 302 364 435
#     4  12  27  49  74 105 148 199 248 304 373 450
#     4  12  29  46  76 108 149 192 247 316 376 432
#     4  10  24  47  70 101 144 190 239 304 372 433
#     4  10  22  45  75  97 141 197 240 294 375 442
#     4  10  22  44  70 101 140 186 245 291 365 444
#
# _framework density 23.156863000000001
#
# number of rings (size 3 to 8) (size 9 to 14) (size 15 to 20)
#    0.000    1.143    1.429    3.000   14.000    2.857 
#    0.000    0.000    0.000    0.000    0.000    0.000 
#    0.000    0.000    0.000    0.000    0.000    0.000 
#
# Total GULP energy -347156.535451 kJ/mol
# GULP energy per Si atom -12398.447695 kJ/mol
# Density = 2.310416 g / cm^3
# Si number density = 23.156863 Si / 1000 Ang^3
#
#
#
# Elastic Constant Matrix: (Units=GPa)
#
#
# Indices 1 2 3 4 5 6 
#
# 1 89.3238 26.2137 32.5649 0.0000 7.1132 0.0000
# 2 26.2137 101.6106 20.5376 0.0000 7.3498 0.0000
# 3 32.5649 20.5376 102.4132 0.0000 6.9386 0.0000
# 4 0.0000 0.0000 0.0000 36.6914 0.0000 5.9644
# 5 7.1132 7.3498 6.9386 0.0000 43.0576 0.0000
# 6 0.0000 0.0000 0.0000 5.9644 0.0000 33.0101
#
#
#
# Elastic Compliance Matrix: (Units=1/GPa)
#
#
# Indices 1 2 3 4 5 6 
#
# 1 0.013392 -0.002632 -0.003651 0.000000 -0.001175 0.000000
# 2 -0.002632 0.010863 -0.001259 0.000000 -0.001217 0.000000
# 3 -0.003651 -0.001259 0.011245 0.000000 -0.000994 0.000000
# 4 0.000000 0.000000 0.000000 0.028079 0.000000 -0.005073
# 5 -0.001175 -0.001217 -0.000994 0.000000 0.023787 0.000000
# 6 0.000000 0.000000 0.000000 -0.005073 0.000000 0.031210
#
#
# Mechanical properties :
#
#
# Convention : Reuss Voigt Hill
#
# Bulk Modulus (GPa) = 48.98084 50.22001 49.60042
# Shear Modulus (GPa) = 35.59576 36.82057 36.20817
#
# Velocity S-wave (km/s) = 3.92491 3.99187 3.95853
# Velocity P-wave (km/s) = 6.46047 6.55596 6.50839
#
# Compressibility (1/GPa) = 0.02041615
#
# Stress axis : x y z
#
# Youngs Moduli (GPa) = 74.67010 92.05561 88.92734
#
# Poissons Ratio (x) = 0.24229 0.32467
# Poissons Ratio (y) = 0.19653 0.11197
# Poissons Ratio (z) = 0.27262 0.11591
#
# Static dielectric constant tensor:
#      x y z
#    x 4.034790 0.000000 0.283760 
#    y 0.000000 4.259920 0.000000 
#    z 0.283760 0.000000 4.358770 
# 
# 
# High freq. dielectric constant tensor:
#      x y z
#    x 1.906870 0.000000 0.017480 
#    y 0.000000 1.913480 0.000000 
#    z 0.017480 0.000000 1.932100 
# 
# From -- ./inp_files/12993.got.cif
#   From: 2010.03.12/outbox.cif.g09.slc.cpg/sg14_7_cif.got.tgz:12993.got - 2010.03.31 13:35:05.
