data_PCOD8127234
_publ_section_title
;
Structure prediction by ZEFSAII (Michael W. Deem and Ramdas Pophale) SiO2 
 PCOD8127234
Probable space group: P 21/C
;
_chemical_formula_sum "Si O2"
_cell_formula_units_Z 32
_cell_length_a 5.146104
_cell_length_b 14.196742
_cell_length_c 19.655870
_cell_angle_alpha 90.000000
_cell_angle_beta 70.373859
_cell_angle_gamma 90.000000
_cell_volume 1352.590405
_symmetry_space_group_name_H-M "P 21/C"
_symmetry_group_IT_number 14
_symmetry_cell_setting 'monoclinic'
loop_
_space_group_symop_operation_xyz
x,y,z
-x,1/2+y,1/2-z
-x,-y,-z
x,1/2-y,1/2+z
loop_
_atom_site_type_symbol
_atom_site_label
_atom_site_fract_x
_atom_site_fract_y
_atom_site_fract_z
Si Si1 0.882589 0.792053 0.554474
Si Si2 0.962315 0.948474 0.853385
Si Si3 0.324167 0.554416 0.442730
Si Si4 0.019286 0.840885 0.169214
Si Si5 0.690164 0.511100 0.049211
Si Si6 0.898936 0.749262 0.321907
Si Si7 0.694281 0.181789 0.597201
Si Si8 0.531913 0.639454 0.548746
O O1 0.693920 0.885517 0.584644
O O2 0.704908 0.731634 0.516016
O O3 0.902045 0.729907 0.621758
O O4 0.172638 0.809979 0.490636
O O5 0.648029 0.962799 0.901173
O O6 0.973530 0.861018 0.799530
O O7 0.144688 0.903159 0.898430
O O8 0.093588 0.049846 0.822272
O O9 0.301494 0.622410 0.509924
O O10 0.238532 0.445661 0.466528
O O11 0.352339 0.844655 0.133411
O O12 0.931896 0.804305 0.249586
O O13 0.608481 0.429294 0.110664
O O14 0.500000 0.500000 0.000000
O O15 0.000000 0.500000 0.000000
O O16 0.578251 0.753383 0.374106
O O17 0.092777 0.795780 0.361517
#
# Coordination Sequence:
#
# PCOD8127234 Si02
#       8
#     4   4   4   4   4   4   4   4
#     4  11  24  44  77 103 142 183 248 304 360 423
#     4  11  24  45  68 105 141 189 235 288 359 439
#     4  10  22  40  68 103 143 174 227 295 356 422
#     4  11  28  45  69 106 149 186 248 297 363 439
#     4  10  23  43  70 106 138 175 240 300 352 415
#     4  12  28  48  72  99 151 193 240 288 375 438
#     4  11  26  48  72 104 139 194 241 303 364 437
#     4  10  23  39  69 104 144 179 229 296 370 421
#
# _framework density 23.658308999999999
#
# number of rings (size 3 to 8) (size 9 to 14) (size 15 to 20)
#    0.000    1.250    1.250    3.000   12.250    2.500 
#    2.250    0.000    0.000    0.000    0.000    0.000 
#    0.000    0.000    0.000    0.000    0.000    0.000 
#
# Total GULP energy -396444.541809 kJ/mol
# GULP energy per Si atom -12388.891932 kJ/mol
# Density = 2.360446 g / cm^3
# Si number density = 23.658309 Si / 1000 Ang^3
#
#
#
# Elastic Constant Matrix: (Units=GPa)
#
#
# Indices 1 2 3 4 5 6 
#
# 1 116.3019 47.7192 30.9602 0.0000 18.0764 0.0000
# 2 47.7192 197.9218 49.0665 0.0000 19.3339 0.0000
# 3 30.9602 49.0665 87.3996 0.0000 16.0655 0.0000
# 4 0.0000 0.0000 0.0000 26.3109 0.0000 6.0544
# 5 18.0764 19.3339 16.0655 0.0000 25.6985 0.0000
# 6 0.0000 0.0000 0.0000 6.0544 0.0000 37.4117
#
#
#
# Elastic Compliance Matrix: (Units=1/GPa)
#
#
# Indices 1 2 3 4 5 6 
#
# 1 0.010537 -0.001572 -0.001926 0.000000 -0.005025 0.000000
# 2 -0.001572 0.006270 -0.002598 0.000000 -0.001987 0.000000
# 3 -0.001926 -0.002598 0.014659 0.000000 -0.005855 0.000000
# 4 0.000000 0.000000 0.000000 0.039477 0.000000 -0.006389
# 5 -0.005025 -0.001987 -0.005855 0.000000 0.047602 0.000000
# 6 0.000000 0.000000 0.000000 -0.006389 0.000000 0.027764
#
#
# Mechanical properties :
#
#
# Convention : Reuss Voigt Hill
#
# Bulk Modulus (GPa) = 51.88591 73.01279 62.44935
# Shear Modulus (GPa) = 30.31683 36.14272 33.22977
#
# Velocity S-wave (km/s) = 3.58361 3.91282 3.75183
# Velocity P-wave (km/s) = 6.25316 7.16532 6.72473
#
# Compressibility (1/GPa) = 0.01927306
#
# Stress axis : x y z
#
# Youngs Moduli (GPa) = 94.90215 159.49930 68.21945
#
# Poissons Ratio (x) = 0.25075 0.13142
# Poissons Ratio (y) = 0.14920 0.17721
# Poissons Ratio (z) = 0.18282 0.41432
#
# Static dielectric constant tensor:
#      x y z
#    x 4.355000 0.000000 0.006040 
#    y 0.000000 5.551100 0.000000 
#    z 0.006040 0.000000 3.759220 
# 
# 
# High freq. dielectric constant tensor:
#      x y z
#    x 1.953640 0.000000 0.003490 
#    y 0.000000 1.973950 0.000000 
#    z 0.003490 0.000000 1.882150 
# 
# From -- ./inp_files/63767.got.cif
#   From: 2010.03.12/outbox.cif.g09.slc.cpg/sg14_32_cif.got.tgz:63767.got - 2010.03.31 13:35:05.
