data_PCOD8127042
_publ_section_title
;
Structure prediction by ZEFSAII (Michael W. Deem and Ramdas Pophale) SiO2 
 PCOD8127042
Probable space group: P 21/C
;
_chemical_formula_sum "Si O2"
_cell_formula_units_Z 32
_cell_length_a 13.691155
_cell_length_b 11.578110
_cell_length_c 14.074969
_cell_angle_alpha 90.000000
_cell_angle_beta 137.641674
_cell_angle_gamma 90.000000
_cell_volume 1503.258657
_symmetry_space_group_name_H-M "P 21/C"
_symmetry_group_IT_number 14
_symmetry_cell_setting 'monoclinic'
loop_
_space_group_symop_operation_xyz
x,y,z
-x,1/2+y,1/2-z
-x,-y,-z
x,1/2-y,1/2+z
loop_
_atom_site_type_symbol
_atom_site_label
_atom_site_fract_x
_atom_site_fract_y
_atom_site_fract_z
Si Si1 0.069679 0.056369 0.893827
Si Si2 0.435646 0.888250 0.572167
Si Si3 0.148829 0.363270 0.091643
Si Si4 0.054568 0.175406 0.164128
Si Si5 0.895805 0.039662 0.287922
Si Si6 0.855314 0.228421 0.682290
Si Si7 0.372945 0.357503 0.968898
Si Si8 0.347004 0.205197 0.126208
O O1 0.936146 0.144524 0.815259
O O2 0.074028 0.031474 0.784850
O O3 0.220639 0.109627 0.036164
O O4 0.037749 0.939020 0.929683
O O5 0.279122 0.830606 0.464914
O O6 0.520618 0.837044 0.542975
O O7 0.514853 0.854206 0.726600
O O8 0.419159 0.025947 0.556114
O O9 0.063829 0.256387 0.078896
O O10 0.191487 0.458864 0.201263
O O11 0.295357 0.317352 0.148763
O O12 0.051364 0.422388 0.941289
O O13 0.210985 0.133600 0.312894
O O14 0.976630 0.242905 0.191889
O O15 0.803400 0.155088 0.199023
O O16 0.388733 0.248225 0.050855
#
# Coordination Sequence:
#
# PCOD8127042 Si02
#       8
#     4   4   4   4   4   4   4   4
#     4  11  21  40  71  99 131 177 231 281 334 405
#     4  11  27  44  68 102 142 182 230 281 362 412
#     4  11  21  39  66 106 133 176 230 283 345 410
#     4  11  21  40  75  98 139 175 234 287 334 409
#     4  10  22  38  65  99 136 171 225 284 341 396
#     4  11  21  42  66 101 128 181 223 283 339 405
#     4  11  23  47  68  96 146 188 219 291 354 415
#     4  12  24  44  70 100 137 191 229 282 356 422
#
# _framework density 21.287089999999999
#
# number of rings (size 3 to 8) (size 9 to 14) (size 15 to 20)
#    0.000    1.000    6.250    0.750    0.000    2.500 
#    9.000    0.625    0.000    0.000    0.000    0.000 
#    0.000    0.000    0.000    0.000    0.000    0.000 
#
# Total GULP energy -396856.295352 kJ/mol
# GULP energy per Si atom -12401.759230 kJ/mol
# Density = 2.123864 g / cm^3
# Si number density = 21.287090 Si / 1000 Ang^3
#
#
#
# Elastic Constant Matrix: (Units=GPa)
#
#
# Indices 1 2 3 4 5 6 
#
# 1 20.8001 6.3771 -4.9554 0.0000 3.4650 0.0000
# 2 6.3771 91.0245 23.2879 0.0000 -0.0783 0.0000
# 3 -4.9554 23.2879 90.9555 0.0000 8.7688 0.0000
# 4 0.0000 0.0000 0.0000 38.4642 0.0000 -4.4683
# 5 3.4650 -0.0783 8.7688 0.0000 31.8124 0.0000
# 6 0.0000 0.0000 0.0000 -4.4683 0.0000 30.6200
#
#
#
# Elastic Compliance Matrix: (Units=1/GPa)
#
#
# Indices 1 2 3 4 5 6 
#
# 1 0.051853 -0.004851 0.004739 0.000000 -0.006966 0.000000
# 2 -0.004851 0.012234 -0.003545 0.000000 0.001536 0.000000
# 3 0.004739 -0.003545 0.012544 0.000000 -0.003983 0.000000
# 4 0.000000 0.000000 0.000000 0.026446 0.000000 0.003859
# 5 -0.006966 0.001536 -0.003983 0.000000 0.033295 0.000000
# 6 0.000000 0.000000 0.000000 0.003859 0.000000 0.033222
#
#
# Mechanical properties :
#
#
# Convention : Reuss Voigt Hill
#
# Bulk Modulus (GPa) = 14.42643 28.02215 21.22429
# Shear Modulus (GPa) = 24.99822 32.05070 28.52446
#
# Velocity S-wave (km/s) = 3.43058 3.88447 3.66456
# Velocity P-wave (km/s) = 4.74169 5.77159 5.28180
#
# Compressibility (1/GPa) = 0.06931720
#
# Stress axis : x y z
#
# Youngs Moduli (GPa) = 19.28516 81.73847 79.71887
#
# Poissons Ratio (x) = 0.39653 -0.37777
# Poissons Ratio (y) = 0.09356 0.28258
# Poissons Ratio (z) = -0.09139 0.28974
#
# Static dielectric constant tensor:
#      x y z
#    x 3.790780 0.000000 -0.151460 
#    y 0.000000 4.227250 0.000000 
#    z -0.151460 0.000000 3.717750 
# 
# 
# High freq. dielectric constant tensor:
#      x y z
#    x 1.821240 0.000000 -0.015480 
#    y 0.000000 1.855340 0.000000 
#    z -0.015480 0.000000 1.822790 
# 
# From -- ./inp_files/47146.got.cif
#   From: 2010.03.12/outbox.cif.g09.slc.cpg/sg14_24_cif.got.tgz:47146.got - 2010.03.31 13:35:05.
