data_PCOD8127162
_publ_section_title
;
Structure prediction by ZEFSAII (Michael W. Deem and Ramdas Pophale) SiO2 
 PCOD8127162
Probable space group: P 21/C
;
_chemical_formula_sum "Si O2"
_cell_formula_units_Z 32
_cell_length_a 7.042188
_cell_length_b 16.478079
_cell_length_c 14.183676
_cell_angle_alpha 90.000000
_cell_angle_beta 106.354573
_cell_angle_gamma 90.000000
_cell_volume 1579.301189
_symmetry_space_group_name_H-M "P 21/C"
_symmetry_group_IT_number 14
_symmetry_cell_setting 'monoclinic'
loop_
_space_group_symop_operation_xyz
x,y,z
-x,1/2+y,1/2-z
-x,-y,-z
x,1/2-y,1/2+z
loop_
_atom_site_type_symbol
_atom_site_label
_atom_site_fract_x
_atom_site_fract_y
_atom_site_fract_z
Si Si1 0.620079 0.582294 0.016618
Si Si2 0.735649 0.197866 0.566351
Si Si3 0.934149 0.937495 0.710332
Si Si4 0.325388 0.813654 0.096743
Si Si5 0.126665 0.728431 0.225706
Si Si6 0.049220 0.539227 0.606778
Si Si7 0.221397 0.343622 0.325814
Si Si8 0.094204 0.412901 0.118579
O O1 0.480623 0.659884 0.980630
O O2 0.773491 0.574285 0.953375
O O3 0.500000 0.500000 0.000000
O O4 0.733007 0.593438 0.132208
O O5 0.758854 0.283278 0.515026
O O6 0.769611 0.218385 0.679481
O O7 0.899061 0.133530 0.555682
O O8 0.092725 0.865183 0.746836
O O9 0.879011 0.973189 0.805858
O O10 0.034260 0.001949 0.655317
O O11 0.278277 0.738706 0.160350
O O12 0.224839 0.896275 0.117869
O O13 0.556213 0.826437 0.115319
O O14 0.913489 0.766081 0.168784
O O15 0.000000 0.500000 0.500000
O O16 0.852796 0.580929 0.621178
O O17 0.211655 0.361113 0.212987
#
# Coordination Sequence:
#
# PCOD8127162 Si02
#       8
#     4   4   4   4   4   4   4   4
#     4  12  24  35  63  93 127 156 206 259 321 375
#     4  11  23  41  61  91 122 165 208 255 320 376
#     4  11  22  41  64  94 125 166 212 258 319 381
#     4  11  22  39  65  84 123 162 205 258 317 371
#     4  10  22  40  61  86 124 162 206 257 309 378
#     4  10  23  43  64  89 125 165 212 264 309 372
#     4   9  21  40  62  87 119 163 208 250 313 378
#     4  10  22  40  61  89 128 159 201 262 317 371
#
# _framework density 20.262125999999999
#
# number of rings (size 3 to 8) (size 9 to 14) (size 15 to 20)
#    0.000    1.500    1.250    4.125    3.500    1.500 
#    0.000    2.500    0.000    0.000    0.000    0.000 
#    0.000    0.000    0.000    0.000    0.000    0.000 
#
# Total GULP energy -396857.484828 kJ/mol
# GULP energy per Si atom -12401.796401 kJ/mol
# Density = 2.021601 g / cm^3
# Si number density = 20.262126 Si / 1000 Ang^3
#
#
#
# Elastic Constant Matrix: (Units=GPa)
#
#
# Indices 1 2 3 4 5 6 
#
# 1 111.4551 34.3824 56.3575 0.0000 3.8947 0.0000
# 2 34.3824 89.7811 36.8817 0.0000 11.2049 0.0000
# 3 56.3575 36.8817 115.4683 0.0000 -4.6071 0.0000
# 4 0.0000 0.0000 0.0000 41.0997 0.0000 -2.1975
# 5 3.8947 11.2049 -4.6071 0.0000 22.3689 0.0000
# 6 0.0000 0.0000 0.0000 -2.1975 0.0000 30.2152
#
#
#
# Elastic Compliance Matrix: (Units=1/GPa)
#
#
# Indices 1 2 3 4 5 6 
#
# 1 0.012515 -0.002276 -0.005467 0.000000 -0.002165 0.000000
# 2 -0.002276 0.014547 -0.003842 0.000000 -0.007682 0.000000
# 3 -0.005467 -0.003842 0.012776 0.000000 0.005508 0.000000
# 4 0.000000 0.000000 0.000000 0.024426 0.000000 0.001776
# 5 -0.002165 -0.007682 0.005508 0.000000 0.050064 0.000000
# 6 0.000000 0.000000 0.000000 0.001776 0.000000 0.033225
#
#
# Mechanical properties :
#
#
# Convention : Reuss Voigt Hill
#
# Bulk Modulus (GPa) = 60.00235 63.54974 61.77604
# Shear Modulus (GPa) = 28.36407 31.34230 29.85318
#
# Velocity S-wave (km/s) = 3.74552 3.93726 3.84259
# Velocity P-wave (km/s) = 6.95576 7.21812 7.08815
#
# Compressibility (1/GPa) = 0.01666601
#
# Stress axis : x y z
#
# Youngs Moduli (GPa) = 79.90581 68.74321 78.27319
#
# Poissons Ratio (x) = 0.15649 0.42795
# Poissons Ratio (y) = 0.18190 0.30071
# Poissons Ratio (z) = 0.43688 0.26410
#
# Static dielectric constant tensor:
#      x y z
#    x 3.837990 0.000000 0.140120 
#    y 0.000000 3.761480 0.000000 
#    z 0.140120 0.000000 3.893850 
# 
# 
# High freq. dielectric constant tensor:
#      x y z
#    x 1.787340 0.000000 -0.004740 
#    y 0.000000 1.796790 0.000000 
#    z -0.004740 0.000000 1.799000 
# 
# From -- ./inp_files/37894.got.cif
#   From: 2010.03.12/outbox.cif.g09.slc.cpg/sg14_19_cif.got.tgz:37894.got - 2010.03.31 13:35:05.
