data_PCOD8127144
_publ_section_title
;
Structure prediction by ZEFSAII (Michael W. Deem and Ramdas Pophale) SiO2 
 PCOD8127144
Probable space group: P 21/C
;
_chemical_formula_sum "Si O2"
_cell_formula_units_Z 20
_cell_length_a 20.643252
_cell_length_b 5.217200
_cell_length_c 14.401355
_cell_angle_alpha 90.000000
_cell_angle_beta 32.111780
_cell_angle_gamma 90.000000
_cell_volume 824.482903
_symmetry_space_group_name_H-M "P 21/C"
_symmetry_group_IT_number 14
_symmetry_cell_setting 'monoclinic'
loop_
_space_group_symop_operation_xyz
x,y,z
-x,1/2+y,1/2-z
-x,-y,-z
x,1/2-y,1/2+z
loop_
_atom_site_type_symbol
_atom_site_label
_atom_site_fract_x
_atom_site_fract_y
_atom_site_fract_z
Si Si1 0.516230 0.539807 0.825273
Si Si2 0.290132 0.312429 0.014350
Si Si3 0.239508 0.238865 0.783094
Si Si4 0.926102 0.859692 0.357642
Si Si5 0.612753 0.270181 0.361284
O O1 0.643079 0.574300 0.616738
O O2 0.532195 0.280998 0.866826
O O3 0.400946 0.512576 0.896214
O O4 0.481575 0.771525 0.937557
O O5 0.225254 0.227406 0.189449
O O6 0.188928 0.426701 0.068608
O O7 0.326362 0.455340 0.720658
O O8 0.288449 0.956538 0.747008
O O9 0.111564 0.276833 0.991897
O O10 0.996176 0.618347 0.228160
#
# Coordination Sequence:
#
# PCOD8127144 Si02
#       5
#     4   4   4   4   4
#     4  10  22  39  69 114 143 183 219 289 354 431
#     4  11  25  42  74 109 143 186 232 287 356 428
#     4  11  24  46  71 103 138 186 233 290 349 419
#     4  12  29  50  72  97 139 193 246 299 341 404
#     4  10  22  41  70 105 150 178 219 280 364 425
#
# _framework density 24.257625999999998
#
# number of rings (size 3 to 8) (size 9 to 14) (size 15 to 20)
#    0.000    1.200    2.000    2.400    2.800   12.000 
#    0.000    0.000    0.000    0.000    0.000    0.000 
#    0.000    0.000    0.000    0.000    0.000    0.000 
#
# Total GULP energy -247897.558460 kJ/mol
# GULP energy per Si atom -12394.877923 kJ/mol
# Density = 2.420241 g / cm^3
# Si number density = 24.257626 Si / 1000 Ang^3
#
#
#
# Elastic Constant Matrix: (Units=GPa)
#
#
# Indices 1 2 3 4 5 6 
#
# 1 104.4811 -1.5473 46.3228 0.0000 2.8020 0.0000
# 2 -1.5473 75.9233 12.6628 0.0000 -7.3703 0.0000
# 3 46.3228 12.6628 100.1153 0.0000 24.1821 0.0000
# 4 0.0000 0.0000 0.0000 39.6906 0.0000 -9.9234
# 5 2.8020 -7.3703 24.1821 0.0000 35.7708 0.0000
# 6 0.0000 0.0000 0.0000 -9.9234 0.0000 21.6819
#
#
#
# Elastic Compliance Matrix: (Units=1/GPa)
#
#
# Indices 1 2 3 4 5 6 
#
# 1 0.012628 0.001845 -0.007086 0.000000 0.004182 0.000000
# 2 0.001845 0.014416 -0.004015 0.000000 0.005540 0.000000
# 3 -0.007086 -0.004015 0.016542 0.000000 -0.011455 0.000000
# 4 0.000000 0.000000 0.000000 0.028450 0.000000 0.013021
# 5 0.004182 0.005540 -0.011455 0.000000 0.036514 0.000000
# 6 0.000000 0.000000 0.000000 0.013021 0.000000 0.052081
#
#
# Mechanical properties :
#
#
# Convention : Reuss Voigt Hill
#
# Bulk Modulus (GPa) = 39.88296 43.93292 41.90794
# Shear Modulus (GPa) = 26.66628 34.30075 30.48352
#
# Velocity S-wave (km/s) = 3.31916 3.76442 3.54878
# Velocity P-wave (km/s) = 5.58267 6.08644 5.83999
#
# Compressibility (1/GPa) = 0.02507337
#
# Stress axis : x y z
#
# Youngs Moduli (GPa) = 79.18841 69.36573 60.45183
#
# Poissons Ratio (x) = -0.12799 0.42838
# Poissons Ratio (y) = -0.14612 0.24274
# Poissons Ratio (z) = 0.56116 0.27853
#
# Static dielectric constant tensor:
#      x y z
#    x 4.423300 0.000000 0.404010 
#    y 0.000000 4.044770 0.000000 
#    z 0.404010 0.000000 4.794470 
# 
# 
# High freq. dielectric constant tensor:
#      x y z
#    x 1.960210 0.000000 0.023290 
#    y 0.000000 1.958030 0.000000 
#    z 0.023290 0.000000 1.970050 
# 
# From -- ./inp_files/49572.got.cif
#   From: 2010.03.12/outbox.cif.g09.slc.cpg/sg14_25_cif.got.tgz:49572.got - 2010.03.31 13:35:05.
