data_PCOD8127063
_publ_section_title
;
Structure prediction by ZEFSAII (Michael W. Deem and Ramdas Pophale) SiO2 
 PCOD8127063
Probable space group: P 21/C
;
_chemical_formula_sum "Si O2"
_cell_formula_units_Z 24
_cell_length_a 11.725866
_cell_length_b 8.124987
_cell_length_c 23.756029
_cell_angle_alpha 90.000000
_cell_angle_beta 28.440534
_cell_angle_gamma 90.000000
_cell_volume 1077.886799
_symmetry_space_group_name_H-M "P 21/C"
_symmetry_group_IT_number 14
_symmetry_cell_setting 'monoclinic'
loop_
_space_group_symop_operation_xyz
x,y,z
-x,1/2+y,1/2-z
-x,-y,-z
x,1/2-y,1/2+z
loop_
_atom_site_type_symbol
_atom_site_label
_atom_site_fract_x
_atom_site_fract_y
_atom_site_fract_z
Si Si1 0.273823 0.446931 0.879280
Si Si2 0.108151 0.462027 0.274295
Si Si3 0.338484 0.159892 0.571492
Si Si4 0.432134 0.255099 0.207597
Si Si5 0.481330 0.272642 0.894301
Si Si6 0.588018 0.072411 0.038400
O O1 0.433454 0.607295 0.815851
O O2 0.337333 0.383379 0.790180
O O3 0.341507 0.309747 0.896962
O O4 0.000000 0.500000 0.000000
O O5 0.112039 0.385098 0.209132
O O6 0.198679 0.324169 0.277878
O O7 0.273380 0.623788 0.207408
O O8 0.837373 0.501197 0.407444
O O9 0.286294 0.186772 0.528275
O O10 0.462969 0.327310 0.541880
O O11 0.500000 0.000000 0.500000
O O12 0.617898 0.192614 0.079147
O O13 0.557596 0.082543 0.871663
#
# Coordination Sequence:
#
# PCOD8127063 Si02
#       6
#     4   4   4   4   4   4
#     4  11  23  41  63  88 122 166 207 258 317 368
#     4   9  21  40  60  86 121 159 201 254 312 370
#     4   9  20  39  60  89 123 153 202 257 304 374
#     4  10  22  39  59  88 119 152 206 258 302 377
#     4  10  22  39  59  90 125 159 210 258 300 376
#     4  11  21  38  64  89 121 165 201 253 323 375
#
# _framework density 22.265789999999999
#
# number of rings (size 3 to 8) (size 9 to 14) (size 15 to 20)
#    0.000    2.000    0.000    3.500    0.000    6.667 
#    0.000   12.500    0.000    0.000    0.000    0.000 
#    0.000    0.000    0.000    0.000    0.000    0.000 
#
# Total GULP energy -297355.282006 kJ/mol
# GULP energy per Si atom -12389.803417 kJ/mol
# Density = 2.221511 g / cm^3
# Si number density = 22.265790 Si / 1000 Ang^3
#
#
#
# Elastic Constant Matrix: (Units=GPa)
#
#
# Indices 1 2 3 4 5 6 
#
# 1 66.4534 8.1680 37.0291 0.0000 19.4245 0.0000
# 2 8.1680 94.0673 27.0020 0.0000 -0.8578 0.0000
# 3 37.0291 27.0020 118.7568 0.0000 12.1496 0.0000
# 4 0.0000 0.0000 0.0000 34.2247 0.0000 13.6333
# 5 19.4245 -0.8578 12.1496 0.0000 24.3363 0.0000
# 6 0.0000 0.0000 0.0000 13.6333 0.0000 36.4953
#
#
#
# Elastic Compliance Matrix: (Units=1/GPa)
#
#
# Indices 1 2 3 4 5 6 
#
# 1 0.022591 -0.000569 -0.005341 0.000000 -0.015385 0.000000
# 2 -0.000569 0.011461 -0.002652 0.000000 0.002182 0.000000
# 3 -0.005341 -0.002652 0.010815 0.000000 -0.001230 0.000000
# 4 0.000000 0.000000 0.000000 0.034327 0.000000 -0.012823
# 5 -0.015385 0.002182 -0.001230 0.000000 0.054062 0.000000
# 6 0.000000 0.000000 0.000000 -0.012823 0.000000 0.032191
#
#
# Mechanical properties :
#
#
# Convention : Reuss Voigt Hill
#
# Bulk Modulus (GPa) = 36.04363 47.07509 41.55936
# Shear Modulus (GPa) = 26.06648 32.81650 29.44149
#
# Velocity S-wave (km/s) = 3.42526 3.84324 3.64025
# Velocity P-wave (km/s) = 5.64502 6.39392 6.03111
#
# Compressibility (1/GPa) = 0.02774416
#
# Stress axis : x y z
#
# Youngs Moduli (GPa) = 44.26509 87.25102 92.46766
#
# Poissons Ratio (x) = 0.04964 0.49384
# Poissons Ratio (y) = 0.02518 0.24521
# Poissons Ratio (z) = 0.23641 0.23137
#
# Static dielectric constant tensor:
#      x y z
#    x 4.224690 0.000000 0.551680 
#    y 0.000000 4.545180 0.000000 
#    z 0.551680 0.000000 3.908500 
# 
# 
# High freq. dielectric constant tensor:
#      x y z
#    x 1.870340 0.000000 0.033230 
#    y 0.000000 1.900390 0.000000 
#    z 0.033230 0.000000 1.866430 
# 
# From -- ./inp_files/28043.got.cif
#   From: 2010.03.12/outbox.cif.g09.slc.cpg/sg14_15_cif.got.tgz:28043.got - 2010.03.31 13:35:05.
