data_PCOD8127235
_publ_section_title
;
Structure prediction by ZEFSAII (Michael W. Deem and Ramdas Pophale) SiO2 
 PCOD8127235
Probable space group: P 21/C
;
_chemical_formula_sum "Si O2"
_cell_formula_units_Z 28
_cell_length_a 15.079216
_cell_length_b 8.518945
_cell_length_c 21.875569
_cell_angle_alpha 90.000000
_cell_angle_beta 150.867179
_cell_angle_gamma 90.000000
_cell_volume 1368.064162
_symmetry_space_group_name_H-M "P 21/C"
_symmetry_group_IT_number 14
_symmetry_cell_setting 'monoclinic'
loop_
_space_group_symop_operation_xyz
x,y,z
-x,1/2+y,1/2-z
-x,-y,-z
x,1/2-y,1/2+z
loop_
_atom_site_type_symbol
_atom_site_label
_atom_site_fract_x
_atom_site_fract_y
_atom_site_fract_z
Si Si1 0.836630 0.406377 0.932432
Si Si2 0.234412 0.447624 0.798758
Si Si3 0.293690 0.096920 0.101808
Si Si4 0.449507 0.087356 0.668187
Si Si5 0.378669 0.904100 0.506319
Si Si6 0.916964 0.369471 0.404543
Si Si7 0.858948 0.192474 0.060196
O O1 0.666643 0.518839 0.844111
O O2 0.788617 0.263336 0.857044
O O3 0.893160 0.322867 0.029376
O O4 0.000000 0.500000 0.000000
O O5 0.268862 0.537368 0.882055
O O6 0.195708 0.567444 0.720450
O O7 0.062017 0.337222 0.707328
O O8 0.416731 0.352439 0.889512
O O9 0.449008 0.222504 0.174544
O O10 0.354367 0.997883 0.200060
O O11 0.112041 0.204097 0.000511
O O12 0.244273 0.965172 0.022381
O O13 0.380463 0.039152 0.559732
O O14 0.271276 0.753075 0.464834
O O15 0.000000 0.500000 0.500000
#
# Coordination Sequence:
#
# PCOD8127235 Si02
#       7
#     4   4   4   4   4   4   4
#     4  11  21  36  58  94 122 156 206 261 317 371
#     4  10  22  40  69  84 125 170 204 259 313 368
#     4  11  22  36  58  92 120 162 198 260 322 354
#     4  11  23  35  60  90 126 160 208 265 305 379
#     4  10  23  41  62  93 121 167 218 244 314 380
#     4  11  20  37  62  85 120 159 205 255 318 367
#     4  10  23  41  63  92 125 165 207 261 312 374
#
# _framework density 20.466875999999999
#
# number of rings (size 3 to 8) (size 9 to 14) (size 15 to 20)
#    0.000    1.429    4.286    2.571    2.000    3.429 
#    0.000    0.000    0.000    2.571    0.000    0.000 
#    0.000    0.000    0.000    0.000    0.000    0.000 
#
# Total GULP energy -346945.553554 kJ/mol
# GULP energy per Si atom -12390.912627 kJ/mol
# Density = 2.042029 g / cm^3
# Si number density = 20.466876 Si / 1000 Ang^3
#
#
#
# Elastic Constant Matrix: (Units=GPa)
#
#
# Indices 1 2 3 4 5 6 
#
# 1 107.9721 48.9699 55.2116 0.0000 -3.6758 0.0000
# 2 48.9699 100.4534 45.1416 0.0000 3.6279 0.0000
# 3 55.2116 45.1416 131.7086 0.0000 -5.5151 0.0000
# 4 0.0000 0.0000 0.0000 22.1910 0.0000 9.8130
# 5 -3.6758 3.6279 -5.5151 0.0000 36.2384 0.0000
# 6 0.0000 0.0000 0.0000 9.8130 0.0000 33.4558
#
#
#
# Elastic Compliance Matrix: (Units=1/GPa)
#
#
# Indices 1 2 3 4 5 6 
#
# 1 0.013533 -0.004866 -0.003952 0.000000 0.001258 0.000000
# 2 -0.004866 0.013635 -0.002729 0.000000 -0.002274 0.000000
# 3 -0.003952 -0.002729 0.010244 0.000000 0.001431 0.000000
# 4 0.000000 0.000000 0.000000 0.051779 0.000000 -0.015188
# 5 0.001258 -0.002274 0.001431 0.000000 0.028168 0.000000
# 6 0.000000 0.000000 0.000000 -0.015188 0.000000 0.034345
#
#
# Mechanical properties :
#
#
# Convention : Reuss Voigt Hill
#
# Bulk Modulus (GPa) = 69.84222 70.97559 70.40891
# Shear Modulus (GPa) = 27.84397 31.09776 29.47086
#
# Velocity S-wave (km/s) = 3.69242 3.90220 3.79876
# Velocity P-wave (km/s) = 7.23721 7.42000 7.32918
#
# Compressibility (1/GPa) = 0.01431799
#
# Stress axis : x y z
#
# Youngs Moduli (GPa) = 73.89585 73.33798 97.61419
#
# Poissons Ratio (x) = 0.35689 0.38579
# Poissons Ratio (y) = 0.35961 0.26636
# Poissons Ratio (z) = 0.29205 0.20011
#
# Static dielectric constant tensor:
#      x y z
#    x 4.220910 0.000000 0.562040 
#    y 0.000000 3.686200 0.000000 
#    z 0.562040 0.000000 4.033660 
# 
# 
# High freq. dielectric constant tensor:
#      x y z
#    x 1.810310 0.000000 0.027370 
#    y 0.000000 1.788590 0.000000 
#    z 0.027370 0.000000 1.806240 
# 
# From -- ./inp_files/68164.got.cif
#   From: 2010.03.12/outbox.cif.g09.slc.cpg/sg14_35_cif.got.tgz:68164.got - 2010.03.31 13:35:05.
