data_PCOD8127431
_publ_section_title
;
Structure prediction by ZEFSAII (Michael W. Deem and Ramdas Pophale) SiO2 
 PCOD8127431
Probable space group: P 21/C
;
_chemical_formula_sum "Si O2"
_cell_formula_units_Z 28
_cell_length_a 8.500654
_cell_length_b 12.618410
_cell_length_c 20.131850
_cell_angle_alpha 90.000000
_cell_angle_beta 36.692782
_cell_angle_gamma 90.000000
_cell_volume 1290.316089
_symmetry_space_group_name_H-M "P 21/C"
_symmetry_group_IT_number 14
_symmetry_cell_setting 'monoclinic'
loop_
_space_group_symop_operation_xyz
x,y,z
-x,1/2+y,1/2-z
-x,-y,-z
x,1/2-y,1/2+z
loop_
_atom_site_type_symbol
_atom_site_label
_atom_site_fract_x
_atom_site_fract_y
_atom_site_fract_z
Si Si1 0.354206 0.550751 0.989934
Si Si2 0.722510 0.447633 0.380134
Si Si3 0.663373 0.233664 0.805119
Si Si4 0.022518 0.362367 0.780458
Si Si5 0.250890 0.153728 0.740625
Si Si6 0.722319 0.397412 0.160356
Si Si7 0.217207 0.108043 0.422702
O O1 0.136476 0.625806 0.096873
O O2 0.500000 0.500000 0.000000
O O3 0.586552 0.610661 0.875449
O O4 0.232858 0.458466 0.985867
O O5 0.500000 0.500000 0.500000
O O6 0.581550 0.350033 0.389649
O O7 0.833002 0.530370 0.289195
O O8 0.964364 0.402248 0.342373
O O9 0.807169 0.162777 0.699179
O O10 0.413252 0.292916 0.857221
O O11 0.855709 0.320860 0.772767
O O12 0.236927 0.277626 0.730237
O O13 0.417146 0.133815 0.751256
O O14 0.732281 0.528135 0.156965
O O15 0.907312 0.356546 0.034624
#
# Coordination Sequence:
#
# PCOD8127431 Si02
#       7
#     4   4   4   4   4   4   4
#     4  11  19  39  68  95 121 165 228 275 321 391
#     4  11  25  42  62 100 133 170 221 280 337 392
#     4  11  24  40  70  97 128 180 217 275 335 393
#     4  11  23  39  68  95 131 168 221 281 326 390
#     4  10  24  40  63  96 128 172 212 275 336 385
#     4  10  23  42  64  94 133 169 225 259 324 402
#     4  10  22  42  68  93 127 174 221 274 322 401
#
# _framework density 21.700111
#
# number of rings (size 3 to 8) (size 9 to 14) (size 15 to 20)
#    0.000    1.429    2.857    1.714    8.000    4.571 
#    0.000    0.714    0.000    0.000    0.000    0.000 
#    0.000    0.000    0.000    0.000    0.000    0.000 
#
# Total GULP energy -346919.133551 kJ/mol
# GULP energy per Si atom -12389.969055 kJ/mol
# Density = 2.165072 g / cm^3
# Si number density = 21.700111 Si / 1000 Ang^3
#
#
#
# Elastic Constant Matrix: (Units=GPa)
#
#
# Indices 1 2 3 4 5 6 
#
# 1 42.7791 27.9298 24.1455 0.0000 -7.9650 0.0000
# 2 27.9298 106.9674 30.9981 0.0000 -8.0070 0.0000
# 3 24.1455 30.9981 90.4042 0.0000 -2.0274 0.0000
# 4 0.0000 0.0000 0.0000 31.8755 0.0000 6.6130
# 5 -7.9650 -8.0070 -2.0274 0.0000 38.7094 0.0000
# 6 0.0000 0.0000 0.0000 6.6130 0.0000 49.5931
#
#
#
# Elastic Compliance Matrix: (Units=1/GPa)
#
#
# Indices 1 2 3 4 5 6 
#
# 1 0.031849 -0.006120 -0.006297 0.000000 0.004958 0.000000
# 2 -0.006120 0.011707 -0.002356 0.000000 0.001039 0.000000
# 3 -0.006297 -0.002356 0.013527 0.000000 -0.001075 0.000000
# 4 0.000000 0.000000 0.000000 0.032265 0.000000 -0.004302
# 5 0.004958 0.001039 -0.001075 0.000000 0.027012 0.000000
# 6 0.000000 0.000000 0.000000 -0.004302 0.000000 0.020738
#
#
# Mechanical properties :
#
#
# Convention : Reuss Voigt Hill
#
# Bulk Modulus (GPa) = 36.31504 45.14417 40.72961
# Shear Modulus (GPa) = 28.43776 34.50741 31.47259
#
# Velocity S-wave (km/s) = 3.62400 3.99205 3.81247
# Velocity P-wave (km/s) = 5.85512 6.48826 6.17980
#
# Compressibility (1/GPa) = 0.02753680
#
# Stress axis : x y z
#
# Youngs Moduli (GPa) = 31.39855 85.41724 73.92613
#
# Poissons Ratio (x) = 0.52276 0.46548
# Poissons Ratio (y) = 0.19216 0.17420
# Poissons Ratio (z) = 0.19770 0.20127
#
# Static dielectric constant tensor:
#      x y z
#    x 4.185500 0.000000 -0.308460 
#    y 0.000000 4.252200 0.000000 
#    z -0.308460 0.000000 3.778310 
# 
# 
# High freq. dielectric constant tensor:
#      x y z
#    x 1.866440 0.000000 -0.007440 
#    y 0.000000 1.856760 0.000000 
#    z -0.007440 0.000000 1.837720 
# 
# From -- ./inp_files/65554.got.cif
#   From: 2010.03.12/outbox.cif.g09.slc.cpg/sg14_33_cif.got.tgz:65554.got - 2010.03.31 13:35:05.
