data_PCOD8127132
_publ_section_title
;
Structure prediction by ZEFSAII (Michael W. Deem and Ramdas Pophale) SiO2 
 PCOD8127132
Probable space group: P 21/C
;
_chemical_formula_sum "Si O2"
_cell_formula_units_Z 32
_cell_length_a 5.340486
_cell_length_b 13.244163
_cell_length_c 21.621291
_cell_angle_alpha 90.000000
_cell_angle_beta 80.864917
_cell_angle_gamma 90.000000
_cell_volume 1509.883495
_symmetry_space_group_name_H-M "P 21/C"
_symmetry_group_IT_number 14
_symmetry_cell_setting 'monoclinic'
loop_
_space_group_symop_operation_xyz
x,y,z
-x,1/2+y,1/2-z
-x,-y,-z
x,1/2-y,1/2+z
loop_
_atom_site_type_symbol
_atom_site_label
_atom_site_fract_x
_atom_site_fract_y
_atom_site_fract_z
Si Si1 0.612084 0.467811 0.816691
Si Si2 0.531984 0.309392 0.153677
Si Si3 0.837303 0.735077 0.037659
Si Si4 0.674890 0.814973 0.738525
Si Si5 0.987552 0.176633 0.850657
Si Si6 0.954542 0.777440 0.899382
Si Si7 0.697307 0.338199 0.919097
Si Si8 0.005831 0.046534 0.191931
O O1 0.474650 0.573292 0.829530
O O2 0.414285 0.373861 0.819306
O O3 0.754793 0.438025 0.874799
O O4 0.770542 0.465899 0.747330
O O5 0.546423 0.246318 0.217327
O O6 0.276724 0.276452 0.127642
O O7 0.795560 0.293148 0.107757
O O8 0.828186 0.814227 0.095796
O O9 0.585255 0.665623 0.041575
O O10 0.083240 0.661406 0.036865
O O11 0.866679 0.797636 0.972961
O O12 0.889577 0.733737 0.712988
O O13 0.764238 0.904708 0.780092
O O14 0.728003 0.236098 0.876200
O O15 0.918200 0.062801 0.836702
O O16 0.045791 0.882471 0.865271
#
# Coordination Sequence:
#
# PCOD8127132 Si02
#       8
#     4   4   4   4   4   4   4   4
#     4  12  22  39  68  95 132 164 215 264 334 387
#     4  11  26  41  67  98 128 170 209 271 325 379
#     4  10  22  44  68  85 136 171 217 265 310 371
#     4  11  22  39  62  96 136 162 211 268 326 385
#     4  10  22  39  66  96 127 171 212 260 324 379
#     4  11  25  47  62  97 133 170 217 269 313 376
#     4  10  22  41  67  94 123 174 213 267 309 382
#     4  11  23  38  65 100 128 172 208 265 330 392
#
# _framework density 21.193688999999999
#
# number of rings (size 3 to 8) (size 9 to 14) (size 15 to 20)
#    0.750    0.500    5.000    0.750    1.750    2.500 
#    0.000    4.375    0.000    0.000    0.000    0.000 
#    0.000    0.000    0.000    0.000    0.000    0.000 
#
# Total GULP energy -396525.474400 kJ/mol
# GULP energy per Si atom -12391.421075 kJ/mol
# Density = 2.114545 g / cm^3
# Si number density = 21.193689 Si / 1000 Ang^3
#
#
#
# Elastic Constant Matrix: (Units=GPa)
#
#
# Indices 1 2 3 4 5 6 
#
# 1 99.1095 22.1267 13.4313 0.0000 -13.5221 0.0000
# 2 22.1267 119.1202 26.9437 0.0000 -1.5787 0.0000
# 3 13.4313 26.9437 81.6698 0.0000 -8.1844 0.0000
# 4 0.0000 0.0000 0.0000 17.6383 0.0000 -1.4379
# 5 -13.5221 -1.5787 -8.1844 0.0000 25.2094 0.0000
# 6 0.0000 0.0000 0.0000 -1.4379 0.0000 22.6980
#
#
#
# Elastic Compliance Matrix: (Units=1/GPa)
#
#
# Indices 1 2 3 4 5 6 
#
# 1 0.011390 -0.001887 -0.000672 0.000000 0.005773 0.000000
# 2 -0.001887 0.009389 -0.002925 0.000000 -0.001374 0.000000
# 3 -0.000672 -0.002925 0.013711 0.000000 0.003908 0.000000
# 4 0.000000 0.000000 0.000000 0.056989 0.000000 0.003610
# 5 0.005773 -0.001374 0.003908 0.000000 0.043947 0.000000
# 6 0.000000 0.000000 0.000000 0.003610 0.000000 0.044285
#
#
# Mechanical properties :
#
#
# Convention : Reuss Voigt Hill
#
# Bulk Modulus (GPa) = 42.51299 47.21143 44.86221
# Shear Modulus (GPa) = 25.18631 28.93566 27.06099
#
# Velocity S-wave (km/s) = 3.45104 3.69900 3.57717
# Velocity P-wave (km/s) = 5.99853 6.36930 6.18669
#
# Compressibility (1/GPa) = 0.02352222
#
# Stress axis : x y z
#
# Youngs Moduli (GPa) = 87.79711 106.51028 72.93160
#
# Poissons Ratio (x) = 0.20100 0.04901
# Poissons Ratio (y) = 0.16569 0.21331
# Poissons Ratio (z) = 0.05900 0.31152
#
# Static dielectric constant tensor:
#      x y z
#    x 3.677520 0.000000 0.038700 
#    y 0.000000 3.644250 0.000000 
#    z 0.038700 0.000000 3.809410 
# 
# 
# High freq. dielectric constant tensor:
#      x y z
#    x 1.826240 0.000000 -0.001530 
#    y 0.000000 1.814320 0.000000 
#    z -0.001530 0.000000 1.832460 
# 
# From -- ./inp_files/71234.got.cif
#   From: 2010.03.12/outbox.cif.g09.slc.cpg/sg14_36_cif.got.tgz:71234.got - 2010.03.31 13:35:05.
