data_PCOD8127871
_publ_section_title
;
Structure prediction by ZEFSAII (Michael W. Deem and Ramdas Pophale) SiO2 
 PCOD8127871
Probable space group: P 21/C
;
_chemical_formula_sum "Si O2"
_cell_formula_units_Z 28
_cell_length_a 11.883828
_cell_length_b 11.752550
_cell_length_c 20.044428
_cell_angle_alpha 90.000000
_cell_angle_beta 151.747628
_cell_angle_gamma 90.000000
_cell_volume 1325.165567
_symmetry_space_group_name_H-M "P 21/C"
_symmetry_group_IT_number 14
_symmetry_cell_setting 'monoclinic'
loop_
_space_group_symop_operation_xyz
x,y,z
-x,1/2+y,1/2-z
-x,-y,-z
x,1/2-y,1/2+z
loop_
_atom_site_type_symbol
_atom_site_label
_atom_site_fract_x
_atom_site_fract_y
_atom_site_fract_z
Si Si1 0.453425 0.408153 0.607619
Si Si2 0.069157 0.937309 0.879830
Si Si3 0.856384 0.320908 0.059872
Si Si4 0.468742 0.479751 0.904445
Si Si5 0.897261 0.377014 0.933068
Si Si6 0.784368 0.826922 0.518824
Si Si7 0.850074 0.480305 0.724524
O O1 0.258286 0.503339 0.529261
O O2 0.640166 0.384797 0.763905
O O3 0.317088 0.294507 0.514035
O O4 0.584930 0.455041 0.610348
O O5 0.100766 0.803169 0.888125
O O6 0.134641 0.001884 0.845504
O O7 0.801570 0.967050 0.759728
O O8 0.059023 0.408631 0.188573
O O9 0.602558 0.363519 0.954546
O O10 0.861049 0.308571 0.982312
O O11 0.570725 0.581734 0.912275
O O12 0.500000 0.500000 0.000000
O O13 0.000000 0.500000 0.000000
O O14 0.096639 0.315366 0.992164
O O15 0.987017 0.869432 0.675407
#
# Coordination Sequence:
#
# PCOD8127871 Si02
#       7
#     4   4   4   4   4   4   4
#     4  11  26  41  71 101 132 181 235 277 328 416
#     4  12  27  39  72 110 136 169 237 282 335 414
#     4  11  25  46  70  95 141 184 220 282 348 396
#     4  11  23  43  67 102 138 177 215 280 348 400
#     4  11  22  50  69  92 137 186 232 271 350 398
#     4  10  23  42  71  95 133 184 223 272 341 404
#     4  10  23  44  66  99 138 186 207 281 355 403
#
# _framework density 21.129435999999998
#
# number of rings (size 3 to 8) (size 9 to 14) (size 15 to 20)
#    0.000    1.143    7.143    0.429   10.000    2.286 
#    0.000    1.429    0.000    0.000    0.000    0.000 
#    0.000    0.000    0.000    0.000    0.000    0.000 
#
# Total GULP energy -347171.294742 kJ/mol
# GULP energy per Si atom -12398.974812 kJ/mol
# Density = 2.108134 g / cm^3
# Si number density = 21.129436 Si / 1000 Ang^3
#
#
#
# Elastic Constant Matrix: (Units=GPa)
#
#
# Indices 1 2 3 4 5 6 
#
# 1 122.4033 24.9149 49.7937 0.0000 14.0284 0.0000
# 2 24.9149 116.7973 61.6546 0.0000 22.5403 0.0000
# 3 49.7937 61.6546 107.5927 0.0000 37.7628 0.0000
# 4 0.0000 0.0000 0.0000 25.6933 0.0000 5.2736
# 5 14.0284 22.5403 37.7628 0.0000 44.1228 0.0000
# 6 0.0000 0.0000 0.0000 5.2736 0.0000 21.5311
#
#
#
# Elastic Compliance Matrix: (Units=1/GPa)
#
#
# Indices 1 2 3 4 5 6 
#
# 1 0.010119 0.000437 -0.005326 0.000000 0.001118 0.000000
# 2 0.000437 0.012298 -0.007141 0.000000 -0.000310 0.000000
# 3 -0.005326 -0.007141 0.019977 0.000000 -0.011757 0.000000
# 4 0.000000 0.000000 0.000000 0.040981 0.000000 -0.010037
# 5 0.001118 -0.000310 -0.011757 0.000000 0.032529 0.000000
# 6 0.000000 0.000000 0.000000 -0.010037 0.000000 0.048903
#
#
# Mechanical properties :
#
#
# Convention : Reuss Voigt Hill
#
# Bulk Modulus (GPa) = 54.53880 68.83552 61.68716
# Shear Modulus (GPa) = 25.64398 32.29811 28.97104
#
# Velocity S-wave (km/s) = 3.48754 3.91395 3.70688
# Velocity P-wave (km/s) = 6.48730 7.28520 6.89780
#
# Compressibility (1/GPa) = 0.01833557
#
# Stress axis : x y z
#
# Youngs Moduli (GPa) = 98.82180 81.31552 50.05698
#
# Poissons Ratio (x) = -0.03555 0.26660
# Poissons Ratio (y) = -0.04320 0.35744
# Poissons Ratio (z) = 0.52632 0.58064
#
# Static dielectric constant tensor:
#      x y z
#    x 4.412720 0.000000 -0.053820 
#    y 0.000000 3.680660 0.000000 
#    z -0.053820 0.000000 4.120610 
# 
# 
# High freq. dielectric constant tensor:
#      x y z
#    x 1.829310 0.000000 0.017250 
#    y 0.000000 1.821890 0.000000 
#    z 0.017250 0.000000 1.834540 
# 
# From -- ./inp_files/67363.got.cif
#   From: 2010.03.12/outbox.cif.g09.slc.cpg/sg14_34_cif.got.tgz:67363.got - 2010.03.31 13:35:05.
