data_PCOD8127543
_publ_section_title
;
Structure prediction by ZEFSAII (Michael W. Deem and Ramdas Pophale) SiO2 
 PCOD8127543
Probable space group: P 21/C
;
_chemical_formula_sum "Si O2"
_cell_formula_units_Z 20
_cell_length_a 5.075819
_cell_length_b 8.968785
_cell_length_c 19.708794
_cell_angle_alpha 90.000000
_cell_angle_beta 73.204769
_cell_angle_gamma 90.000000
_cell_volume 858.949452
_symmetry_space_group_name_H-M "P 21/C"
_symmetry_group_IT_number 14
_symmetry_cell_setting 'monoclinic'
loop_
_space_group_symop_operation_xyz
x,y,z
-x,1/2+y,1/2-z
-x,-y,-z
x,1/2-y,1/2+z
loop_
_atom_site_type_symbol
_atom_site_label
_atom_site_fract_x
_atom_site_fract_y
_atom_site_fract_z
Si Si1 0.448726 0.847777 0.200350
Si Si2 0.275037 0.091688 0.602269
Si Si3 0.955045 0.277261 0.873119
Si Si4 0.155843 0.694588 0.965017
Si Si5 0.465948 0.683795 0.330171
O O1 0.226733 0.833658 0.157665
O O2 0.337867 0.788300 0.280591
O O3 0.725975 0.755645 0.163509
O O4 0.481886 0.024132 0.205516
O O5 0.598148 0.070532 0.558040
O O6 0.264397 0.227819 0.658792
O O7 0.122907 0.123897 0.542517
O O8 0.134041 0.943868 0.643569
O O9 0.885889 0.245440 0.956601
O O10 0.243010 0.830886 0.908126
#
# Coordination Sequence:
#
# PCOD8127543 Si02
#       5
#     4   4   4   4   4
#     4  12  28  43  70  99 139 181 232 284 349 410
#     4  10  22  43  72  97 138 175 228 274 343 412
#     4  12  25  43  72 104 135 180 232 283 344 413
#     4  10  23  43  73  99 139 176 231 280 345 410
#     4  10  28  45  70  97 142 183 230 284 351 409
#
# _framework density 23.28426
#
# number of rings (size 3 to 8) (size 9 to 14) (size 15 to 20)
#    1.200    0.000    0.000    4.800    8.400    1.600 
#    0.000    0.000    0.000    0.000    0.000    0.000 
#    0.000    0.000    0.000    0.000    0.000    0.000 
#
# Total GULP energy -247830.917251 kJ/mol
# GULP energy per Si atom -12391.545863 kJ/mol
# Density = 2.323126 g / cm^3
# Si number density = 23.284260 Si / 1000 Ang^3
#
#
#
# Elastic Constant Matrix: (Units=GPa)
#
#
# Indices 1 2 3 4 5 6 
#
# 1 85.2755 -13.4189 20.3246 0.0000 21.3948 0.0000
# 2 -13.4189 73.6266 25.7528 0.0000 21.6978 0.0000
# 3 20.3246 25.7528 110.7705 0.0000 23.9102 0.0000
# 4 0.0000 0.0000 0.0000 26.5568 0.0000 7.1889
# 5 21.3948 21.6978 23.9102 0.0000 31.8361 0.0000
# 6 0.0000 0.0000 0.0000 7.1889 0.0000 27.1273
#
#
#
# Elastic Compliance Matrix: (Units=1/GPa)
#
#
# Indices 1 2 3 4 5 6 
#
# 1 0.017627 0.008660 -0.001691 0.000000 -0.016478 0.000000
# 2 0.008660 0.021533 -0.002591 0.000000 -0.018550 0.000000
# 3 -0.001691 -0.002591 0.011116 0.000000 -0.005446 0.000000
# 4 0.000000 0.000000 0.000000 0.040565 0.000000 -0.010750
# 5 -0.016478 -0.018550 -0.005446 0.000000 0.059218 0.000000
# 6 0.000000 0.000000 0.000000 -0.010750 0.000000 0.039712
#
#
# Mechanical properties :
#
#
# Convention : Reuss Voigt Hill
#
# Bulk Modulus (GPa) = 16.93991 37.22106 27.08049
# Shear Modulus (GPa) = 24.91382 32.90497 28.90939
#
# Velocity S-wave (km/s) = 3.27461 3.76331 3.52744
# Velocity P-wave (km/s) = 4.64634 5.90793 5.31470
#
# Compressibility (1/GPa) = 0.05903218
#
# Stress axis : x y z
#
# Youngs Moduli (GPa) = 56.73241 46.43951 89.96123
#
# Poissons Ratio (x) = -0.40217 0.15210
# Poissons Ratio (y) = -0.49131 0.23311
# Poissons Ratio (z) = 0.09592 0.12033
#
# Static dielectric constant tensor:
#      x y z
#    x 4.207370 0.000000 0.143180 
#    y 0.000000 3.929000 0.000000 
#    z 0.143180 0.000000 4.249100 
# 
# 
# High freq. dielectric constant tensor:
#      x y z
#    x 1.927180 0.000000 0.013540 
#    y 0.000000 1.898340 0.000000 
#    z 0.013540 0.000000 1.934150 
# 
# From -- ./inp_files/63056.got.cif
#   From: 2010.03.12/outbox.cif.g09.slc.cpg/sg14_32_cif.got.tgz:63056.got - 2010.03.31 13:35:05.
