data_PCOD8127006
_publ_section_title
;
Structure prediction by ZEFSAII (Michael W. Deem and Ramdas Pophale) SiO2 
 PCOD8127006
Probable space group: P 21/C
;
_chemical_formula_sum "Si O2"
_cell_formula_units_Z 32
_cell_length_a 12.496593
_cell_length_b 9.427911
_cell_length_c 18.842959
_cell_angle_alpha 90.000000
_cell_angle_beta 45.976526
_cell_angle_gamma 90.000000
_cell_volume 1596.314276
_symmetry_space_group_name_H-M "P 21/C"
_symmetry_group_IT_number 14
_symmetry_cell_setting 'monoclinic'
loop_
_space_group_symop_operation_xyz
x,y,z
-x,1/2+y,1/2-z
-x,-y,-z
x,1/2-y,1/2+z
loop_
_atom_site_type_symbol
_atom_site_label
_atom_site_fract_x
_atom_site_fract_y
_atom_site_fract_z
Si Si1 0.945342 0.869001 0.570746
Si Si2 0.112742 0.686919 0.262043
Si Si3 0.374849 0.479088 0.138330
Si Si4 0.307557 0.097232 0.528737
Si Si5 0.102712 0.871284 0.931364
Si Si6 0.350315 0.217873 0.368205
Si Si7 0.595974 0.505327 0.722141
Si Si8 0.010495 0.003695 0.304384
O O1 0.800567 0.793065 0.605320
O O2 0.074938 0.754073 0.500298
O O3 0.000000 0.000000 0.500000
O O4 0.909882 0.907706 0.669149
O O5 0.281772 0.628584 0.171325
O O6 0.068949 0.670155 0.364932
O O7 0.999925 0.595208 0.263735
O O8 0.095640 0.854150 0.250147
O O9 0.312879 0.361702 0.110469
O O10 0.345658 0.424573 0.230917
O O11 0.551632 0.493626 0.046244
O O12 0.320191 0.224655 0.466961
O O13 0.152645 0.018880 0.586170
O O14 0.274809 0.905738 0.867016
O O15 0.000000 0.000000 0.000000
O O16 0.437829 0.363488 0.313715
O O17 0.447182 0.082417 0.302449
#
# Coordination Sequence:
#
# PCOD8127006 Si02
#       8
#     4   4   4   4   4   4   4   4
#     4  12  23  38  61  88 119 159 201 247 295 363
#     4  10  22  38  57  87 115 154 196 247 298 355
#     4   8  18  35  59  81 111 148 194 235 297 353
#     4   9  17  35  59  80 107 147 192 238 287 353
#     4  11  22  40  62  88 122 156 202 249 303 352
#     4  11  22  37  58  88 118 155 199 244 303 351
#     4  10  23  37  60  87 121 157 195 249 297 359
#     4  11  23  37  61  87 118 155 199 246 298 359
#
# _framework density 20.046178000000001
#
# number of rings (size 3 to 8) (size 9 to 14) (size 15 to 20)
#    0.000    1.750    3.750    0.000    3.500    2.000 
#    0.000    0.000    0.000    1.500    0.000    0.000 
#    0.000    0.000    0.000    0.000    0.000    0.000 
#
# Total GULP energy -396430.544826 kJ/mol
# GULP energy per Si atom -12388.454526 kJ/mol
# Density = 2.000055 g / cm^3
# Si number density = 20.046178 Si / 1000 Ang^3
#
#
#
# Elastic Constant Matrix: (Units=GPa)
#
#
# Indices 1 2 3 4 5 6 
#
# 1 70.9476 23.9230 24.2278 0.0000 13.3694 0.0000
# 2 23.9230 99.0652 32.0202 0.0000 21.8663 0.0000
# 3 24.2278 32.0202 68.3657 0.0000 4.0616 0.0000
# 4 0.0000 0.0000 0.0000 32.8526 0.0000 6.5461
# 5 13.3694 21.8663 4.0616 0.0000 34.8664 0.0000
# 6 0.0000 0.0000 0.0000 6.5461 0.0000 25.7182
#
#
#
# Elastic Compliance Matrix: (Units=1/GPa)
#
#
# Indices 1 2 3 4 5 6 
#
# 1 0.017300 -0.001358 -0.005187 0.000000 -0.005177 0.000000
# 2 -0.001358 0.013889 -0.005576 0.000000 -0.007540 0.000000
# 3 -0.005187 -0.005576 0.018882 0.000000 0.003286 0.000000
# 4 0.000000 0.000000 0.000000 0.032065 0.000000 -0.008162
# 5 -0.005177 -0.007540 0.003286 0.000000 0.035012 0.000000
# 6 0.000000 0.000000 0.000000 -0.008162 0.000000 0.040960
#
#
# Mechanical properties :
#
#
# Convention : Reuss Voigt Hill
#
# Bulk Modulus (GPa) = 38.71736 44.30227 41.50981
# Shear Modulus (GPa) = 26.18352 29.23460 27.70906
#
# Velocity S-wave (km/s) = 3.61800 3.82299 3.72191
# Velocity P-wave (km/s) = 6.06707 6.45253 6.26276
#
# Compressibility (1/GPa) = 0.02582820
#
# Stress axis : x y z
#
# Youngs Moduli (GPa) = 57.80388 72.00009 52.96134
#
# Poissons Ratio (x) = 0.09780 0.27471
# Poissons Ratio (y) = 0.07852 0.29530
# Poissons Ratio (z) = 0.29983 0.40146
#
# Static dielectric constant tensor:
#      x y z
#    x 4.016820 0.000000 0.032410 
#    y 0.000000 3.366710 0.000000 
#    z 0.032410 0.000000 4.174580 
# 
# 
# High freq. dielectric constant tensor:
#      x y z
#    x 1.789300 0.000000 0.005700 
#    y 0.000000 1.753900 0.000000 
#    z 0.005700 0.000000 1.790040 
# 
# From -- ./inp_files/68211.got.cif
#   From: 2010.03.12/outbox.cif.g09.slc.cpg/sg14_35_cif.got.tgz:68211.got - 2010.03.31 13:35:05.
