data_PCOD8127436
_publ_section_title
;
Structure prediction by ZEFSAII (Michael W. Deem and Ramdas Pophale) SiO2 
 PCOD8127436
Probable space group: P 21/C
;
_chemical_formula_sum "Si O2"
_cell_formula_units_Z 32
_cell_length_a 17.208856
_cell_length_b 11.317355
_cell_length_c 13.263070
_cell_angle_alpha 90.000000
_cell_angle_beta 148.693919
_cell_angle_gamma 90.000000
_cell_volume 1342.203389
_symmetry_space_group_name_H-M "P 21/C"
_symmetry_group_IT_number 14
_symmetry_cell_setting 'monoclinic'
loop_
_space_group_symop_operation_xyz
x,y,z
-x,1/2+y,1/2-z
-x,-y,-z
x,1/2-y,1/2+z
loop_
_atom_site_type_symbol
_atom_site_label
_atom_site_fract_x
_atom_site_fract_y
_atom_site_fract_z
Si Si1 0.859709 0.732769 0.785292
Si Si2 0.739803 0.014863 0.202927
Si Si3 0.435954 0.936315 0.809219
Si Si4 0.310446 0.987588 0.247070
Si Si5 0.253399 0.576208 0.914267
Si Si6 0.553436 0.813235 0.496514
Si Si7 0.006911 0.594875 0.316131
Si Si8 0.929276 0.203162 0.315995
O O1 0.838191 0.592000 0.766401
O O2 0.700791 0.798805 0.589241
O O3 0.980770 0.774326 0.835981
O O4 0.930729 0.766389 0.973361
O O5 0.699549 0.003045 0.277805
O O6 0.833310 0.133460 0.293028
O O7 0.581520 0.020013 0.968453
O O8 0.393475 0.920354 0.645827
O O9 0.478879 0.816016 0.920333
O O10 0.304763 0.938031 0.355883
O O11 0.428258 0.904578 0.316274
O O12 0.375699 0.122859 0.323144
O O13 0.150409 0.975777 0.017361
O O14 0.174563 0.699890 0.849153
O O15 0.139755 0.474234 0.816507
O O16 0.019147 0.609483 0.210592
#
# Coordination Sequence:
#
# PCOD8127436 Si02
#       8
#     4   4   4   4   4   4   4   4
#     4  11  23  47  68  98 141 181 231 286 346 410
#     4  10  24  46  68  97 135 188 230 288 342 414
#     4  10  23  44  69  99 141 177 237 285 346 414
#     4  11  22  43  68  97 142 177 228 281 353 412
#     4  12  24  41  67 103 136 180 221 292 342 413
#     4  10  22  42  68  97 135 187 219 293 344 405
#     4  12  26  44  68 103 141 177 237 287 349 417
#     4  12  26  40  71 100 132 184 231 284 348 413
#
# _framework density 23.841394000000001
#
# number of rings (size 3 to 8) (size 9 to 14) (size 15 to 20)
#    0.000    1.000    2.500    3.750    3.500    3.000 
#    4.500    0.000    0.000    0.000    0.000    0.000 
#    0.000    0.000    0.000    0.000    0.000    0.000 
#
# Total GULP energy -396437.532291 kJ/mol
# GULP energy per Si atom -12388.672884 kJ/mol
# Density = 2.378713 g / cm^3
# Si number density = 23.841394 Si / 1000 Ang^3
#
#
#
# Elastic Constant Matrix: (Units=GPa)
#
#
# Indices 1 2 3 4 5 6 
#
# 1 70.2756 10.4025 35.8686 0.0000 -6.9140 0.0000
# 2 10.4025 66.3401 17.0339 0.0000 11.9300 0.0000
# 3 35.8686 17.0339 106.5529 0.0000 -0.9026 0.0000
# 4 0.0000 0.0000 0.0000 35.5435 0.0000 8.1698
# 5 -6.9140 11.9300 -0.9026 0.0000 28.4685 0.0000
# 6 0.0000 0.0000 0.0000 8.1698 0.0000 20.6050
#
#
#
# Elastic Compliance Matrix: (Units=1/GPa)
#
#
# Indices 1 2 3 4 5 6 
#
# 1 0.017950 -0.002293 -0.005632 0.000000 0.005142 0.000000
# 2 -0.002293 0.017389 -0.002075 0.000000 -0.007910 0.000000
# 3 -0.005632 -0.002075 0.011612 0.000000 -0.000130 0.000000
# 4 0.000000 0.000000 0.000000 0.030956 0.000000 -0.012274
# 5 0.005142 -0.007910 -0.000130 0.000000 0.039686 0.000000
# 6 0.000000 0.000000 0.000000 -0.012274 0.000000 0.053399
#
#
# Mechanical properties :
#
#
# Convention : Reuss Voigt Hill
#
# Bulk Modulus (GPa) = 37.10653 41.08650 39.09652
# Shear Modulus (GPa) = 25.00333 28.91430 26.95882
#
# Velocity S-wave (km/s) = 3.24193 3.48627 3.36632
# Velocity P-wave (km/s) = 5.44162 5.78586 5.61638
#
# Compressibility (1/GPa) = 0.02694944
#
# Stress axis : x y z
#
# Youngs Moduli (GPa) = 55.71135 57.50906 86.12115
#
# Poissons Ratio (x) = 0.13187 0.48505
# Poissons Ratio (y) = 0.12775 0.17869
# Poissons Ratio (z) = 0.31378 0.11932
#
# Static dielectric constant tensor:
#      x y z
#    x 4.060630 0.000000 0.289700 
#    y 0.000000 4.408740 0.000000 
#    z 0.289700 0.000000 4.466680 
# 
# 
# High freq. dielectric constant tensor:
#      x y z
#    x 1.921800 0.000000 0.026950 
#    y 0.000000 1.948960 0.000000 
#    z 0.026950 0.000000 1.955680 
# 
# From -- ./inp_files/48919.got.cif
#   From: 2010.03.12/outbox.cif.g09.slc.cpg/sg14_25_cif.got.tgz:48919.got - 2010.03.31 13:35:05.
