data_PCOD8127153
_publ_section_title
;
Structure prediction by ZEFSAII (Michael W. Deem and Ramdas Pophale) SiO2 
 PCOD8127153
Probable space group: P 21/C
;
_chemical_formula_sum "Si O2"
_cell_formula_units_Z 28
_cell_length_a 7.029351
_cell_length_b 8.569702
_cell_length_c 26.995887
_cell_angle_alpha 90.000000
_cell_angle_beta 125.959947
_cell_angle_gamma 90.000000
_cell_volume 1316.305239
_symmetry_space_group_name_H-M "P 21/C"
_symmetry_group_IT_number 14
_symmetry_cell_setting 'monoclinic'
loop_
_space_group_symop_operation_xyz
x,y,z
-x,1/2+y,1/2-z
-x,-y,-z
x,1/2-y,1/2+z
loop_
_atom_site_type_symbol
_atom_site_label
_atom_site_fract_x
_atom_site_fract_y
_atom_site_fract_z
Si Si1 0.793902 0.265381 0.386346
Si Si2 0.976780 0.605230 0.411942
Si Si3 0.901534 0.214298 0.662473
Si Si4 0.406424 0.394268 0.258478
Si Si5 0.691302 0.178515 0.480015
Si Si6 0.798252 0.559304 0.075294
Si Si7 0.511011 0.281360 0.681846
O O1 0.943825 0.423021 0.417654
O O2 0.557290 0.293233 0.320092
O O3 0.728159 0.180479 0.427201
O O4 0.957078 0.148270 0.380133
O O5 0.731325 0.695534 0.385752
O O6 0.042834 0.638070 0.364509
O O7 0.182981 0.668326 0.478556
O O8 0.724595 0.268297 0.677305
O O9 0.137283 0.155447 0.725087
O O10 0.778847 0.076731 0.612823
O O11 0.444880 0.574791 0.274755
O O12 0.488695 0.368579 0.214170
O O13 0.413397 0.182429 0.450011
O O14 0.792052 0.018908 0.519557
#
# Coordination Sequence:
#
# PCOD8127153 Si02
#       7
#     4   4   4   4   4   4   4
#     4  11  22  38  61  88 122 155 196 251 297 348
#     4   9  22  40  60  91 119 155 202 242 298 361
#     4  10  22  41  62  85 122 160 195 246 300 349
#     4  10  23  39  60  91 116 153 205 241 292 362
#     4  10  22  40  60  88 122 158 197 243 299 351
#     4  10  23  39  61  91 117 156 206 242 291 360
#     4  10  22  41  62  84 121 158 195 250 299 347
#
# _framework density 21.271663
#
# number of rings (size 3 to 8) (size 9 to 14) (size 15 to 20)
#    0.000    2.000    0.000    1.714    0.000   16.571 
#    0.000    0.000    0.000    0.000    0.000    0.000 
#    0.000    0.000    0.000    0.000    0.000    0.000 
#
# Total GULP energy -347259.586509 kJ/mol
# GULP energy per Si atom -12402.128090 kJ/mol
# Density = 2.122325 g / cm^3
# Si number density = 21.271663 Si / 1000 Ang^3
#
#
#
# Elastic Constant Matrix: (Units=GPa)
#
#
# Indices 1 2 3 4 5 6 
#
# 1 129.4626 31.2387 33.1820 0.0000 9.8517 0.0000
# 2 31.2387 62.5807 18.2332 0.0000 2.3573 0.0000
# 3 33.1820 18.2332 80.9320 0.0000 11.6655 0.0000
# 4 0.0000 0.0000 0.0000 28.2444 0.0000 6.2247
# 5 9.8517 2.3573 11.6655 0.0000 23.6040 0.0000
# 6 0.0000 0.0000 0.0000 6.2247 0.0000 28.6115
#
#
#
# Elastic Compliance Matrix: (Units=1/GPa)
#
#
# Indices 1 2 3 4 5 6 
#
# 1 0.009526 -0.003882 -0.002707 0.000000 -0.002250 0.000000
# 2 -0.003882 0.018685 -0.002781 0.000000 0.001128 0.000000
# 3 -0.002707 -0.002781 0.014955 0.000000 -0.005983 0.000000
# 4 0.000000 0.000000 0.000000 0.037188 0.000000 -0.008091
# 5 -0.002250 0.001128 -0.005983 0.000000 0.046149 0.000000
# 6 0.000000 0.000000 0.000000 -0.008091 0.000000 0.036711
#
#
# Mechanical properties :
#
#
# Convention : Reuss Voigt Hill
#
# Bulk Modulus (GPa) = 40.93798 48.69813 44.81806
# Shear Modulus (GPa) = 26.30269 28.78007 27.54138
#
# Velocity S-wave (km/s) = 3.52022 3.68227 3.60216
# Velocity P-wave (km/s) = 5.98412 6.40484 6.19805
#
# Compressibility (1/GPa) = 0.02442719
#
# Stress axis : x y z
#
# Youngs Moduli (GPa) = 104.97730 53.51986 66.86855
#
# Poissons Ratio (x) = 0.20775 0.18099
# Poissons Ratio (y) = 0.40749 0.18594
# Poissons Ratio (z) = 0.28414 0.14882
#
# Static dielectric constant tensor:
#      x y z
#    x 3.756210 0.000000 0.200220 
#    y 0.000000 3.751040 0.000000 
#    z 0.200220 0.000000 3.927280 
# 
# 
# High freq. dielectric constant tensor:
#      x y z
#    x 1.831630 0.000000 0.011850 
#    y 0.000000 1.829340 0.000000 
#    z 0.011850 0.000000 1.843070 
# 
# From -- ./inp_files/78867.got.cif
#   From: 2010.03.12/outbox.cif.g09.slc.cpg/sg14_40_cif.got.tgz:78867.got - 2010.03.31 13:35:05.
