data_PCOD8127671
_publ_section_title
;
Structure prediction by ZEFSAII (Michael W. Deem and Ramdas Pophale) SiO2 
 PCOD8127671
Probable space group: P 21/C
;
_chemical_formula_sum "Si O2"
_cell_formula_units_Z 32
_cell_length_a 18.974041
_cell_length_b 10.373083
_cell_length_c 11.942102
_cell_angle_alpha 90.000000
_cell_angle_beta 143.286445
_cell_angle_gamma 90.000000
_cell_volume 1405.125568
_symmetry_space_group_name_H-M "P 21/C"
_symmetry_group_IT_number 14
_symmetry_cell_setting 'monoclinic'
loop_
_space_group_symop_operation_xyz
x,y,z
-x,1/2+y,1/2-z
-x,-y,-z
x,1/2-y,1/2+z
loop_
_atom_site_type_symbol
_atom_site_label
_atom_site_fract_x
_atom_site_fract_y
_atom_site_fract_z
Si Si1 0.702146 0.554500 0.490359
Si Si2 0.083876 0.877518 0.093422
Si Si3 0.326972 0.564250 0.966578
Si Si4 0.296749 0.284689 0.847977
Si Si5 0.934902 0.747778 0.565669
Si Si6 0.925058 0.470323 0.652483
Si Si7 0.463700 0.311129 0.877365
Si Si8 0.506705 0.533868 0.638766
O O1 0.729308 0.689558 0.584105
O O2 0.820461 0.477985 0.610509
O O3 0.629177 0.582882 0.284478
O O4 0.624338 0.471743 0.477326
O O5 0.202532 0.862681 0.320888
O O6 0.003544 0.757865 0.033040
O O7 0.122177 0.884261 0.012350
O O8 0.000000 0.000000 0.000000
O O9 0.277813 0.426388 0.868280
O O10 0.405989 0.628314 0.968490
O O11 0.402631 0.559123 0.178333
O O12 0.205359 0.253722 0.631075
O O13 0.429039 0.275857 0.962209
O O14 0.968535 0.616510 0.678482
O O15 0.966832 0.884022 0.663244
O O16 0.453760 0.180870 0.791688
O O17 0.500000 0.500000 0.500000
#
# Coordination Sequence:
#
# PCOD8127671 Si02
#       8
#     4   4   4   4   4   4   4   4
#     4  11  24  42  69 102 140 181 238 288 351 433
#     4  10  22  47  68  99 139 188 239 289 354 434
#     4  11  23  42  70  99 136 188 235 275 357 433
#     4  12  22  43  71  98 138 193 236 285 353 435
#     4  11  26  44  73 103 143 188 246 292 361 425
#     4  11  25  47  71 102 141 187 240 300 357 426
#     4  11  23  41  69  99 138 182 230 290 354 416
#     4  11  24  44  64 106 141 176 230 296 355 408
#
# _framework density 22.773765999999998
#
# number of rings (size 3 to 8) (size 9 to 14) (size 15 to 20)
#    0.000    1.000    6.250    0.375    3.500    3.500 
#    2.250    0.000    0.000    0.000    0.000    0.000 
#    0.000    0.000    0.000    0.000    0.000    0.000 
#
# Total GULP energy -396549.101771 kJ/mol
# GULP energy per Si atom -12392.159430 kJ/mol
# Density = 2.272193 g / cm^3
# Si number density = 22.773766 Si / 1000 Ang^3
#
#
#
# Elastic Constant Matrix: (Units=GPa)
#
#
# Indices 1 2 3 4 5 6 
#
# 1 131.6464 12.9173 34.6195 0.0000 5.6426 0.0000
# 2 12.9173 60.8118 12.7443 0.0000 0.3355 0.0000
# 3 34.6195 12.7443 100.2212 0.0000 12.6604 0.0000
# 4 0.0000 0.0000 0.0000 26.0847 0.0000 4.9055
# 5 5.6426 0.3355 12.6604 0.0000 30.7762 0.0000
# 6 0.0000 0.0000 0.0000 4.9055 0.0000 31.8148
#
#
#
# Elastic Compliance Matrix: (Units=1/GPa)
#
#
# Indices 1 2 3 4 5 6 
#
# 1 0.008447 -0.001224 -0.002709 0.000000 -0.000421 0.000000
# 2 -0.001224 0.017088 -0.001851 0.000000 0.000800 0.000000
# 3 -0.002709 -0.001851 0.011691 0.000000 -0.004293 0.000000
# 4 0.000000 0.000000 0.000000 0.039481 0.000000 -0.006088
# 5 -0.000421 0.000800 -0.004293 0.000000 0.034327 0.000000
# 6 0.000000 0.000000 0.000000 -0.006088 0.000000 0.032371
#
#
# Mechanical properties :
#
#
# Convention : Reuss Voigt Hill
#
# Bulk Modulus (GPa) = 38.97504 45.91573 42.44538
# Shear Modulus (GPa) = 30.57629 33.22835 31.90232
#
# Velocity S-wave (km/s) = 3.66814 3.82391 3.74684
# Velocity P-wave (km/s) = 5.92381 6.30094 6.11528
#
# Compressibility (1/GPa) = 0.02565745
#
# Stress axis : x y z
#
# Youngs Moduli (GPa) = 118.39044 58.52154 85.53367
#
# Poissons Ratio (x) = 0.07164 0.23170
# Poissons Ratio (y) = 0.14493 0.15833
# Poissons Ratio (z) = 0.32071 0.10833
#
# Static dielectric constant tensor:
#      x y z
#    x 4.422440 0.000000 -0.027040 
#    y 0.000000 4.032310 0.000000 
#    z -0.027040 0.000000 3.965440 
# 
# 
# High freq. dielectric constant tensor:
#      x y z
#    x 1.910360 0.000000 0.009430 
#    y 0.000000 1.883510 0.000000 
#    z 0.009430 0.000000 1.881960 
# 
# From -- ./inp_files/33946.got.cif
#   From: 2010.03.12/outbox.cif.g09.slc.cpg/sg14_17_cif.got.tgz:33946.got - 2010.03.31 13:35:05.
