data_PCOD8127433
_publ_section_title
;
Structure prediction by ZEFSAII (Michael W. Deem and Ramdas Pophale) SiO2 
 PCOD8127433
Probable space group: P 21/C
;
_chemical_formula_sum "Si O2"
_cell_formula_units_Z 20
_cell_length_a 9.703632
_cell_length_b 10.347667
_cell_length_c 11.547787
_cell_angle_alpha 90.000000
_cell_angle_beta 129.667536
_cell_angle_gamma 90.000000
_cell_volume 892.548108
_symmetry_space_group_name_H-M "P 21/C"
_symmetry_group_IT_number 14
_symmetry_cell_setting 'monoclinic'
loop_
_space_group_symop_operation_xyz
x,y,z
-x,1/2+y,1/2-z
-x,-y,-z
x,1/2-y,1/2+z
loop_
_atom_site_type_symbol
_atom_site_label
_atom_site_fract_x
_atom_site_fract_y
_atom_site_fract_z
Si Si1 0.053445 0.143261 0.559605
Si Si2 0.720568 0.273530 0.769181
Si Si3 0.859166 0.498882 0.319403
Si Si4 0.172145 0.490927 0.332499
Si Si5 0.326390 0.170550 0.119012
O O1 0.144998 0.134250 0.734493
O O2 0.189892 0.207795 0.539692
O O3 0.865152 0.219276 0.451809
O O4 0.000000 0.000000 0.500000
O O5 0.758084 0.134212 0.733397
O O6 0.736539 0.387525 0.682602
O O7 0.526319 0.276524 0.722461
O O8 0.708584 0.604071 0.273655
O O9 0.000000 0.500000 0.500000
O O10 0.976188 0.538654 0.270377
O O11 0.295353 0.436374 0.502045
#
# Coordination Sequence:
#
# PCOD8127433 Si02
#       5
#     4   4   4   4   4
#     4  10  23  42  65  95 139 175 220 281 336 401
#     4  11  23  42  69  98 136 175 229 282 338 399
#     4  10  22  42  68  95 134 179 226 273 341 406
#     4  10  23  43  69  94 137 184 219 279 346 399
#     4  11  24  44  68 103 135 179 231 277 339 410
#
# _framework density 22.407755000000002
#
# number of rings (size 3 to 8) (size 9 to 14) (size 15 to 20)
#    0.000    1.600    4.000    0.600    8.400    0.000 
#    3.600    1.000    0.000    0.000    0.000    0.000 
#    0.000    0.000    0.000    0.000    0.000    0.000 
#
# Total GULP energy -247761.712556 kJ/mol
# GULP energy per Si atom -12388.085628 kJ/mol
# Density = 2.235675 g / cm^3
# Si number density = 22.407755 Si / 1000 Ang^3
#
#
#
# Elastic Constant Matrix: (Units=GPa)
#
#
# Indices 1 2 3 4 5 6 
#
# 1 159.5188 52.3326 38.0606 0.0000 32.2055 0.0000
# 2 52.3326 122.4921 15.6701 0.0000 10.0505 0.0000
# 3 38.0606 15.6701 40.7025 0.0000 13.0340 0.0000
# 4 0.0000 0.0000 0.0000 25.6895 0.0000 -1.4463
# 5 32.2055 10.0505 13.0340 0.0000 37.9747 0.0000
# 6 0.0000 0.0000 0.0000 -1.4463 0.0000 42.0271
#
#
#
# Elastic Compliance Matrix: (Units=1/GPa)
#
#
# Indices 1 2 3 4 5 6 
#
# 1 0.009836 -0.002950 -0.006337 0.000000 -0.005386 0.000000
# 2 -0.002950 0.009527 -0.001015 0.000000 0.000328 0.000000
# 3 -0.006337 -0.001015 0.032669 0.000000 -0.005570 0.000000
# 4 0.000000 0.000000 0.000000 0.039002 0.000000 0.001342
# 5 -0.005386 0.000328 -0.005570 0.000000 0.032726 0.000000
# 6 0.000000 0.000000 0.000000 0.001342 0.000000 0.023840
#
#
# Mechanical properties :
#
#
# Convention : Reuss Voigt Hill
#
# Bulk Modulus (GPa) = 31.81847 59.42664 45.62256
# Shear Modulus (GPa) = 27.98318 35.58160 31.78239
#
# Velocity S-wave (km/s) = 3.53769 3.98919 3.77021
# Velocity P-wave (km/s) = 5.56036 6.91349 6.27351
#
# Compressibility (1/GPa) = 0.03142828
#
# Stress axis : x y z
#
# Youngs Moduli (GPa) = 101.66824 104.96672 30.61035
#
# Poissons Ratio (x) = 0.30961 0.19398
# Poissons Ratio (y) = 0.29988 0.03106
# Poissons Ratio (z) = 0.64429 0.10651
#
# Static dielectric constant tensor:
#      x y z
#    x 4.532000 0.000000 -0.295650 
#    y 0.000000 4.740740 0.000000 
#    z -0.295650 0.000000 4.458190 
# 
# 
# High freq. dielectric constant tensor:
#      x y z
#    x 1.886980 0.000000 0.001520 
#    y 0.000000 1.894980 0.000000 
#    z 0.001520 0.000000 1.850750 
# 
# From -- ./inp_files/23947.got.cif
#   From: 2010.03.12/outbox.cif.g09.slc.cpg/sg14_12_cif.got.tgz:23947.got - 2010.03.31 13:35:05.
