data_PCOD8127585
_publ_section_title
;
Structure prediction by ZEFSAII (Michael W. Deem and Ramdas Pophale) SiO2 
 PCOD8127585
Probable space group: P 21/C
;
_chemical_formula_sum "Si O2"
_cell_formula_units_Z 28
_cell_length_a 19.436105
_cell_length_b 9.918026
_cell_length_c 13.353912
_cell_angle_alpha 90.000000
_cell_angle_beta 28.030814
_cell_angle_gamma 90.000000
_cell_volume 1209.737850
_symmetry_space_group_name_H-M "P 21/C"
_symmetry_group_IT_number 14
_symmetry_cell_setting 'monoclinic'
loop_
_space_group_symop_operation_xyz
x,y,z
-x,1/2+y,1/2-z
-x,-y,-z
x,1/2-y,1/2+z
loop_
_atom_site_type_symbol
_atom_site_label
_atom_site_fract_x
_atom_site_fract_y
_atom_site_fract_z
Si Si1 0.943392 0.612623 0.147346
Si Si2 0.291055 0.152354 0.198315
Si Si3 0.014560 0.592204 0.576503
Si Si4 0.151411 0.968117 0.539542
Si Si5 0.483294 0.511400 0.187479
Si Si6 0.718472 0.933833 0.216375
Si Si7 0.586259 0.188360 0.724502
O O1 0.771914 0.627835 0.335177
O O2 0.990585 0.574439 0.200687
O O3 0.000000 0.500000 0.000000
O O4 0.021668 0.755623 0.028357
O O5 0.216253 0.286852 0.341039
O O6 0.249693 0.034154 0.326984
O O7 0.466443 0.167864 0.967173
O O8 0.163239 0.552351 0.440599
O O9 0.000000 0.500000 0.500000
O O10 0.879076 0.567037 0.827589
O O11 0.248022 0.838905 0.449894
O O12 0.350934 0.430520 0.305308
O O13 0.426253 0.658205 0.300315
O O14 0.551237 0.424001 0.187688
O O15 0.605933 0.530106 0.947364
#
# Coordination Sequence:
#
# PCOD8127585 Si02
#       7
#     4   4   4   4   4   4   4
#     4  10  24  46  66 104 138 177 232 283 339 409
#     4  10  23  44  72  96 135 181 230 282 341 402
#     4  12  24  41  72  98 143 180 228 281 348 409
#     4  11  26  42  68 101 141 175 233 279 351 402
#     4  10  24  43  69  98 136 175 237 275 346 405
#     4  10  22  44  68  98 135 184 224 283 340 413
#     4  11  24  45  67 101 134 181 227 287 336 410
#
# _framework density 23.145510000000002
#
# number of rings (size 3 to 8) (size 9 to 14) (size 15 to 20)
#    0.000    1.429    1.429    2.143    8.000    0.000 
#   12.857    0.000    0.000    0.000    0.000    0.000 
#    0.000    0.000    0.000    0.000    0.000    0.000 
#
# Total GULP energy -346981.213523 kJ/mol
# GULP energy per Si atom -12392.186197 kJ/mol
# Density = 2.309283 g / cm^3
# Si number density = 23.145510 Si / 1000 Ang^3
#
#
#
# Elastic Constant Matrix: (Units=GPa)
#
#
# Indices 1 2 3 4 5 6 
#
# 1 120.6890 50.6111 32.6352 0.0000 -0.1161 0.0000
# 2 50.6111 134.3784 15.0417 0.0000 7.2168 0.0000
# 3 32.6352 15.0417 40.1924 0.0000 -10.0110 0.0000
# 4 0.0000 0.0000 0.0000 16.9447 0.0000 -4.5715
# 5 -0.1161 7.2168 -10.0110 0.0000 33.8938 0.0000
# 6 0.0000 0.0000 0.0000 -4.5715 0.0000 39.0455
#
#
#
# Elastic Compliance Matrix: (Units=1/GPa)
#
#
# Indices 1 2 3 4 5 6 
#
# 1 0.012195 -0.003475 -0.009074 0.000000 -0.001898 0.000000
# 2 -0.003475 0.008995 -0.001106 0.000000 -0.002254 0.000000
# 3 -0.009074 -0.001106 0.035311 0.000000 0.010634 0.000000
# 4 0.000000 0.000000 0.000000 0.060941 0.000000 0.007135
# 5 -0.001898 -0.002254 0.010634 0.000000 0.033118 0.000000
# 6 0.000000 0.000000 0.000000 0.007135 0.000000 0.026447
#
#
# Mechanical properties :
#
#
# Convention : Reuss Voigt Hill
#
# Bulk Modulus (GPa) = 34.25801 54.64842 44.45321
# Shear Modulus (GPa) = 23.35920 31.10826 27.23373
#
# Velocity S-wave (km/s) = 3.18029 3.67008 3.43393
# Velocity P-wave (km/s) = 5.32155 6.45146 5.91356
#
# Compressibility (1/GPa) = 0.02919025
#
# Stress axis : x y z
#
# Youngs Moduli (GPa) = 82.00014 111.16745 28.31972
#
# Poissons Ratio (x) = 0.38635 0.25698
# Poissons Ratio (y) = 0.28498 0.03132
# Poissons Ratio (z) = 0.74410 0.12295
#
# Static dielectric constant tensor:
#      x y z
#    x 4.557760 0.000000 -0.399900 
#    y 0.000000 4.343370 0.000000 
#    z -0.399900 0.000000 4.216350 
# 
# 
# High freq. dielectric constant tensor:
#      x y z
#    x 1.927070 0.000000 -0.010930 
#    y 0.000000 1.919890 0.000000 
#    z -0.010930 0.000000 1.898360 
# 
# From -- ./inp_files/50051.got.cif
#   From: 2010.03.12/outbox.cif.g09.slc.cpg/sg14_26_cif.got.tgz:50051.got - 2010.03.31 13:35:05.
