data_PCOD8127238
_publ_section_title
;
Structure prediction by ZEFSAII (Michael W. Deem and Ramdas Pophale) SiO2 
 PCOD8127238
Probable space group: P 21/C
;
_chemical_formula_sum "Si O2"
_cell_formula_units_Z 28
_cell_length_a 16.018453
_cell_length_b 7.371765
_cell_length_c 23.304444
_cell_angle_alpha 90.000000
_cell_angle_beta 27.666813
_cell_angle_gamma 90.000000
_cell_volume 1277.781888
_symmetry_space_group_name_H-M "P 21/C"
_symmetry_group_IT_number 14
_symmetry_cell_setting 'monoclinic'
loop_
_space_group_symop_operation_xyz
x,y,z
-x,1/2+y,1/2-z
-x,-y,-z
x,1/2-y,1/2+z
loop_
_atom_site_type_symbol
_atom_site_label
_atom_site_fract_x
_atom_site_fract_y
_atom_site_fract_z
Si Si1 0.959577 0.046977 0.709804
Si Si2 0.505044 0.746169 0.165906
Si Si3 0.188051 0.383678 0.593182
Si Si4 0.151916 0.227600 0.384300
Si Si5 0.468965 0.640416 0.810936
Si Si6 0.865835 0.325657 0.145177
Si Si7 0.896348 0.304077 0.436405
O O1 0.871101 0.147183 0.709816
O O2 0.090096 0.191111 0.660625
O O3 0.807304 0.986706 0.848403
O O4 0.067343 0.868761 0.625757
O O5 0.598340 0.556163 0.126461
O O6 0.509560 0.875947 0.218682
O O7 0.304131 0.700599 0.266586
O O8 0.609848 0.846374 0.050829
O O9 0.083561 0.509388 0.610759
O O10 0.351911 0.306347 0.263464
O O11 0.047833 0.263816 0.508296
O O12 0.037436 0.317171 0.402605
O O13 0.169804 0.013932 0.365329
O O14 0.308361 0.784387 0.916825
#
# Coordination Sequence:
#
# PCOD8127238 Si02
#       7
#     4   4   4   4   4   4   4
#     4  11  24  43  69  96 134 183 235 279 339 406
#     4  12  25  40  67 100 140 182 228 283 349 407
#     4  12  24  44  70  96 134 185 234 278 343 406
#     4  10  22  40  69  99 138 178 222 283 352 409
#     4  12  24  42  65 106 143 177 227 285 347 419
#     4  10  22  41  64  99 137 173 229 284 345 405
#     4  11  23  44  71 101 137 178 229 288 341 407
#
# _framework density 21.912970999999999
#
# number of rings (size 3 to 8) (size 9 to 14) (size 15 to 20)
#    0.000    0.857    4.286    3.429    4.000    1.143 
#    0.000    0.000    0.000    4.286    0.000    0.000 
#    0.000    0.000    0.000    0.000    0.000    0.000 
#
# Total GULP energy -347255.800847 kJ/mol
# GULP energy per Si atom -12401.992887 kJ/mol
# Density = 2.186310 g / cm^3
# Si number density = 21.912971 Si / 1000 Ang^3
#
#
#
# Elastic Constant Matrix: (Units=GPa)
#
#
# Indices 1 2 3 4 5 6 
#
# 1 97.5170 8.9579 55.8992 0.0000 1.6435 0.0000
# 2 8.9579 51.2505 17.4697 0.0000 5.8183 0.0000
# 3 55.8992 17.4697 117.6415 0.0000 10.2570 0.0000
# 4 0.0000 0.0000 0.0000 36.3633 0.0000 1.7941
# 5 1.6435 5.8183 10.2570 0.0000 45.6482 0.0000
# 6 0.0000 0.0000 0.0000 1.7941 0.0000 29.5446
#
#
#
# Elastic Compliance Matrix: (Units=1/GPa)
#
#
# Indices 1 2 3 4 5 6 
#
# 1 0.014144 -0.000283 -0.006770 0.000000 0.001048 0.000000
# 2 -0.000283 0.020734 -0.002769 0.000000 -0.002010 0.000000
# 3 -0.006770 -0.002769 0.012318 0.000000 -0.002171 0.000000
# 4 0.000000 0.000000 0.000000 0.027583 0.000000 -0.001675
# 5 0.001048 -0.002010 -0.002171 0.000000 0.022613 0.000000
# 6 0.000000 0.000000 0.000000 -0.001675 0.000000 0.033949
#
#
# Mechanical properties :
#
#
# Convention : Reuss Voigt Hill
#
# Bulk Modulus (GPa) = 36.29711 47.89584 42.09648
# Shear Modulus (GPa) = 31.21726 34.58337 32.90031
#
# Velocity S-wave (km/s) = 3.77848 3.97698 3.87900
# Velocity P-wave (km/s) = 5.96960 6.55693 6.27014
#
# Compressibility (1/GPa) = 0.02755040
#
# Stress axis : x y z
#
# Youngs Moduli (GPa) = 70.70310 48.23081 81.18400
#
# Poissons Ratio (x) = 0.01367 0.54960
# Poissons Ratio (y) = 0.02004 0.22480
# Poissons Ratio (z) = 0.47865 0.13355
#
# Static dielectric constant tensor:
#      x y z
#    x 3.736960 0.000000 0.121080 
#    y 0.000000 3.968320 0.000000 
#    z 0.121080 0.000000 3.975000 
# 
# 
# High freq. dielectric constant tensor:
#      x y z
#    x 1.847880 0.000000 0.003770 
#    y 0.000000 1.872740 0.000000 
#    z 0.003770 0.000000 1.856980 
# 
# From -- ./inp_files/68299.got.cif
#   From: 2010.03.12/outbox.cif.g09.slc.cpg/sg14_35_cif.got.tgz:68299.got - 2010.03.31 13:35:05.
