data_PCOD8127239
_publ_section_title
;
Structure prediction by ZEFSAII (Michael W. Deem and Ramdas Pophale) SiO2 
 PCOD8127239
Probable space group: P 21/C
;
_chemical_formula_sum "Si O2"
_cell_formula_units_Z 28
_cell_length_a 8.834135
_cell_length_b 16.204192
_cell_length_c 17.068857
_cell_angle_alpha 90.000000
_cell_angle_beta 31.073417
_cell_angle_gamma 90.000000
_cell_volume 1261.130424
_symmetry_space_group_name_H-M "P 21/C"
_symmetry_group_IT_number 14
_symmetry_cell_setting 'monoclinic'
loop_
_space_group_symop_operation_xyz
x,y,z
-x,1/2+y,1/2-z
-x,-y,-z
x,1/2-y,1/2+z
loop_
_atom_site_type_symbol
_atom_site_label
_atom_site_fract_x
_atom_site_fract_y
_atom_site_fract_z
Si Si1 0.615241 0.277983 0.570912
Si Si2 0.433898 0.791230 0.236114
Si Si3 0.205960 0.031631 0.592187
Si Si4 0.173622 0.346865 0.981515
Si Si5 0.710115 0.546493 0.656815
Si Si6 0.167954 0.356364 0.247061
Si Si7 0.252603 0.077388 0.287371
O O1 0.655919 0.248890 0.641531
O O2 0.437520 0.205105 0.605471
O O3 0.454782 0.366622 0.642548
O O4 0.924177 0.295356 0.391971
O O5 0.578840 0.722476 0.117382
O O6 0.672879 0.864507 0.132212
O O7 0.123869 0.822395 0.340279
O O8 0.299823 0.073459 0.468945
O O9 0.058011 0.098060 0.717199
O O10 0.500000 0.000000 0.500000
O O11 0.981484 0.959116 0.669706
O O12 0.100259 0.366690 0.922549
O O13 0.731207 0.569022 0.739534
O O14 0.429959 0.492240 0.756990
O O15 0.000000 0.500000 0.500000
#
# Coordination Sequence:
#
# PCOD8127239 Si02
#       7
#     4   4   4   4   4   4   4
#     4  10  22  42  71  96 131 180 219 273 338 403
#     4  10  22  40  70 102 129 168 234 274 329 394
#     4  12  28  45  64  99 138 182 222 277 340 391
#     4  11  24  44  70  96 134 175 225 277 332 402
#     4  11  21  41  70 102 130 169 223 285 328 389
#     4  11  25  43  68  97 139 175 224 269 343 406
#     4  11  23  44  71  98 131 174 228 278 332 391
#
# _framework density 22.202303000000001
#
# number of rings (size 3 to 8) (size 9 to 14) (size 15 to 20)
#    0.000    1.143    2.857    3.857    8.000    1.714 
#    0.000    0.000    0.000    0.000    0.000    0.000 
#    0.000    0.000    0.000    0.000    0.000    0.000 
#
# Total GULP energy -347092.619037 kJ/mol
# GULP energy per Si atom -12396.164966 kJ/mol
# Density = 2.215177 g / cm^3
# Si number density = 22.202303 Si / 1000 Ang^3
#
#
#
# Elastic Constant Matrix: (Units=GPa)
#
#
# Indices 1 2 3 4 5 6 
#
# 1 88.0705 27.8993 29.0752 0.0000 -17.7493 0.0000
# 2 27.8993 96.5133 34.9540 0.0000 -11.2552 0.0000
# 3 29.0752 34.9540 84.2846 0.0000 -22.9347 0.0000
# 4 0.0000 0.0000 0.0000 50.4663 0.0000 -4.7035
# 5 -17.7493 -11.2552 -22.9347 0.0000 29.7313 0.0000
# 6 0.0000 0.0000 0.0000 -4.7035 0.0000 31.5540
#
#
#
# Elastic Compliance Matrix: (Units=1/GPa)
#
#
# Indices 1 2 3 4 5 6 
#
# 1 0.014058 -0.002594 -0.002224 0.000000 0.005695 0.000000
# 2 -0.002594 0.012691 -0.004407 0.000000 -0.000144 0.000000
# 3 -0.002224 -0.004407 0.017269 0.000000 0.010325 0.000000
# 4 0.000000 0.000000 0.000000 0.020094 0.000000 0.002995
# 5 0.005695 -0.000144 0.010325 0.000000 0.044945 0.000000
# 6 0.000000 0.000000 0.000000 0.002995 0.000000 0.032138
#
#
# Mechanical properties :
#
#
# Convention : Reuss Voigt Hill
#
# Bulk Modulus (GPa) = 39.11335 50.30282 44.70808
# Shear Modulus (GPa) = 29.73206 34.14633 31.93919
#
# Velocity S-wave (km/s) = 3.66340 3.92594 3.79694
# Velocity P-wave (km/s) = 5.96230 6.57696 6.27716
#
# Compressibility (1/GPa) = 0.02556672
#
# Stress axis : x y z
#
# Youngs Moduli (GPa) = 71.13215 78.79894 57.90672
#
# Poissons Ratio (x) = 0.20442 0.12879
# Poissons Ratio (y) = 0.18453 0.25521
# Poissons Ratio (z) = 0.15821 0.34729
#
# Static dielectric constant tensor:
#      x y z
#    x 3.946450 0.000000 -0.102960 
#    y 0.000000 4.357030 0.000000 
#    z -0.102960 0.000000 3.911970 
# 
# 
# High freq. dielectric constant tensor:
#      x y z
#    x 1.851070 0.000000 -0.015750 
#    y 0.000000 1.898770 0.000000 
#    z -0.015750 0.000000 1.867000 
# 
# From -- ./inp_files/56141.got.cif
#   From: 2010.03.12/outbox.cif.g09.slc.cpg/sg14_29_cif.got.tgz:56141.got - 2010.03.31 13:35:05.
