data_PCOD8127221
_publ_section_title
;
Structure prediction by ZEFSAII (Michael W. Deem and Ramdas Pophale) SiO2 
 PCOD8127221
Probable space group: P 21/C
;
_chemical_formula_sum "Si O2"
_cell_formula_units_Z 24
_cell_length_a 8.834422
_cell_length_b 14.294725
_cell_length_c 8.783509
_cell_angle_alpha 90.000000
_cell_angle_beta 91.796859
_cell_angle_gamma 90.000000
_cell_volume 1108.685564
_symmetry_space_group_name_H-M "P 21/C"
_symmetry_group_IT_number 14
_symmetry_cell_setting 'monoclinic'
loop_
_space_group_symop_operation_xyz
x,y,z
-x,1/2+y,1/2-z
-x,-y,-z
x,1/2-y,1/2+z
loop_
_atom_site_type_symbol
_atom_site_label
_atom_site_fract_x
_atom_site_fract_y
_atom_site_fract_z
Si Si1 0.872685 0.831229 0.300812
Si Si2 0.967479 0.326850 0.876823
Si Si3 0.617010 0.341005 0.899857
Si Si4 0.422975 0.919956 0.901253
Si Si5 0.099676 0.975442 0.860737
Si Si6 0.461810 0.268519 0.159317
O O1 0.712610 0.779139 0.304785
O O2 0.929597 0.844981 0.473890
O O3 0.988627 0.770605 0.202865
O O4 0.847297 0.931325 0.223574
O O5 0.795307 0.328178 0.929763
O O6 0.995791 0.409940 0.756690
O O7 0.574127 0.428851 0.786573
O O8 0.558653 0.245087 0.815798
O O9 0.530765 0.353324 0.058993
O O10 0.243788 0.918694 0.932236
O O11 0.510274 0.824384 0.945247
O O12 0.500000 0.000000 0.000000
O O13 0.000000 0.000000 0.000000
#
# Coordination Sequence:
#
# PCOD8127221 Si02
#       6
#     4   4   4   4   4   4
#     4  12  25  40  75  97 139 178 233 282 343 424
#     4  11  24  44  64 103 136 182 227 285 350 405
#     4   9  21  40  63  90 128 173 220 270 340 403
#     4   9  23  39  65  92 136 169 224 282 339 405
#     4  11  26  45  67 103 138 181 231 289 348 411
#     4  10  22  40  66  95 128 178 226 277 334 411
#
# _framework density 21.647255999999999
#
# number of rings (size 3 to 8) (size 9 to 14) (size 15 to 20)
#    1.000    0.667    0.000    3.500    9.333    0.000 
#    0.000    3.333    0.000    0.000    0.000    0.000 
#    0.000    0.000    0.000    0.000    0.000    0.000 
#
# Total GULP energy -297322.271205 kJ/mol
# GULP energy per Si atom -12388.427967 kJ/mol
# Density = 2.159799 g / cm^3
# Si number density = 21.647256 Si / 1000 Ang^3
#
#
#
# Elastic Constant Matrix: (Units=GPa)
#
#
# Indices 1 2 3 4 5 6 
#
# 1 76.9564 23.0077 22.2238 0.0000 0.5254 0.0000
# 2 23.0077 79.4147 14.9403 0.0000 2.2665 0.0000
# 3 22.2238 14.9403 79.4328 0.0000 -1.2664 0.0000
# 4 0.0000 0.0000 0.0000 33.6425 0.0000 -1.2621
# 5 0.5254 2.2665 -1.2664 0.0000 26.4132 0.0000
# 6 0.0000 0.0000 0.0000 -1.2621 0.0000 37.1645
#
#
#
# Elastic Compliance Matrix: (Units=1/GPa)
#
#
# Indices 1 2 3 4 5 6 
#
# 1 0.015127 -0.003713 -0.003536 0.000000 -0.000152 0.000000
# 2 -0.003713 0.014006 -0.001615 0.000000 -0.001205 0.000000
# 3 -0.003536 -0.001615 0.013896 0.000000 0.000875 0.000000
# 4 0.000000 0.000000 0.000000 0.029762 0.000000 0.001011
# 5 -0.000152 -0.001205 0.000875 0.000000 0.038008 0.000000
# 6 0.000000 0.000000 0.000000 0.001011 0.000000 0.026942
#
#
# Mechanical properties :
#
#
# Convention : Reuss Voigt Hill
#
# Bulk Modulus (GPa) = 39.52375 39.57193 39.54784
# Shear Modulus (GPa) = 30.50594 31.15286 30.82940
#
# Velocity S-wave (km/s) = 3.75804 3.79768 3.77791
# Velocity P-wave (km/s) = 6.09329 6.12779 6.11057
#
# Compressibility (1/GPa) = 0.02530124
#
# Stress axis : x y z
#
# Youngs Moduli (GPa) = 66.10850 71.39805 71.96159
#
# Poissons Ratio (x) = 0.26509 0.25447
# Poissons Ratio (y) = 0.24545 0.11620
# Poissons Ratio (z) = 0.23378 0.11529
#
# Static dielectric constant tensor:
#      x y z
#    x 3.847280 0.000000 0.035030 
#    y 0.000000 3.831650 0.000000 
#    z 0.035030 0.000000 4.045260 
# 
# 
# High freq. dielectric constant tensor:
#      x y z
#    x 1.852900 0.000000 0.001920 
#    y 0.000000 1.830710 0.000000 
#    z 0.001920 0.000000 1.864090 
# 
# From -- ./inp_files/8329.got.cif
#   From: 2010.03.12/outbox.cif.g09.slc.cpg/sg14_5_cif.got.tgz:8329.got - 2010.03.31 13:35:05.
