data_PCOD8127253
_publ_section_title
;
Structure prediction by ZEFSAII (Michael W. Deem and Ramdas Pophale) SiO2 
 PCOD8127253
Probable space group: P 21/C
;
_chemical_formula_sum "Si O2"
_cell_formula_units_Z 32
_cell_length_a 11.613093
_cell_length_b 8.792959
_cell_length_c 15.345579
_cell_angle_alpha 90.000000
_cell_angle_beta 91.893452
_cell_angle_gamma 90.000000
_cell_volume 1566.134444
_symmetry_space_group_name_H-M "P 21/C"
_symmetry_group_IT_number 14
_symmetry_cell_setting 'monoclinic'
loop_
_space_group_symop_operation_xyz
x,y,z
-x,1/2+y,1/2-z
-x,-y,-z
x,1/2-y,1/2+z
loop_
_atom_site_type_symbol
_atom_site_label
_atom_site_fract_x
_atom_site_fract_y
_atom_site_fract_z
Si Si1 0.352020 0.707364 0.740829
Si Si2 0.734000 0.650141 0.076938
Si Si3 0.408492 0.141655 0.259600
Si Si4 0.198489 0.638413 0.579207
Si Si5 0.251861 0.211778 0.099442
Si Si6 0.033078 0.126759 0.664685
Si Si7 0.214571 0.806459 0.407520
Si Si8 0.017488 0.219270 0.349617
O O1 0.457173 0.822668 0.736554
O O2 0.398433 0.537858 0.750826
O O3 0.275493 0.724350 0.652727
O O4 0.274175 0.754193 0.821252
O O5 0.649809 0.699602 0.152841
O O6 0.733272 0.469026 0.064563
O O7 0.861647 0.709761 0.098802
O O8 0.688479 0.731204 0.988180
O O9 0.346318 0.225370 0.177625
O O10 0.206030 0.458747 0.590225
O O11 0.241444 0.687228 0.484755
O O12 0.066470 0.687030 0.589483
O O13 0.145158 0.322217 0.115177
O O14 0.034926 0.192809 0.760792
O O15 0.921794 0.183087 0.609668
O O16 0.034276 0.945543 0.671897
#
# Coordination Sequence:
#
# PCOD8127253 Si02
#       8
#     4   4   4   4   4   4   4   4
#     4  10  23  43  62  84 119 157 201 251 298 349
#     4  10  22  41  61  87 123 159 195 243 299 356
#     4  10  23  43  62  84 119 157 201 251 298 349
#     4  11  23  40  61  91 124 155 198 248 296 354
#     4  11  23  40  61  91 124 155 198 248 296 354
#     4  11  21  37  62  90 124 160 196 240 297 357
#     4  10  22  41  61  87 123 159 195 243 299 356
#     4  11  21  37  62  90 124 160 196 240 297 357
#
# _framework density 20.432473999999999
#
# number of rings (size 3 to 8) (size 9 to 14) (size 15 to 20)
#    0.000    1.500    2.500    2.250    0.000    9.000 
#    0.000    5.000    0.000    0.000    0.000    0.000 
#    0.000    0.000    0.000    0.000    0.000    0.000 
#
# Total GULP energy -396988.569476 kJ/mol
# GULP energy per Si atom -12405.892796 kJ/mol
# Density = 2.038597 g / cm^3
# Si number density = 20.432474 Si / 1000 Ang^3
#
#
#
# Elastic Constant Matrix: (Units=GPa)
#
#
# Indices 1 2 3 4 5 6 
#
# 1 37.8193 -6.7471 -5.5804 0.0000 -4.5727 0.0000
# 2 -6.7471 22.4099 5.3779 0.0000 -4.0835 0.0000
# 3 -5.5804 5.3779 109.4194 0.0000 -6.7997 0.0000
# 4 0.0000 0.0000 0.0000 36.4972 0.0000 0.2595
# 5 -4.5727 -4.0835 -6.7997 0.0000 12.0341 0.0000
# 6 0.0000 0.0000 0.0000 0.2595 0.0000 33.1736
#
#
#
# Elastic Compliance Matrix: (Units=1/GPa)
#
#
# Indices 1 2 3 4 5 6 
#
# 1 0.030915 0.011904 0.002044 0.000000 0.016942 0.000000
# 2 0.011904 0.052351 -0.000602 0.000000 0.021948 0.000000
# 3 0.002044 -0.000602 0.009647 0.000000 0.006024 0.000000
# 4 0.000000 0.000000 0.000000 0.027401 0.000000 -0.000214
# 5 0.016942 0.021948 0.006024 0.000000 0.100386 0.000000
# 6 0.000000 0.000000 0.000000 -0.000214 0.000000 0.030146
#
#
# Mechanical properties :
#
#
# Convention : Reuss Voigt Hill
#
# Bulk Modulus (GPa) = 8.36066 17.30548 12.83307
# Shear Modulus (GPa) = 18.93780 28.11419 23.52599
#
# Velocity S-wave (km/s) = 3.04772 3.71341 3.39691
# Velocity P-wave (km/s) = 4.06024 5.18400 4.65615
#
# Compressibility (1/GPa) = 0.11960776
#
# Stress axis : x y z
#
# Youngs Moduli (GPa) = 32.34630 19.10178 103.65563
#
# Poissons Ratio (x) = -0.22740 -0.21192
# Poissons Ratio (y) = -0.38507 0.06240
# Poissons Ratio (z) = -0.06613 0.01150
#
# Static dielectric constant tensor:
#      x y z
#    x 3.650150 0.000000 -0.038070 
#    y 0.000000 3.785670 0.000000 
#    z -0.038070 0.000000 3.928200 
# 
# 
# High freq. dielectric constant tensor:
#      x y z
#    x 1.791350 0.000000 -0.003460 
#    y 0.000000 1.797210 0.000000 
#    z -0.003460 0.000000 1.814720 
# 
# From -- ./inp_files/43759.got.cif
#   From: 2010.03.12/outbox.cif.g09.slc.cpg/sg14_22_cif.got.tgz:43759.got - 2010.03.31 13:35:05.
