data_PCOD8127492
_publ_section_title
;
Structure prediction by ZEFSAII (Michael W. Deem and Ramdas Pophale) SiO2 
 PCOD8127492
Probable space group: P 21/C
;
_chemical_formula_sum "Si O2"
_cell_formula_units_Z 28
_cell_length_a 14.430285
_cell_length_b 9.098865
_cell_length_c 9.894916
_cell_angle_alpha 90.000000
_cell_angle_beta 81.710116
_cell_angle_gamma 90.000000
_cell_volume 1285.619758
_symmetry_space_group_name_H-M "P 21/C"
_symmetry_group_IT_number 14
_symmetry_cell_setting 'monoclinic'
loop_
_space_group_symop_operation_xyz
x,y,z
-x,1/2+y,1/2-z
-x,-y,-z
x,1/2-y,1/2+z
loop_
_atom_site_type_symbol
_atom_site_label
_atom_site_fract_x
_atom_site_fract_y
_atom_site_fract_z
Si Si1 0.263829 0.547615 0.354883
Si Si2 0.859322 0.963957 0.354680
Si Si3 0.124118 0.721943 0.953732
Si Si4 0.589789 0.656389 0.359560
Si Si5 0.797288 0.641981 0.392412
Si Si6 0.454842 0.411097 0.333889
Si Si7 0.054737 0.591699 0.705044
O O1 0.228552 0.524567 0.210284
O O2 0.227416 0.704698 0.418301
O O3 0.223227 0.415703 0.453615
O O4 0.375868 0.538594 0.334686
O O5 0.844139 0.798685 0.404982
O O6 0.952047 0.976944 0.242922
O O7 0.867993 0.059511 0.487748
O O8 0.075383 0.710770 0.818165
O O9 0.059111 0.825392 0.060702
O O10 0.702205 0.652873 0.324228
O O11 0.552229 0.500730 0.308798
O O12 0.549345 0.794222 0.285584
O O13 0.556560 0.674657 0.521763
O O14 0.868507 0.536578 0.298506
#
# Coordination Sequence:
#
# PCOD8127492 Si02
#       7
#     4   4   4   4   4   4   4
#     4  10  23  43  62  92 129 164 211 263 315 376
#     4  12  23  40  66  91 125 169 216 257 318 373
#     4  11  24  43  60  91 128 168 214 258 315 372
#     4  10  22  43  66  93 130 163 211 260 316 373
#     4  10  24  40  65  93 130 165 211 265 312 374
#     4  10  22  44  66  98 126 165 207 261 316 377
#     4  11  25  40  63  93 128 169 214 262 311 372
#
# _framework density 21.77938
#
# number of rings (size 3 to 8) (size 9 to 14) (size 15 to 20)
#    0.000    1.429    2.857    1.286    4.000    2.857 
#    5.143    0.000    0.000    0.000    0.000    0.000 
#    0.000    0.000    0.000    0.000    0.000    0.000 
#
# Total GULP energy -347321.104952 kJ/mol
# GULP energy per Si atom -12404.325177 kJ/mol
# Density = 2.172981 g / cm^3
# Si number density = 21.779380 Si / 1000 Ang^3
#
#
#
# Elastic Constant Matrix: (Units=GPa)
#
#
# Indices 1 2 3 4 5 6 
#
# 1 62.2160 17.7233 -7.0071 0.0000 -5.0922 0.0000
# 2 17.7233 99.9542 3.5361 0.0000 -11.1050 0.0000
# 3 -7.0071 3.5361 40.0312 0.0000 1.7236 0.0000
# 4 0.0000 0.0000 0.0000 25.9453 0.0000 1.3262
# 5 -5.0922 -11.1050 1.7236 0.0000 23.7702 0.0000
# 6 0.0000 0.0000 0.0000 1.3262 0.0000 33.2571
#
#
#
# Elastic Compliance Matrix: (Units=1/GPa)
#
#
# Indices 1 2 3 4 5 6 
#
# 1 0.017457 -0.002974 0.003227 0.000000 0.002116 0.000000
# 2 -0.002974 0.011112 -0.001704 0.000000 0.004678 0.000000
# 3 0.003227 -0.001704 0.025781 0.000000 -0.001974 0.000000
# 4 0.000000 0.000000 0.000000 0.038621 0.000000 -0.001540
# 5 0.002116 0.004678 -0.001974 0.000000 0.044851 0.000000
# 6 0.000000 0.000000 0.000000 -0.001540 0.000000 0.030130
#
#
# Mechanical properties :
#
#
# Convention : Reuss Voigt Hill
#
# Bulk Modulus (GPa) = 19.43696 25.63402 22.53549
# Shear Modulus (GPa) = 26.59524 29.12446 27.85985
#
# Velocity S-wave (km/s) = 3.49824 3.66081 3.58045
# Velocity P-wave (km/s) = 5.02601 5.44648 5.24046
#
# Compressibility (1/GPa) = 0.05144838
#
# Stress axis : x y z
#
# Youngs Moduli (GPa) = 57.28349 89.99321 38.78845
#
# Poissons Ratio (x) = 0.26768 -0.12518
# Poissons Ratio (y) = 0.17039 0.06608
# Poissons Ratio (z) = -0.18487 0.15331
#
# Static dielectric constant tensor:
#      x y z
#    x 4.008280 0.000000 0.035400 
#    y 0.000000 3.863210 0.000000 
#    z 0.035400 0.000000 3.789000 
# 
# 
# High freq. dielectric constant tensor:
#      x y z
#    x 1.852500 0.000000 0.009330 
#    y 0.000000 1.858380 0.000000 
#    z 0.009330 0.000000 1.854020 
# 
# From -- ./inp_files/31365.got.cif
#   From: 2010.03.12/outbox.cif.g09.slc.cpg/sg14_16_cif.got.tgz:31365.got - 2010.03.31 13:35:05.
