data_PCOD8127459
_publ_section_title
;
Structure prediction by ZEFSAII (Michael W. Deem and Ramdas Pophale) SiO2 
 PCOD8127459
Probable space group: P 21/C
;
_chemical_formula_sum "Si O2"
_cell_formula_units_Z 20
_cell_length_a 20.797171
_cell_length_b 7.873129
_cell_length_c 12.235372
_cell_angle_alpha 90.000000
_cell_angle_beta 26.959418
_cell_angle_gamma 90.000000
_cell_volume 908.262394
_symmetry_space_group_name_H-M "P 21/C"
_symmetry_group_IT_number 14
_symmetry_cell_setting 'monoclinic'
loop_
_space_group_symop_operation_xyz
x,y,z
-x,1/2+y,1/2-z
-x,-y,-z
x,1/2-y,1/2+z
loop_
_atom_site_type_symbol
_atom_site_label
_atom_site_fract_x
_atom_site_fract_y
_atom_site_fract_z
Si Si1 0.146798 0.946697 0.987471
Si Si2 0.586217 0.543155 0.263665
Si Si3 0.858252 0.779725 0.391558
Si Si4 0.364792 0.719532 0.000920
Si Si5 0.846282 0.473668 0.282052
O O1 0.288616 0.899347 0.706270
O O2 0.151029 0.873314 0.105346
O O3 0.009377 0.866705 0.136862
O O4 0.133569 0.153426 0.014811
O O5 0.500000 0.500000 0.500000
O O6 0.597775 0.387521 0.162661
O O7 0.513132 0.707846 0.319842
O O8 0.741400 0.575734 0.079552
O O9 0.802127 0.668856 0.372977
O O10 0.261330 0.879369 0.134924
O O11 0.000000 0.500000 0.000000
#
# Coordination Sequence:
#
# PCOD8127459 Si02
#       5
#     4   4   4   4   4
#     4  10  24  43  73 100 136 175 238 280 343 404
#     4  12  30  45  72 101 144 184 231 281 350 412
#     4  10  25  44  70 100 136 179 227 289 334 410
#     4  12  25  47  70 100 141 186 227 286 343 415
#     4  10  22  42  71 101 136 172 229 282 341 402
#
# _framework density 22.020067999999998
#
# number of rings (size 3 to 8) (size 9 to 14) (size 15 to 20)
#    1.200    0.000    2.000    2.400   11.200    3.200 
#    0.000    0.000    0.000    0.000    0.000    0.000 
#    0.000    0.000    0.000    0.000    0.000    0.000 
#
# Total GULP energy -247787.744816 kJ/mol
# GULP energy per Si atom -12389.387241 kJ/mol
# Density = 2.196995 g / cm^3
# Si number density = 22.020068 Si / 1000 Ang^3
#
#
#
# Elastic Constant Matrix: (Units=GPa)
#
#
# Indices 1 2 3 4 5 6 
#
# 1 75.6451 29.4114 33.9444 0.0000 13.2505 0.0000
# 2 29.4114 78.9644 22.8508 0.0000 -4.8478 0.0000
# 3 33.9444 22.8508 107.5591 0.0000 5.9854 0.0000
# 4 0.0000 0.0000 0.0000 38.9646 0.0000 -13.1285
# 5 13.2505 -4.8478 5.9854 0.0000 48.1638 0.0000
# 6 0.0000 0.0000 0.0000 -13.1285 0.0000 44.1035
#
#
#
# Elastic Compliance Matrix: (Units=1/GPa)
#
#
# Indices 1 2 3 4 5 6 
#
# 1 0.018314 -0.005908 -0.004240 0.000000 -0.005106 0.000000
# 2 -0.005908 0.015543 -0.001627 0.000000 0.003392 0.000000
# 3 -0.004240 -0.001627 0.011001 0.000000 -0.000364 0.000000
# 4 0.000000 0.000000 0.000000 0.028525 0.000000 0.008491
# 5 -0.005106 0.003392 -0.000364 0.000000 0.022554 0.000000
# 6 0.000000 0.000000 0.000000 0.008491 0.000000 0.025202
#
#
# Mechanical properties :
#
#
# Convention : Reuss Voigt Hill
#
# Bulk Modulus (GPa) = 46.92810 48.28686 47.60748
# Shear Modulus (GPa) = 32.93997 37.97716 35.45857
#
# Velocity S-wave (km/s) = 3.87189 4.15741 4.01719
# Velocity P-wave (km/s) = 6.43012 6.70981 6.57146
#
# Compressibility (1/GPa) = 0.02130920
#
# Stress axis : x y z
#
# Youngs Moduli (GPa) = 54.60368 64.33673 90.89869
#
# Poissons Ratio (x) = 0.38008 0.38545
# Poissons Ratio (y) = 0.32258 0.14785
# Poissons Ratio (z) = 0.23154 0.10464
#
# Static dielectric constant tensor:
#      x y z
#    x 3.963350 0.000000 -0.158790 
#    y 0.000000 4.146190 0.000000 
#    z -0.158790 0.000000 4.927520 
# 
# 
# High freq. dielectric constant tensor:
#      x y z
#    x 1.853360 0.000000 0.001940 
#    y 0.000000 1.864590 0.000000 
#    z 0.001940 0.000000 1.878540 
# 
# From -- ./inp_files/51061.got.cif
#   From: 2010.03.12/outbox.cif.g09.slc.cpg/sg14_26_cif.got.tgz:51061.got - 2010.03.31 13:35:05.
