data_PCOD8127283
_publ_section_title
;
Structure prediction by ZEFSAII (Michael W. Deem and Ramdas Pophale) SiO2 
 PCOD8127283
Probable space group: P 21/C
;
_chemical_formula_sum "Si O2"
_cell_formula_units_Z 20
_cell_length_a 9.461143
_cell_length_b 11.186585
_cell_length_c 12.941814
_cell_angle_alpha 90.000000
_cell_angle_beta 131.492050
_cell_angle_gamma 90.000000
_cell_volume 1025.996161
_symmetry_space_group_name_H-M "P 21/C"
_symmetry_group_IT_number 14
_symmetry_cell_setting 'monoclinic'
loop_
_space_group_symop_operation_xyz
x,y,z
-x,1/2+y,1/2-z
-x,-y,-z
x,1/2-y,1/2+z
loop_
_atom_site_type_symbol
_atom_site_label
_atom_site_fract_x
_atom_site_fract_y
_atom_site_fract_z
Si Si1 0.824333 0.037810 0.847528
Si Si2 0.081223 0.754480 0.263502
Si Si3 0.950551 0.365365 0.954838
Si Si4 0.230215 0.225483 0.227679
Si Si5 0.342278 0.782810 0.079174
O O1 0.870969 0.122407 0.772395
O O2 0.685795 0.102502 0.860913
O O3 0.737135 0.916972 0.759222
O O4 0.000000 0.000000 0.000000
O O5 0.062164 0.646672 0.173842
O O6 0.243422 0.709431 0.419793
O O7 0.882061 0.768889 0.225361
O O8 0.748577 0.333126 0.908399
O O9 0.000000 0.500000 0.000000
O O10 0.111138 0.272792 0.071762
O O11 0.436131 0.280552 0.330729
#
# Coordination Sequence:
#
# PCOD8127283 Si02
#       5
#     4   4   4   4   4
#     4  11  21  46  65  85 135 168 202 262 317 375
#     4  10  22  41  64  90 125 162 214 253 315 367
#     4  10  23  42  63  89 130 164 206 259 314 368
#     4  11  24  41  67  94 123 171 208 258 318 365
#     4  10  24  40  63  98 120 164 214 256 314 372
#
# _framework density 19.493248999999999
#
# number of rings (size 3 to 8) (size 9 to 14) (size 15 to 20)
#    0.000    1.600    6.000    0.000    8.400    4.000 
#    0.000    2.000    0.000    0.000    0.000    0.000 
#    0.000    0.000    0.000    0.000    0.000    0.000 
#
# Total GULP energy -247920.443861 kJ/mol
# GULP energy per Si atom -12396.022193 kJ/mol
# Density = 1.944888 g / cm^3
# Si number density = 19.493249 Si / 1000 Ang^3
#
#
#
# Elastic Constant Matrix: (Units=GPa)
#
#
# Indices 1 2 3 4 5 6 
#
# 1 141.6226 43.4286 85.0660 0.0000 4.2469 0.0000
# 2 43.4286 135.2479 29.4518 0.0000 -12.0829 0.0000
# 3 85.0660 29.4518 91.7902 0.0000 -16.2835 0.0000
# 4 0.0000 0.0000 0.0000 25.1575 0.0000 -3.6966
# 5 4.2469 -12.0829 -16.2835 0.0000 40.4272 0.0000
# 6 0.0000 0.0000 0.0000 -3.6966 0.0000 12.5602
#
#
#
# Elastic Compliance Matrix: (Units=1/GPa)
#
#
# Indices 1 2 3 4 5 6 
#
# 1 0.020112 -0.003176 -0.019561 0.000000 -0.010941 0.000000
# 2 -0.003176 0.008531 0.000773 0.000000 0.003195 0.000000
# 3 -0.019561 0.000773 0.031425 0.000000 0.014943 0.000000
# 4 0.000000 0.000000 0.000000 0.041546 0.000000 0.012227
# 5 -0.010941 0.003195 0.014943 0.000000 0.032859 0.000000
# 6 0.000000 0.000000 0.000000 0.012227 0.000000 0.083215
#
#
# Mechanical properties :
#
#
# Convention : Reuss Voigt Hill
#
# Bulk Modulus (GPa) = 61.95609 76.06151 69.00880
# Shear Modulus (GPa) = 18.72685 29.67661 24.20173
#
# Velocity S-wave (km/s) = 3.10285 3.90603 3.52738
# Velocity P-wave (km/s) = 6.68500 7.71018 7.21582
#
# Compressibility (1/GPa) = 0.01614046
#
# Stress axis : x y z
#
# Youngs Moduli (GPa) = 49.72090 117.22295 31.82158
#
# Poissons Ratio (x) = 0.37230 0.62245
# Poissons Ratio (y) = 0.15791 -0.02459
# Poissons Ratio (z) = 0.97258 -0.09060
#
# Static dielectric constant tensor:
#      x y z
#    x 3.625430 0.000000 -0.172220 
#    y 0.000000 2.932110 0.000000 
#    z -0.172220 0.000000 3.078200 
# 
# 
# High freq. dielectric constant tensor:
#      x y z
#    x 1.760780 0.000000 -0.013150 
#    y 0.000000 1.763040 0.000000 
#    z -0.013150 0.000000 1.760340 
# 
# From -- ./inp_files/23744.got.cif
#   From: 2010.03.12/outbox.cif.g09.slc.cpg/sg14_12_cif.got.tgz:23744.got - 2010.03.31 13:35:05.
