data_PCOD8127929
_publ_section_title
;
Structure prediction by ZEFSAII (Michael W. Deem and Ramdas Pophale) SiO2 
 PCOD8127929
Probable space group: P 21/C
;
_chemical_formula_sum "Si O2"
_cell_formula_units_Z 20
_cell_length_a 6.452230
_cell_length_b 9.857339
_cell_length_c 18.816824
_cell_angle_alpha 90.000000
_cell_angle_beta 128.365660
_cell_angle_gamma 90.000000
_cell_volume 938.357339
_symmetry_space_group_name_H-M "P 21/C"
_symmetry_group_IT_number 14
_symmetry_cell_setting 'monoclinic'
loop_
_space_group_symop_operation_xyz
x,y,z
-x,1/2+y,1/2-z
-x,-y,-z
x,1/2-y,1/2+z
loop_
_atom_site_type_symbol
_atom_site_label
_atom_site_fract_x
_atom_site_fract_y
_atom_site_fract_z
Si Si1 0.216590 0.599143 0.011254
Si Si2 0.750252 0.465912 0.145473
Si Si3 0.199820 0.611939 0.569384
Si Si4 0.329623 0.990502 0.769104
Si Si5 0.384285 0.693172 0.752075
O O1 0.506959 0.568364 0.105322
O O2 0.153187 0.755335 0.012536
O O3 0.231626 0.584613 0.930549
O O4 0.000000 0.500000 0.000000
O O5 0.717239 0.337985 0.190464
O O6 0.026408 0.537939 0.225424
O O7 0.496057 0.545649 0.626826
O O8 0.161685 0.654256 0.644781
O O9 0.000000 0.500000 0.500000
O O10 0.352630 0.104344 0.710841
O O11 0.454526 0.851840 0.764713
#
# Coordination Sequence:
#
# PCOD8127929 Si02
#       5
#     4   4   4   4   4
#     4  11  25  46  70 100 140 175 235 279 352 402
#     4  11  24  41  75  99 130 186 232 282 333 422
#     4  10  25  43  67 100 139 179 223 286 342 404
#     4  10  25  43  71  97 138 183 229 280 345 404
#     4  10  23  43  68  98 136 179 228 271 352 399
#
# _framework density 21.313839999999999
#
# number of rings (size 3 to 8) (size 9 to 14) (size 15 to 20)
#    1.200    0.400    0.000    3.600    8.400    1.600 
#    0.000    2.000    0.000    0.000    0.000    0.000 
#    0.000    0.000    0.000    0.000    0.000    0.000 
#
# Total GULP energy -247797.364311 kJ/mol
# GULP energy per Si atom -12389.868216 kJ/mol
# Density = 2.126533 g / cm^3
# Si number density = 21.313840 Si / 1000 Ang^3
#
#
#
# Elastic Constant Matrix: (Units=GPa)
#
#
# Indices 1 2 3 4 5 6 
#
# 1 103.8597 47.0597 34.3185 0.0000 22.8048 0.0000
# 2 47.0597 168.0695 29.5284 0.0000 23.9588 0.0000
# 3 34.3185 29.5284 79.4616 0.0000 17.8001 0.0000
# 4 0.0000 0.0000 0.0000 29.2499 0.0000 -2.6595
# 5 22.8048 23.9588 17.8001 0.0000 39.9889 0.0000
# 6 0.0000 0.0000 0.0000 -2.6595 0.0000 25.5295
#
#
#
# Elastic Compliance Matrix: (Units=1/GPa)
#
#
# Indices 1 2 3 4 5 6 
#
# 1 0.012857 -0.002336 -0.003727 0.000000 -0.004273 0.000000
# 2 -0.002336 0.007147 -0.001096 0.000000 -0.002463 0.000000
# 3 -0.003727 -0.001096 0.015527 0.000000 -0.004129 0.000000
# 4 0.000000 0.000000 0.000000 0.034515 0.000000 0.003595
# 5 -0.004273 -0.002463 -0.004129 0.000000 0.030757 0.000000
# 6 0.000000 0.000000 0.000000 0.003595 0.000000 0.039545
#
#
# Mechanical properties :
#
#
# Convention : Reuss Voigt Hill
#
# Bulk Modulus (GPa) = 47.14056 63.68934 55.41495
# Shear Modulus (GPa) = 30.91444 34.98597 32.95020
#
# Velocity S-wave (km/s) = 3.81260 4.05590 3.93613
# Velocity P-wave (km/s) = 6.44566 7.20280 6.83472
#
# Compressibility (1/GPa) = 0.02121316
#
# Stress axis : x y z
#
# Youngs Moduli (GPa) = 77.78047 139.90924 64.40555
#
# Poissons Ratio (x) = 0.32681 0.24006
# Poissons Ratio (y) = 0.18168 0.07056
# Poissons Ratio (z) = 0.28992 0.15328
#
# Static dielectric constant tensor:
#      x y z
#    x 3.738180 0.000000 0.131260 
#    y 0.000000 3.789960 0.000000 
#    z 0.131260 0.000000 3.962000 
# 
# 
# High freq. dielectric constant tensor:
#      x y z
#    x 1.814130 0.000000 0.004050 
#    y 0.000000 1.839040 0.000000 
#    z 0.004050 0.000000 1.844610 
# 
# From -- ./inp_files/52895.got.cif
#   From: 2010.03.12/outbox.cif.g09.slc.cpg/sg14_27_cif.got.tgz:52895.got - 2010.03.31 13:35:05.
