data_PCOD8127888
_publ_section_title
;
Structure prediction by ZEFSAII (Michael W. Deem and Ramdas Pophale) SiO2 
 PCOD8127888
Probable space group: P 21/C
;
_chemical_formula_sum "Si O2"
_cell_formula_units_Z 32
_cell_length_a 12.636537
_cell_length_b 18.545470
_cell_length_c 13.976459
_cell_angle_alpha 90.000000
_cell_angle_beta 27.727714
_cell_angle_gamma 90.000000
_cell_volume 1523.941734
_symmetry_space_group_name_H-M "P 21/C"
_symmetry_group_IT_number 14
_symmetry_cell_setting 'monoclinic'
loop_
_space_group_symop_operation_xyz
x,y,z
-x,1/2+y,1/2-z
-x,-y,-z
x,1/2-y,1/2+z
loop_
_atom_site_type_symbol
_atom_site_label
_atom_site_fract_x
_atom_site_fract_y
_atom_site_fract_z
Si Si1 0.499356 0.348587 0.362705
Si Si2 0.944025 0.431687 0.981615
Si Si3 0.262779 0.337105 0.133060
Si Si4 0.715220 0.803440 0.778623
Si Si5 0.173825 0.579788 0.485044
Si Si6 0.921360 0.940503 0.838518
Si Si7 0.336639 0.932714 0.646573
Si Si8 0.522984 0.794483 0.725371
O O1 0.480118 0.330868 0.491608
O O2 0.252443 0.373393 0.521194
O O3 0.578645 0.279354 0.237515
O O4 0.680490 0.411956 0.205744
O O5 0.095355 0.363620 0.891396
O O6 0.989097 0.456327 0.838377
O O7 0.000000 0.500000 0.000000
O O8 0.173586 0.267197 0.261542
O O9 0.090262 0.401945 0.288381
O O10 0.511184 0.360222 0.973624
O O11 0.281203 0.322073 0.004219
O O12 0.618096 0.779808 0.754300
O O13 0.220045 0.509965 0.512997
O O14 0.210308 0.556413 0.347544
O O15 0.327730 0.646143 0.394527
O O16 0.142970 0.921949 0.723002
O O17 0.500000 0.000000 0.500000
#
# Coordination Sequence:
#
# PCOD8127888 Si02
#       8
#     4   4   4   4   4   4   4   4
#     4  10  25  47  63  99 133 171 226 270 332 397
#     4  11  27  43  69  94 133 173 225 277 326 402
#     4  10  23  43  63  96 135 164 223 266 327 398
#     4  10  24  43  66  97 127 179 222 271 331 392
#     4  11  24  40  67  98 129 171 213 269 329 392
#     4  11  26  40  69  97 131 173 216 269 338 386
#     4  11  24  40  64 100 131 169 214 268 330 399
#     4  10  24  42  69  93 130 174 217 273 322 393
#
# _framework density 20.998177999999999
#
# number of rings (size 3 to 8) (size 9 to 14) (size 15 to 20)
#    0.000    1.500    1.250    1.125   10.500    1.000 
#    0.000    0.000    0.000    0.000    0.000    0.000 
#    0.000    0.000    0.000    0.000    0.000    0.000 
#
# Total GULP energy -396899.310065 kJ/mol
# GULP energy per Si atom -12403.103440 kJ/mol
# Density = 2.095038 g / cm^3
# Si number density = 20.998178 Si / 1000 Ang^3
#
#
#
# Elastic Constant Matrix: (Units=GPa)
#
#
# Indices 1 2 3 4 5 6 
#
# 1 107.7932 30.2233 50.1587 0.0000 24.2652 0.0000
# 2 30.2233 99.9093 36.3251 0.0000 11.2510 0.0000
# 3 50.1587 36.3251 96.8767 0.0000 14.3424 0.0000
# 4 0.0000 0.0000 0.0000 45.1680 0.0000 0.5927
# 5 24.2652 11.2510 14.3424 0.0000 30.5283 0.0000
# 6 0.0000 0.0000 0.0000 0.5927 0.0000 31.4073
#
#
#
# Elastic Compliance Matrix: (Units=1/GPa)
#
#
# Indices 1 2 3 4 5 6 
#
# 1 0.014065 -0.001312 -0.005596 0.000000 -0.008067 0.000000
# 2 -0.001312 0.011877 -0.003526 0.000000 -0.001678 0.000000
# 3 -0.005596 -0.003526 0.014714 0.000000 -0.001166 0.000000
# 4 0.000000 0.000000 0.000000 0.022145 0.000000 -0.000418
# 5 -0.008067 -0.001678 -0.001166 0.000000 0.040334 0.000000
# 6 0.000000 0.000000 0.000000 -0.000418 0.000000 0.031848
#
#
# Mechanical properties :
#
#
# Convention : Reuss Voigt Hill
#
# Bulk Modulus (GPa) = 50.53338 59.77704 55.15521
# Shear Modulus (GPa) = 30.77948 33.94552 32.36250
#
# Velocity S-wave (km/s) = 3.83275 4.02505 3.93008
# Velocity P-wave (km/s) = 6.61094 7.08032 6.84965
#
# Compressibility (1/GPa) = 0.01978890
#
# Stress axis : x y z
#
# Youngs Moduli (GPa) = 71.10029 84.19823 67.96084
#
# Poissons Ratio (x) = 0.11044 0.38031
# Poissons Ratio (y) = 0.09326 0.23961
# Poissons Ratio (z) = 0.39788 0.29686
#
# Static dielectric constant tensor:
#      x y z
#    x 3.719290 0.000000 0.140180 
#    y 0.000000 3.796470 0.000000 
#    z 0.140180 0.000000 3.910570 
# 
# 
# High freq. dielectric constant tensor:
#      x y z
#    x 1.814880 0.000000 0.011290 
#    y 0.000000 1.836340 0.000000 
#    z 0.011290 0.000000 1.833260 
# 
# From -- ./inp_files/30723.got.cif
#   From: 2010.03.12/outbox.cif.g09.slc.cpg/sg14_16_cif.got.tgz:30723.got - 2010.03.31 13:35:05.
