data_PCOD8127826
_publ_section_title
;
Structure prediction by ZEFSAII (Michael W. Deem and Ramdas Pophale) SiO2 
 PCOD8127826
Probable space group: P 21/C
;
_chemical_formula_sum "Si O2"
_cell_formula_units_Z 20
_cell_length_a 18.496264
_cell_length_b 6.451573
_cell_length_c 9.788594
_cell_angle_alpha 90.000000
_cell_angle_beta 125.706042
_cell_angle_gamma 90.000000
_cell_volume 948.500874
_symmetry_space_group_name_H-M "P 21/C"
_symmetry_group_IT_number 14
_symmetry_cell_setting 'monoclinic'
loop_
_space_group_symop_operation_xyz
x,y,z
-x,1/2+y,1/2-z
-x,-y,-z
x,1/2-y,1/2+z
loop_
_atom_site_type_symbol
_atom_site_label
_atom_site_fract_x
_atom_site_fract_y
_atom_site_fract_z
Si Si1 0.380353 0.912501 0.938455
Si Si2 0.889991 0.459021 0.516100
Si Si3 0.689679 0.395266 0.363139
Si Si4 0.978955 0.198014 0.387526
Si Si5 0.552885 0.805609 0.616173
O O1 0.350680 0.797585 0.765939
O O2 0.391096 0.159583 0.927142
O O3 0.306966 0.846388 0.971036
O O4 0.477283 0.837112 0.102381
O O5 0.784425 0.463679 0.410714
O O6 0.914375 0.344280 0.402918
O O7 0.931181 0.347366 0.692700
O O8 0.927480 0.692151 0.546143
O O9 0.626727 0.598789 0.296555
O O10 0.000000 0.000000 0.500000
O O11 0.500000 0.000000 0.500000
#
# Coordination Sequence:
#
# PCOD8127826 Si02
#       5
#     4   4   4   4   4
#     4  10  23  42  65  94 134 171 217 270 324 382
#     4  11  24  42  67 100 130 171 220 268 335 397
#     4  11  24  40  67 100 127 169 221 269 321 396
#     4  11  23  45  68  93 132 174 212 275 338 398
#     4   9  22  40  61  91 132 177 213 261 323 379
#
# _framework density 21.085908
#
# number of rings (size 3 to 8) (size 9 to 14) (size 15 to 20)
#    0.000    1.600    2.000    1.200    8.400    4.800 
#    0.000    0.000    0.000    0.000    0.000    0.000 
#    0.000    0.000    0.000    0.000    0.000    0.000 
#
# Total GULP energy -247841.845924 kJ/mol
# GULP energy per Si atom -12392.092296 kJ/mol
# Density = 2.103792 g / cm^3
# Si number density = 21.085908 Si / 1000 Ang^3
#
#
#
# Elastic Constant Matrix: (Units=GPa)
#
#
# Indices 1 2 3 4 5 6 
#
# 1 119.8484 33.3622 32.8667 0.0000 -2.0763 0.0000
# 2 33.3622 116.6687 39.9144 0.0000 -2.8074 0.0000
# 3 32.8667 39.9144 63.7156 0.0000 -2.7340 0.0000
# 4 0.0000 0.0000 0.0000 28.2658 0.0000 -4.5382
# 5 -2.0763 -2.8074 -2.7340 0.0000 42.9498 0.0000
# 6 0.0000 0.0000 0.0000 -4.5382 0.0000 32.3436
#
#
#
# Elastic Compliance Matrix: (Units=1/GPa)
#
#
# Indices 1 2 3 4 5 6 
#
# 1 0.009890 -0.001377 -0.004234 0.000000 0.000119 0.000000
# 2 -0.001377 0.011104 -0.006235 0.000000 0.000262 0.000000
# 3 -0.004234 -0.006235 0.021818 0.000000 0.000777 0.000000
# 4 0.000000 0.000000 0.000000 0.036194 0.000000 0.005078
# 5 0.000119 0.000262 0.000777 0.000000 0.023355 0.000000
# 6 0.000000 0.000000 0.000000 0.005078 0.000000 0.031631
#
#
# Mechanical properties :
#
#
# Convention : Reuss Voigt Hill
#
# Bulk Modulus (GPa) = 52.29833 56.94658 54.62246
# Shear Modulus (GPa) = 30.47707 33.65114 32.06410
#
# Velocity S-wave (km/s) = 3.80593 3.99921 3.90377
# Velocity P-wave (km/s) = 6.64604 6.95633 6.80295
#
# Compressibility (1/GPa) = 0.01912107
#
# Stress axis : x y z
#
# Youngs Moduli (GPa) = 101.10864 90.05497 45.83362
#
# Poissons Ratio (x) = 0.12398 0.19407
# Poissons Ratio (y) = 0.13920 0.28577
# Poissons Ratio (z) = 0.42812 0.56148
#
# Static dielectric constant tensor:
#      x y z
#    x 3.936960 0.000000 0.024470 
#    y 0.000000 4.159410 0.000000 
#    z 0.024470 0.000000 3.787600 
# 
# 
# High freq. dielectric constant tensor:
#      x y z
#    x 1.832720 0.000000 -0.003460 
#    y 0.000000 1.833420 0.000000 
#    z -0.003460 0.000000 1.815930 
# 
# From -- ./inp_files/17262.got.cif
#   From: 2010.03.12/outbox.cif.g09.slc.cpg/sg14_9_cif.got.tgz:17262.got - 2010.03.31 13:35:05.
