data_PCOD8127242
_publ_section_title
;
Structure prediction by ZEFSAII (Michael W. Deem and Ramdas Pophale) SiO2 
 PCOD8127242
Probable space group: P 21/C
;
_chemical_formula_sum "Si O2"
_cell_formula_units_Z 28
_cell_length_a 9.289665
_cell_length_b 9.346394
_cell_length_c 22.028648
_cell_angle_alpha 90.000000
_cell_angle_beta 135.103425
_cell_angle_gamma 90.000000
_cell_volume 1349.993317
_symmetry_space_group_name_H-M "P 21/C"
_symmetry_group_IT_number 14
_symmetry_cell_setting 'monoclinic'
loop_
_space_group_symop_operation_xyz
x,y,z
-x,1/2+y,1/2-z
-x,-y,-z
x,1/2-y,1/2+z
loop_
_atom_site_type_symbol
_atom_site_label
_atom_site_fract_x
_atom_site_fract_y
_atom_site_fract_z
Si Si1 0.400932 0.917746 0.525507
Si Si2 0.665818 0.098014 0.206579
Si Si3 0.606485 0.762070 0.294833
Si Si4 0.953388 0.146485 0.761105
Si Si5 0.960084 0.590444 0.853855
Si Si6 0.405167 0.016565 0.294779
Si Si7 0.403917 0.391570 0.422154
O O1 0.460150 0.997798 0.604769
O O2 0.458450 0.750264 0.540080
O O3 0.161181 0.944694 0.450309
O O4 0.500000 0.000000 0.500000
O O5 0.452986 0.167025 0.164748
O O6 0.816916 0.211188 0.220597
O O7 0.794663 0.038308 0.302577
O O8 0.595752 0.972405 0.141587
O O9 0.848780 0.788577 0.361657
O O10 0.559586 0.677309 0.218446
O O11 0.471851 0.906317 0.261470
O O12 0.994502 0.125672 0.702476
O O13 0.167039 0.156437 0.862617
O O14 0.828459 0.015230 0.754405
O O15 0.500000 0.500000 0.500000
#
# Coordination Sequence:
#
# PCOD8127242 Si02
#       7
#     4   4   4   4   4   4   4
#     4  12  25  43  69 107 137 174 231 295 352 395
#     4  10  22  45  64  97 137 185 225 278 341 418
#     4  11  24  43  66  96 134 179 222 273 345 418
#     4  10  22  40  73  94 130 178 234 278 344 398
#     4  11  22  40  69  96 132 176 225 279 345 409
#     4  11  24  44  70  95 134 184 224 287 337 420
#     4  11  25  40  69 106 137 173 235 297 338 400
#
# _framework density 20.740843000000002
#
# number of rings (size 3 to 8) (size 9 to 14) (size 15 to 20)
#    0.000    1.143    2.857    3.429   10.000    0.571 
#    0.000    2.143    0.000    0.000    0.000    0.000 
#    0.000    0.000    0.000    0.000    0.000    0.000 
#
# Total GULP energy -346899.373725 kJ/mol
# GULP energy per Si atom -12389.263347 kJ/mol
# Density = 2.069364 g / cm^3
# Si number density = 20.740843 Si / 1000 Ang^3
#
#
#
# Elastic Constant Matrix: (Units=GPa)
#
#
# Indices 1 2 3 4 5 6 
#
# 1 136.5161 40.4808 26.7751 0.0000 15.1264 0.0000
# 2 40.4808 100.3021 23.4763 0.0000 0.3645 0.0000
# 3 26.7751 23.4763 83.9521 0.0000 18.1686 0.0000
# 4 0.0000 0.0000 0.0000 31.5521 0.0000 -2.9187
# 5 15.1264 0.3645 18.1686 0.0000 22.7126 0.0000
# 6 0.0000 0.0000 0.0000 -2.9187 0.0000 46.1133
#
#
#
# Elastic Compliance Matrix: (Units=1/GPa)
#
#
# Indices 1 2 3 4 5 6 
#
# 1 0.009103 -0.003476 -0.000764 0.000000 -0.005396 0.000000
# 2 -0.003476 0.012132 -0.003317 0.000000 0.004773 0.000000
# 3 -0.000764 -0.003317 0.015675 0.000000 -0.011977 0.000000
# 4 0.000000 0.000000 0.000000 0.031880 0.000000 0.002018
# 5 -0.005396 0.004773 -0.011977 0.000000 0.057126 0.000000
# 6 0.000000 0.000000 0.000000 0.002018 0.000000 0.021813
#
#
# Mechanical properties :
#
#
# Convention : Reuss Voigt Hill
#
# Bulk Modulus (GPa) = 45.87778 55.80386 50.84082
# Shear Modulus (GPa) = 29.39306 35.41148 32.40227
#
# Velocity S-wave (km/s) = 3.76860 4.13647 3.95681
# Velocity P-wave (km/s) = 6.41124 7.05532 6.74098
#
# Compressibility (1/GPa) = 0.02179704
#
# Stress axis : x y z
#
# Youngs Moduli (GPa) = 109.84818 82.42886 63.79723
#
# Poissons Ratio (x) = 0.28650 0.04872
# Poissons Ratio (y) = 0.38180 0.21162
# Poissons Ratio (z) = 0.08388 0.27342
#
# Static dielectric constant tensor:
#      x y z
#    x 4.090590 0.000000 0.230250 
#    y 0.000000 4.098150 0.000000 
#    z 0.230250 0.000000 3.777260 
# 
# 
# High freq. dielectric constant tensor:
#      x y z
#    x 1.831010 0.000000 0.004740 
#    y 0.000000 1.824690 0.000000 
#    z 0.004740 0.000000 1.786450 
# 
# From -- ./inp_files/65026.got.cif
#   From: 2010.03.12/outbox.cif.g09.slc.cpg/sg14_33_cif.got.tgz:65026.got - 2010.03.31 13:35:05.
