data_PCOD8127370
_publ_section_title
;
Structure prediction by ZEFSAII (Michael W. Deem and Ramdas Pophale) SiO2 
 PCOD8127370
Probable space group: P 21/C
;
_chemical_formula_sum "Si O2"
_cell_formula_units_Z 20
_cell_length_a 7.558062
_cell_length_b 12.507271
_cell_length_c 13.591596
_cell_angle_alpha 90.000000
_cell_angle_beta 55.946771
_cell_angle_gamma 90.000000
_cell_volume 1064.499017
_symmetry_space_group_name_H-M "P 21/C"
_symmetry_group_IT_number 14
_symmetry_cell_setting 'monoclinic'
loop_
_space_group_symop_operation_xyz
x,y,z
-x,1/2+y,1/2-z
-x,-y,-z
x,1/2-y,1/2+z
loop_
_atom_site_type_symbol
_atom_site_label
_atom_site_fract_x
_atom_site_fract_y
_atom_site_fract_z
Si Si1 0.495856 0.102033 0.271067
Si Si2 0.127333 0.076548 0.531758
Si Si3 0.134677 0.950779 0.725043
Si Si4 0.211383 0.727945 0.768576
Si Si5 0.671295 0.017586 0.863886
O O1 0.332563 0.121796 0.411914
O O2 0.680676 0.019305 0.252218
O O3 0.614039 0.215890 0.212748
O O4 0.374884 0.059492 0.213823
O O5 0.980852 0.176487 0.609473
O O6 0.197583 0.005700 0.603044
O O7 0.000000 0.000000 0.500000
O O8 0.124202 0.820391 0.721183
O O9 0.905168 0.991990 0.833795
O O10 0.336533 0.639909 0.666678
O O11 0.500000 0.000000 0.000000
#
# Coordination Sequence:
#
# PCOD8127370 Si02
#       5
#     4   4   4   4   4
#     4  10  22  42  63  90 123 165 204 250 314 360
#     4  11  19  41  68  87 128 157 211 262 290 375
#     4   9  22  40  60  95 118 159 211 241 316 361
#     4   9  23  39  59  97 117 163 212 236 319 371
#     4  11  23  44  59  91 132 154 204 269 292 362
#
# _framework density 18.788181000000002
#
# number of rings (size 3 to 8) (size 9 to 14) (size 15 to 20)
#    1.200    0.800    4.000    0.600    2.800    2.400 
#    7.200    0.000    0.000    0.000    0.000    0.000 
#    0.000    0.000    0.000    0.000    0.000    0.000 
#
# Total GULP energy -247785.511160 kJ/mol
# GULP energy per Si atom -12389.275558 kJ/mol
# Density = 1.874542 g / cm^3
# Si number density = 18.788181 Si / 1000 Ang^3
#
#
#
# Elastic Constant Matrix: (Units=GPa)
#
#
# Indices 1 2 3 4 5 6 
#
# 1 62.4857 5.8947 25.4020 0.0000 -18.5173 0.0000
# 2 5.8947 99.0095 25.9514 0.0000 -5.5945 0.0000
# 3 25.4020 25.9514 134.9274 0.0000 -18.2684 0.0000
# 4 0.0000 0.0000 0.0000 18.6489 0.0000 -6.8456
# 5 -18.5173 -5.5945 -18.2684 0.0000 24.1355 0.0000
# 6 0.0000 0.0000 0.0000 -6.8456 0.0000 35.9253
#
#
#
# Elastic Compliance Matrix: (Units=1/GPa)
#
#
# Indices 1 2 3 4 5 6 
#
# 1 0.021184 0.000099 -0.002010 0.000000 0.014755 0.000000
# 2 0.000099 0.010659 -0.001921 0.000000 0.001093 0.000000
# 3 -0.002010 -0.001921 0.008791 0.000000 0.004667 0.000000
# 4 0.000000 0.000000 0.000000 0.057655 0.000000 0.010986
# 5 0.014755 0.001093 0.004667 0.000000 0.056539 0.000000
# 6 0.000000 0.000000 0.000000 0.010986 0.000000 0.029929
#
#
# Mechanical properties :
#
#
# Convention : Reuss Voigt Hill
#
# Bulk Modulus (GPa) = 30.32900 45.65764 37.99332
# Shear Modulus (GPa) = 24.58089 31.68689 28.13389
#
# Velocity S-wave (km/s) = 3.62099 4.11120 3.87386
# Velocity P-wave (km/s) = 5.80170 6.84762 6.34625
#
# Compressibility (1/GPa) = 0.03297174
#
# Stress axis : x y z
#
# Youngs Moduli (GPa) = 47.20617 93.81412 113.75196
#
# Poissons Ratio (x) = -0.00931 0.22859
# Poissons Ratio (y) = -0.00468 0.21850
# Poissons Ratio (z) = 0.09486 0.18021
#
# Static dielectric constant tensor:
#      x y z
#    x 3.472090 0.000000 -0.288850 
#    y 0.000000 3.493370 0.000000 
#    z -0.288850 0.000000 3.098870 
# 
# 
# High freq. dielectric constant tensor:
#      x y z
#    x 1.730320 0.000000 -0.020100 
#    y 0.000000 1.724340 0.000000 
#    z -0.020100 0.000000 1.726650 
# 
# From -- ./inp_files/39513.got.cif
#   From: 2010.03.12/outbox.cif.g09.slc.cpg/sg14_20_cif.got.tgz:39513.got - 2010.03.31 13:35:05.
