data_PCOD8127084
_publ_section_title
;
Structure prediction by ZEFSAII (Michael W. Deem and Ramdas Pophale) SiO2 
 PCOD8127084
Probable space group: P 21/C
;
_chemical_formula_sum "Si O2"
_cell_formula_units_Z 32
_cell_length_a 30.315825
_cell_length_b 8.607252
_cell_length_c 16.096459
_cell_angle_alpha 90.000000
_cell_angle_beta 158.470572
_cell_angle_gamma 90.000000
_cell_volume 1541.365151
_symmetry_space_group_name_H-M "P 21/C"
_symmetry_group_IT_number 14
_symmetry_cell_setting 'monoclinic'
loop_
_space_group_symop_operation_xyz
x,y,z
-x,1/2+y,1/2-z
-x,-y,-z
x,1/2-y,1/2+z
loop_
_atom_site_type_symbol
_atom_site_label
_atom_site_fract_x
_atom_site_fract_y
_atom_site_fract_z
Si Si1 0.681245 0.807349 0.870305
Si Si2 0.471442 0.523343 0.087665
Si Si3 0.876232 0.601400 0.466429
Si Si4 0.778825 0.050011 0.941340
Si Si5 0.749085 0.517634 0.080211
Si Si6 0.852635 0.383913 0.100448
Si Si7 0.282593 0.366149 0.232167
Si Si8 0.475899 0.673213 0.267505
O O1 0.561653 0.904445 0.678979
O O2 0.662353 0.699920 0.756829
O O3 0.787467 0.932418 0.035495
O O4 0.715416 0.699201 0.008045
O O5 0.454937 0.645028 0.133499
O O6 0.518054 0.356817 0.202775
O O7 0.344549 0.501197 0.820932
O O8 0.884244 0.483406 0.559103
O O9 0.812954 0.507713 0.280885
O O10 0.801005 0.751497 0.361547
O O11 0.008469 0.651994 0.671760
O O12 0.780345 0.223446 0.976733
O O13 0.840531 0.466921 0.168072
O O14 0.632467 0.407354 0.871773
O O15 0.797370 0.483623 0.928556
O O16 0.398768 0.411791 0.489684
#
# Coordination Sequence:
#
# PCOD8127084 Si02
#       8
#     4   4   4   4   4   4   4   4
#     4  10  22  39  61  89 129 160 203 260 313 381
#     4  12  23  38  61  91 129 166 199 255 324 380
#     4  11  21  47  62  90 129 169 212 265 310 374
#     4  11  23  42  62  92 126 166 212 259 312 371
#     4  11  24  41  64  96 126 169 207 262 325 377
#     4  11  25  39  68  91 124 170 220 257 311 382
#     4  10  23  39  62  93 123 164 211 260 318 371
#     4  12  23  40  62  94 131 160 206 261 322 389
#
# _framework density 20.760815000000001
#
# number of rings (size 3 to 8) (size 9 to 14) (size 15 to 20)
#    0.000    1.000    3.750    3.750    5.250    1.000 
#    0.000    0.625    0.000    0.000    0.000    0.000 
#    0.000    0.000    0.000    0.000    0.000    0.000 
#
# Total GULP energy -396820.896784 kJ/mol
# GULP energy per Si atom -12400.653025 kJ/mol
# Density = 2.071356 g / cm^3
# Si number density = 20.760815 Si / 1000 Ang^3
#
#
#
# Elastic Constant Matrix: (Units=GPa)
#
#
# Indices 1 2 3 4 5 6 
#
# 1 70.2713 22.6990 23.8049 0.0000 20.6246 0.0000
# 2 22.6990 120.3644 30.0225 0.0000 3.2813 0.0000
# 3 23.8049 30.0225 86.4647 0.0000 17.5849 0.0000
# 4 0.0000 0.0000 0.0000 26.9047 0.0000 1.0473
# 5 20.6246 3.2813 17.5849 0.0000 27.7361 0.0000
# 6 0.0000 0.0000 0.0000 1.0473 0.0000 26.3747
#
#
#
# Elastic Compliance Matrix: (Units=1/GPa)
#
#
# Indices 1 2 3 4 5 6 
#
# 1 0.019612 -0.002913 -0.001713 0.000000 -0.013153 0.000000
# 2 -0.002913 0.009556 -0.003130 0.000000 0.003020 0.000000
# 3 -0.001713 -0.003130 0.014683 0.000000 -0.007665 0.000000
# 4 0.000000 0.000000 0.000000 0.037226 0.000000 -0.001478
# 5 -0.013153 0.003020 -0.007665 0.000000 0.050337 0.000000
# 6 0.000000 0.000000 0.000000 -0.001478 0.000000 0.037974
#
#
# Mechanical properties :
#
#
# Convention : Reuss Voigt Hill
#
# Bulk Modulus (GPa) = 35.28766 47.79480 41.54123
# Shear Modulus (GPa) = 25.72734 29.57469 27.65102
#
# Velocity S-wave (km/s) = 3.52408 3.77841 3.65346
# Velocity P-wave (km/s) = 5.79595 6.48897 6.15223
#
# Compressibility (1/GPa) = 0.02833852
#
# Stress axis : x y z
#
# Youngs Moduli (GPa) = 50.98882 104.64786 68.10679
#
# Poissons Ratio (x) = 0.30481 0.11668
# Poissons Ratio (y) = 0.14851 0.21320
# Poissons Ratio (z) = 0.08735 0.32758
#
# Static dielectric constant tensor:
#      x y z
#    x 3.957230 0.000000 0.105380 
#    y 0.000000 3.784670 0.000000 
#    z 0.105380 0.000000 3.566040 
# 
# 
# High freq. dielectric constant tensor:
#      x y z
#    x 1.828060 0.000000 0.013830 
#    y 0.000000 1.817740 0.000000 
#    z 0.013830 0.000000 1.793010 
# 
# From -- ./inp_files/62681.got.cif
#   From: 2010.03.12/outbox.cif.g09.slc.cpg/sg14_32_cif.got.tgz:62681.got - 2010.03.31 13:35:05.
