data_PCOD8127012
_publ_section_title
;
Structure prediction by ZEFSAII (Michael W. Deem and Ramdas Pophale) SiO2 
 PCOD8127012
Probable space group: P 21/C
;
_chemical_formula_sum "Si O2"
_cell_formula_units_Z 28
_cell_length_a 10.537339
_cell_length_b 11.411338
_cell_length_c 22.319380
_cell_angle_alpha 90.000000
_cell_angle_beta 33.577853
_cell_angle_gamma 90.000000
_cell_volume 1484.326352
_symmetry_space_group_name_H-M "P 21/C"
_symmetry_group_IT_number 14
_symmetry_cell_setting 'monoclinic'
loop_
_space_group_symop_operation_xyz
x,y,z
-x,1/2+y,1/2-z
-x,-y,-z
x,1/2-y,1/2+z
loop_
_atom_site_type_symbol
_atom_site_label
_atom_site_fract_x
_atom_site_fract_y
_atom_site_fract_z
Si Si1 0.409459 0.775193 0.211043
Si Si2 0.969766 0.453188 0.172365
Si Si3 0.677354 0.628551 0.879793
Si Si4 0.175227 0.134544 0.883070
Si Si5 0.441873 0.096524 0.445261
Si Si6 0.734422 0.692281 0.256665
Si Si7 0.714898 0.119979 0.134362
O O1 0.268669 0.888841 0.246906
O O2 0.665770 0.805130 0.130050
O O3 0.440475 0.689627 0.143468
O O4 0.270495 0.717856 0.320312
O O5 0.926559 0.592682 0.189903
O O6 0.066553 0.410525 0.199141
O O7 0.165730 0.423028 0.045054
O O8 0.568664 0.526233 0.881892
O O9 0.679774 0.750322 0.842707
O O10 0.516118 0.640931 0.002647
O O11 0.172639 0.203368 0.821659
O O12 0.271161 0.003483 0.836317
O O13 0.918310 0.135331 0.007724
O O14 0.515172 0.630485 0.313690
#
# Coordination Sequence:
#
# PCOD8127012 Si02
#       7
#     4   4   4   4   4   4   4
#     4  11  20  39  62  85 114 158 193 247 293 347
#     4  10  22  38  60  88 120 149 206 242 283 367
#     4   9  22  38  61  86 118 155 195 243 294 348
#     4  10  22  39  59  86 120 154 190 250 293 347
#     4   9  21  39  60  86 118 152 199 241 290 352
#     4  11  22  40  61  89 118 158 195 245 299 350
#     4  10  22  39  59  86 119 151 199 240 296 351
#
# _framework density 18.863776000000001
#
# number of rings (size 3 to 8) (size 9 to 14) (size 15 to 20)
#    0.857    1.143    1.429    1.714    4.000    0.000 
#    0.000    2.857    0.000    0.000    0.000    0.000 
#    0.000    0.000    0.000    0.000    0.000    0.000 
#
# Total GULP energy -347070.978629 kJ/mol
# GULP energy per Si atom -12395.392094 kJ/mol
# Density = 1.882084 g / cm^3
# Si number density = 18.863776 Si / 1000 Ang^3
#
#
#
# Elastic Constant Matrix: (Units=GPa)
#
#
# Indices 1 2 3 4 5 6 
#
# 1 54.5619 26.5650 25.4916 0.0000 -1.6693 0.0000
# 2 26.5650 88.8089 37.4470 0.0000 -8.9959 0.0000
# 3 25.4916 37.4470 54.1797 0.0000 0.2366 0.0000
# 4 0.0000 0.0000 0.0000 26.7329 0.0000 -1.9171
# 5 -1.6693 -8.9959 0.2366 0.0000 11.0748 0.0000
# 6 0.0000 0.0000 0.0000 -1.9171 0.0000 33.1006
#
#
#
# Elastic Compliance Matrix: (Units=1/GPa)
#
#
# Indices 1 2 3 4 5 6 
#
# 1 0.024229 -0.003271 -0.009144 0.000000 0.001190 0.000000
# 2 -0.003271 0.018508 -0.011318 0.000000 0.014783 0.000000
# 3 -0.009144 -0.011318 0.030631 0.000000 -0.011226 0.000000
# 4 0.000000 0.000000 0.000000 0.037563 0.000000 0.002176
# 5 0.001190 0.014783 -0.011226 0.000000 0.102722 0.000000
# 6 0.000000 0.000000 0.000000 0.002176 0.000000 0.030337
#
#
# Mechanical properties :
#
#
# Convention : Reuss Voigt Hill
#
# Bulk Modulus (GPa) = 38.60681 41.83976 40.22328
# Shear Modulus (GPa) = 16.66166 21.38477 19.02322
#
# Velocity S-wave (km/s) = 2.97520 3.37061 3.17906
# Velocity P-wave (km/s) = 5.68445 6.11360 5.90293
#
# Compressibility (1/GPa) = 0.02590217
#
# Stress axis : x y z
#
# Youngs Moduli (GPa) = 41.27268 54.03002 32.64702
#
# Poissons Ratio (x) = 0.17675 0.29852
# Poissons Ratio (y) = 0.13502 0.36949
# Poissons Ratio (z) = 0.37740 0.61149
#
# Static dielectric constant tensor:
#      x y z
#    x 3.308160 0.000000 -0.077180 
#    y 0.000000 3.475390 0.000000 
#    z -0.077180 0.000000 3.237600 
# 
# 
# High freq. dielectric constant tensor:
#      x y z
#    x 1.726650 0.000000 -0.008670 
#    y 0.000000 1.739010 0.000000 
#    z -0.008670 0.000000 1.724220 
# 
# From -- ./inp_files/73237.got.cif
#   From: 2010.03.12/outbox.cif.g09.slc.cpg/sg14_37_cif.got.tgz:73237.got - 2010.03.31 13:35:05.
