data_PCOD8127308
_publ_section_title
;
Structure prediction by ZEFSAII (Michael W. Deem and Ramdas Pophale) SiO2 
 PCOD8127308
Probable space group: P 21/C
;
_chemical_formula_sum "Si O2"
_cell_formula_units_Z 32
_cell_length_a 9.439389
_cell_length_b 10.999021
_cell_length_c 15.577730
_cell_angle_alpha 90.000000
_cell_angle_beta 116.069140
_cell_angle_gamma 90.000000
_cell_volume 1452.801487
_symmetry_space_group_name_H-M "P 21/C"
_symmetry_group_IT_number 14
_symmetry_cell_setting 'monoclinic'
loop_
_space_group_symop_operation_xyz
x,y,z
-x,1/2+y,1/2-z
-x,-y,-z
x,1/2-y,1/2+z
loop_
_atom_site_type_symbol
_atom_site_label
_atom_site_fract_x
_atom_site_fract_y
_atom_site_fract_z
Si Si1 0.453572 0.840747 0.775405
Si Si2 0.548933 0.637675 0.109917
Si Si3 0.389562 0.865733 0.394638
Si Si4 0.933599 0.194697 0.960238
Si Si5 0.943719 0.134654 0.617621
Si Si6 0.887594 0.098907 0.320412
Si Si7 0.879441 0.660787 0.251821
Si Si8 0.219452 0.446206 0.601921
O O1 0.486210 0.806991 0.683903
O O2 0.420037 0.720055 0.821425
O O3 0.298759 0.926154 0.737034
O O4 0.597059 0.912265 0.858734
O O5 0.524099 0.491822 0.105289
O O6 0.733248 0.672210 0.147172
O O7 0.459117 0.690022 0.002364
O O8 0.202962 0.889189 0.357878
O O9 0.920969 0.268686 0.869146
O O10 0.807305 0.085622 0.931664
O O11 0.883562 0.288341 0.020982
O O12 0.111475 0.143496 0.015711
O O13 0.083154 0.205590 0.703023
O O14 0.023413 0.009530 0.605392
O O15 0.963180 0.102829 0.246070
O O16 0.829913 0.567209 0.312608
#
# Coordination Sequence:
#
# PCOD8127308 Si02
#       8
#     4   4   4   4   4   4   4   4
#     4  11  25  41  70 107 138 182 234 290 350 416
#     4  10  24  44  69  97 135 187 227 286 354 408
#     4  11  23  44  70  98 142 176 236 290 348 417
#     4  10  23  43  73  94 136 181 237 286 348 419
#     4  11  23  44  66 101 134 174 236 286 345 419
#     4  12  24  39  70 103 133 181 229 291 346 415
#     4  10  22  41  66  94 135 180 221 276 349 420
#     4   9  23  46  67  97 136 187 225 285 353 418
#
# _framework density 22.026408
#
# number of rings (size 3 to 8) (size 9 to 14) (size 15 to 20)
#    0.000    1.500    2.500    1.125    7.000    3.000 
#    2.250    0.625    0.000    0.000    0.000    0.000 
#    0.000    0.000    0.000    0.000    0.000    0.000 
#
# Total GULP energy -396798.686133 kJ/mol
# GULP energy per Si atom -12399.958942 kJ/mol
# Density = 2.197628 g / cm^3
# Si number density = 22.026408 Si / 1000 Ang^3
#
#
#
# Elastic Constant Matrix: (Units=GPa)
#
#
# Indices 1 2 3 4 5 6 
#
# 1 139.7168 34.8532 43.5525 0.0000 9.8416 0.0000
# 2 34.8532 100.2669 34.4385 0.0000 -2.0131 0.0000
# 3 43.5525 34.4385 99.8835 0.0000 11.3380 0.0000
# 4 0.0000 0.0000 0.0000 33.6802 0.0000 -0.4741
# 5 9.8416 -2.0131 11.3380 0.0000 33.9192 0.0000
# 6 0.0000 0.0000 0.0000 -0.4741 0.0000 29.8416
#
#
#
# Elastic Compliance Matrix: (Units=1/GPa)
#
#
# Indices 1 2 3 4 5 6 
#
# 1 0.008690 -0.002063 -0.002887 0.000000 -0.001679 0.000000
# 2 -0.002063 0.011942 -0.003499 0.000000 0.002477 0.000000
# 3 -0.002887 -0.003499 0.012895 0.000000 -0.003680 0.000000
# 4 0.000000 0.000000 0.000000 0.029698 0.000000 0.000472
# 5 -0.001679 0.002477 -0.003680 0.000000 0.031346 0.000000
# 6 0.000000 0.000000 0.000000 0.000472 0.000000 0.033518
#
#
# Mechanical properties :
#
#
# Convention : Reuss Voigt Hill
#
# Bulk Modulus (GPa) = 60.13813 62.83949 61.48881
# Shear Modulus (GPa) = 33.21596 34.62308 33.91952
#
# Velocity S-wave (km/s) = 3.88752 3.96901 3.92847
# Velocity P-wave (km/s) = 6.89292 7.04238 6.96805
#
# Compressibility (1/GPa) = 0.01662839
#
# Stress axis : x y z
#
# Youngs Moduli (GPa) = 115.07189 83.73831 77.54990
#
# Poissons Ratio (x) = 0.17273 0.22392
# Poissons Ratio (y) = 0.23736 0.27136
# Poissons Ratio (z) = 0.33227 0.29302
#
# Static dielectric constant tensor:
#      x y z
#    x 4.045070 0.000000 0.219220 
#    y 0.000000 3.871640 0.000000 
#    z 0.219220 0.000000 4.126340 
# 
# 
# High freq. dielectric constant tensor:
#      x y z
#    x 1.866370 0.000000 0.011340 
#    y 0.000000 1.854940 0.000000 
#    z 0.011340 0.000000 1.870220 
# 
# From -- ./inp_files/40366.got.cif
#   From: 2010.03.12/outbox.cif.g09.slc.cpg/sg14_21_cif.got.tgz:40366.got - 2010.03.31 13:35:05.
