data_PCOD8127081
_publ_section_title
;
Structure prediction by ZEFSAII (Michael W. Deem and Ramdas Pophale) SiO2 
 PCOD8127081
Probable space group: P 21/C
;
_chemical_formula_sum "Si O2"
_cell_formula_units_Z 32
_cell_length_a 19.216975
_cell_length_b 8.552787
_cell_length_c 32.676312
_cell_angle_alpha 90.000000
_cell_angle_beta 16.258692
_cell_angle_gamma 90.000000
_cell_volume 1503.641947
_symmetry_space_group_name_H-M "P 21/C"
_symmetry_group_IT_number 14
_symmetry_cell_setting 'monoclinic'
loop_
_space_group_symop_operation_xyz
x,y,z
-x,1/2+y,1/2-z
-x,-y,-z
x,1/2-y,1/2+z
loop_
_atom_site_type_symbol
_atom_site_label
_atom_site_fract_x
_atom_site_fract_y
_atom_site_fract_z
Si Si1 0.205518 0.723244 0.392470
Si Si2 0.581957 0.049925 0.665249
Si Si3 0.259516 0.256834 0.291869
Si Si4 0.240413 0.243200 0.708158
Si Si5 0.109634 0.914329 0.367961
Si Si6 0.294518 0.776753 0.607515
Si Si7 0.081990 0.950087 0.165243
Si Si8 0.390361 0.585696 0.632046
O O1 0.376681 0.856376 0.316072
O O2 0.360162 0.569526 0.296710
O O3 0.095907 0.790240 0.412084
O O4 0.980754 0.674724 0.549122
O O5 0.508964 0.172198 0.670793
O O6 0.832211 0.961209 0.510647
O O7 0.249880 0.306887 0.250061
O O8 0.261179 0.069125 0.296112
O O9 0.480740 0.174750 0.549131
O O10 0.238818 0.430913 0.703883
O O11 0.991002 0.172257 0.829196
O O12 0.249994 0.836695 0.250007
O O13 0.123420 0.643551 0.683892
O O14 0.404124 0.709832 0.587913
O O15 0.139821 0.930467 0.703288
O O16 0.332224 0.038794 0.010636
#
# Coordination Sequence:
#
# PCOD8127081 Si02
#       8
#     4   4   4   4   4   4   4   4
#     4  11  22  39  61  88 119 153 196 238 288 350
#     4  11  22  38  62  85 118 159 189 240 296 334
#     4  10  22  39  61  88 117 152 198 239 286 350
#     4  10  22  39  61  88 117 152 198 239 286 350
#     4  10  23  40  59  88 120 152 196 240 286 349
#     4  11  22  39  61  88 119 153 196 238 288 350
#     4  11  22  38  62  85 118 159 189 240 296 334
#     4  10  23  40  59  88 120 152 196 240 286 349
#
# _framework density 21.281662000000001
#
# number of rings (size 3 to 8) (size 9 to 14) (size 15 to 20)
#    0.000    1.500    0.000    6.750    0.000   13.000 
#    0.000    0.000    0.000    0.000    0.000    0.000 
#    0.000    0.000    0.000    0.000    0.000    0.000 
#
# Total GULP energy -396927.075991 kJ/mol
# GULP energy per Si atom -12403.971125 kJ/mol
# Density = 2.123322 g / cm^3
# Si number density = 21.281662 Si / 1000 Ang^3
#
#
#
# Elastic Constant Matrix: (Units=GPa)
#
#
# Indices 1 2 3 4 5 6 
#
# 1 130.9919 35.5133 72.3122 0.0000 5.4021 0.0000
# 2 35.5133 53.7131 42.9008 0.0000 -3.5172 0.0000
# 3 72.3122 42.9008 108.4521 -0.0001 13.5456 0.0000
# 4 0.0000 0.0000 -0.0001 37.4626 0.0000 -13.5891
# 5 5.4021 -3.5172 13.5456 0.0000 39.5955 0.0000
# 6 0.0000 0.0000 0.0000 -13.5891 0.0000 16.5804
#
#
#
# Elastic Compliance Matrix: (Units=1/GPa)
#
#
# Indices 1 2 3 4 5 6 
#
# 1 0.012290 -0.002148 -0.007429 0.000000 0.000674 0.000000
# 2 -0.002148 0.029223 -0.010957 0.000000 0.006637 0.000000
# 3 -0.007429 -0.010957 0.019329 0.000000 -0.006572 0.000000
# 4 0.000000 0.000000 0.000000 0.037986 0.000000 0.031133
# 5 0.000674 0.006637 -0.006572 0.000000 0.028001 0.000000
# 6 0.000000 0.000000 0.000000 0.031133 0.000000 0.085828
#
#
# Mechanical properties :
#
#
# Convention : Reuss Voigt Hill
#
# Bulk Modulus (GPa) = 50.56906 66.06774 58.31840
# Shear Modulus (GPa) = 19.20734 28.22309 23.71522
#
# Velocity S-wave (km/s) = 3.00747 3.64561 3.34181
# Velocity P-wave (km/s) = 5.98943 6.98802 6.50791
#
# Compressibility (1/GPa) = 0.01977494
#
# Stress axis : x y z
#
# Youngs Moduli (GPa) = 81.37008 34.21905 51.73568
#
# Poissons Ratio (x) = 0.07350 0.38433
# Poissons Ratio (y) = 0.17478 0.56686
# Poissons Ratio (z) = 0.60448 0.37493
#
# Static dielectric constant tensor:
#      x y z
#    x 3.997260 0.000000 0.065940 
#    y 0.000000 3.706450 0.000000 
#    z 0.065940 0.000000 3.956060 
# 
# 
# High freq. dielectric constant tensor:
#      x y z
#    x 1.837440 0.000000 0.000450 
#    y 0.000000 1.824340 0.000000 
#    z 0.000450 0.000000 1.841170 
# 
# From -- ./inp_files/80394.got.cif
#   From: 2010.03.12/outbox.cif.g09.slc.cpg/sg14_41_cif.got.tgz:80394.got - 2010.03.31 13:35:05.
