data_PCOD8127087
_publ_section_title
;
Structure prediction by ZEFSAII (Michael W. Deem and Ramdas Pophale) SiO2 
 PCOD8127087
Probable space group: P 21/C
;
_chemical_formula_sum "Si O2"
_cell_formula_units_Z 32
_cell_length_a 16.005213
_cell_length_b 7.854626
_cell_length_c 13.161860
_cell_angle_alpha 90.000000
_cell_angle_beta 59.192826
_cell_angle_gamma 90.000000
_cell_volume 1421.165655
_symmetry_space_group_name_H-M "P 21/C"
_symmetry_group_IT_number 14
_symmetry_cell_setting 'monoclinic'
loop_
_space_group_symop_operation_xyz
x,y,z
-x,1/2+y,1/2-z
-x,-y,-z
x,1/2-y,1/2+z
loop_
_atom_site_type_symbol
_atom_site_label
_atom_site_fract_x
_atom_site_fract_y
_atom_site_fract_z
Si Si1 0.789358 0.153792 0.757435
Si Si2 0.883627 0.654538 0.297833
Si Si3 0.095648 0.547066 0.213636
Si Si4 0.615339 0.246375 0.000799
Si Si5 0.464484 0.028749 0.810781
Si Si6 0.708263 0.775568 0.039023
Si Si7 0.479798 0.154030 0.416268
Si Si8 0.235211 0.927721 0.448992
O O1 0.846738 0.324862 0.750039
O O2 0.687808 0.138806 0.882549
O O3 0.771733 0.179027 0.649038
O O4 0.854172 0.982051 0.729846
O O5 0.801637 0.634063 0.434530
O O6 0.983116 0.595065 0.287421
O O7 0.889035 0.851519 0.257185
O O8 0.134043 0.572011 0.074608
O O9 0.546115 0.374950 0.976367
O O10 0.678901 0.356846 0.035903
O O11 0.539353 0.129649 0.109271
O O12 0.352172 0.085711 0.859334
O O13 0.525038 0.178522 0.829674
O O14 0.512460 0.997545 0.671342
O O15 0.635208 0.697896 0.995173
O O16 0.739178 0.623015 0.094530
#
# Coordination Sequence:
#
# PCOD8127087 Si02
#       8
#     4   4   4   4   4   4   4   4
#     4  11  22  43  71  98 139 182 219 287 340 397
#     4  11  20  45  71  99 140 175 223 278 345 408
#     4  10  23  42  71 103 136 178 224 277 347 409
#     4  11  22  41  67  92 134 183 218 278 341 398
#     4  10  22  39  61  93 128 168 232 271 334 397
#     4   9  23  43  62  97 131 171 220 280 325 402
#     4  10  23  41  63  93 128 178 219 277 332 396
#     4  10  24  43  65  99 136 170 232 275 333 407
#
# _framework density 22.516729000000002
#
# number of rings (size 3 to 8) (size 9 to 14) (size 15 to 20)
#    0.750    1.000    2.500    1.125    3.500    1.000 
#    9.000    0.625    0.000    0.000    0.000    0.000 
#    0.000    0.000    0.000    0.000    0.000    0.000 
#
# Total GULP energy -396570.948993 kJ/mol
# GULP energy per Si atom -12392.842156 kJ/mol
# Density = 2.246548 g / cm^3
# Si number density = 22.516729 Si / 1000 Ang^3
#
#
#
# Elastic Constant Matrix: (Units=GPa)
#
#
# Indices 1 2 3 4 5 6 
#
# 1 92.6263 19.9089 45.4415 0.0000 -4.2053 0.0000
# 2 19.9089 104.2821 19.6919 0.0000 7.4105 0.0000
# 3 45.4415 19.6919 86.9376 0.0000 4.5244 0.0000
# 4 0.0000 0.0000 0.0000 24.2786 0.0000 -6.4056
# 5 -4.2053 7.4105 4.5244 0.0000 35.6568 0.0000
# 6 0.0000 0.0000 0.0000 -6.4056 0.0000 39.4902
#
#
#
# Elastic Compliance Matrix: (Units=1/GPa)
#
#
# Indices 1 2 3 4 5 6 
#
# 1 0.015044 -0.001647 -0.007651 0.000000 0.003087 0.000000
# 2 -0.001647 0.010315 -0.001363 0.000000 -0.002165 0.000000
# 3 -0.007651 -0.001363 0.015948 0.000000 -0.002643 0.000000
# 4 0.000000 0.000000 0.000000 0.043030 0.000000 0.006980
# 5 0.003087 -0.002165 -0.002643 0.000000 0.029195 0.000000
# 6 0.000000 0.000000 0.000000 0.006980 0.000000 0.026455
#
#
# Mechanical properties :
#
#
# Convention : Reuss Voigt Hill
#
# Bulk Modulus (GPa) = 50.03685 50.43673 50.23679
# Shear Modulus (GPa) = 29.76746 33.13870 31.45308
#
# Velocity S-wave (km/s) = 3.63990 3.84048 3.74154
# Velocity P-wave (km/s) = 6.31945 6.48953 6.40506
#
# Compressibility (1/GPa) = 0.01998527
#
# Stress axis : x y z
#
# Youngs Moduli (GPa) = 66.47346 96.94639 62.70461
#
# Poissons Ratio (x) = 0.15964 0.47974
# Poissons Ratio (y) = 0.10946 0.08547
# Poissons Ratio (z) = 0.50858 0.13214
#
# Static dielectric constant tensor:
#      x y z
#    x 3.920180 0.000000 -0.252980 
#    y 0.000000 4.349970 0.000000 
#    z -0.252980 0.000000 3.844400 
# 
# 
# High freq. dielectric constant tensor:
#      x y z
#    x 1.877140 0.000000 -0.020360 
#    y 0.000000 1.912100 0.000000 
#    z -0.020360 0.000000 1.865690 
# 
# From -- ./inp_files/33666.got.cif
#   From: 2010.03.12/outbox.cif.g09.slc.cpg/sg14_17_cif.got.tgz:33666.got - 2010.03.31 13:35:05.
