data_PCOD8127523
_publ_section_title
;
Structure prediction by ZEFSAII (Michael W. Deem and Ramdas Pophale) SiO2 
 PCOD8127523
Probable space group: P 21/C
;
_chemical_formula_sum "Si O2"
_cell_formula_units_Z 28
_cell_length_a 21.791975
_cell_length_b 9.552001
_cell_length_c 8.924698
_cell_angle_alpha 90.000000
_cell_angle_beta 41.954374
_cell_angle_gamma 90.000000
_cell_volume 1241.969626
_symmetry_space_group_name_H-M "P 21/C"
_symmetry_group_IT_number 14
_symmetry_cell_setting 'monoclinic'
loop_
_space_group_symop_operation_xyz
x,y,z
-x,1/2+y,1/2-z
-x,-y,-z
x,1/2-y,1/2+z
loop_
_atom_site_type_symbol
_atom_site_label
_atom_site_fract_x
_atom_site_fract_y
_atom_site_fract_z
Si Si1 0.190087 0.716342 0.100993
Si Si2 0.279178 0.573439 0.662850
Si Si3 0.579862 0.678133 0.247243
Si Si4 0.531901 0.563884 0.652318
Si Si5 0.068254 0.626772 0.585522
Si Si6 0.781091 0.793581 0.870512
Si Si7 0.096241 0.176568 0.084028
O O1 0.259298 0.809584 0.074103
O O2 0.128638 0.624941 0.325193
O O3 0.123185 0.811810 0.125570
O O4 0.248066 0.616316 0.886460
O O5 0.387240 0.547420 0.467623
O O6 0.228024 0.430526 0.715201
O O7 0.546560 0.652707 0.475394
O O8 0.557861 0.536709 0.190746
O O9 0.526017 0.818937 0.292493
O O10 0.688498 0.702691 0.042894
O O11 0.041441 0.469141 0.677872
O O12 0.974465 0.708831 0.727446
O O13 0.865648 0.706877 0.649985
O O14 0.812142 0.834037 0.980707
#
# Coordination Sequence:
#
# PCOD8127523 Si02
#       7
#     4   4   4   4   4   4   4
#     4  10  23  44  66  97 137 170 231 278 346 395
#     4  10  22  43  68  99 134 177 221 283 331 408
#     4  10  23  45  69 103 136 180 222 274 336 399
#     4  10  23  44  70 103 140 176 223 275 331 403
#     4  11  26  43  68  97 131 178 227 283 343 399
#     4  11  24  44  69  95 138 177 230 272 341 405
#     4  12  27  43  68  97 133 181 226 286 336 404
#
# _framework density 22.544836
#
# number of rings (size 3 to 8) (size 9 to 14) (size 15 to 20)
#    0.000    1.429    1.429    2.571    8.000    5.143 
#    2.571    0.000    0.000    0.000    0.000    0.000 
#    0.000    0.000    0.000    0.000    0.000    0.000 
#
# Total GULP energy -347263.692862 kJ/mol
# GULP energy per Si atom -12402.274745 kJ/mol
# Density = 2.249352 g / cm^3
# Si number density = 22.544836 Si / 1000 Ang^3
#
#
#
# Elastic Constant Matrix: (Units=GPa)
#
#
# Indices 1 2 3 4 5 6 
#
# 1 102.9008 61.1241 49.4288 0.0000 10.0840 0.0000
# 2 61.1241 144.7998 60.1224 0.0000 -16.4856 0.0000
# 3 49.4288 60.1224 86.9032 0.0000 2.4895 0.0000
# 4 0.0000 0.0000 0.0000 39.9157 0.0000 -2.0669
# 5 10.0840 -16.4856 2.4895 0.0000 22.3680 0.0000
# 6 0.0000 0.0000 0.0000 -2.0669 0.0000 37.8437
#
#
#
# Elastic Compliance Matrix: (Units=1/GPa)
#
#
# Indices 1 2 3 4 5 6 
#
# 1 0.017145 -0.006600 -0.004840 0.000000 -0.012055 0.000000
# 2 -0.006600 0.013861 -0.006233 0.000000 0.013885 0.000000
# 3 -0.004840 -0.006233 0.018701 0.000000 -0.004493 0.000000
# 4 0.000000 0.000000 0.000000 0.025124 0.000000 0.001372
# 5 -0.012055 0.013885 -0.004493 0.000000 0.060875 0.000000
# 6 0.000000 0.000000 0.000000 0.001372 0.000000 0.026499
#
#
# Mechanical properties :
#
#
# Convention : Reuss Voigt Hill
#
# Bulk Modulus (GPa) = 69.63780 75.10603 72.37192
# Shear Modulus (GPa) = 24.71084 30.95404 27.83244
#
# Velocity S-wave (km/s) = 3.31429 3.70942 3.51741
# Velocity P-wave (km/s) = 6.75290 7.19255 6.97619
#
# Compressibility (1/GPa) = 0.01436002
#
# Stress axis : x y z
#
# Youngs Moduli (GPa) = 58.32573 72.14359 53.47247
#
# Poissons Ratio (x) = 0.47616 0.25882
# Poissons Ratio (y) = 0.38496 0.33331
# Poissons Ratio (z) = 0.28231 0.44970
#
# Static dielectric constant tensor:
#      x y z
#    x 4.303860 0.000000 0.112170 
#    y 0.000000 4.168450 0.000000 
#    z 0.112170 0.000000 3.780470 
# 
# 
# High freq. dielectric constant tensor:
#      x y z
#    x 1.907510 0.000000 0.008620 
#    y 0.000000 1.899390 0.000000 
#    z 0.008620 0.000000 1.871970 
# 
# From -- ./inp_files/18691.got.cif
#   From: 2010.03.12/outbox.cif.g09.slc.cpg/sg14_10_cif.got.tgz:18691.got - 2010.03.31 13:35:05.
