data_PCOD8127000
_publ_section_title
;
Structure prediction by ZEFSAII (Michael W. Deem and Ramdas Pophale) SiO2 
 PCOD8127000
Probable space group: P 21/C
;
_chemical_formula_sum "Si O2"
_cell_formula_units_Z 28
_cell_length_a 13.173654
_cell_length_b 17.563411
_cell_length_c 10.060028
_cell_angle_alpha 90.000000
_cell_angle_beta 32.836183
_cell_angle_gamma 90.000000
_cell_volume 1262.132650
_symmetry_space_group_name_H-M "P 21/C"
_symmetry_group_IT_number 14
_symmetry_cell_setting 'monoclinic'
loop_
_space_group_symop_operation_xyz
x,y,z
-x,1/2+y,1/2-z
-x,-y,-z
x,1/2-y,1/2+z
loop_
_atom_site_type_symbol
_atom_site_label
_atom_site_fract_x
_atom_site_fract_y
_atom_site_fract_z
Si Si1 0.632252 0.404717 0.943029
Si Si2 0.307700 0.928947 0.330111
Si Si3 0.768586 0.558309 0.695474
Si Si4 0.962311 0.184125 0.993493
Si Si5 0.660911 0.596268 0.284124
Si Si6 0.120027 0.267392 0.058129
Si Si7 0.885526 0.889695 0.803940
O O1 0.767018 0.476717 0.766696
O O2 0.747930 0.331339 0.768098
O O3 0.594280 0.400966 0.142080
O O4 0.441255 0.407112 0.071141
O O5 0.108207 0.887745 0.532865
O O6 0.290704 0.020736 0.352942
O O7 0.440617 0.901951 0.062540
O O8 0.902990 0.612830 0.629871
O O9 0.840417 0.546314 0.464630
O O10 0.967324 0.202550 0.831713
O O11 0.030322 0.254984 0.010703
O O12 0.783438 0.590324 0.281760
O O13 0.711996 0.671491 0.142873
O O14 0.193022 0.188078 0.040619
#
# Coordination Sequence:
#
# PCOD8127000 Si02
#       7
#     4   4   4   4   4   4   4
#     4  11  21  40  66  98 128 166 224 275 330 398
#     4  11  23  41  69  95 131 176 223 276 334 396
#     4  10  22  37  65  94 129 167 217 271 329 388
#     4  11  23  43  65  93 131 176 213 278 327 403
#     4  11  24  43  64  97 134 174 222 275 332 400
#     4  11  23  43  69  92 133 174 222 266 342 391
#     4  11  22  43  61  93 132 175 214 278 327 395
#
# _framework density 22.184671000000002
#
# number of rings (size 3 to 8) (size 9 to 14) (size 15 to 20)
#    0.000    1.143    5.714    1.714    2.000    0.000 
#    5.143    4.286    0.000    0.000    0.000    0.000 
#    0.000    0.000    0.000    0.000    0.000    0.000 
#
# Total GULP energy -347213.870444 kJ/mol
# GULP energy per Si atom -12400.495373 kJ/mol
# Density = 2.213418 g / cm^3
# Si number density = 22.184671 Si / 1000 Ang^3
#
#
#
# Elastic Constant Matrix: (Units=GPa)
#
#
# Indices 1 2 3 4 5 6 
#
# 1 46.7830 -2.6820 20.9450 0.0000 4.7705 0.0000
# 2 -2.6820 63.8835 45.3589 0.0000 -0.9633 0.0000
# 3 20.9450 45.3589 108.8112 0.0000 11.3100 0.0000
# 4 0.0000 0.0000 0.0000 42.8394 0.0000 7.0178
# 5 4.7705 -0.9633 11.3100 0.0000 37.0876 0.0000
# 6 0.0000 0.0000 0.0000 7.0178 0.0000 24.6092
#
#
#
# Elastic Compliance Matrix: (Units=1/GPa)
#
#
# Indices 1 2 3 4 5 6 
#
# 1 0.025115 0.006269 -0.007362 0.000000 -0.000822 0.000000
# 2 0.006269 0.024252 -0.011668 0.000000 0.003382 0.000000
# 3 -0.007362 -0.011668 0.015909 0.000000 -0.004207 0.000000
# 4 0.000000 0.000000 0.000000 0.024487 0.000000 -0.006983
# 5 -0.000822 0.003382 -0.004207 0.000000 0.028440 0.000000
# 6 0.000000 0.000000 0.000000 -0.006983 0.000000 0.042627
#
#
# Mechanical properties :
#
#
# Convention : Reuss Voigt Hill
#
# Bulk Modulus (GPa) = 25.15487 38.52461 31.83974
# Shear Modulus (GPa) = 25.04982 31.29763 28.17372
#
# Velocity S-wave (km/s) = 3.36393 3.76011 3.56752
# Velocity P-wave (km/s) = 5.14310 6.02116 5.59937
#
# Compressibility (1/GPa) = 0.03975373
#
# Stress axis : x y z
#
# Youngs Moduli (GPa) = 39.81732 41.23313 62.85881
#
# Poissons Ratio (x) = -0.25851 0.46278
# Poissons Ratio (y) = -0.24963 0.73344
# Poissons Ratio (z) = 0.29315 0.48111
#
# Static dielectric constant tensor:
#      x y z
#    x 3.798850 0.000000 0.197930 
#    y 0.000000 3.993830 0.000000 
#    z 0.197930 0.000000 4.194260 
# 
# 
# High freq. dielectric constant tensor:
#      x y z
#    x 1.861510 0.000000 0.012070 
#    y 0.000000 1.863810 0.000000 
#    z 0.012070 0.000000 1.884570 
# 
# From -- ./inp_files/32912.got.cif
#   From: 2010.03.12/outbox.cif.g09.slc.cpg/sg14_17_cif.got.tgz:32912.got - 2010.03.31 13:35:05.
