data_PCOD8127083
_publ_section_title
;
Structure prediction by ZEFSAII (Michael W. Deem and Ramdas Pophale) SiO2 
 PCOD8127083
Probable space group: P 21/C
;
_chemical_formula_sum "Si O2"
_cell_formula_units_Z 20
_cell_length_a 15.166570
_cell_length_b 11.134124
_cell_length_c 12.833434
_cell_angle_alpha 90.000000
_cell_angle_beta 151.995938
_cell_angle_gamma 90.000000
_cell_volume 1017.544712
_symmetry_space_group_name_H-M "P 21/C"
_symmetry_group_IT_number 14
_symmetry_cell_setting 'monoclinic'
loop_
_space_group_symop_operation_xyz
x,y,z
-x,1/2+y,1/2-z
-x,-y,-z
x,1/2-y,1/2+z
loop_
_atom_site_type_symbol
_atom_site_label
_atom_site_fract_x
_atom_site_fract_y
_atom_site_fract_z
Si Si1 0.019766 0.364090 0.992735
Si Si2 0.666135 0.775351 0.569207
Si Si3 0.820591 0.963386 0.878642
Si Si4 0.078906 0.242155 0.854070
Si Si5 0.243636 0.729297 0.639007
O O1 0.213709 0.323908 0.246276
O O2 0.035171 0.352699 0.884844
O O3 0.000000 0.500000 0.000000
O O4 0.843438 0.281830 0.845031
O O5 0.678063 0.899143 0.648583
O O6 0.749956 0.786994 0.540239
O O7 0.454826 0.725035 0.341673
O O8 0.737770 0.084915 0.840203
O O9 0.869960 0.876446 0.026757
O O10 0.000000 0.000000 0.000000
O O11 0.890101 0.219330 0.591157
#
# Coordination Sequence:
#
# PCOD8127083 Si02
#       5
#     4   4   4   4   4
#     4  10  23  42  62  84 130 161 192 250 312 359
#     4  10  23  40  62  97 119 157 210 252 303 368
#     4  11  20  44  66  86 128 167 200 257 312 368
#     4  10  22  39  61  89 124 156 210 251 304 356
#     4  11  23  41  66  92 120 163 208 251 307 365
#
# _framework density 19.655156000000002
#
# number of rings (size 3 to 8) (size 9 to 14) (size 15 to 20)
#    0.000    1.600    6.000    0.600    5.600    4.000 
#    7.200    0.000    0.000    0.000    0.000    0.000 
#    0.000    0.000    0.000    0.000    0.000    0.000 
#
# Total GULP energy -247928.869881 kJ/mol
# GULP energy per Si atom -12396.443494 kJ/mol
# Density = 1.961042 g / cm^3
# Si number density = 19.655156 Si / 1000 Ang^3
#
#
#
# Elastic Constant Matrix: (Units=GPa)
#
#
# Indices 1 2 3 4 5 6 
#
# 1 130.7423 28.0173 78.9889 0.0000 -2.7999 0.0000
# 2 28.0173 102.7916 18.3944 0.0000 -0.1969 0.0000
# 3 78.9889 18.3944 106.4538 0.0000 27.8309 0.0000
# 4 0.0000 0.0000 0.0000 17.9772 0.0000 -1.4604
# 5 -2.7999 -0.1969 27.8309 0.0000 38.9400 0.0000
# 6 0.0000 0.0000 0.0000 -1.4604 0.0000 29.8750
#
#
#
# Elastic Compliance Matrix: (Units=1/GPa)
#
#
# Indices 1 2 3 4 5 6 
#
# 1 0.018652 -0.002012 -0.017020 0.000000 0.013495 0.000000
# 2 -0.002012 0.010336 -0.000331 0.000000 0.000144 0.000000
# 3 -0.017020 -0.000331 0.027547 0.000000 -0.020914 0.000000
# 4 0.000000 0.000000 0.000000 0.055848 0.000000 0.002730
# 5 0.013495 0.000144 -0.020914 0.000000 0.041599 0.000000
# 6 0.000000 0.000000 0.000000 0.002730 0.000000 0.033606
#
#
# Mechanical properties :
#
#
# Convention : Reuss Voigt Hill
#
# Bulk Modulus (GPa) = 56.14910 65.64322 60.89616
# Shear Modulus (GPa) = 21.52848 31.66427 26.59638
#
# Velocity S-wave (km/s) = 3.31314 4.01807 3.68251
# Velocity P-wave (km/s) = 6.57761 7.41596 7.00933
#
# Compressibility (1/GPa) = 0.01780972
#
# Stress axis : x y z
#
# Youngs Moduli (GPa) = 53.61472 96.74633 36.30107
#
# Poissons Ratio (x) = 0.19467 0.61784
# Poissons Ratio (y) = 0.10788 0.01200
# Poissons Ratio (z) = 0.91252 0.03199
#
# Static dielectric constant tensor:
#      x y z
#    x 3.909630 0.000000 -0.113470 
#    y 0.000000 3.861480 0.000000 
#    z -0.113470 0.000000 3.575610 
# 
# 
# High freq. dielectric constant tensor:
#      x y z
#    x 1.775560 0.000000 -0.005800 
#    y 0.000000 1.762300 0.000000 
#    z -0.005800 0.000000 1.759770 
# 
# From -- ./inp_files/32115.got.cif
#   From: 2010.03.12/outbox.cif.g09.slc.cpg/sg14_17_cif.got.tgz:32115.got - 2010.03.31 13:35:05.
