data_PCOD8127656
_publ_section_title
;
Structure prediction by ZEFSAII (Michael W. Deem and Ramdas Pophale) SiO2 
 PCOD8127656
Probable space group: P 21/C
;
_chemical_formula_sum "Si O2"
_cell_formula_units_Z 20
_cell_length_a 6.452795
_cell_length_b 14.911149
_cell_length_c 10.229024
_cell_angle_alpha 90.000000
_cell_angle_beta 83.652803
_cell_angle_gamma 90.000000
_cell_volume 978.189182
_symmetry_space_group_name_H-M "P 21/C"
_symmetry_group_IT_number 14
_symmetry_cell_setting 'monoclinic'
loop_
_space_group_symop_operation_xyz
x,y,z
-x,1/2+y,1/2-z
-x,-y,-z
x,1/2-y,1/2+z
loop_
_atom_site_type_symbol
_atom_site_label
_atom_site_fract_x
_atom_site_fract_y
_atom_site_fract_z
Si Si1 0.796862 0.560610 0.039100
Si Si2 0.471779 0.446052 0.199720
Si Si3 0.898395 0.569889 0.604322
Si Si4 0.999787 0.743256 0.024339
Si Si5 0.810821 0.321439 0.254537
O O1 0.650239 0.520074 0.163125
O O2 0.661573 0.571068 0.919076
O O3 0.000000 0.500000 0.000000
O O4 0.862911 0.659161 0.080725
O O5 0.578916 0.352290 0.234280
O O6 0.317988 0.473243 0.329130
O O7 0.861076 0.665475 0.532973
O O8 0.049248 0.590364 0.718413
O O9 0.000000 0.500000 0.500000
O O10 0.092794 0.729088 0.875539
O O11 0.185412 0.754687 0.120104
#
# Coordination Sequence:
#
# PCOD8127656 Si02
#       5
#     4   4   4   4   4
#     4  11  21  42  73 102 143 176 236 299 342 410
#     4  11  22  41  71 105 133 183 241 284 347 434
#     4  10  24  46  66  97 150 178 227 298 358 410
#     4  10  22  46  67  98 146 185 225 307 346 410
#     4  10  23  44  65 102 139 178 243 281 353 423
#
# _framework density 20.445943
#
# number of rings (size 3 to 8) (size 9 to 14) (size 15 to 20)
#    1.200    0.400    4.000    0.000    0.000    5.600 
#    3.600    0.000    0.000    0.000    0.000    0.000 
#    0.000    0.000    0.000    0.000    0.000    0.000 
#
# Total GULP energy -247806.333479 kJ/mol
# GULP energy per Si atom -12390.316674 kJ/mol
# Density = 2.039941 g / cm^3
# Si number density = 20.445943 Si / 1000 Ang^3
#
#
#
# Elastic Constant Matrix: (Units=GPa)
#
#
# Indices 1 2 3 4 5 6 
#
# 1 101.8102 57.6853 57.3232 0.0000 -10.9067 0.0000
# 2 57.6853 147.6035 64.2506 0.0000 -10.5488 0.0000
# 3 57.3232 64.2506 154.2736 0.0000 -18.2372 0.0000
# 4 0.0000 0.0000 0.0000 40.8458 0.0000 0.9922
# 5 -10.9067 -10.5488 -18.2372 0.0000 44.9997 0.0000
# 6 0.0000 0.0000 0.0000 0.9922 0.0000 40.6277
#
#
#
# Elastic Compliance Matrix: (Units=1/GPa)
#
#
# Indices 1 2 3 4 5 6 
#
# 1 0.014125 -0.003926 -0.003485 0.000000 0.001091 0.000000
# 2 -0.003926 0.009380 -0.002416 0.000000 0.000268 0.000000
# 3 -0.003485 -0.002416 0.009050 0.000000 0.002257 0.000000
# 4 0.000000 0.000000 0.000000 0.024497 0.000000 -0.000598
# 5 0.001091 0.000268 0.002257 0.000000 0.023464 0.000000
# 6 0.000000 0.000000 0.000000 -0.000598 0.000000 0.024628
#
#
# Mechanical properties :
#
#
# Convention : Reuss Voigt Hill
#
# Bulk Modulus (GPa) = 77.50532 84.68949 81.09741
# Shear Modulus (GPa) = 38.73027 40.25653 39.49340
#
# Velocity S-wave (km/s) = 4.35705 4.44207 4.39977
# Velocity P-wave (km/s) = 7.95623 8.23532 8.09697
#
# Compressibility (1/GPa) = 0.01290234
#
# Stress axis : x y z
#
# Youngs Moduli (GPa) = 70.79514 106.61035 110.49937
#
# Poissons Ratio (x) = 0.41850 0.38505
# Poissons Ratio (y) = 0.27791 0.26699
# Poissons Ratio (z) = 0.24670 0.25759
#
# Static dielectric constant tensor:
#      x y z
#    x 3.823100 0.000000 -0.006450 
#    y 0.000000 3.687380 0.000000 
#    z -0.006450 0.000000 3.639980 
# 
# 
# High freq. dielectric constant tensor:
#      x y z
#    x 1.792730 0.000000 0.001810 
#    y 0.000000 1.788570 0.000000 
#    z 0.001810 0.000000 1.803500 
# 
# From -- ./inp_files/20944.got.cif
#   From: 2010.03.12/outbox.cif.g09.slc.cpg/sg14_11_cif.got.tgz:20944.got - 2010.03.31 13:35:05.
