data_PCOD8127769
_publ_section_title
;
Structure prediction by ZEFSAII (Michael W. Deem and Ramdas Pophale) SiO2 
 PCOD8127769
Probable space group: P 21/C
;
_chemical_formula_sum "Si O2"
_cell_formula_units_Z 28
_cell_length_a 25.276276
_cell_length_b 9.098010
_cell_length_c 10.759217
_cell_angle_alpha 90.000000
_cell_angle_beta 149.903111
_cell_angle_gamma 90.000000
_cell_volume 1240.736959
_symmetry_space_group_name_H-M "P 21/C"
_symmetry_group_IT_number 14
_symmetry_cell_setting 'monoclinic'
loop_
_space_group_symop_operation_xyz
x,y,z
-x,1/2+y,1/2-z
-x,-y,-z
x,1/2-y,1/2+z
loop_
_atom_site_type_symbol
_atom_site_label
_atom_site_fract_x
_atom_site_fract_y
_atom_site_fract_z
Si Si1 0.353997 0.163750 0.485351
Si Si2 0.751099 0.102734 0.159654
Si Si3 0.854180 0.826143 0.421730
Si Si4 0.906765 0.617142 0.300058
Si Si5 0.388035 0.502786 0.834314
Si Si6 0.268736 0.914600 0.465998
Si Si7 0.409686 0.808632 0.962187
O O1 0.272010 0.294558 0.340339
O O2 0.374262 0.150852 0.378960
O O3 0.298854 0.011632 0.410189
O O4 0.464074 0.178566 0.779825
O O5 0.654328 0.106522 0.061231
O O6 0.853898 0.004972 0.406491
O O7 0.708442 0.017246 0.953972
O O8 0.790304 0.267309 0.204439
O O9 0.911422 0.734206 0.426397
O O10 0.905810 0.795903 0.664041
O O11 0.000000 0.500000 0.500000
O O12 0.803911 0.514006 0.093115
O O13 0.383893 0.637214 0.923659
O O14 0.500000 0.500000 0.000000
O O15 0.373035 0.866625 0.753037
#
# Coordination Sequence:
#
# PCOD8127769 Si02
#       7
#     4   4   4   4   4   4   4
#     4  11  22  37  61  94 138 183 227 278 340 403
#     4  11  21  39  62  93 134 176 228 274 337 402
#     4  11  25  46  73 106 139 180 230 296 347 430
#     4  11  26  51  75 103 137 179 233 296 366 413
#     4  11  21  34  52  87 128 179 232 272 323 397
#     4  10  23  41  63  94 133 179 231 283 335 418
#     4  11  21  35  60  89 134 184 229 271 331 406
#
# _framework density 22.567233999999999
#
# number of rings (size 3 to 8) (size 9 to 14) (size 15 to 20)
#    0.000    1.143    4.286    2.143    0.000    2.286 
#    0.000    1.429    0.000    0.000    0.000    0.000 
#    0.000    0.000    0.000    0.000    0.000    0.000 
#
# Total GULP energy -346922.418042 kJ/mol
# GULP energy per Si atom -12390.086359 kJ/mol
# Density = 2.251587 g / cm^3
# Si number density = 22.567234 Si / 1000 Ang^3
#
#
#
# Elastic Constant Matrix: (Units=GPa)
#
#
# Indices 1 2 3 4 5 6 
#
# 1 91.3233 42.4505 32.3595 0.0000 -17.1952 0.0000
# 2 42.4505 91.6487 27.8099 0.0000 -17.3552 0.0000
# 3 32.3595 27.8099 66.5634 0.0000 -8.5944 0.0000
# 4 0.0000 0.0000 0.0000 35.7318 0.0000 -3.6773
# 5 -17.1952 -17.3552 -8.5944 0.0000 22.9911 0.0000
# 6 0.0000 0.0000 0.0000 -3.6773 0.0000 37.5937
#
#
#
# Elastic Compliance Matrix: (Units=1/GPa)
#
#
# Indices 1 2 3 4 5 6 
#
# 1 0.016176 -0.004701 -0.005039 0.000000 0.006666 0.000000
# 2 -0.004701 0.015378 -0.003251 0.000000 0.006877 0.000000
# 3 -0.005039 -0.003251 0.018942 0.000000 0.000858 0.000000
# 4 0.000000 0.000000 0.000000 0.028271 0.000000 0.002765
# 5 0.006666 0.006877 0.000858 0.000000 0.053992 0.000000
# 6 0.000000 0.000000 0.000000 0.002765 0.000000 0.026871
#
#
# Mechanical properties :
#
#
# Convention : Reuss Voigt Hill
#
# Bulk Modulus (GPa) = 40.79564 50.53056 45.66310
# Shear Modulus (GPa) = 25.80201 29.05767 27.42984
#
# Velocity S-wave (km/s) = 3.38500 3.59221 3.49014
# Velocity P-wave (km/s) = 5.77878 6.29643 6.04315
#
# Compressibility (1/GPa) = 0.02451242
#
# Stress axis : x y z
#
# Youngs Moduli (GPa) = 61.81984 65.02989 52.79235
#
# Poissons Ratio (x) = 0.30572 0.26603
# Poissons Ratio (y) = 0.29063 0.17165
# Poissons Ratio (z) = 0.31152 0.21143
#
# Static dielectric constant tensor:
#      x y z
#    x 4.167590 0.000000 -0.143590 
#    y 0.000000 4.331680 0.000000 
#    z -0.143590 0.000000 3.772580 
# 
# 
# High freq. dielectric constant tensor:
#      x y z
#    x 1.891770 0.000000 -0.021680 
#    y 0.000000 1.900470 0.000000 
#    z -0.021680 0.000000 1.862900 
# 
# From -- ./inp_files/36179.got.cif
#   From: 2010.03.12/outbox.cif.g09.slc.cpg/sg14_19_cif.got.tgz:36179.got - 2010.03.31 13:35:05.
