data_PCOD8127938
_publ_section_title
;
Structure prediction by ZEFSAII (Michael W. Deem and Ramdas Pophale) SiO2 
 PCOD8127938
Probable space group: P 21/C
;
_chemical_formula_sum "Si O2"
_cell_formula_units_Z 24
_cell_length_a 15.935088
_cell_length_b 16.452179
_cell_length_c 8.664763
_cell_angle_alpha 90.000000
_cell_angle_beta 149.581902
_cell_angle_gamma 90.000000
_cell_volume 1150.132325
_symmetry_space_group_name_H-M "P 21/C"
_symmetry_group_IT_number 14
_symmetry_cell_setting 'monoclinic'
loop_
_space_group_symop_operation_xyz
x,y,z
-x,1/2+y,1/2-z
-x,-y,-z
x,1/2-y,1/2+z
loop_
_atom_site_type_symbol
_atom_site_label
_atom_site_fract_x
_atom_site_fract_y
_atom_site_fract_z
Si Si1 0.139686 0.150924 0.365297
Si Si2 0.333919 0.486430 0.330413
Si Si3 0.232492 0.678180 0.783538
Si Si4 0.808443 0.684129 0.402400
Si Si5 0.180530 0.654631 0.054948
Si Si6 0.458504 0.419098 0.842876
O O1 0.207597 0.173119 0.305073
O O2 0.203910 0.219830 0.584336
O O3 0.208927 0.064185 0.525460
O O4 0.941601 0.143649 0.053804
O O5 0.500000 0.500000 0.500000
O O6 0.366259 0.438908 0.538393
O O7 0.249535 0.572019 0.236686
O O8 0.251193 0.667435 0.995749
O O9 0.246756 0.773597 0.769023
O O10 0.372398 0.628446 0.918391
O O11 0.658556 0.637294 0.241774
O O12 0.981696 0.650082 0.742120
O O13 0.500000 0.500000 0.000000
#
# Coordination Sequence:
#
# PCOD8127938 Si02
#       6
#     4   4   4   4   4   4
#     4  10  23  45  70  93 134 174 221 266 327 395
#     4  12  25  43  67 100 133 171 223 274 329 383
#     4  10  24  45  67  96 131 175 217 265 333 389
#     4  10  23  43  69  98 130 176 217 267 328 389
#     4  10  24  44  70  94 131 176 216 268 328 393
#     4  12  27  42  65 101 131 170 221 274 329 386
#
# _framework density 20.867163999999999
#
# number of rings (size 3 to 8) (size 9 to 14) (size 15 to 20)
#    0.000    1.333    1.667    2.000    7.000    4.667 
#    0.000    0.000    0.000    0.000    0.000    0.000 
#    0.000    0.000    0.000    0.000    0.000    0.000 
#
# Total GULP energy -297781.054517 kJ/mol
# GULP energy per Si atom -12407.543938 kJ/mol
# Density = 2.081967 g / cm^3
# Si number density = 20.867164 Si / 1000 Ang^3
#
#
#
# Elastic Constant Matrix: (Units=GPa)
#
#
# Indices 1 2 3 4 5 6 
#
# 1 133.6488 54.3476 50.7265 0.0000 19.9373 0.0000
# 2 54.3476 130.7862 62.7691 0.0000 14.4791 0.0000
# 3 50.7265 62.7691 85.8037 0.0000 1.0593 0.0000
# 4 0.0000 0.0000 0.0000 22.4886 0.0000 -19.2107
# 5 19.9373 14.4791 1.0593 0.0000 36.4377 0.0000
# 6 0.0000 0.0000 0.0000 -19.2107 0.0000 18.0837
#
#
#
# Elastic Compliance Matrix: (Units=1/GPa)
#
#
# Indices 1 2 3 4 5 6 
#
# 1 0.010849 -0.001357 -0.005356 0.000000 -0.005241 0.000000
# 2 -0.001357 0.012715 -0.008449 0.000000 -0.004064 0.000000
# 3 -0.005356 -0.008449 0.020932 0.000000 0.005679 0.000000
# 4 0.000000 0.000000 0.000000 0.480640 0.000000 0.510596
# 5 -0.005241 -0.004064 0.005679 0.000000 0.031762 0.000000
# 6 0.000000 0.000000 0.000000 0.510596 0.000000 0.597718
#
#
# Mechanical properties :
#
#
# Convention : Reuss Voigt Hill
#
# Bulk Modulus (GPa) = 70.56795 76.21392 73.39093
# Shear Modulus (GPa) = 4.20287 27.56170 15.88229
#
# Velocity S-wave (km/s) = 1.42073 3.63825 2.76182
# Velocity P-wave (km/s) = 6.04834 7.36558 6.73922
#
# Compressibility (1/GPa) = 0.01417074
#
# Stress axis : x y z
#
# Youngs Moduli (GPa) = 92.17375 78.64728 47.77459
#
# Poissons Ratio (x) = 0.10676 0.25589
# Poissons Ratio (y) = 0.12512 0.40364
# Poissons Ratio (z) = 0.49370 0.66448
#
# Static dielectric constant tensor:
#      x y z
#    x 3.740510 0.000000 0.589590 
#    y 0.000000 3.979630 0.000000 
#    z 0.589590 0.000000 2.102920 
# 
# 
# High freq. dielectric constant tensor:
#      x y z
#    x 1.830730 0.000000 0.002590 
#    y 0.000000 1.828070 0.000000 
#    z 0.002590 0.000000 1.822140 
# 
# From -- ./inp_files/18045.got.cif
#   From: 2010.03.12/outbox.cif.g09.slc.cpg/sg14_10_cif.got.tgz:18045.got - 2010.03.31 13:35:05.
