data_PCOD8127480
_publ_section_title
;
Structure prediction by ZEFSAII (Michael W. Deem and Ramdas Pophale) SiO2 
 PCOD8127480
Probable space group: P 21/C
;
_chemical_formula_sum "Si O2"
_cell_formula_units_Z 28
_cell_length_a 18.969654
_cell_length_b 8.139793
_cell_length_c 12.221058
_cell_angle_alpha 90.000000
_cell_angle_beta 142.235284
_cell_angle_gamma 90.000000
_cell_volume 1155.662932
_symmetry_space_group_name_H-M "P 21/C"
_symmetry_group_IT_number 14
_symmetry_cell_setting 'monoclinic'
loop_
_space_group_symop_operation_xyz
x,y,z
-x,1/2+y,1/2-z
-x,-y,-z
x,1/2-y,1/2+z
loop_
_atom_site_type_symbol
_atom_site_label
_atom_site_fract_x
_atom_site_fract_y
_atom_site_fract_z
Si Si1 0.635924 0.362961 0.690976
Si Si2 0.562289 0.698278 0.192879
Si Si3 0.827123 0.979949 0.739282
Si Si4 0.763623 0.806233 0.304988
Si Si5 0.133770 0.690174 0.506868
Si Si6 0.412896 0.493938 0.142650
Si Si7 0.952720 0.974594 0.666664
O O1 0.542199 0.287499 0.496863
O O2 0.697704 0.520034 0.707295
O O3 0.732210 0.230412 0.844026
O O4 0.570191 0.417594 0.719698
O O5 0.675331 0.678502 0.257056
O O6 0.517136 0.524848 0.184553
O O7 0.592741 0.800736 0.339859
O O8 0.806035 0.789160 0.749184
O O9 0.909252 0.993273 0.737087
O O10 0.885240 0.090657 0.904485
O O11 0.704626 0.057900 0.555875
O O12 0.876601 0.832935 0.517111
O O13 0.085714 0.584196 0.343809
O O14 0.057442 0.858102 0.415644
#
# Coordination Sequence:
#
# PCOD8127480 Si02
#       7
#     4   4   4   4   4   4   4
#     4  10  22  43  63  89 136 169 217 272 327 383
#     4  11  23  40  63  96 131 176 216 270 320 399
#     4  12  23  43  67  97 130 173 223 267 332 392
#     4  10  23  40  65  95 129 175 219 267 324 392
#     4  11  23  44  69  94 127 174 217 272 330 388
#     4  11  23  39  66  94 131 175 214 267 330 382
#     4  11  24  47  67  95 135 171 218 279 327 383
#
# _framework density 24.228518000000001
#
# number of rings (size 3 to 8) (size 9 to 14) (size 15 to 20)
#    0.000    1.143    5.714    3.000    4.000    1.714 
#    0.000   10.714    0.000    0.000    0.000    0.000 
#    0.000    0.000    0.000    0.000    0.000    0.000 
#
# Total GULP energy -347039.285812 kJ/mol
# GULP energy per Si atom -12394.260208 kJ/mol
# Density = 2.417337 g / cm^3
# Si number density = 24.228518 Si / 1000 Ang^3
#
#
#
# Elastic Constant Matrix: (Units=GPa)
#
#
# Indices 1 2 3 4 5 6 
#
# 1 37.6353 11.8876 11.7634 0.0000 -6.9470 0.0000
# 2 11.8876 56.3735 31.5930 0.0000 -8.7242 0.0000
# 3 11.7634 31.5930 106.0259 0.0000 8.1629 0.0000
# 4 0.0000 0.0000 0.0000 44.8213 0.0000 -0.7051
# 5 -6.9470 -8.7242 8.1629 0.0000 23.8187 0.0000
# 6 0.0000 0.0000 0.0000 -0.7051 0.0000 32.1451
#
#
#
# Elastic Compliance Matrix: (Units=1/GPa)
#
#
# Indices 1 2 3 4 5 6 
#
# 1 0.030156 -0.003338 -0.003013 0.000000 0.008605 0.000000
# 2 -0.003338 0.024413 -0.007721 0.000000 0.010614 0.000000
# 3 -0.003013 -0.007721 0.012687 0.000000 -0.008055 0.000000
# 4 0.000000 0.000000 0.000000 0.022319 0.000000 0.000490
# 5 0.008605 0.010614 -0.008055 0.000000 0.051142 0.000000
# 6 0.000000 0.000000 0.000000 0.000490 0.000000 0.031120
#
#
# Mechanical properties :
#
#
# Convention : Reuss Voigt Hill
#
# Bulk Modulus (GPa) = 25.56959 34.50251 30.03605
# Shear Modulus (GPa) = 23.47227 29.80972 26.64099
#
# Velocity S-wave (km/s) = 3.11591 3.51145 3.31958
# Velocity P-wave (km/s) = 4.84991 5.54182 5.20737
#
# Compressibility (1/GPa) = 0.03910896
#
# Stress axis : x y z
#
# Youngs Moduli (GPa) = 33.16131 40.96259 78.82192
#
# Poissons Ratio (x) = 0.13675 0.23753
# Poissons Ratio (y) = 0.11071 0.60859
# Poissons Ratio (z) = 0.09993 0.31628
#
# Static dielectric constant tensor:
#      x y z
#    x 4.054400 0.000000 0.164870 
#    y 0.000000 4.452450 0.000000 
#    z 0.164870 0.000000 4.747390 
# 
# 
# High freq. dielectric constant tensor:
#      x y z
#    x 1.929930 0.000000 0.009380 
#    y 0.000000 1.952190 0.000000 
#    z 0.009380 0.000000 1.989940 
# 
# From -- ./inp_files/34933.got.cif
#   From: 2010.03.12/outbox.cif.g09.slc.cpg/sg14_18_cif.got.tgz:34933.got - 2010.03.31 13:35:05.
