data_PCOD8127460
_publ_section_title
;
Structure prediction by ZEFSAII (Michael W. Deem and Ramdas Pophale) SiO2 
 PCOD8127460
Probable space group: P 21/C
;
_chemical_formula_sum "Si O2"
_cell_formula_units_Z 32
_cell_length_a 19.161855
_cell_length_b 8.907170
_cell_length_c 23.892623
_cell_angle_alpha 90.000000
_cell_angle_beta 21.730949
_cell_angle_gamma 90.000000
_cell_volume 1509.852523
_symmetry_space_group_name_H-M "P 21/C"
_symmetry_group_IT_number 14
_symmetry_cell_setting 'monoclinic'
loop_
_space_group_symop_operation_xyz
x,y,z
-x,1/2+y,1/2-z
-x,-y,-z
x,1/2-y,1/2+z
loop_
_atom_site_type_symbol
_atom_site_label
_atom_site_fract_x
_atom_site_fract_y
_atom_site_fract_z
Si Si1 0.466209 0.706429 0.608145
Si Si2 0.175245 0.924713 0.604442
Si Si3 0.075871 0.897117 0.131164
Si Si4 0.579605 0.593413 0.642618
Si Si5 0.922685 0.462907 0.118521
Si Si6 0.525536 0.535197 0.916010
Si Si7 0.772678 0.748116 0.785429
Si Si8 0.728489 0.605272 0.074709
O O1 0.565155 0.633950 0.588164
O O2 0.274621 0.622476 0.735634
O O3 0.613341 0.693643 0.447374
O O4 0.414712 0.880871 0.659456
O O5 0.128336 0.765321 0.614282
O O6 0.337270 0.899027 0.529356
O O7 0.240846 0.044792 0.510193
O O8 0.988346 0.992263 0.771600
O O9 0.904793 0.877296 0.215386
O O10 0.254929 0.973953 0.968896
O O11 0.384964 0.518664 0.805901
O O12 0.617025 0.738247 0.653400
O O13 0.899654 0.615944 0.170218
O O14 0.000000 0.500000 0.000000
O O15 0.074909 0.364978 0.039467
O O16 0.681539 0.667676 0.798291
O O17 0.500000 0.500000 0.000000
#
# Coordination Sequence:
#
# PCOD8127460 Si02
#       8
#     4   4   4   4   4   4   4   4
#     4  11  23  48  68 104 138 185 231 297 349 416
#     4  12  23  43  71 103 140 180 232 289 348 420
#     4  12  25  43  71 107 140 180 235 294 348 417
#     4  12  27  45  71  99 145 184 237 289 354 419
#     4  12  27  45  71 101 144 184 240 286 350 423
#     4  10  22  42  71 101 140 174 228 288 356 412
#     4  11  24  45  69 105 139 182 232 292 352 415
#     4  12  26  47  69 101 140 191 232 288 352 418
#
# _framework density 21.194123000000001
#
# number of rings (size 3 to 8) (size 9 to 14) (size 15 to 20)
#    0.000    0.500    6.250    2.625    3.500    3.000 
#    0.000    0.625    0.000    0.000    0.000    0.000 
#    0.000    0.000    0.000    0.000    0.000    0.000 
#
# Total GULP energy -396892.192998 kJ/mol
# GULP energy per Si atom -12402.881031 kJ/mol
# Density = 2.114588 g / cm^3
# Si number density = 21.194123 Si / 1000 Ang^3
#
#
#
# Elastic Constant Matrix: (Units=GPa)
#
#
# Indices 1 2 3 4 5 6 
#
# 1 89.3640 16.6526 43.6470 0.0000 -17.7704 0.0000
# 2 16.6526 93.1385 22.0963 0.0000 -14.4275 0.0000
# 3 43.6470 22.0963 91.4942 0.0000 -19.0437 0.0000
# 4 0.0000 0.0000 0.0000 29.3758 0.0000 1.3532
# 5 -17.7704 -14.4275 -19.0437 0.0000 32.3503 0.0000
# 6 0.0000 0.0000 0.0000 1.3532 0.0000 32.5715
#
#
#
# Elastic Compliance Matrix: (Units=1/GPa)
#
#
# Indices 1 2 3 4 5 6 
#
# 1 0.015204 -0.000559 -0.006190 0.000000 0.004459 0.000000
# 2 -0.000559 0.011869 -0.001780 0.000000 0.003938 0.000000
# 3 -0.006190 -0.001780 0.015316 0.000000 0.004822 0.000000
# 4 0.000000 0.000000 0.000000 0.034107 0.000000 -0.001417
# 5 0.004459 0.003938 0.004822 0.000000 0.037956 0.000000
# 6 0.000000 0.000000 0.000000 -0.001417 0.000000 0.030761
#
#
# Mechanical properties :
#
#
# Convention : Reuss Voigt Hill
#
# Bulk Modulus (GPa) = 39.47734 48.75427 44.11581
# Shear Modulus (GPa) = 29.28856 31.63289 30.46072
#
# Velocity S-wave (km/s) = 3.72145 3.86752 3.79519
# Velocity P-wave (km/s) = 6.09365 6.55723 6.32968
#
# Compressibility (1/GPa) = 0.02533099
#
# Stress axis : x y z
#
# Youngs Moduli (GPa) = 65.77050 84.25296 65.29047
#
# Poissons Ratio (x) = 0.04712 0.40416
# Poissons Ratio (y) = 0.03678 0.11621
# Poissons Ratio (z) = 0.40713 0.14996
#
# Static dielectric constant tensor:
#      x y z
#    x 4.077190 0.000000 -0.295150 
#    y 0.000000 4.186030 0.000000 
#    z -0.295150 0.000000 4.001590 
# 
# 
# High freq. dielectric constant tensor:
#      x y z
#    x 1.837800 0.000000 -0.018190 
#    y 0.000000 1.841200 0.000000 
#    z -0.018190 0.000000 1.831910 
# 
# From -- ./inp_files/77979.got.cif
#   From: 2010.03.12/outbox.cif.g09.slc.cpg/sg14_39_cif.got.tgz:77979.got - 2010.03.31 13:35:05.
