data_PCOD8127438
_publ_section_title
;
Structure prediction by ZEFSAII (Michael W. Deem and Ramdas Pophale) SiO2 
 PCOD8127438
Probable space group: P 21/C
;
_chemical_formula_sum "Si O2"
_cell_formula_units_Z 28
_cell_length_a 20.887366
_cell_length_b 4.968190
_cell_length_c 12.866358
_cell_angle_alpha 90.000000
_cell_angle_beta 54.648319
_cell_angle_gamma 90.000000
_cell_volume 1088.988407
_symmetry_space_group_name_H-M "P 21/C"
_symmetry_group_IT_number 14
_symmetry_cell_setting 'monoclinic'
loop_
_space_group_symop_operation_xyz
x,y,z
-x,1/2+y,1/2-z
-x,-y,-z
x,1/2-y,1/2+z
loop_
_atom_site_type_symbol
_atom_site_label
_atom_site_fract_x
_atom_site_fract_y
_atom_site_fract_z
Si Si1 0.675464 0.639020 0.202660
Si Si2 0.831381 0.787285 0.177249
Si Si3 0.374227 0.847351 0.062109
Si Si4 0.289641 0.138458 0.558550
Si Si5 0.052422 0.558787 0.819712
Si Si6 0.516060 0.798063 0.299958
Si Si7 0.051518 0.940882 0.082751
O O1 0.750596 0.734388 0.194511
O O2 0.632278 0.405172 0.308888
O O3 0.605674 0.858669 0.252104
O O4 0.707718 0.536079 0.062146
O O5 0.801481 0.900369 0.317214
O O6 0.880228 0.517571 0.160461
O O7 0.878831 0.997794 0.062612
O O8 0.342166 0.548571 0.080939
O O9 0.322780 0.057760 0.041434
O O10 0.464407 0.837317 0.939817
O O11 0.081440 0.522570 0.673152
O O12 0.023057 0.862052 0.869514
O O13 0.978104 0.361322 0.909007
O O14 0.522616 0.576247 0.201281
#
# Coordination Sequence:
#
# PCOD8127438 Si02
#       7
#     4   4   4   4   4   4   4
#     4  11  25  44  71  99 139 182 226 287 349 397
#     4  11  24  42  66 102 136 177 224 280 341 406
#     4  11  24  45  68  99 130 181 233 282 341 404
#     4  11  25  44  66  98 140 177 226 285 339 405
#     4  10  22  42  68  98 131 174 224 273 328 405
#     4  12  23  45  73  95 135 181 232 289 335 405
#     4  10  22  42  69  95 132 177 220 271 334 399
#
# _framework density 25.711933999999999
#
# number of rings (size 3 to 8) (size 9 to 14) (size 15 to 20)
#    0.000    1.143    2.857    2.143    0.000    9.143 
#    0.000   10.714    0.000    0.000    0.000    0.000 
#    0.000    0.000    0.000    0.000    0.000    0.000 
#
# Total GULP energy -347090.137277 kJ/mol
# GULP energy per Si atom -12396.076331 kJ/mol
# Density = 2.565341 g / cm^3
# Si number density = 25.711934 Si / 1000 Ang^3
#
#
#
# Elastic Constant Matrix: (Units=GPa)
#
#
# Indices 1 2 3 4 5 6 
#
# 1 122.5586 13.0096 30.4062 0.0000 -10.9150 0.0000
# 2 13.0096 73.8266 4.2133 0.0000 -1.9396 0.0000
# 3 30.4062 4.2133 177.7902 0.0000 -12.0036 0.0000
# 4 0.0000 0.0000 0.0000 21.7088 0.0000 2.8261
# 5 -10.9150 -1.9396 -12.0036 0.0000 28.2749 0.0000
# 6 0.0000 0.0000 0.0000 2.8261 0.0000 16.1503
#
#
#
# Elastic Compliance Matrix: (Units=1/GPa)
#
#
# Indices 1 2 3 4 5 6 
#
# 1 0.008879 -0.001418 -0.001297 0.000000 0.002780 0.000000
# 2 -0.001418 0.013808 -0.000059 0.000000 0.000375 0.000000
# 3 -0.001297 -0.000059 0.005985 0.000000 0.002036 0.000000
# 4 0.000000 0.000000 0.000000 0.047138 0.000000 -0.008248
# 5 0.002780 0.000375 0.002036 0.000000 0.037330 0.000000
# 6 0.000000 0.000000 0.000000 -0.008248 0.000000 0.063362
#
#
# Mechanical properties :
#
#
# Convention : Reuss Voigt Hill
#
# Bulk Modulus (GPa) = 43.24489 52.15929 47.70209
# Shear Modulus (GPa) = 26.34912 34.99656 30.67284
#
# Velocity S-wave (km/s) = 3.20469 3.69331 3.45765
# Velocity P-wave (km/s) = 5.52711 6.20625 5.87650
#
# Compressibility (1/GPa) = 0.02312412
#
# Stress axis : x y z
#
# Youngs Moduli (GPa) = 112.62210 72.42018 167.07458
#
# Poissons Ratio (x) = 0.10266 0.21674
# Poissons Ratio (y) = 0.15966 0.00994
# Poissons Ratio (z) = 0.14610 0.00431
#
# Static dielectric constant tensor:
#      x y z
#    x 4.520030 0.000000 0.228140 
#    y 0.000000 4.275010 0.000000 
#    z 0.228140 0.000000 5.521350 
# 
# 
# High freq. dielectric constant tensor:
#      x y z
#    x 2.019840 0.000000 0.006990 
#    y 0.000000 2.008880 0.000000 
#    z 0.006990 0.000000 2.059920 
# 
# From -- ./inp_files/49654.got.cif
#   From: 2010.03.12/outbox.cif.g09.slc.cpg/sg14_25_cif.got.tgz:49654.got - 2010.03.31 13:35:05.
