data_PCOD8127342
_publ_section_title
;
Structure prediction by ZEFSAII (Michael W. Deem and Ramdas Pophale) SiO2 
 PCOD8127342
Probable space group: P 21/C
;
_chemical_formula_sum "Si O2"
_cell_formula_units_Z 20
_cell_length_a 6.581389
_cell_length_b 14.732535
_cell_length_c 9.480908
_cell_angle_alpha 90.000000
_cell_angle_beta 99.903224
_cell_angle_gamma 90.000000
_cell_volume 905.576491
_symmetry_space_group_name_H-M "P 21/C"
_symmetry_group_IT_number 14
_symmetry_cell_setting 'monoclinic'
loop_
_space_group_symop_operation_xyz
x,y,z
-x,1/2+y,1/2-z
-x,-y,-z
x,1/2-y,1/2+z
loop_
_atom_site_type_symbol
_atom_site_label
_atom_site_fract_x
_atom_site_fract_y
_atom_site_fract_z
Si Si1 0.777680 0.403596 0.590842
Si Si2 0.400863 0.895727 0.641159
Si Si3 0.465772 0.307194 0.359058
Si Si4 0.913441 0.902472 0.095307
Si Si5 0.684081 0.064716 0.680686
O O1 0.776641 0.391352 0.759573
O O2 0.581246 0.350910 0.506512
O O3 0.767886 0.510363 0.548169
O O4 0.985057 0.365143 0.538815
O O5 0.511014 0.799767 0.642600
O O6 0.288761 0.922669 0.483138
O O7 0.572931 0.969779 0.703294
O O8 0.221838 0.323921 0.350333
O O9 0.546410 0.352534 0.224370
O O10 0.091198 0.934137 0.224254
#
# Coordination Sequence:
#
# PCOD8127342 Si02
#       5
#     4   4   4   4   4
#     4  10  22  41  70  94 128 176 215 272 324 387
#     4  11  23  44  67  94 143 175 208 280 334 382
#     4  11  22  45  66  98 132 175 227 266 323 394
#     4  10  22  42  72  94 127 174 228 268 320 399
#     4  10  24  45  63  99 138 172 216 271 336 386
#
# _framework density 22.085379
#
# number of rings (size 3 to 8) (size 9 to 14) (size 15 to 20)
#    0.000    1.600    2.000    1.800    5.600    0.800 
#   10.800    0.000    0.000    0.000    0.000    0.000 
#    0.000    0.000    0.000    0.000    0.000    0.000 
#
# Total GULP energy -247994.645815 kJ/mol
# GULP energy per Si atom -12399.732291 kJ/mol
# Density = 2.203511 g / cm^3
# Si number density = 22.085379 Si / 1000 Ang^3
#
#
#
# Elastic Constant Matrix: (Units=GPa)
#
#
# Indices 1 2 3 4 5 6 
#
# 1 94.1606 41.1625 47.1018 0.0000 -12.9910 0.0000
# 2 41.1625 121.5272 24.4366 0.0000 10.2271 0.0000
# 3 47.1018 24.4366 148.3058 0.0000 -27.2402 0.0000
# 4 0.0000 0.0000 0.0000 25.5747 0.0000 -2.8550
# 5 -12.9910 10.2271 -27.2402 0.0000 21.2329 0.0000
# 6 0.0000 0.0000 0.0000 -2.8550 0.0000 27.8487
#
#
#
# Elastic Compliance Matrix: (Units=1/GPa)
#
#
# Indices 1 2 3 4 5 6 
#
# 1 0.015466 -0.005544 -0.002316 0.000000 0.009162 0.000000
# 2 -0.005544 0.011588 -0.002351 0.000000 -0.011989 0.000000
# 3 -0.002316 -0.002351 0.010222 0.000000 0.012830 0.000000
# 4 0.000000 0.000000 0.000000 0.039554 0.000000 0.004055
# 5 0.009162 -0.011989 0.012830 0.000000 0.074937 0.000000
# 6 0.000000 0.000000 0.000000 0.004055 0.000000 0.036324
#
#
# Mechanical properties :
#
#
# Convention : Reuss Voigt Hill
#
# Bulk Modulus (GPa) = 59.32781 65.48838 62.40810
# Shear Modulus (GPa) = 23.35027 31.68413 27.51720
#
# Velocity S-wave (km/s) = 3.25510 3.79175 3.53363
# Velocity P-wave (km/s) = 6.40694 6.99189 6.70579
#
# Compressibility (1/GPa) = 0.01685550
#
# Stress axis : x y z
#
# Youngs Moduli (GPa) = 64.65736 86.29562 97.82683
#
# Poissons Ratio (x) = 0.47842 0.22653
# Poissons Ratio (y) = 0.35846 0.22997
# Poissons Ratio (z) = 0.14973 0.20286
#
# Static dielectric constant tensor:
#      x y z
#    x 3.884050 0.000000 -0.341390 
#    y 0.000000 3.900650 0.000000 
#    z -0.341390 0.000000 4.200950 
# 
# 
# High freq. dielectric constant tensor:
#      x y z
#    x 1.857430 0.000000 -0.018890 
#    y 0.000000 1.864320 0.000000 
#    z -0.018890 0.000000 1.878040 
# 
# From -- ./inp_files/5498.got.cif
#   From: 2010.03.12/outbox.cif.g09.slc.cpg/sg14_3_cif.got.tgz:5498.got - 2010.03.31 13:35:05.
