data_PCOD8127883
_publ_section_title
;
Structure prediction by ZEFSAII (Michael W. Deem and Ramdas Pophale) SiO2 
 PCOD8127883
Probable space group: P 21/C
;
_chemical_formula_sum "Si O2"
_cell_formula_units_Z 24
_cell_length_a 21.072201
_cell_length_b 8.243569
_cell_length_c 19.659900
_cell_angle_alpha 90.000000
_cell_angle_beta 21.088795
_cell_angle_gamma 90.000000
_cell_volume 1228.810633
_symmetry_space_group_name_H-M "P 21/C"
_symmetry_group_IT_number 14
_symmetry_cell_setting 'monoclinic'
loop_
_space_group_symop_operation_xyz
x,y,z
-x,1/2+y,1/2-z
-x,-y,-z
x,1/2-y,1/2+z
loop_
_atom_site_type_symbol
_atom_site_label
_atom_site_fract_x
_atom_site_fract_y
_atom_site_fract_z
Si Si1 0.468527 0.608283 0.819875
Si Si2 0.824118 0.881143 0.601836
Si Si3 0.470431 0.544092 0.377882
Si Si4 0.850282 0.616177 0.840724
Si Si5 0.847716 0.636450 0.467289
Si Si6 0.856329 0.619092 0.224779
O O1 0.477337 0.594188 0.728928
O O2 0.421847 0.792855 0.885465
O O3 0.655102 0.555176 0.666368
O O4 0.323443 0.490048 0.996286
O O5 0.631689 0.932008 0.768026
O O6 0.897835 0.724936 0.487481
O O7 0.808772 0.832010 0.695645
O O8 0.957461 0.028758 0.457681
O O9 0.298152 0.492962 0.591436
O O10 0.830586 0.729479 0.925527
O O11 0.880416 0.715970 0.742185
O O12 0.014190 0.499228 0.691130
#
# Coordination Sequence:
#
# PCOD8127883 Si02
#       6
#     4   4   4   4   4   4
#     4  11  22  38  63  90 126 154 202 261 298 353
#     4  10  23  43  62  87 125 162 204 249 303 365
#     4  11  21  39  62  92 121 163 205 250 304 361
#     4  12  24  38  63  92 122 160 206 254 306 359
#     4  11  24  39  61  92 122 158 205 255 306 361
#     4  11  23  41  63  89 123 164 204 247 305 365
#
# _framework density 19.531079999999999
#
# number of rings (size 3 to 8) (size 9 to 14) (size 15 to 20)
#    0.000    1.000    5.000    2.500    2.333    2.000 
#    0.000    3.333    0.000    0.000    0.000    0.000 
#    0.000    0.000    0.000    0.000    0.000    0.000 
#
# Total GULP energy -297700.735263 kJ/mol
# GULP energy per Si atom -12404.197303 kJ/mol
# Density = 1.948663 g / cm^3
# Si number density = 19.531080 Si / 1000 Ang^3
#
#
#
# Elastic Constant Matrix: (Units=GPa)
#
#
# Indices 1 2 3 4 5 6 
#
# 1 113.2441 50.7449 34.4790 0.0000 6.9589 0.0000
# 2 50.7449 88.0327 57.3839 0.0000 -9.1079 0.0000
# 3 34.4790 57.3839 94.3754 0.0000 -4.9026 0.0000
# 4 0.0000 0.0000 0.0000 32.6550 0.0000 5.9662
# 5 6.9589 -9.1079 -4.9026 0.0000 30.2907 0.0000
# 6 0.0000 0.0000 0.0000 5.9662 0.0000 32.9131
#
#
#
# Elastic Compliance Matrix: (Units=1/GPa)
#
#
# Indices 1 2 3 4 5 6 
#
# 1 0.012675 -0.007710 -0.000216 0.000000 -0.005265 0.000000
# 2 -0.007710 0.023961 -0.011382 0.000000 0.007134 0.000000
# 3 -0.000216 -0.011382 0.017568 0.000000 -0.000529 0.000000
# 4 0.000000 0.000000 0.000000 0.031672 0.000000 -0.005741
# 5 -0.005265 0.007134 -0.000529 0.000000 0.036282 0.000000
# 6 0.000000 0.000000 0.000000 -0.005741 0.000000 0.031424
#
#
# Mechanical properties :
#
#
# Convention : Reuss Voigt Hill
#
# Bulk Modulus (GPa) = 64.15256 64.54086 64.34671
# Shear Modulus (GPa) = 25.33010 29.37474 27.35242
#
# Velocity S-wave (km/s) = 3.60517 3.88235 3.74633
# Velocity P-wave (km/s) = 7.08854 7.29478 7.19240
#
# Compressibility (1/GPa) = 0.01558784
#
# Stress axis : x y z
#
# Youngs Moduli (GPa) = 78.89766 41.73456 56.92147
#
# Poissons Ratio (x) = 0.32177 0.01230
# Poissons Ratio (y) = 0.60829 0.64787
# Poissons Ratio (z) = 0.01705 0.47502
#
# Static dielectric constant tensor:
#      x y z
#    x 3.626950 0.000000 0.005980 
#    y 0.000000 3.573730 0.000000 
#    z 0.005980 0.000000 3.755990 
# 
# 
# High freq. dielectric constant tensor:
#      x y z
#    x 1.758620 0.000000 -0.003190 
#    y 0.000000 1.758580 0.000000 
#    z -0.003190 0.000000 1.780570 
# 
# From -- ./inp_files/69733.got.cif
#   From: 2010.03.12/outbox.cif.g09.slc.cpg/sg14_35_cif.got.tgz:69733.got - 2010.03.31 13:35:05.
