data_PCOD8127090
_publ_section_title
;
Structure prediction by ZEFSAII (Michael W. Deem and Ramdas Pophale) SiO2 
 PCOD8127090
Probable space group: P 21/C
;
_chemical_formula_sum "Si O2"
_cell_formula_units_Z 16
_cell_length_a 18.033588
_cell_length_b 5.131999
_cell_length_c 14.858764
_cell_angle_alpha 90.000000
_cell_angle_beta 35.153913
_cell_angle_gamma 90.000000
_cell_volume 791.779179
_symmetry_space_group_name_H-M "P 21/C"
_symmetry_group_IT_number 14
_symmetry_cell_setting 'monoclinic'
loop_
_space_group_symop_operation_xyz
x,y,z
-x,1/2+y,1/2-z
-x,-y,-z
x,1/2-y,1/2+z
loop_
_atom_site_type_symbol
_atom_site_label
_atom_site_fract_x
_atom_site_fract_y
_atom_site_fract_z
Si Si1 0.076496 0.141020 0.692910
Si Si2 0.369488 0.564359 0.180085
Si Si3 0.128267 0.356536 0.342604
Si Si4 0.733929 0.576812 0.148018
O O1 0.118745 0.237441 0.749381
O O2 0.021170 0.398229 0.698699
O O3 0.195314 0.030127 0.516738
O O4 0.249756 0.554222 0.228993
O O5 0.365948 0.843704 0.232146
O O6 0.350480 0.340473 0.274775
O O7 0.500000 0.500000 0.000000
O O8 0.000000 0.500000 0.500000
O O9 0.158404 0.108973 0.378585
#
# Coordination Sequence:
#
# PCOD8127090 Si02
#       4
#     4   4   4   4
#     4  12  23  36  60  93 129 158 200 256 317 369
#     4  10  22  42  63  85 122 166 205 254 313 364
#     4  10  22  39  62  92 121 162 201 256 315 361
#     4  10  22  39  62  88 125 157 209 252 306 372
#
# _framework density 20.207654999999999
#
# number of rings (size 3 to 8) (size 9 to 14) (size 15 to 20)
#    1.500    0.000    2.500    3.750    3.500    2.000 
#    0.000    2.500    0.000    0.000    0.000    0.000 
#    0.000    0.000    0.000    0.000    0.000    0.000 
#
# Total GULP energy -198269.274876 kJ/mol
# GULP energy per Si atom -12391.829680 kJ/mol
# Density = 2.016166 g / cm^3
# Si number density = 20.207655 Si / 1000 Ang^3
#
#
#
# Elastic Constant Matrix: (Units=GPa)
#
#
# Indices 1 2 3 4 5 6 
#
# 1 55.9515 9.2772 42.2018 0.0000 9.9493 0.0000
# 2 9.2772 123.3972 34.1174 0.0000 -1.5811 0.0000
# 3 42.2018 34.1174 156.6291 0.0000 -0.6829 0.0000
# 4 0.0000 0.0000 0.0000 36.8558 0.0000 -0.2277
# 5 9.9493 -1.5811 -0.6829 0.0000 41.8940 0.0000
# 6 0.0000 0.0000 0.0000 -0.2277 0.0000 16.6823
#
#
#
# Elastic Compliance Matrix: (Units=1/GPa)
#
#
# Indices 1 2 3 4 5 6 
#
# 1 0.023737 -0.000088 -0.006402 0.000000 -0.005745 0.000000
# 2 -0.000088 0.008627 -0.001854 0.000000 0.000316 0.000000
# 3 -0.006402 -0.001854 0.008520 0.000000 0.001589 0.000000
# 4 0.000000 0.000000 0.000000 0.027135 0.000000 0.000370
# 5 -0.005745 0.000316 0.001589 0.000000 0.025272 0.000000
# 6 0.000000 0.000000 0.000000 0.000370 0.000000 0.059949
#
#
# Mechanical properties :
#
#
# Convention : Reuss Voigt Hill
#
# Bulk Modulus (GPa) = 41.32772 56.35228 48.84000
# Shear Modulus (GPa) = 28.09090 35.77853 31.93471
#
# Velocity S-wave (km/s) = 3.73247 4.21235 3.97965
# Velocity P-wave (km/s) = 6.25068 7.18371 6.73337
#
# Compressibility (1/GPa) = 0.02419684
#
# Stress axis : x y z
#
# Youngs Moduli (GPa) = 42.12797 115.91230 117.36957
#
# Poissons Ratio (x) = 0.01023 0.75134
# Poissons Ratio (y) = 0.00372 0.21761
# Poissons Ratio (z) = 0.26968 0.21491
#
# Static dielectric constant tensor:
#      x y z
#    x 5.005740 0.000000 1.243690 
#    y 0.000000 3.622690 0.000000 
#    z 1.243690 0.000000 4.468850 
# 
# 
# High freq. dielectric constant tensor:
#      x y z
#    x 1.748880 0.000000 0.005170 
#    y 0.000000 1.793650 0.000000 
#    z 0.005170 0.000000 1.796510 
# 
# From -- ./inp_files/27388.got.cif
#   From: 2010.03.12/outbox.cif.g09.slc.cpg/sg14_14_cif.got.tgz:27388.got - 2010.03.31 13:35:05.
