data_PCOD8127895
_publ_section_title
;
Structure prediction by ZEFSAII (Michael W. Deem and Ramdas Pophale) SiO2 
 PCOD8127895
Probable space group: P 21/C
;
_chemical_formula_sum "Si O2"
_cell_formula_units_Z 28
_cell_length_a 19.040375
_cell_length_b 7.468378
_cell_length_c 9.198678
_cell_angle_alpha 90.000000
_cell_angle_beta 125.249409
_cell_angle_gamma 90.000000
_cell_volume 1068.222808
_symmetry_space_group_name_H-M "P 21/C"
_symmetry_group_IT_number 14
_symmetry_cell_setting 'monoclinic'
loop_
_space_group_symop_operation_xyz
x,y,z
-x,1/2+y,1/2-z
-x,-y,-z
x,1/2-y,1/2+z
loop_
_atom_site_type_symbol
_atom_site_label
_atom_site_fract_x
_atom_site_fract_y
_atom_site_fract_z
Si Si1 0.345511 0.656218 0.483058
Si Si2 0.840792 0.108953 0.210828
Si Si3 0.574442 0.065571 0.224436
Si Si4 0.395891 0.288164 0.562166
Si Si5 0.064007 0.735551 0.912992
Si Si6 0.121940 0.125744 0.334338
Si Si7 0.220194 0.252990 0.715098
O O1 0.248142 0.720712 0.391185
O O2 0.360342 0.608324 0.329149
O O3 0.405099 0.815415 0.609143
O O4 0.361268 0.472399 0.596151
O O5 0.911719 0.215171 0.390333
O O6 0.883125 0.101951 0.100291
O O7 0.820019 0.913115 0.242965
O O8 0.477576 0.130950 0.064777
O O9 0.579230 0.860176 0.288502
O O10 0.323044 0.221995 0.359961
O O11 0.095604 0.561142 0.866802
O O12 0.961974 0.751190 0.782042
O O13 0.195759 0.228530 0.518231
O O14 0.167611 0.087538 0.232564
#
# Coordination Sequence:
#
# PCOD8127895 Si02
#       7
#     4   4   4   4   4   4   4
#     4  11  26  47  71 108 145 188 243 298 358 431
#     4  10  23  43  64  97 132 177 220 285 338 409
#     4  12  26  47  75 104 146 189 244 297 362 431
#     4  11  26  45  74 104 143 190 235 300 358 427
#     4  11  23  41  69  94 137 172 228 275 342 407
#     4  11  24  43  65 100 130 180 222 283 338 411
#     4  10  25  42  66  94 138 172 229 278 347 409
#
# _framework density 26.211760999999999
#
# number of rings (size 3 to 8) (size 9 to 14) (size 15 to 20)
#    0.000    1.143    1.429    3.000    8.000    7.429 
#    2.571    0.000    0.000    0.000    0.000    0.000 
#    0.000    0.000    0.000    0.000    0.000    0.000 
#
# Total GULP energy -347018.480711 kJ/mol
# GULP energy per Si atom -12393.517168 kJ/mol
# Density = 2.615210 g / cm^3
# Si number density = 26.211761 Si / 1000 Ang^3
#
#
#
# Elastic Constant Matrix: (Units=GPa)
#
#
# Indices 1 2 3 4 5 6 
#
# 1 111.7696 12.5139 45.6507 0.0000 21.6662 0.0000
# 2 12.5139 81.8123 28.7677 0.0000 -0.3797 0.0000
# 3 45.6507 28.7677 105.8212 0.0000 19.8362 0.0000
# 4 0.0000 0.0000 0.0000 23.5680 0.0000 -1.4558
# 5 21.6662 -0.3797 19.8362 0.0000 56.0350 0.0000
# 6 0.0000 0.0000 0.0000 -1.4558 0.0000 32.8548
#
#
#
# Elastic Compliance Matrix: (Units=1/GPa)
#
#
# Indices 1 2 3 4 5 6 
#
# 1 0.011267 -0.000238 -0.004261 0.000000 -0.002849 0.000000
# 2 -0.000238 0.013637 -0.003898 0.000000 0.001564 0.000000
# 3 -0.004261 -0.003898 0.012900 0.000000 -0.002945 0.000000
# 4 0.000000 0.000000 0.000000 0.042547 0.000000 0.001885
# 5 -0.002849 0.001564 -0.002945 0.000000 0.020001 0.000000
# 6 0.000000 0.000000 0.000000 0.001885 0.000000 0.030520
#
#
# Mechanical properties :
#
#
# Convention : Reuss Voigt Hill
#
# Bulk Modulus (GPa) = 47.59853 52.58529 50.09191
# Shear Modulus (GPa) = 32.32690 36.65630 34.49160
#
# Velocity S-wave (km/s) = 3.51564 3.74367 3.63144
# Velocity P-wave (km/s) = 5.88883 6.22832 6.06095
#
# Compressibility (1/GPa) = 0.02100905
#
# Stress axis : x y z
#
# Youngs Moduli (GPa) = 88.75865 73.32785 77.51925
#
# Poissons Ratio (x) = 0.01746 0.33035
# Poissons Ratio (y) = 0.02113 0.30216
# Poissons Ratio (z) = 0.37824 0.28582
#
# Static dielectric constant tensor:
#      x y z
#    x 4.938480 0.000000 0.254420 
#    y 0.000000 4.739850 0.000000 
#    z 0.254420 0.000000 4.883170 
# 
# 
# High freq. dielectric constant tensor:
#      x y z
#    x 2.057480 0.000000 0.014760 
#    y 0.000000 2.052960 0.000000 
#    z 0.014760 0.000000 2.051850 
# 
# From -- ./inp_files/18784.got.cif
#   From: 2010.03.12/outbox.cif.g09.slc.cpg/sg14_10_cif.got.tgz:18784.got - 2010.03.31 13:35:05.
