data_PCOD8127346
_publ_section_title
;
Structure prediction by ZEFSAII (Michael W. Deem and Ramdas Pophale) SiO2 
 PCOD8127346
Probable space group: P 21/C
;
_chemical_formula_sum "Si O2"
_cell_formula_units_Z 28
_cell_length_a 8.375921
_cell_length_b 14.090438
_cell_length_c 20.324686
_cell_angle_alpha 90.000000
_cell_angle_beta 147.980648
_cell_angle_gamma 90.000000
_cell_volume 1271.818905
_symmetry_space_group_name_H-M "P 21/C"
_symmetry_group_IT_number 14
_symmetry_cell_setting 'monoclinic'
loop_
_space_group_symop_operation_xyz
x,y,z
-x,1/2+y,1/2-z
-x,-y,-z
x,1/2-y,1/2+z
loop_
_atom_site_type_symbol
_atom_site_label
_atom_site_fract_x
_atom_site_fract_y
_atom_site_fract_z
Si Si1 0.622369 0.788369 0.435253
Si Si2 0.700214 0.964559 0.159495
Si Si3 0.396687 0.984390 0.391021
Si Si4 0.308348 0.979695 0.145161
Si Si5 0.673290 0.634385 0.238285
Si Si6 0.646776 0.149524 0.059304
Si Si7 0.693797 0.228611 0.810513
O O1 0.584348 0.901473 0.421865
O O2 0.453277 0.745003 0.439329
O O3 0.480135 0.744871 0.318317
O O4 0.973947 0.770661 0.567971
O O5 0.052099 0.952687 0.272653
O O6 0.596851 0.970283 0.198754
O O7 0.589280 0.061788 0.087840
O O8 0.552096 0.871357 0.074778
O O9 0.500000 0.000000 0.500000
O O10 0.450737 0.082164 0.370198
O O11 0.368668 0.064750 0.215306
O O12 0.276668 0.884185 0.175818
O O13 0.000000 0.000000 0.000000
O O14 0.488979 0.729517 0.190895
O O15 0.015226 0.664002 0.346489
#
# Coordination Sequence:
#
# PCOD8127346 Si02
#       7
#     4   4   4   4   4   4   4
#     4  12  27  47  70 104 146 189 246 296 364 437
#     4  10  22  41  71  98 135 184 233 300 356 422
#     4  11  27  46  66  99 146 195 236 297 367 434
#     4  12  23  45  74 107 145 180 242 302 368 432
#     4  11  25  46  71 105 145 184 242 299 365 431
#     4  10  22  42  73 101 135 181 240 293 353 427
#     4  12  28  46  74 108 143 196 240 304 368 434
#
# _framework density 22.015712000000001
#
# number of rings (size 3 to 8) (size 9 to 14) (size 15 to 20)
#    0.000    0.857    2.857    3.429   10.000    2.857 
#    0.000    0.000    0.000    0.000    0.000    0.000 
#    0.000    0.000    0.000    0.000    0.000    0.000 
#
# Total GULP energy -347322.081848 kJ/mol
# GULP energy per Si atom -12404.360066 kJ/mol
# Density = 2.196560 g / cm^3
# Si number density = 22.015712 Si / 1000 Ang^3
#
#
#
# Elastic Constant Matrix: (Units=GPa)
#
#
# Indices 1 2 3 4 5 6 
#
# 1 113.3015 15.6432 33.3606 0.0000 0.6309 0.0000
# 2 15.6432 60.3969 18.1116 0.0000 7.9966 0.0000
# 3 33.3606 18.1116 112.5184 0.0000 -9.8105 0.0000
# 4 0.0000 0.0000 0.0000 25.3792 0.0000 -2.6893
# 5 0.6309 7.9966 -9.8105 0.0000 36.8274 0.0000
# 6 0.0000 0.0000 0.0000 -2.6893 0.0000 49.5412
#
#
#
# Elastic Compliance Matrix: (Units=1/GPa)
#
#
# Indices 1 2 3 4 5 6 
#
# 1 0.009854 -0.001674 -0.002698 0.000000 -0.000524 0.000000
# 2 -0.001674 0.018488 -0.002894 0.000000 -0.004757 0.000000
# 3 -0.002698 -0.002894 0.010455 0.000000 0.003460 0.000000
# 4 0.000000 0.000000 0.000000 0.039630 0.000000 0.002151
# 5 -0.000524 -0.004757 0.003460 0.000000 0.029117 0.000000
# 6 0.000000 0.000000 0.000000 0.002151 0.000000 0.020302
#
#
# Mechanical properties :
#
#
# Convention : Reuss Voigt Hill
#
# Bulk Modulus (GPa) = 41.21142 46.71640 43.96391
# Shear Modulus (GPa) = 33.22956 36.95634 35.09295
#
# Velocity S-wave (km/s) = 3.88926 4.10156 3.99682
# Velocity P-wave (km/s) = 6.23924 6.61030 6.42745
#
# Compressibility (1/GPa) = 0.02426512
#
# Stress axis : x y z
#
# Youngs Moduli (GPa) = 101.47708 54.08769 95.64862
#
# Poissons Ratio (x) = 0.09054 0.25806
# Poissons Ratio (y) = 0.16986 0.27685
# Poissons Ratio (z) = 0.27379 0.15656
#
# Static dielectric constant tensor:
#      x y z
#    x 4.071110 0.000000 -0.127290 
#    y 0.000000 3.691290 0.000000 
#    z -0.127290 0.000000 4.023060 
# 
# 
# High freq. dielectric constant tensor:
#      x y z
#    x 1.878810 0.000000 -0.001420 
#    y 0.000000 1.867740 0.000000 
#    z -0.001420 0.000000 1.867420 
# 
# From -- ./inp_files/65943.got.cif
#   From: 2010.03.12/outbox.cif.g09.slc.cpg/sg14_33_cif.got.tgz:65943.got - 2010.03.31 13:35:05.
