data_PCOD8127991
_publ_section_title
;
Structure prediction by ZEFSAII (Michael W. Deem and Ramdas Pophale) SiO2 
 PCOD8127991
Probable space group: P 21/C
;
_chemical_formula_sum "Si O2"
_cell_formula_units_Z 32
_cell_length_a 18.937936
_cell_length_b 11.016246
_cell_length_c 15.464503
_cell_angle_alpha 90.000000
_cell_angle_beta 26.146087
_cell_angle_gamma 90.000000
_cell_volume 1421.697570
_symmetry_space_group_name_H-M "P 21/C"
_symmetry_group_IT_number 14
_symmetry_cell_setting 'monoclinic'
loop_
_space_group_symop_operation_xyz
x,y,z
-x,1/2+y,1/2-z
-x,-y,-z
x,1/2-y,1/2+z
loop_
_atom_site_type_symbol
_atom_site_label
_atom_site_fract_x
_atom_site_fract_y
_atom_site_fract_z
Si Si1 0.782621 0.460174 0.821434
Si Si2 0.613552 0.267242 0.436641
Si Si3 0.842910 0.519982 0.937344
Si Si4 0.847027 0.588548 0.587424
Si Si5 0.622204 0.535739 0.498776
Si Si6 0.307678 0.797292 0.339683
Si Si7 0.723257 0.829645 0.723839
Si Si8 0.789027 0.454286 0.483883
O O1 0.691128 0.330468 0.916780
O O2 0.745388 0.528277 0.952946
O O3 0.738415 0.541545 0.787338
O O4 0.972902 0.454831 0.610534
O O5 0.590178 0.398226 0.505943
O O6 0.717841 0.269042 0.233948
O O7 0.430781 0.238813 0.611256
O O8 0.022246 0.572389 0.737478
O O9 0.844914 0.377069 0.961345
O O10 0.736148 0.588360 0.124929
O O11 0.867234 0.733950 0.568423
O O12 0.759200 0.540459 0.598368
O O13 0.466299 0.620725 0.682343
O O14 0.728859 0.590100 0.303930
O O15 0.720943 0.530864 0.478613
O O16 0.305425 0.672471 0.397024
#
# Coordination Sequence:
#
# PCOD8127991 Si02
#       8
#     4   4   4   4   4   4   4   4
#     4  10  23  44  69  94 132 180 222 283 338 394
#     4  11  21  45  73  93 132 181 224 275 343 396
#     4  11  24  43  67 100 139 176 228 283 342 399
#     4  10  24  45  63  99 136 175 229 276 335 405
#     4  11  24  45  68 103 133 180 224 271 348 399
#     4  11  22  48  69  95 140 176 222 292 330 404
#     4  11  24  43  67  99 141 174 224 283 329 412
#     4  11  26  42  70 102 134 182 230 276 344 408
#
# _framework density 22.508302
#
# number of rings (size 3 to 8) (size 9 to 14) (size 15 to 20)
#    0.000    1.250    3.750    1.500    5.250    5.000 
#    4.500    0.000    0.000    0.000    0.000    0.000 
#    0.000    0.000    0.000    0.000    0.000    0.000 
#
# Total GULP energy -396603.355545 kJ/mol
# GULP energy per Si atom -12393.854861 kJ/mol
# Density = 2.245707 g / cm^3
# Si number density = 22.508302 Si / 1000 Ang^3
#
#
#
# Elastic Constant Matrix: (Units=GPa)
#
#
# Indices 1 2 3 4 5 6 
#
# 1 160.4378 64.3769 55.1033 0.0000 32.3651 0.0000
# 2 64.3769 133.3092 38.7623 0.0000 13.8931 0.0000
# 3 55.1033 38.7623 66.1909 0.0000 24.7269 0.0000
# 4 0.0000 0.0000 0.0000 34.8387 0.0000 -6.1580
# 5 32.3651 13.8931 24.7269 0.0000 31.0354 0.0000
# 6 0.0000 0.0000 0.0000 -6.1580 0.0000 22.7683
#
#
#
# Elastic Compliance Matrix: (Units=1/GPa)
#
#
# Indices 1 2 3 4 5 6 
#
# 1 0.010133 -0.002971 -0.004620 0.000000 -0.005556 0.000000
# 2 -0.002971 0.009913 -0.004032 0.000000 0.001873 0.000000
# 3 -0.004620 -0.004032 0.026825 0.000000 -0.014750 0.000000
# 4 0.000000 0.000000 0.000000 0.030145 0.000000 0.008153
# 5 -0.005556 0.001873 -0.014750 0.000000 0.048928 0.000000
# 6 0.000000 0.000000 0.000000 0.008153 0.000000 0.046126
#
#
# Mechanical properties :
#
#
# Convention : Reuss Voigt Hill
#
# Bulk Modulus (GPa) = 42.32679 75.15810 58.74245
# Shear Modulus (GPa) = 24.60755 31.17484 27.89119
#
# Velocity S-wave (km/s) = 3.31004 3.72565 3.52398
# Velocity P-wave (km/s) = 5.78397 7.20909 6.53549
#
# Compressibility (1/GPa) = 0.02362570
#
# Stress axis : x y z
#
# Youngs Moduli (GPa) = 98.69186 100.87647 37.27878
#
# Poissons Ratio (x) = 0.29968 0.17223
# Poissons Ratio (y) = 0.29319 0.15029
# Poissons Ratio (z) = 0.45596 0.40670
#
# Static dielectric constant tensor:
#      x y z
#    x 4.357060 0.000000 0.398660 
#    y 0.000000 3.997950 0.000000 
#    z 0.398660 0.000000 4.043670 
# 
# 
# High freq. dielectric constant tensor:
#      x y z
#    x 1.889870 0.000000 0.022420 
#    y 0.000000 1.888950 0.000000 
#    z 0.022420 0.000000 1.885770 
# 
# From -- ./inp_files/48977.got.cif
#   From: 2010.03.12/outbox.cif.g09.slc.cpg/sg14_25_cif.got.tgz:48977.got - 2010.03.31 13:35:05.
