data_PCOD8127773
_publ_section_title
;
Structure prediction by ZEFSAII (Michael W. Deem and Ramdas Pophale) SiO2 
 PCOD8127773
Probable space group: P 21/C
;
_chemical_formula_sum "Si O2"
_cell_formula_units_Z 32
_cell_length_a 5.345828
_cell_length_b 31.545707
_cell_length_c 10.395146
_cell_angle_alpha 90.000000
_cell_angle_beta 122.930911
_cell_angle_gamma 90.000000
_cell_volume 1471.353000
_symmetry_space_group_name_H-M "P 21/C"
_symmetry_group_IT_number 14
_symmetry_cell_setting 'monoclinic'
loop_
_space_group_symop_operation_xyz
x,y,z
-x,1/2+y,1/2-z
-x,-y,-z
x,1/2-y,1/2+z
loop_
_atom_site_type_symbol
_atom_site_label
_atom_site_fract_x
_atom_site_fract_y
_atom_site_fract_z
Si Si1 0.842742 0.180248 0.391812
Si Si2 0.851513 0.165851 0.987078
Si Si3 0.719362 0.388821 0.680355
Si Si4 0.220579 0.217962 0.263799
Si Si5 0.240388 0.314245 0.241518
Si Si6 0.169251 0.050184 0.416168
Si Si7 0.862499 0.606386 0.608726
Si Si8 0.142432 0.951683 0.399751
O O1 0.692852 0.134836 0.311573
O O2 0.578410 0.210899 0.368350
O O3 0.053921 0.198781 0.339786
O O4 0.072526 0.169279 0.569407
O O5 0.599987 0.187691 0.827680
O O6 0.919327 0.119719 0.944727
O O7 0.753809 0.152357 0.101482
O O8 0.115143 0.199358 0.093992
O O9 0.426865 0.412807 0.545292
O O10 0.989459 0.422330 0.761151
O O11 0.134534 0.267286 0.247068
O O12 0.181268 0.347869 0.337197
O O13 0.514533 0.063571 0.500006
O O14 0.037503 0.059318 0.521178
O O15 0.128008 0.001437 0.367012
O O16 0.986447 0.570808 0.736480
#
# Coordination Sequence:
#
# PCOD8127773 Si02
#       8
#     4   4   4   4   4   4   4   4
#     4  11  25  42  64  94 122 170 216 269 318 386
#     4  10  24  43  60  94 132 166 214 272 321 384
#     4  10  23  41  65  93 132 171 215 262 322 390
#     4  11  25  44  63  89 131 166 219 267 329 377
#     4  11  26  39  66  91 124 174 217 271 322 387
#     4  10  23  45  69 101 128 174 212 268 319 392
#     4  11  24  41  64  96 130 173 212 274 321 389
#     4  10  24  43  70  98 137 164 218 267 323 386
#
# _framework density 21.748691000000001
#
# number of rings (size 3 to 8) (size 9 to 14) (size 15 to 20)
#    0.000    1.500    1.250    1.500   12.250    1.500 
#    0.000    0.625    0.000    0.000    0.000    0.000 
#    0.000    0.000    0.000    0.000    0.000    0.000 
#
# Total GULP energy -396473.707041 kJ/mol
# GULP energy per Si atom -12389.803345 kJ/mol
# Density = 2.169919 g / cm^3
# Si number density = 21.748691 Si / 1000 Ang^3
#
#
#
# Elastic Constant Matrix: (Units=GPa)
#
#
# Indices 1 2 3 4 5 6 
#
# 1 94.3229 6.2144 31.7669 0.0000 15.7176 0.0000
# 2 6.2144 67.2287 46.0160 0.0000 11.2141 0.0000
# 3 31.7669 46.0160 167.0957 0.0000 29.2414 0.0000
# 4 0.0000 0.0000 0.0000 40.4870 0.0000 4.9494
# 5 15.7176 11.2141 29.2414 0.0000 30.5349 0.0000
# 6 0.0000 0.0000 0.0000 4.9494 0.0000 22.9308
#
#
#
# Elastic Compliance Matrix: (Units=1/GPa)
#
#
# Indices 1 2 3 4 5 6 
#
# 1 0.011911 0.000835 -0.001643 0.000000 -0.004864 0.000000
# 2 0.000835 0.018521 -0.004798 0.000000 -0.002637 0.000000
# 3 -0.001643 -0.004798 0.008604 0.000000 -0.005631 0.000000
# 4 0.000000 0.000000 0.000000 0.025369 0.000000 -0.005476
# 5 -0.004864 -0.002637 -0.005631 0.000000 0.041615 0.000000
# 6 0.000000 0.000000 0.000000 -0.005476 0.000000 0.044791
#
#
# Mechanical properties :
#
#
# Convention : Reuss Voigt Hill
#
# Bulk Modulus (GPa) = 35.94010 55.18243 45.56127
# Shear Modulus (GPa) = 29.18912 35.10053 32.14483
#
# Velocity S-wave (km/s) = 3.66746 4.02171 3.84866
# Velocity P-wave (km/s) = 5.87322 6.85517 6.38311
#
# Compressibility (1/GPa) = 0.02782407
#
# Stress axis : x y z
#
# Youngs Moduli (GPa) = 83.95746 53.99212 116.22908
#
# Poissons Ratio (x) = -0.04509 0.19098
# Poissons Ratio (y) = -0.07011 0.55764
# Poissons Ratio (z) = 0.13795 0.25904
#
# Static dielectric constant tensor:
#      x y z
#    x 3.905750 0.000000 0.174900 
#    y 0.000000 3.805790 0.000000 
#    z 0.174900 0.000000 4.218890 
# 
# 
# High freq. dielectric constant tensor:
#      x y z
#    x 1.847520 0.000000 0.008250 
#    y 0.000000 1.846700 0.000000 
#    z 0.008250 0.000000 1.871700 
# 
# From -- ./inp_files/22375.got.cif
#   From: 2010.03.12/outbox.cif.g09.slc.cpg/sg14_12_cif.got.tgz:22375.got - 2010.03.31 13:35:05.
