data_PCOD8127142
_publ_section_title
;
Structure prediction by ZEFSAII (Michael W. Deem and Ramdas Pophale) SiO2 
 PCOD8127142
Probable space group: P 21/C
;
_chemical_formula_sum "Si O2"
_cell_formula_units_Z 32
_cell_length_a 9.132867
_cell_length_b 25.905285
_cell_length_c 12.770433
_cell_angle_alpha 90.000000
_cell_angle_beta 28.992110
_cell_angle_gamma 90.000000
_cell_volume 1464.415951
_symmetry_space_group_name_H-M "P 21/C"
_symmetry_group_IT_number 14
_symmetry_cell_setting 'monoclinic'
loop_
_space_group_symop_operation_xyz
x,y,z
-x,1/2+y,1/2-z
-x,-y,-z
x,1/2-y,1/2+z
loop_
_atom_site_type_symbol
_atom_site_label
_atom_site_fract_x
_atom_site_fract_y
_atom_site_fract_z
Si Si1 0.473202 0.901386 0.913467
Si Si2 0.709490 0.366457 0.915639
Si Si3 0.348487 0.739350 0.291756
Si Si4 0.484153 0.371691 0.839555
Si Si5 0.306186 0.224170 0.737582
Si Si6 0.134556 0.945669 0.509503
Si Si7 0.666233 0.811174 0.937398
Si Si8 0.057816 0.943942 0.332016
O O1 0.350636 0.887172 0.873631
O O2 0.793959 0.928000 0.704444
O O3 0.481815 0.850468 0.979962
O O4 0.263622 0.943944 0.099933
O O5 0.661603 0.392577 0.831326
O O6 0.695284 0.409854 0.014434
O O7 0.030262 0.337435 0.707989
O O8 0.421654 0.330196 0.120263
O O9 0.542912 0.690271 0.132751
O O10 0.420297 0.752261 0.366630
O O11 0.997028 0.721965 0.501205
O O12 0.436317 0.790635 0.170668
O O13 0.147795 0.393356 0.047687
O O14 0.223242 0.262073 0.695860
O O15 0.266486 0.941744 0.307867
O O16 0.147183 0.004492 0.541513
#
# Coordination Sequence:
#
# PCOD8127142 Si02
#       8
#     4   4   4   4   4   4   4   4
#     4  10  22  39  68  96 127 168 220 268 331 399
#     4  11  24  45  64  95 136 173 220 279 332 399
#     4  12  26  39  64  94 136 172 223 271 324 395
#     4  11  24  39  61  95 132 165 219 265 329 393
#     4  12  25  41  64  92 133 177 221 266 330 386
#     4   9  22  45  67  96 126 164 224 275 339 402
#     4  11  24  42  62  93 130 177 217 265 324 392
#     4  10  22  42  71  93 125 171 216 282 333 399
#
# _framework density 21.851714999999999
#
# number of rings (size 3 to 8) (size 9 to 14) (size 15 to 20)
#    0.000    1.250    3.750    1.125    5.250    0.500 
#    0.000    0.625    0.000    0.000    0.000    0.000 
#    0.000    0.000    0.000    0.000    0.000    0.000 
#
# Total GULP energy -396700.731936 kJ/mol
# GULP energy per Si atom -12396.897873 kJ/mol
# Density = 2.180198 g / cm^3
# Si number density = 21.851715 Si / 1000 Ang^3
#
#
#
# Elastic Constant Matrix: (Units=GPa)
#
#
# Indices 1 2 3 4 5 6 
#
# 1 127.3895 30.9047 31.8669 0.0000 20.7193 0.0000
# 2 30.9047 79.4149 17.7335 0.0000 0.0453 0.0000
# 3 31.8669 17.7335 80.1409 0.0000 8.7742 0.0000
# 4 0.0000 0.0000 0.0000 25.5570 0.0000 10.5275
# 5 20.7193 0.0453 8.7742 0.0000 28.4910 0.0000
# 6 0.0000 0.0000 0.0000 10.5275 0.0000 31.0398
#
#
#
# Elastic Compliance Matrix: (Units=1/GPa)
#
#
# Indices 1 2 3 4 5 6 
#
# 1 0.010459 -0.003475 -0.002647 0.000000 -0.006785 0.000000
# 2 -0.003475 0.014424 -0.002157 0.000000 0.003168 0.000000
# 3 -0.002647 -0.002157 0.014278 0.000000 -0.002469 0.000000
# 4 0.000000 0.000000 0.000000 0.045483 0.000000 -0.015426
# 5 -0.006785 0.003168 -0.002469 0.000000 0.040788 0.000000
# 6 0.000000 0.000000 0.000000 -0.015426 0.000000 0.037449
#
#
# Mechanical properties :
#
#
# Convention : Reuss Voigt Hill
#
# Bulk Modulus (GPa) = 44.24135 49.77283 47.00709
# Shear Modulus (GPa) = 26.74186 30.78023 28.76104
#
# Velocity S-wave (km/s) = 3.50206 3.75720 3.63187
# Velocity P-wave (km/s) = 6.05332 6.45361 6.25667
#
# Compressibility (1/GPa) = 0.02260329
#
# Stress axis : x y z
#
# Youngs Moduli (GPa) = 95.61422 69.32750 70.03736
#
# Poissons Ratio (x) = 0.24092 0.18538
# Poissons Ratio (y) = 0.33227 0.15106
# Poissons Ratio (z) = 0.25308 0.14953
#
# Static dielectric constant tensor:
#      x y z
#    x 4.073700 0.000000 0.362550 
#    y 0.000000 3.930940 0.000000 
#    z 0.362550 0.000000 3.809160 
# 
# 
# High freq. dielectric constant tensor:
#      x y z
#    x 1.860010 0.000000 0.024120 
#    y 0.000000 1.854820 0.000000 
#    z 0.024120 0.000000 1.847510 
# 
# From -- ./inp_files/27173.got.cif
#   From: 2010.03.12/outbox.cif.g09.slc.cpg/sg14_14_cif.got.tgz:27173.got - 2010.03.31 13:35:05.
