data_PCOD8127645
_publ_section_title
;
Structure prediction by ZEFSAII (Michael W. Deem and Ramdas Pophale) SiO2 
 PCOD8127645
Probable space group: P 21/C
;
_chemical_formula_sum "Si O2"
_cell_formula_units_Z 20
_cell_length_a 11.193734
_cell_length_b 9.474477
_cell_length_c 17.492785
_cell_angle_alpha 90.000000
_cell_angle_beta 26.762843
_cell_angle_gamma 90.000000
_cell_volume 835.390971
_symmetry_space_group_name_H-M "P 21/C"
_symmetry_group_IT_number 14
_symmetry_cell_setting 'monoclinic'
loop_
_space_group_symop_operation_xyz
x,y,z
-x,1/2+y,1/2-z
-x,-y,-z
x,1/2-y,1/2+z
loop_
_atom_site_type_symbol
_atom_site_label
_atom_site_fract_x
_atom_site_fract_y
_atom_site_fract_z
Si Si1 0.117960 0.299107 0.116237
Si Si2 0.976961 0.337578 0.033037
Si Si3 0.555188 0.235680 0.156376
Si Si4 0.451603 0.005785 0.617065
Si Si5 0.102952 0.980391 0.118154
O O1 0.979236 0.380305 0.264982
O O2 0.171357 0.136746 0.109549
O O3 0.926671 0.311965 0.151926
O O4 0.401620 0.369279 0.931227
O O5 0.250969 0.262586 0.853924
O O6 0.000000 0.500000 0.000000
O O7 0.735505 0.266966 0.126421
O O8 0.592975 0.357117 0.071488
O O9 0.642460 0.086151 0.069633
O O10 0.500000 0.000000 0.500000
O O11 0.133774 0.007220 0.809865
#
# Coordination Sequence:
#
# PCOD8127645 Si02
#       5
#     4   4   4   4   4
#     4  11  26  45  74 108 150 195 249 307 374 442
#     4  12  29  47  78 113 154 190 251 309 380 445
#     4  12  26  51  77 111 150 198 248 313 370 449
#     4  10  22  45  72 104 146 189 245 305 361 433
#     4  11  25  47  76 106 146 200 251 307 369 443
#
# _framework density 23.940885999999999
#
# number of rings (size 3 to 8) (size 9 to 14) (size 15 to 20)
#    0.000    0.800    4.000    2.400    5.600    0.800 
#    0.000    6.000    0.000    0.000    0.000    0.000 
#    0.000    0.000    0.000    0.000    0.000    0.000 
#
# Total GULP energy -248027.021024 kJ/mol
# GULP energy per Si atom -12401.351051 kJ/mol
# Density = 2.388640 g / cm^3
# Si number density = 23.940886 Si / 1000 Ang^3
#
#
#
# Elastic Constant Matrix: (Units=GPa)
#
#
# Indices 1 2 3 4 5 6 
#
# 1 139.1530 39.5632 21.1756 0.0000 -7.0432 0.0000
# 2 39.5632 172.9961 10.7613 0.0000 -2.2406 0.0000
# 3 21.1756 10.7613 44.3031 0.0000 -21.7972 0.0000
# 4 0.0000 0.0000 0.0000 32.4032 0.0000 -1.8112
# 5 -7.0432 -2.2406 -21.7972 0.0000 35.0471 0.0000
# 6 0.0000 0.0000 0.0000 -1.8112 0.0000 37.6473
#
#
#
# Elastic Compliance Matrix: (Units=1/GPa)
#
#
# Indices 1 2 3 4 5 6 
#
# 1 0.008213 -0.001642 -0.003986 0.000000 -0.000933 0.000000
# 2 -0.001642 0.006211 -0.000995 0.000000 -0.000552 0.000000
# 3 -0.003986 -0.000995 0.035004 0.000000 0.020906 0.000000
# 4 0.000000 0.000000 0.000000 0.030944 0.000000 0.001489
# 5 -0.000933 -0.000552 0.020906 0.000000 0.041312 0.000000
# 6 0.000000 0.000000 0.000000 0.001489 0.000000 0.026634
#
#
# Mechanical properties :
#
#
# Convention : Reuss Voigt Hill
#
# Bulk Modulus (GPa) = 27.63859 55.49470 41.56664
# Shear Modulus (GPa) = 28.79766 40.01633 34.40700
#
# Velocity S-wave (km/s) = 3.47200 4.09279 3.79511
# Velocity P-wave (km/s) = 5.25762 6.75017 6.05010
#
# Compressibility (1/GPa) = 0.03618130
#
# Stress axis : x y z
#
# Youngs Moduli (GPa) = 121.76493 161.00920 28.56792
#
# Poissons Ratio (x) = 0.26443 0.11386
# Poissons Ratio (y) = 0.19998 0.02843
# Poissons Ratio (z) = 0.48532 0.16023
#
# Static dielectric constant tensor:
#      x y z
#    x 4.931130 0.000000 -0.418570 
#    y 0.000000 4.495340 0.000000 
#    z -0.418570 0.000000 4.385050 
# 
# 
# High freq. dielectric constant tensor:
#      x y z
#    x 1.959520 0.000000 -0.003990 
#    y 0.000000 1.963460 0.000000 
#    z -0.003990 0.000000 1.941450 
# 
# From -- ./inp_files/57213.got.cif
#   From: 2010.03.12/outbox.cif.g09.slc.cpg/sg14_29_cif.got.tgz:57213.got - 2010.03.31 13:35:05.
