data_PCOD8127180
_publ_section_title
;
Structure prediction by ZEFSAII (Michael W. Deem and Ramdas Pophale) SiO2 
 PCOD8127180
Probable space group: P 21/C
;
_chemical_formula_sum "Si O2"
_cell_formula_units_Z 20
_cell_length_a 6.517493
_cell_length_b 9.529456
_cell_length_c 14.344880
_cell_angle_alpha 90.000000
_cell_angle_beta 87.664157
_cell_angle_gamma 90.000000
_cell_volume 890.193860
_symmetry_space_group_name_H-M "P 21/C"
_symmetry_group_IT_number 14
_symmetry_cell_setting 'monoclinic'
loop_
_space_group_symop_operation_xyz
x,y,z
-x,1/2+y,1/2-z
-x,-y,-z
x,1/2-y,1/2+z
loop_
_atom_site_type_symbol
_atom_site_label
_atom_site_fract_x
_atom_site_fract_y
_atom_site_fract_z
Si Si1 0.247135 0.927370 0.596388
Si Si2 0.490161 0.643495 0.813938
Si Si3 0.281512 0.156331 0.063732
Si Si4 0.415918 0.640575 0.610961
Si Si5 0.079586 0.860576 0.404651
O O1 0.258700 0.768560 0.632588
O O2 0.211423 0.926824 0.486400
O O3 0.453806 0.008815 0.623194
O O4 0.058346 0.018517 0.641821
O O5 0.616268 0.778430 0.845833
O O6 0.536836 0.609288 0.704708
O O7 0.248916 0.683384 0.826082
O O8 0.055467 0.226121 0.058039
O O9 0.275740 0.989010 0.078739
O O10 0.418419 0.188420 0.969758
#
# Coordination Sequence:
#
# PCOD8127180 Si02
#       5
#     4   4   4   4   4
#     4  10  22  40  63  91 121 168 207 258 314 369
#     4  11  22  43  65  93 124 169 216 257 309 379
#     4  10  24  44  60  96 129 166 207 259 324 371
#     4  11  23  42  65  89 136 167 200 269 320 366
#     4  10  22  40  67  90 123 165 217 260 305 378
#
# _framework density 22.467016999999998
#
# number of rings (size 3 to 8) (size 9 to 14) (size 15 to 20)
#    0.000    1.600    2.000    1.800    5.600    2.400 
#    7.200    0.000    0.000    0.000    0.000    0.000 
#    0.000    0.000    0.000    0.000    0.000    0.000 
#
# Total GULP energy -247879.188984 kJ/mol
# GULP energy per Si atom -12393.959449 kJ/mol
# Density = 2.241588 g / cm^3
# Si number density = 22.467017 Si / 1000 Ang^3
#
#
#
# Elastic Constant Matrix: (Units=GPa)
#
#
# Indices 1 2 3 4 5 6 
#
# 1 83.1649 42.8916 33.9059 0.0000 13.0587 0.0000
# 2 42.8916 151.9342 21.3792 0.0000 11.5528 0.0000
# 3 33.9059 21.3792 102.8929 0.0000 14.4861 0.0000
# 4 0.0000 0.0000 0.0000 24.5463 0.0000 15.3746
# 5 13.0587 11.5528 14.4861 0.0000 16.9734 0.0000
# 6 0.0000 0.0000 0.0000 15.3746 0.0000 26.6474
#
#
#
# Elastic Compliance Matrix: (Units=1/GPa)
#
#
# Indices 1 2 3 4 5 6 
#
# 1 0.016499 -0.003599 -0.003690 0.000000 -0.007095 0.000000
# 2 -0.003599 0.007797 -0.000087 0.000000 -0.002464 0.000000
# 3 -0.003690 -0.000087 0.011985 0.000000 -0.007330 0.000000
# 4 0.000000 0.000000 0.000000 0.063793 0.000000 -0.036806
# 5 -0.007095 -0.002464 -0.007330 0.000000 0.072307 0.000000
# 6 0.000000 0.000000 0.000000 -0.036806 0.000000 0.058763
#
#
# Mechanical properties :
#
#
# Convention : Reuss Voigt Hill
#
# Bulk Modulus (GPa) = 46.45040 59.37171 52.91106
# Shear Modulus (GPa) = 19.75715 29.62111 24.68913
#
# Velocity S-wave (km/s) = 2.96866 3.63495 3.31857
# Velocity P-wave (km/s) = 5.69828 6.64084 6.18753
#
# Compressibility (1/GPa) = 0.02152834
#
# Stress axis : x y z
#
# Youngs Moduli (GPa) = 60.60991 128.24732 83.43759
#
# Poissons Ratio (x) = 0.46156 0.30790
# Poissons Ratio (y) = 0.21813 0.00729
# Poissons Ratio (z) = 0.22366 0.01120
#
# Static dielectric constant tensor:
#      x y z
#    x 4.066030 0.000000 0.135370 
#    y 0.000000 4.128080 0.000000 
#    z 0.135370 0.000000 3.881170 
# 
# 
# High freq. dielectric constant tensor:
#      x y z
#    x 1.872540 0.000000 0.014290 
#    y 0.000000 1.891920 0.000000 
#    z 0.014290 0.000000 1.872540 
# 
# From -- ./inp_files/36833.got.cif
#   From: 2010.03.12/outbox.cif.g09.slc.cpg/sg14_19_cif.got.tgz:36833.got - 2010.03.31 13:35:05.
