data_PCOD8127943
_publ_section_title
;
Structure prediction by ZEFSAII (Michael W. Deem and Ramdas Pophale) SiO2 
 PCOD8127943
Probable space group: P 21/C
;
_chemical_formula_sum "Si O2"
_cell_formula_units_Z 32
_cell_length_a 13.315214
_cell_length_b 11.719691
_cell_length_c 17.036902
_cell_angle_alpha 90.000000
_cell_angle_beta 150.077728
_cell_angle_gamma 90.000000
_cell_volume 1326.181214
_symmetry_space_group_name_H-M "P 21/C"
_symmetry_group_IT_number 14
_symmetry_cell_setting 'monoclinic'
loop_
_space_group_symop_operation_xyz
x,y,z
-x,1/2+y,1/2-z
-x,-y,-z
x,1/2-y,1/2+z
loop_
_atom_site_type_symbol
_atom_site_label
_atom_site_fract_x
_atom_site_fract_y
_atom_site_fract_z
Si Si1 0.983596 0.347639 0.531864
Si Si2 0.424794 0.283221 0.788245
Si Si3 0.323244 0.605435 0.448751
Si Si4 0.792197 0.118753 0.458174
Si Si5 0.382373 0.598640 0.315475
Si Si6 0.105330 0.467555 0.837458
Si Si7 0.312258 0.258359 0.048252
Si Si8 0.016524 0.580440 0.632655
O O1 0.888520 0.244287 0.516317
O O2 0.896150 0.347960 0.382561
O O3 0.228909 0.337758 0.697017
O O4 0.918684 0.465651 0.528755
O O5 0.570731 0.379822 0.849468
O O6 0.350510 0.204095 0.664814
O O7 0.558272 0.214757 0.940307
O O8 0.272934 0.625918 0.322757
O O9 0.453190 0.495893 0.555497
O O10 0.102710 0.587821 0.335531
O O11 0.774662 0.060856 0.359570
O O12 0.933492 0.043483 0.610704
O O13 0.482746 0.713604 0.350765
O O14 0.176163 0.544451 0.809790
O O15 0.259085 0.367299 0.959973
O O16 0.148482 0.157355 0.934663
#
# Coordination Sequence:
#
# PCOD8127943 Si02
#       8
#     4   4   4   4   4   4   4   4
#     4  10  24  46  72 100 141 188 231 286 345 423
#     4  10  24  44  69  99 140 181 233 282 349 411
#     4  11  24  39  67  99 136 180 231 290 343 412
#     4  11  26  45  70 102 137 186 228 286 356 413
#     4  10  24  42  61  97 141 180 227 286 351 411
#     4  12  26  41  75 101 140 180 237 289 352 417
#     4  10  23  46  65  99 140 185 226 295 346 413
#     4  10  23  43  70  99 132 182 229 280 343 413
#
# _framework density 24.129432999999999
#
# number of rings (size 3 to 8) (size 9 to 14) (size 15 to 20)
#    0.000    1.500    1.250    1.500   12.250    0.500 
#   11.250    0.625    0.000    0.000    0.000    0.000 
#    0.000    0.000    0.000    0.000    0.000    0.000 
#
# Total GULP energy -396592.258631 kJ/mol
# GULP energy per Si atom -12393.508082 kJ/mol
# Density = 2.407451 g / cm^3
# Si number density = 24.129433 Si / 1000 Ang^3
#
#
#
# Elastic Constant Matrix: (Units=GPa)
#
#
# Indices 1 2 3 4 5 6 
#
# 1 70.3616 26.4149 24.7611 0.0000 -20.2333 0.0000
# 2 26.4149 82.6654 32.3536 0.0000 -14.9762 0.0000
# 3 24.7611 32.3536 98.5234 0.0000 -32.4230 0.0000
# 4 0.0000 0.0000 0.0000 44.5865 0.0000 -15.5827
# 5 -20.2333 -14.9762 -32.4230 0.0000 52.1785 0.0000
# 6 0.0000 0.0000 0.0000 -15.5827 0.0000 24.9272
#
#
#
# Elastic Compliance Matrix: (Units=1/GPa)
#
#
# Indices 1 2 3 4 5 6 
#
# 1 0.017677 -0.004203 -0.001513 0.000000 0.004708 0.000000
# 2 -0.004203 0.014968 -0.003748 0.000000 0.000337 0.000000
# 3 -0.001513 -0.003748 0.014096 0.000000 0.007097 0.000000
# 4 0.000000 0.000000 0.000000 0.028698 0.000000 0.017940
# 5 0.004708 0.000337 0.007097 0.000000 0.025497 0.000000
# 6 0.000000 0.000000 0.000000 0.017940 0.000000 0.051332
#
#
# Mechanical properties :
#
#
# Convention : Reuss Voigt Hill
#
# Bulk Modulus (GPa) = 35.95471 46.51219 41.23345
# Shear Modulus (GPa) = 27.70582 35.53982 31.62282
#
# Velocity S-wave (km/s) = 3.39221 3.84198 3.62408
# Velocity P-wave (km/s) = 5.50236 6.24492 5.88536
#
# Compressibility (1/GPa) = 0.02781277
#
# Stress axis : x y z
#
# Youngs Moduli (GPa) = 56.57228 66.80903 70.94032
#
# Poissons Ratio (x) = 0.28082 0.10732
# Poissons Ratio (y) = 0.23779 0.26588
# Poissons Ratio (z) = 0.08559 0.25039
#
# Static dielectric constant tensor:
#      x y z
#    x 4.508240 0.000000 -0.430530 
#    y 0.000000 4.085510 0.000000 
#    z -0.430530 0.000000 4.443210 
# 
# 
# High freq. dielectric constant tensor:
#      x y z
#    x 1.957930 0.000000 -0.027890 
#    y 0.000000 1.947270 0.000000 
#    z -0.027890 0.000000 1.953700 
# 
# From -- ./inp_files/59493.got.cif
#   From: 2010.03.12/outbox.cif.g09.slc.cpg/sg14_30_cif.got.tgz:59493.got - 2010.03.31 13:35:05.
