data_PCOD8127177
_publ_section_title
;
Structure prediction by ZEFSAII (Michael W. Deem and Ramdas Pophale) SiO2 
 PCOD8127177
Probable space group: P 21/C
;
_chemical_formula_sum "Si O2"
_cell_formula_units_Z 16
_cell_length_a 8.817961
_cell_length_b 12.808657
_cell_length_c 9.412595
_cell_angle_alpha 90.000000
_cell_angle_beta 44.331820
_cell_angle_gamma 90.000000
_cell_volume 742.919741
_symmetry_space_group_name_H-M "P 21/C"
_symmetry_group_IT_number 14
_symmetry_cell_setting 'monoclinic'
loop_
_space_group_symop_operation_xyz
x,y,z
-x,1/2+y,1/2-z
-x,-y,-z
x,1/2-y,1/2+z
loop_
_atom_site_type_symbol
_atom_site_label
_atom_site_fract_x
_atom_site_fract_y
_atom_site_fract_z
Si Si1 0.821495 0.719856 0.748814
Si Si2 0.606134 0.865693 0.114997
Si Si3 0.881164 0.094045 0.501608
Si Si4 0.971930 0.013086 0.853444
O O1 0.671499 0.665737 0.731032
O O2 0.980620 0.801724 0.567593
O O3 0.976576 0.633022 0.721443
O O4 0.665297 0.771100 0.970153
O O5 0.352831 0.887796 0.274692
O O6 0.727213 0.972729 0.983590
O O7 0.000000 0.000000 0.500000
O O8 0.866723 0.063140 0.343848
O O9 0.000000 0.000000 0.000000
#
# Coordination Sequence:
#
# PCOD8127177 Si02
#       4
#     4   4   4   4
#     4  10  22  40  63  90 121 163 207 245 302 369
#     4  10  23  40  63  90 125 164 199 255 307 353
#     4  11  24  40  61  92 125 158 203 253 303 365
#     4   9  21  40  61  91 123 158 206 249 296 363
#
# _framework density 21.536646999999999
#
# number of rings (size 3 to 8) (size 9 to 14) (size 15 to 20)
#    0.000    2.000    0.000    1.500    0.000   20.000 
#    0.000    0.000    0.000    0.000    0.000    0.000 
#    0.000    0.000    0.000    0.000    0.000    0.000 
#
# Total GULP energy -198329.856990 kJ/mol
# GULP energy per Si atom -12395.616062 kJ/mol
# Density = 2.148763 g / cm^3
# Si number density = 21.536647 Si / 1000 Ang^3
#
#
#
# Elastic Constant Matrix: (Units=GPa)
#
#
# Indices 1 2 3 4 5 6 
#
# 1 73.2766 48.1083 50.4891 0.0000 -18.6228 0.0000
# 2 48.1083 136.0063 54.2957 0.0000 -24.2520 0.0000
# 3 50.4891 54.2957 151.0934 0.0000 -24.0469 0.0000
# 4 0.0000 0.0000 0.0000 40.1712 0.0000 4.8065
# 5 -18.6228 -24.2520 -24.0469 0.0000 42.4114 0.0000
# 6 0.0000 0.0000 0.0000 4.8065 0.0000 37.1854
#
#
#
# Elastic Compliance Matrix: (Units=1/GPa)
#
#
# Indices 1 2 3 4 5 6 
#
# 1 0.021046 -0.004906 -0.004667 0.000000 0.003790 0.000000
# 2 -0.004906 0.010220 -0.001589 0.000000 0.002789 0.000000
# 3 -0.004667 -0.001589 0.009099 0.000000 0.002201 0.000000
# 4 0.000000 0.000000 0.000000 0.025284 0.000000 -0.003268
# 5 0.003790 0.002789 0.002201 0.000000 0.028086 0.000000
# 6 0.000000 0.000000 0.000000 -0.003268 0.000000 0.027315
#
#
# Mechanical properties :
#
#
# Convention : Reuss Voigt Hill
#
# Bulk Modulus (GPa) = 55.42685 74.01805 64.72245
# Shear Modulus (GPa) = 33.47003 37.78583 35.62793
#
# Velocity S-wave (km/s) = 3.94648 4.19321 4.07171
# Velocity P-wave (km/s) = 6.82336 7.60835 7.22652
#
# Compressibility (1/GPa) = 0.01804180
#
# Stress axis : x y z
#
# Youngs Moduli (GPa) = 47.51417 97.85148 109.89840
#
# Poissons Ratio (x) = 0.48003 0.51287
# Poissons Ratio (y) = 0.23309 0.17467
# Poissons Ratio (z) = 0.22174 0.15552
#
# Static dielectric constant tensor:
#      x y z
#    x 3.639610 0.000000 0.093370 
#    y 0.000000 5.105210 0.000000 
#    z 0.093370 0.000000 4.282900 
# 
# 
# High freq. dielectric constant tensor:
#      x y z
#    x 1.824210 0.000000 0.012850 
#    y 0.000000 1.856510 0.000000 
#    z 0.012850 0.000000 1.863660 
# 
# From -- ./inp_files/4905.got.cif
#   From: 2010.03.12/outbox.cif.g09.slc.cpg/sg14_3_cif.got.tgz:4905.got - 2010.03.31 13:35:05.
