data_PCOD8127941
_publ_section_title
;
Structure prediction by ZEFSAII (Michael W. Deem and Ramdas Pophale) SiO2 
 PCOD8127941
Probable space group: P 21/C
;
_chemical_formula_sum "Si O2"
_cell_formula_units_Z 20
_cell_length_a 5.449162
_cell_length_b 9.350577
_cell_length_c 17.684219
_cell_angle_alpha 90.000000
_cell_angle_beta 108.224677
_cell_angle_gamma 90.000000
_cell_volume 855.861125
_symmetry_space_group_name_H-M "P 21/C"
_symmetry_group_IT_number 14
_symmetry_cell_setting 'monoclinic'
loop_
_space_group_symop_operation_xyz
x,y,z
-x,1/2+y,1/2-z
-x,-y,-z
x,1/2-y,1/2+z
loop_
_atom_site_type_symbol
_atom_site_label
_atom_site_fract_x
_atom_site_fract_y
_atom_site_fract_z
Si Si1 0.967523 0.523397 0.269273
Si Si2 0.621665 0.105093 0.618517
Si Si3 0.878541 0.080664 0.917723
Si Si4 0.479075 0.374210 0.684704
Si Si5 0.223199 0.615521 0.029811
O O1 0.878290 0.418619 0.193549
O O2 0.039544 0.441278 0.354848
O O3 0.717106 0.626176 0.262367
O O4 0.219329 0.608138 0.263794
O O5 0.438244 0.221915 0.640393
O O6 0.704818 0.172009 0.546490
O O7 0.469359 0.957078 0.593145
O O8 0.597769 0.007008 0.877667
O O9 0.863522 0.249863 0.929168
O O10 0.000000 0.000000 0.000000
O O11 0.000000 0.500000 0.000000
#
# Coordination Sequence:
#
# PCOD8127941 Si02
#       5
#     4   4   4   4   4
#     4  10  26  42  75 101 139 182 234 286 341 418
#     4  11  26  44  70 103 142 182 235 287 351 408
#     4  10  23  43  70 103 141 182 236 280 350 410
#     4  10  25  46  73 103 135 188 231 287 342 416
#     4  11  26  43  69 104 145 182 228 292 348 415
#
# _framework density 23.368276000000002
#
# number of rings (size 3 to 8) (size 9 to 14) (size 15 to 20)
#    1.200    0.400    0.000    2.400    8.400    8.000 
#    0.000    0.000    0.000    0.000    0.000    0.000 
#    0.000    0.000    0.000    0.000    0.000    0.000 
#
# Total GULP energy -247854.324545 kJ/mol
# GULP energy per Si atom -12392.716227 kJ/mol
# Density = 2.331509 g / cm^3
# Si number density = 23.368276 Si / 1000 Ang^3
#
#
#
# Elastic Constant Matrix: (Units=GPa)
#
#
# Indices 1 2 3 4 5 6 
#
# 1 113.2283 10.5571 9.4263 0.0000 19.0844 0.0000
# 2 10.5571 95.0141 16.5046 0.0000 6.4651 0.0000
# 3 9.4263 16.5046 96.7276 0.0000 12.7288 0.0000
# 4 0.0000 0.0000 0.0000 23.7340 0.0000 5.3210
# 5 19.0844 6.4651 12.7288 0.0000 23.4800 0.0000
# 6 0.0000 0.0000 0.0000 5.3210 0.0000 23.8474
#
#
#
# Elastic Compliance Matrix: (Units=1/GPa)
#
#
# Indices 1 2 3 4 5 6 
#
# 1 0.010269 -0.000611 0.000194 0.000000 -0.008283 0.000000
# 2 -0.000611 0.010983 -0.001596 0.000000 -0.001662 0.000000
# 3 0.000194 -0.001596 0.011365 0.000000 -0.005879 0.000000
# 4 0.000000 0.000000 0.000000 0.044352 0.000000 -0.009896
# 5 -0.008283 -0.001662 -0.005879 0.000000 0.052967 0.000000
# 6 0.000000 0.000000 0.000000 -0.009896 0.000000 0.044141
#
#
# Mechanical properties :
#
#
# Convention : Reuss Voigt Hill
#
# Bulk Modulus (GPa) = 34.97636 41.99399 38.48518
# Shear Modulus (GPa) = 26.64763 32.11109 29.37936
#
# Velocity S-wave (km/s) = 3.38055 3.71095 3.54959
# Velocity P-wave (km/s) = 5.49885 6.03084 5.77098
#
# Compressibility (1/GPa) = 0.02859074
#
# Stress axis : x y z
#
# Youngs Moduli (GPa) = 97.38372 91.05028 87.98640
#
# Poissons Ratio (x) = 0.05563 -0.01703
# Poissons Ratio (y) = 0.05950 0.14040
# Poissons Ratio (z) = -0.01885 0.14529
#
# Static dielectric constant tensor:
#      x y z
#    x 4.038580 0.000000 -0.078060 
#    y 0.000000 4.107440 0.000000 
#    z -0.078060 0.000000 4.297500 
# 
# 
# High freq. dielectric constant tensor:
#      x y z
#    x 1.913940 0.000000 -0.000660 
#    y 0.000000 1.914390 0.000000 
#    z -0.000660 0.000000 1.932300 
# 
# From -- ./inp_files/52530.got.cif
#   From: 2010.03.12/outbox.cif.g09.slc.cpg/sg14_27_cif.got.tgz:52530.got - 2010.03.31 13:35:05.
