data_PCOD8127511
_publ_section_title
;
Structure prediction by ZEFSAII (Michael W. Deem and Ramdas Pophale) SiO2 
 PCOD8127511
Probable space group: P 21/C
;
_chemical_formula_sum "Si O2"
_cell_formula_units_Z 24
_cell_length_a 15.067625
_cell_length_b 5.041294
_cell_length_c 26.306388
_cell_angle_alpha 90.000000
_cell_angle_beta 27.188313
_cell_angle_gamma 90.000000
_cell_volume 913.029666
_symmetry_space_group_name_H-M "P 21/C"
_symmetry_group_IT_number 14
_symmetry_cell_setting 'monoclinic'
loop_
_space_group_symop_operation_xyz
x,y,z
-x,1/2+y,1/2-z
-x,-y,-z
x,1/2-y,1/2+z
loop_
_atom_site_type_symbol
_atom_site_label
_atom_site_fract_x
_atom_site_fract_y
_atom_site_fract_z
Si Si1 0.981044 0.336818 0.366732
Si Si2 0.048629 0.750430 0.007686
Si Si3 0.461737 0.564501 0.298756
Si Si4 0.562463 0.541737 0.577242
Si Si5 0.391728 0.045147 0.611791
Si Si6 0.107716 0.011896 0.675879
O O1 0.055528 0.250328 0.384564
O O2 0.796666 0.536958 0.463482
O O3 0.904087 0.073793 0.376702
O O4 0.164751 0.466903 0.245409
O O5 0.276929 0.748431 0.900923
O O6 0.000000 0.500000 0.000000
O O7 0.000000 0.000000 0.000000
O O8 0.406384 0.286344 0.297953
O O9 0.541254 0.493439 0.314595
O O10 0.512519 0.825258 0.579720
O O11 0.480798 0.330254 0.578729
O O12 0.338986 0.999321 0.577257
O O13 0.971461 0.809205 0.777536
#
# Coordination Sequence:
#
# PCOD8127511 Si02
#       6
#     4   4   4   4   4   4
#     4  10  26  47  70  99 149 174 224 305 326 403
#     4  11  26  43  67 101 126 180 231 266 350 405
#     4  11  24  43  64  94 137 170 221 292 324 392
#     4  11  26  43  68 105 133 180 234 271 350 406
#     4  11  24  43  73 101 135 184 228 272 350 412
#     4  10  22  43  68 103 136 183 230 275 349 407
#
# _framework density 26.286111999999999
#
# number of rings (size 3 to 8) (size 9 to 14) (size 15 to 20)
#    0.000    1.333    0.000    4.000    7.000   12.000 
#    0.000    0.000    0.000    0.000    0.000    0.000 
#    0.000    0.000    0.000    0.000    0.000    0.000 
#
# Total GULP energy -297552.334501 kJ/mol
# GULP energy per Si atom -12398.013938 kJ/mol
# Density = 2.622628 g / cm^3
# Si number density = 26.286112 Si / 1000 Ang^3
#
#
#
# Elastic Constant Matrix: (Units=GPa)
#
#
# Indices 1 2 3 4 5 6 
#
# 1 166.3895 46.4835 11.6537 0.0000 28.9246 0.0000
# 2 46.4835 131.2790 16.0362 0.0000 7.8282 0.0000
# 3 11.6537 16.0362 35.7043 0.0000 -7.6823 0.0000
# 4 0.0000 0.0000 0.0000 35.0716 0.0000 -9.9853
# 5 28.9246 7.8282 -7.6823 0.0000 52.0971 0.0000
# 6 0.0000 0.0000 0.0000 -9.9853 0.0000 51.5013
#
#
#
# Elastic Compliance Matrix: (Units=1/GPa)
#
#
# Indices 1 2 3 4 5 6 
#
# 1 0.007498 -0.002111 -0.002403 0.000000 -0.004200 0.000000
# 2 -0.002111 0.008821 -0.003414 0.000000 -0.000657 0.000000
# 3 -0.002403 -0.003414 0.031730 0.000000 0.006526 0.000000
# 4 0.000000 0.000000 0.000000 0.030179 0.000000 0.005851
# 5 -0.004200 -0.000657 0.006526 0.000000 0.022588 0.000000
# 6 0.000000 0.000000 0.000000 0.005851 0.000000 0.020551
#
#
# Mechanical properties :
#
#
# Convention : Reuss Voigt Hill
#
# Bulk Modulus (GPa) = 31.06294 53.52440 42.29367
# Shear Modulus (GPa) = 33.79416 45.01397 39.40406
#
# Velocity S-wave (km/s) = 3.58946 4.14268 3.87595
# Velocity P-wave (km/s) = 5.38719 6.57943 6.01293
#
# Compressibility (1/GPa) = 0.03219270
#
# Stress axis : x y z
#
# Youngs Moduli (GPa) = 133.36582 113.36521 31.51614
#
# Poissons Ratio (x) = 0.23931 0.07573
# Poissons Ratio (y) = 0.28153 0.10760
# Poissons Ratio (z) = 0.32047 0.38705
#
# Static dielectric constant tensor:
#      x y z
#    x 5.727560 0.000000 -0.321580 
#    y 0.000000 4.470660 0.000000 
#    z -0.321580 0.000000 6.551240 
# 
# 
# High freq. dielectric constant tensor:
#      x y z
#    x 2.076640 0.000000 0.000740 
#    y 0.000000 2.049720 0.000000 
#    z 0.000740 0.000000 2.078090 
# 
# From -- ./inp_files/77398.got.cif
#   From: 2010.03.12/outbox.cif.g09.slc.cpg/sg14_39_cif.got.tgz:77398.got - 2010.03.31 13:35:05.
