data_PCOD8127854
_publ_section_title
;
Structure prediction by ZEFSAII (Michael W. Deem and Ramdas Pophale) SiO2 
 PCOD8127854
Probable space group: P 21/C
;
_chemical_formula_sum "Si O2"
_cell_formula_units_Z 32
_cell_length_a 14.854041
_cell_length_b 8.409144
_cell_length_c 11.697719
_cell_angle_alpha 90.000000
_cell_angle_beta 113.597514
_cell_angle_gamma 90.000000
_cell_volume 1338.977384
_symmetry_space_group_name_H-M "P 21/C"
_symmetry_group_IT_number 14
_symmetry_cell_setting 'monoclinic'
loop_
_space_group_symop_operation_xyz
x,y,z
-x,1/2+y,1/2-z
-x,-y,-z
x,1/2-y,1/2+z
loop_
_atom_site_type_symbol
_atom_site_label
_atom_site_fract_x
_atom_site_fract_y
_atom_site_fract_z
Si Si1 0.738488 0.139251 0.907438
Si Si2 0.597628 0.549469 0.485370
Si Si3 0.697045 0.858760 0.254742
Si Si4 0.424778 0.403149 0.100250
Si Si5 0.358131 0.487451 0.831133
Si Si6 0.008386 0.360683 0.839770
Si Si7 0.065515 0.483204 0.421376
Si Si8 0.147233 0.943980 0.557182
O O1 0.770388 0.320516 0.946186
O O2 0.712000 0.123985 0.757825
O O3 0.637457 0.089667 0.921925
O O4 0.822807 0.018333 0.988668
O O5 0.500000 0.500000 0.500000
O O6 0.683959 0.574490 0.621384
O O7 0.571506 0.712750 0.408584
O O8 0.618703 0.945245 0.298485
O O9 0.682030 0.670771 0.250588
O O10 0.805349 0.903518 0.355334
O O11 0.529223 0.486578 0.146193
O O12 0.352293 0.475793 0.965353
O O13 0.062807 0.192062 0.866452
O O14 0.971838 0.392933 0.693178
O O15 0.919890 0.351219 0.885740
O O16 0.084856 0.497475 0.916979
O O17 0.000000 0.500000 0.500000
#
# Coordination Sequence:
#
# PCOD8127854 Si02
#       8
#     4   4   4   4   4   4   4   4
#     4  12  24  47  73 109 140 195 249 304 368 450
#     4  11  25  43  70 101 146 187 243 304 368 427
#     4  11  23  43  66  99 136 188 235 301 355 435
#     4  10  23  43  65  99 135 193 235 301 369 435
#     4  10  23  42  68  95 140 180 249 296 363 430
#     4  11  26  50  74 109 153 196 245 311 379 457
#     4  12  26  49  80 110 151 197 252 309 387 451
#     4  11  26  46  75 105 150 196 250 304 377 445
#
# _framework density 23.898837
#
# number of rings (size 3 to 8) (size 9 to 14) (size 15 to 20)
#    0.000    1.000    2.500    3.000    3.500    4.000 
#    4.500    0.000    0.000    0.000    0.000    0.000 
#    0.000    0.000    0.000    0.000    0.000    0.000 
#
# Total GULP energy -396854.244532 kJ/mol
# GULP energy per Si atom -12401.695142 kJ/mol
# Density = 2.384444 g / cm^3
# Si number density = 23.898837 Si / 1000 Ang^3
#
#
#
# Elastic Constant Matrix: (Units=GPa)
#
#
# Indices 1 2 3 4 5 6 
#
# 1 63.3498 35.1752 9.8066 0.0000 11.2980 0.0000
# 2 35.1752 99.1137 30.6057 0.0000 4.9262 0.0000
# 3 9.8066 30.6057 109.9940 0.0000 12.2994 0.0000
# 4 0.0000 0.0000 0.0000 29.8603 0.0000 9.7296
# 5 11.2980 4.9262 12.2994 0.0000 38.3491 0.0000
# 6 0.0000 0.0000 0.0000 9.7296 0.0000 43.8009
#
#
#
# Elastic Compliance Matrix: (Units=1/GPa)
#
#
# Indices 1 2 3 4 5 6 
#
# 1 0.020692 -0.007321 0.000797 0.000000 -0.005411 0.000000
# 2 -0.007321 0.013635 -0.003305 0.000000 0.001465 0.000000
# 3 0.000797 -0.003305 0.010288 0.000000 -0.003110 0.000000
# 4 0.000000 0.000000 0.000000 0.036102 0.000000 -0.008020
# 5 -0.005411 0.001465 -0.003110 0.000000 0.028480 0.000000
# 6 0.000000 0.000000 0.000000 -0.008020 0.000000 0.024612
#
#
# Mechanical properties :
#
#
# Convention : Reuss Voigt Hill
#
# Bulk Modulus (GPa) = 40.06784 47.07029 43.56907
# Shear Modulus (GPa) = 30.90516 35.52674 33.21595
#
# Velocity S-wave (km/s) = 3.59996 3.85976 3.73212
# Velocity P-wave (km/s) = 5.83795 6.29302 6.06975
#
# Compressibility (1/GPa) = 0.02495767
#
# Stress axis : x y z
#
# Youngs Moduli (GPa) = 48.32814 73.33902 97.20330
#
# Poissons Ratio (x) = 0.53689 -0.07750
# Poissons Ratio (y) = 0.35380 0.32127
# Poissons Ratio (z) = -0.03853 0.24240
#
# Static dielectric constant tensor:
#      x y z
#    x 4.136930 0.000000 0.045170 
#    y 0.000000 4.354780 0.000000 
#    z 0.045170 0.000000 4.678520 
# 
# 
# High freq. dielectric constant tensor:
#      x y z
#    x 1.938580 0.000000 0.006460 
#    y 0.000000 1.944880 0.000000 
#    z 0.006460 0.000000 1.967440 
# 
# From -- ./inp_files/31855.got.cif
#   From: 2010.03.12/outbox.cif.g09.slc.cpg/sg14_16_cif.got.tgz:31855.got - 2010.03.31 13:35:05.
