data_PCOD8127156
_publ_section_title
;
Structure prediction by ZEFSAII (Michael W. Deem and Ramdas Pophale) SiO2 
 PCOD8127156
Probable space group: P 21/C
;
_chemical_formula_sum "Si O2"
_cell_formula_units_Z 24
_cell_length_a 5.510192
_cell_length_b 8.987171
_cell_length_c 21.219497
_cell_angle_alpha 90.000000
_cell_angle_beta 111.458922
_cell_angle_gamma 90.000000
_cell_volume 977.969353
_symmetry_space_group_name_H-M "P 21/C"
_symmetry_group_IT_number 14
_symmetry_cell_setting 'monoclinic'
loop_
_space_group_symop_operation_xyz
x,y,z
-x,1/2+y,1/2-z
-x,-y,-z
x,1/2-y,1/2+z
loop_
_atom_site_type_symbol
_atom_site_label
_atom_site_fract_x
_atom_site_fract_y
_atom_site_fract_z
Si Si1 0.219126 0.380823 0.125525
Si Si2 0.898576 0.571185 0.426118
Si Si3 0.502790 0.168511 0.364782
Si Si4 0.312595 0.739611 0.745339
Si Si5 0.978682 0.499667 0.218776
Si Si6 0.603214 0.546189 0.577889
O O1 0.102093 0.251924 0.069718
O O2 0.333071 0.521861 0.096656
O O3 0.436818 0.312556 0.192732
O O4 0.986185 0.434690 0.148412
O O5 0.594131 0.524691 0.388668
O O6 0.000000 0.500000 0.500000
O O7 0.096228 0.514726 0.389026
O O8 0.662268 0.263735 0.328047
O O9 0.418347 0.274044 0.415094
O O10 0.256234 0.115727 0.301318
O O11 0.065940 0.631617 0.735587
O O12 0.242416 0.909300 0.760163
O O13 0.500000 0.500000 0.500000
#
# Coordination Sequence:
#
# PCOD8127156 Si02
#       6
#     4   4   4   4   4   4
#     4  10  23  42  65  97 138 183 230 288 356 424
#     4  10  24  46  70  99 133 177 239 295 349 409
#     4  10  23  42  65  97 138 183 230 288 356 424
#     4  10  22  40  60  98 136 178 226 276 350 420
#     4  10  22  40  62  94 140 178 228 278 344 424
#     4  10  24  46  70  99 133 177 239 295 349 409
#
# _framework density 24.540645999999999
#
# number of rings (size 3 to 8) (size 9 to 14) (size 15 to 20)
#    0.000    2.000    0.000    1.000    9.333    6.667 
#    3.000    6.667    0.000    0.000    0.000    0.000 
#    0.000    0.000    0.000    0.000    0.000    0.000 
#
# Total GULP energy -297336.983524 kJ/mol
# GULP energy per Si atom -12389.040980 kJ/mol
# Density = 2.448479 g / cm^3
# Si number density = 24.540646 Si / 1000 Ang^3
#
#
#
# Elastic Constant Matrix: (Units=GPa)
#
#
# Indices 1 2 3 4 5 6 
#
# 1 163.4814 58.9831 6.4106 0.0000 -17.3157 0.0000
# 2 58.9831 185.5011 44.8110 0.0000 -18.5115 0.0000
# 3 6.4106 44.8110 42.7541 0.0000 -7.1655 0.0000
# 4 0.0000 0.0000 0.0000 50.1730 0.0000 -5.2928
# 5 -17.3157 -18.5115 -7.1655 0.0000 13.7463 0.0000
# 6 0.0000 0.0000 0.0000 -5.2928 0.0000 54.8251
#
#
#
# Elastic Compliance Matrix: (Units=1/GPa)
#
#
# Indices 1 2 3 4 5 6 
#
# 1 0.007676 -0.002264 0.002555 0.000000 0.007952 0.000000
# 2 -0.002264 0.008427 -0.007745 0.000000 0.004458 0.000000
# 3 0.002555 -0.007745 0.032780 0.000000 0.009875 0.000000
# 4 0.000000 0.000000 0.000000 0.020136 0.000000 0.001944
# 5 0.007952 0.004458 0.009875 0.000000 0.093914 0.000000
# 6 0.000000 0.000000 0.000000 0.001944 0.000000 0.018427
#
#
# Mechanical properties :
#
#
# Convention : Reuss Voigt Hill
#
# Bulk Modulus (GPa) = 29.43541 68.01622 48.72582
# Shear Modulus (GPa) = 24.08550 42.51766 33.30158
#
# Velocity S-wave (km/s) = 3.13621 4.16690 3.68774
# Velocity P-wave (km/s) = 5.01349 7.13629 6.16691
#
# Compressibility (1/GPa) = 0.03397269
#
# Stress axis : x y z
#
# Youngs Moduli (GPa) = 130.27765 118.66987 30.50675
#
# Poissons Ratio (x) = 0.26872 -0.07795
# Poissons Ratio (y) = 0.29500 0.23629
# Poissons Ratio (z) = -0.33287 0.91915
#
# Static dielectric constant tensor:
#      x y z
#    x 5.819980 0.000000 -0.123630 
#    y 0.000000 4.854950 0.000000 
#    z -0.123630 0.000000 3.565390 
# 
# 
# High freq. dielectric constant tensor:
#      x y z
#    x 2.003050 0.000000 -0.006540 
#    y 0.000000 1.993380 0.000000 
#    z -0.006540 0.000000 1.913250 
# 
# From -- ./inp_files/71083.got.cif
#   From: 2010.03.12/outbox.cif.g09.slc.cpg/sg14_36_cif.got.tgz:71083.got - 2010.03.31 13:35:05.
