data_PCOD8127476
_publ_section_title
;
Structure prediction by ZEFSAII (Michael W. Deem and Ramdas Pophale) SiO2 
 PCOD8127476
Probable space group: P 21/C
;
_chemical_formula_sum "Si O2"
_cell_formula_units_Z 28
_cell_length_a 10.726837
_cell_length_b 9.025136
_cell_length_c 18.704590
_cell_angle_alpha 90.000000
_cell_angle_beta 134.442917
_cell_angle_gamma 90.000000
_cell_volume 1292.827123
_symmetry_space_group_name_H-M "P 21/C"
_symmetry_group_IT_number 14
_symmetry_cell_setting 'monoclinic'
loop_
_space_group_symop_operation_xyz
x,y,z
-x,1/2+y,1/2-z
-x,-y,-z
x,1/2-y,1/2+z
loop_
_atom_site_type_symbol
_atom_site_label
_atom_site_fract_x
_atom_site_fract_y
_atom_site_fract_z
Si Si1 0.828303 0.300639 0.387462
Si Si2 0.704319 0.656789 0.170202
Si Si3 0.625188 0.787740 0.480670
Si Si4 0.238164 0.677188 0.801288
Si Si5 0.308796 0.599821 0.050591
Si Si6 0.822102 0.541747 0.493378
Si Si7 0.944318 0.214895 0.144059
O O1 0.755700 0.278656 0.279336
O O2 0.771662 0.150988 0.405915
O O3 0.750134 0.444178 0.398091
O O4 0.036066 0.333394 0.472756
O O5 0.797659 0.496736 0.207562
O O6 0.507504 0.662500 0.121976
O O7 0.845408 0.748412 0.275406
O O8 0.714534 0.714203 0.093571
O O9 0.421724 0.796900 0.413227
O O10 0.657831 0.631585 0.455873
O O11 0.688481 0.922835 0.455422
O O12 0.101754 0.780720 0.789434
O O13 0.174785 0.656527 0.936919
O O14 0.901427 0.439693 0.587828
#
# Coordination Sequence:
#
# PCOD8127476 Si02
#       7
#     4   4   4   4   4   4   4
#     4  10  22  43  62  91 132 169 211 258 333 386
#     4  11  21  39  68  95 126 169 215 269 321 376
#     4  11  22  39  67  94 129 161 221 271 317 370
#     4  11  21  41  65  94 129 171 213 268 323 380
#     4  10  22  43  66  93 127 172 212 265 318 391
#     4  10  23  41  66  92 128 170 209 271 326 383
#     4  11  21  41  70  92 126 172 215 257 327 381
#
# _framework density 21.657959999999999
#
# number of rings (size 3 to 8) (size 9 to 14) (size 15 to 20)
#    0.000    1.429    4.286    1.714    0.000    3.429 
#    0.000    0.000    3.143    0.000    0.000    0.000 
#    0.000    0.000    0.000    0.000    0.000    0.000 
#
# Total GULP energy -346961.580817 kJ/mol
# GULP energy per Si atom -12391.485029 kJ/mol
# Density = 2.160867 g / cm^3
# Si number density = 21.657960 Si / 1000 Ang^3
#
#
#
# Elastic Constant Matrix: (Units=GPa)
#
#
# Indices 1 2 3 4 5 6 
#
# 1 74.1405 17.5979 35.3346 0.0000 -21.0688 0.0000
# 2 17.5979 24.6279 18.2190 0.0000 -2.3669 0.0000
# 3 35.3346 18.2190 122.2333 0.0000 0.6511 0.0000
# 4 0.0000 0.0000 0.0000 18.5849 0.0000 -3.1801
# 5 -21.0688 -2.3669 0.6511 0.0000 39.6831 0.0000
# 6 0.0000 0.0000 0.0000 -3.1801 0.0000 40.2101
#
#
#
# Elastic Compliance Matrix: (Units=1/GPa)
#
#
# Indices 1 2 3 4 5 6 
#
# 1 0.021292 -0.010775 -0.004606 0.000000 0.010737 0.000000
# 2 -0.010775 0.051410 -0.004534 0.000000 -0.002580 0.000000
# 3 -0.004606 -0.004534 0.010204 0.000000 -0.002883 0.000000
# 4 0.000000 0.000000 0.000000 0.054545 0.000000 0.004314
# 5 0.010737 -0.002580 -0.002883 0.000000 0.030794 0.000000
# 6 0.000000 0.000000 0.000000 0.004314 0.000000 0.025211
#
#
# Mechanical properties :
#
#
# Convention : Reuss Voigt Hill
#
# Bulk Modulus (GPa) = 23.21520 40.36719 31.79119
# Shear Modulus (GPa) = 20.19030 29.68565 24.93798
#
# Velocity S-wave (km/s) = 3.05656 3.70626 3.39698
# Velocity P-wave (km/s) = 4.81654 6.08228 5.48603
#
# Compressibility (1/GPa) = 0.04307523
#
# Stress axis : x y z
#
# Youngs Moduli (GPa) = 46.96629 19.45154 98.00274
#
# Poissons Ratio (x) = 0.20958 0.45142
# Poissons Ratio (y) = 0.50605 0.44437
# Poissons Ratio (z) = 0.21633 0.08820
#
# Static dielectric constant tensor:
#      x y z
#    x 3.931400 0.000000 -0.026080 
#    y 0.000000 3.850680 0.000000 
#    z -0.026080 0.000000 3.969880 
# 
# 
# High freq. dielectric constant tensor:
#      x y z
#    x 1.850260 0.000000 -0.001410 
#    y 0.000000 1.827750 0.000000 
#    z -0.001410 0.000000 1.858250 
# 
# From -- ./inp_files/67074.got.cif
#   From: 2010.03.12/outbox.cif.g09.slc.cpg/sg14_34_cif.got.tgz:67074.got - 2010.03.31 13:35:05.
