data_PCOD8127442
_publ_section_title
;
Structure prediction by ZEFSAII (Michael W. Deem and Ramdas Pophale) SiO2 
 PCOD8127442
Probable space group: P 21/C
;
_chemical_formula_sum "Si O2"
_cell_formula_units_Z 24
_cell_length_a 6.749275
_cell_length_b 19.526261
_cell_length_c 9.635793
_cell_angle_alpha 90.000000
_cell_angle_beta 121.405402
_cell_angle_gamma 90.000000
_cell_volume 1083.847179
_symmetry_space_group_name_H-M "P 21/C"
_symmetry_group_IT_number 14
_symmetry_cell_setting 'monoclinic'
loop_
_space_group_symop_operation_xyz
x,y,z
-x,1/2+y,1/2-z
-x,-y,-z
x,1/2-y,1/2+z
loop_
_atom_site_type_symbol
_atom_site_label
_atom_site_fract_x
_atom_site_fract_y
_atom_site_fract_z
Si Si1 0.762865 0.945362 0.015948
Si Si2 0.024782 0.370098 0.640327
Si Si3 0.487994 0.679900 0.518316
Si Si4 0.696939 0.739148 0.858808
Si Si5 0.709496 0.009226 0.274861
Si Si6 0.893977 0.603179 0.031378
O O1 0.970018 0.926471 0.983584
O O2 0.558664 0.975217 0.845626
O O3 0.681959 0.877407 0.066132
O O4 0.833447 0.996302 0.167557
O O5 0.146963 0.301093 0.635867
O O6 0.761990 0.355070 0.588738
O O7 0.165086 0.397150 0.826040
O O8 0.517914 0.712260 0.679508
O O9 0.525032 0.739719 0.419886
O O10 0.878737 0.680398 0.970122
O O11 0.716699 0.944505 0.380958
O O12 0.844899 0.072908 0.394604
#
# Coordination Sequence:
#
# PCOD8127442 Si02
#       6
#     4   4   4   4   4   4
#     4  10  22  43  66  94 128 171 210 267 323 376
#     4  11  25  41  68  95 126 168 220 264 325 380
#     4  11  23  42  64  94 127 165 216 272 319 384
#     4  11  24  42  66  92 130 169 213 273 322 378
#     4  10  22  42  69  92 137 169 214 267 311 393
#     4  11  22  42  64  98 129 171 215 261 324 379
#
# _framework density 22.143343000000002
#
# number of rings (size 3 to 8) (size 9 to 14) (size 15 to 20)
#    0.000    1.333    5.000    0.000    2.333    1.333 
#    0.000    1.667    0.000    0.000    0.000    0.000 
#    0.000    0.000    0.000    0.000    0.000    0.000 
#
# Total GULP energy -297590.219600 kJ/mol
# GULP energy per Si atom -12399.592483 kJ/mol
# Density = 2.209294 g / cm^3
# Si number density = 22.143343 Si / 1000 Ang^3
#
#
#
# Elastic Constant Matrix: (Units=GPa)
#
#
# Indices 1 2 3 4 5 6 
#
# 1 68.5389 -5.6171 19.5083 0.0000 -14.1595 0.0000
# 2 -5.6171 37.0162 17.5059 0.0000 -6.2189 0.0000
# 3 19.5083 17.5059 111.0211 0.0000 -13.2570 0.0000
# 4 0.0000 0.0000 0.0000 51.8289 0.0000 2.7153
# 5 -14.1595 -6.2189 -13.2570 0.0000 26.5557 0.0000
# 6 0.0000 0.0000 0.0000 2.7153 0.0000 18.3668
#
#
#
# Elastic Compliance Matrix: (Units=1/GPa)
#
#
# Indices 1 2 3 4 5 6 
#
# 1 0.017816 0.005651 -0.002902 0.000000 0.009374 0.000000
# 2 0.005651 0.031578 -0.005029 0.000000 0.007898 0.000000
# 3 -0.002902 -0.005029 0.010618 0.000000 0.002575 0.000000
# 4 0.000000 0.000000 0.000000 0.019445 0.000000 -0.002875
# 5 0.009374 0.007898 0.002575 0.000000 0.045790 0.000000
# 6 0.000000 0.000000 0.000000 -0.002875 0.000000 0.054871
#
#
# Mechanical properties :
#
#
# Convention : Reuss Voigt Hill
#
# Bulk Modulus (GPa) = 18.03398 31.04114 24.53756
# Shear Modulus (GPa) = 24.61086 31.69555 28.15321
#
# Velocity S-wave (km/s) = 3.33743 3.78746 3.56955
# Velocity P-wave (km/s) = 4.79720 5.75979 5.30040
#
# Compressibility (1/GPa) = 0.05545086
#
# Stress axis : x y z
#
# Youngs Moduli (GPa) = 56.12919 31.66767 94.18153
#
# Poissons Ratio (x) = -0.17895 0.27334
# Poissons Ratio (y) = -0.31718 0.47365
# Poissons Ratio (z) = 0.16290 0.15926
#
# Static dielectric constant tensor:
#      x y z
#    x 3.595640 0.000000 -0.284600 
#    y 0.000000 4.303570 0.000000 
#    z -0.284600 0.000000 4.239430 
# 
# 
# High freq. dielectric constant tensor:
#      x y z
#    x 1.837150 0.000000 -0.014320 
#    y 0.000000 1.895350 0.000000 
#    z -0.014320 0.000000 1.887050 
# 
# From -- ./inp_files/6309.got.cif
#   From: 2010.03.12/outbox.cif.g09.slc.cpg/sg14_4_cif.got.tgz:6309.got - 2010.03.31 13:35:05.
