data_PCOD8127489
_publ_section_title
;
Structure prediction by ZEFSAII (Michael W. Deem and Ramdas Pophale) SiO2 
 PCOD8127489
Probable space group: P 21/C
;
_chemical_formula_sum "Si O2"
_cell_formula_units_Z 20
_cell_length_a 7.694778
_cell_length_b 13.957212
_cell_length_c 10.125239
_cell_angle_alpha 90.000000
_cell_angle_beta 115.210201
_cell_angle_gamma 90.000000
_cell_volume 983.850784
_symmetry_space_group_name_H-M "P 21/C"
_symmetry_group_IT_number 14
_symmetry_cell_setting 'monoclinic'
loop_
_space_group_symop_operation_xyz
x,y,z
-x,1/2+y,1/2-z
-x,-y,-z
x,1/2-y,1/2+z
loop_
_atom_site_type_symbol
_atom_site_label
_atom_site_fract_x
_atom_site_fract_y
_atom_site_fract_z
Si Si1 0.992710 0.270705 0.321852
Si Si2 0.271619 0.592888 0.892424
Si Si3 0.637697 0.155732 0.304584
Si Si4 0.351547 0.049431 0.624521
Si Si5 0.771179 0.751397 0.847178
O O1 0.922933 0.373190 0.241388
O O2 0.807070 0.203264 0.275775
O O3 0.095330 0.291443 0.493187
O O4 0.139823 0.221186 0.266093
O O5 0.436661 0.589328 0.836055
O O6 0.326592 0.669253 0.026292
O O7 0.250203 0.487715 0.954556
O O8 0.437247 0.203593 0.200941
O O9 0.633477 0.041167 0.270329
O O10 0.228362 0.135360 0.644741
#
# Coordination Sequence:
#
# PCOD8127489 Si02
#       5
#     4   4   4   4   4
#     4  12  24  38  66 103 128 169 220 276 313 397
#     4   9  19  42  68  90 127 175 219 267 318 385
#     4  10  22  43  65  95 132 169 221 276 310 392
#     4   9  20  42  72  89 128 189 216 255 333 407
#     4  12  24  41  71  95 130 179 220 261 346 377
#
# _framework density 20.328285999999999
#
# number of rings (size 3 to 8) (size 9 to 14) (size 15 to 20)
#    1.200    0.400    4.000    1.200    0.000    3.200 
#    0.000    2.000    4.400    0.000    0.000    0.000 
#    0.000    0.000    0.000    0.000    0.000    0.000 
#
# Total GULP energy -247876.435861 kJ/mol
# GULP energy per Si atom -12393.821793 kJ/mol
# Density = 2.028202 g / cm^3
# Si number density = 20.328286 Si / 1000 Ang^3
#
#
#
# Elastic Constant Matrix: (Units=GPa)
#
#
# Indices 1 2 3 4 5 6 
#
# 1 117.0796 29.3120 23.7710 0.0000 -1.5697 0.0000
# 2 29.3120 80.1573 13.7571 0.0000 7.0647 0.0000
# 3 23.7710 13.7571 69.6069 0.0000 6.1216 0.0000
# 4 0.0000 0.0000 0.0000 28.2460 0.0000 1.0756
# 5 -1.5697 7.0647 6.1216 0.0000 26.9868 0.0000
# 6 0.0000 0.0000 0.0000 1.0756 0.0000 28.2207
#
#
#
# Elastic Compliance Matrix: (Units=1/GPa)
#
#
# Indices 1 2 3 4 5 6 
#
# 1 0.010003 -0.003340 -0.002943 0.000000 0.002124 0.000000
# 2 -0.003340 0.014249 -0.001357 0.000000 -0.003616 0.000000
# 3 -0.002943 -0.001357 0.015941 0.000000 -0.003432 0.000000
# 4 0.000000 0.000000 0.000000 0.035455 0.000000 -0.001351
# 5 0.002124 -0.003616 -0.003432 0.000000 0.038904 0.000000
# 6 0.000000 0.000000 0.000000 -0.001351 0.000000 0.035486
#
#
# Mechanical properties :
#
#
# Convention : Reuss Voigt Hill
#
# Bulk Modulus (GPa) = 40.14008 44.50265 42.32136
# Shear Modulus (GPa) = 28.79795 30.02428 29.41112
#
# Velocity S-wave (km/s) = 3.76792 3.84731 3.80782
# Velocity P-wave (km/s) = 6.22241 6.45563 6.34009
#
# Compressibility (1/GPa) = 0.02491276
#
# Stress axis : x y z
#
# Youngs Moduli (GPa) = 99.96605 70.18237 62.72949
#
# Poissons Ratio (x) = 0.23442 0.18460
# Poissons Ratio (y) = 0.33390 0.08515
# Poissons Ratio (z) = 0.29418 0.09526
#
# Static dielectric constant tensor:
#      x y z
#    x 3.686310 0.000000 -0.024920 
#    y 0.000000 3.649680 0.000000 
#    z -0.024920 0.000000 3.456390 
# 
# 
# High freq. dielectric constant tensor:
#      x y z
#    x 1.806910 0.000000 0.002450 
#    y 0.000000 1.780010 0.000000 
#    z 0.002450 0.000000 1.767670 
# 
# From -- ./inp_files/24671.got.cif
#   From: 2010.03.12/outbox.cif.g09.slc.cpg/sg14_13_cif.got.tgz:24671.got - 2010.03.31 13:35:05.
