data_PCOD8127737
_publ_section_title
;
Structure prediction by ZEFSAII (Michael W. Deem and Ramdas Pophale) SiO2 
 PCOD8127737
Probable space group: P 21/C
;
_chemical_formula_sum "Si O2"
_cell_formula_units_Z 20
_cell_length_a 11.550293
_cell_length_b 7.396179
_cell_length_c 13.234577
_cell_angle_alpha 90.000000
_cell_angle_beta 128.008325
_cell_angle_gamma 90.000000
_cell_volume 890.826885
_symmetry_space_group_name_H-M "P 21/C"
_symmetry_group_IT_number 14
_symmetry_cell_setting 'monoclinic'
loop_
_space_group_symop_operation_xyz
x,y,z
-x,1/2+y,1/2-z
-x,-y,-z
x,1/2-y,1/2+z
loop_
_atom_site_type_symbol
_atom_site_label
_atom_site_fract_x
_atom_site_fract_y
_atom_site_fract_z
Si Si1 0.933920 0.719064 0.327691
Si Si2 0.816524 0.381924 0.907445
Si Si3 0.169691 0.557096 0.313685
Si Si4 0.682051 0.763129 0.822378
Si Si5 0.610136 0.391718 0.403117
O O1 0.809954 0.622840 0.331238
O O2 0.031940 0.851853 0.450740
O O3 0.031011 0.587166 0.313621
O O4 0.834286 0.842230 0.200940
O O5 0.842138 0.349026 0.801564
O O6 0.757069 0.580979 0.907279
O O7 0.699733 0.230808 0.874164
O O8 0.320379 0.620130 0.447651
O O9 0.554623 0.685597 0.679872
O O10 0.615035 0.898044 0.869557
#
# Coordination Sequence:
#
# PCOD8127737 Si02
#       5
#     4   4   4   4   4
#     4  10  24  39  67  94 126 163 211 262 315 367
#     4  10  23  45  62  94 129 161 213 266 308 371
#     4  10  23  40  64  96 123 163 213 258 310 380
#     4  11  22  43  63  90 129 171 203 263 313 358
#     4  11  24  41  67  91 128 171 210 252 318 377
#
# _framework density 22.451052000000001
#
# number of rings (size 3 to 8) (size 9 to 14) (size 15 to 20)
#    0.000    1.600    2.000    2.400    8.400    4.800 
#    0.000    1.000    0.000    0.000    0.000    0.000 
#    0.000    0.000    0.000    0.000    0.000    0.000 
#
# Total GULP energy -247822.636496 kJ/mol
# GULP energy per Si atom -12391.131825 kJ/mol
# Density = 2.239995 g / cm^3
# Si number density = 22.451052 Si / 1000 Ang^3
#
#
#
# Elastic Constant Matrix: (Units=GPa)
#
#
# Indices 1 2 3 4 5 6 
#
# 1 64.9247 21.6744 47.0526 0.0000 14.8829 0.0000
# 2 21.6744 58.7736 16.4512 0.0000 -4.5261 0.0000
# 3 47.0526 16.4512 86.8917 0.0000 0.2079 0.0000
# 4 0.0000 0.0000 0.0000 20.0165 0.0000 1.8830
# 5 14.8829 -4.5261 0.2079 0.0000 41.1298 0.0000
# 6 0.0000 0.0000 0.0000 1.8830 0.0000 31.0374
#
#
#
# Elastic Compliance Matrix: (Units=1/GPa)
#
#
# Indices 1 2 3 4 5 6 
#
# 1 0.032918 -0.008598 -0.016167 0.000000 -0.012776 0.000000
# 2 -0.008598 0.020377 0.000785 0.000000 0.005350 0.000000
# 3 -0.016167 0.000785 0.020101 0.000000 0.005835 0.000000
# 4 0.000000 0.000000 0.000000 0.050246 0.000000 -0.003048
# 5 -0.012776 0.005350 0.005835 0.000000 0.029496 0.000000
# 6 0.000000 0.000000 0.000000 -0.003048 0.000000 0.032404
#
#
# Mechanical properties :
#
#
# Convention : Reuss Voigt Hill
#
# Bulk Modulus (GPa) = 39.31416 42.32736 40.82076
# Shear Modulus (GPa) = 20.66282 26.79750 23.73016
#
# Velocity S-wave (km/s) = 3.03702 3.45859 3.25464
# Velocity P-wave (km/s) = 5.46324 5.90282 5.68728
#
# Compressibility (1/GPa) = 0.02543613
#
# Stress axis : x y z
#
# Youngs Moduli (GPa) = 30.37832 49.07384 49.74975
#
# Poissons Ratio (x) = 0.42194 0.80431
# Poissons Ratio (y) = 0.26119 -0.03906
# Poissons Ratio (z) = 0.49113 -0.03853
#
# Static dielectric constant tensor:
#      x y z
#    x 4.297420 0.000000 0.226840 
#    y 0.000000 3.851850 0.000000 
#    z 0.226840 0.000000 4.090580 
# 
# 
# High freq. dielectric constant tensor:
#      x y z
#    x 1.894240 0.000000 0.015980 
#    y 0.000000 1.872280 0.000000 
#    z 0.015980 0.000000 1.883930 
# 
# From -- ./inp_files/23117.got.cif
#   From: 2010.03.12/outbox.cif.g09.slc.cpg/sg14_12_cif.got.tgz:23117.got - 2010.03.31 13:35:05.
