data_PCOD8127922
_publ_section_title
;
Structure prediction by ZEFSAII (Michael W. Deem and Ramdas Pophale) SiO2 
 PCOD8127922
Probable space group: P 21/C
;
_chemical_formula_sum "Si O2"
_cell_formula_units_Z 28
_cell_length_a 11.833379
_cell_length_b 9.400879
_cell_length_c 14.940065
_cell_angle_alpha 90.000000
_cell_angle_beta 52.595151
_cell_angle_gamma 90.000000
_cell_volume 1320.227726
_symmetry_space_group_name_H-M "P 21/C"
_symmetry_group_IT_number 14
_symmetry_cell_setting 'monoclinic'
loop_
_space_group_symop_operation_xyz
x,y,z
-x,1/2+y,1/2-z
-x,-y,-z
x,1/2-y,1/2+z
loop_
_atom_site_type_symbol
_atom_site_label
_atom_site_fract_x
_atom_site_fract_y
_atom_site_fract_z
Si Si1 0.921615 0.573317 0.118385
Si Si2 0.173658 0.779472 0.585585
Si Si3 0.492393 0.641447 0.902996
Si Si4 0.770934 0.297970 0.241973
Si Si5 0.699435 0.709784 0.655283
Si Si6 0.148461 0.926655 0.944013
Si Si7 0.522955 0.816520 0.586004
O O1 0.810789 0.463008 0.214243
O O2 0.838917 0.714205 0.126880
O O3 0.042620 0.615080 0.130989
O O4 0.000000 0.500000 0.000000
O O5 0.322022 0.847698 0.480934
O O6 0.170224 0.759415 0.692888
O O7 0.155006 0.631003 0.542277
O O8 0.566429 0.727999 0.787097
O O9 0.533913 0.476495 0.873652
O O10 0.556114 0.705777 0.964788
O O11 0.837463 0.206120 0.129876
O O12 0.600298 0.290460 0.322282
O O13 0.728062 0.542569 0.628623
O O14 0.661510 0.782416 0.578497
O O15 0.000000 0.000000 0.000000
#
# Coordination Sequence:
#
# PCOD8127922 Si02
#       7
#     4   4   4   4   4   4   4
#     4  12  25  45  67 101 134 179 225 271 336 405
#     4  11  25  44  70  97 140 175 224 286 333 401
#     4  10  23  44  69 100 133 175 227 272 339 404
#     4  11  25  44  69  96 137 178 221 275 337 399
#     4  12  25  41  75  97 134 179 220 281 335 399
#     4  12  24  45  63 101 136 173 227 276 333 397
#     4  10  23  43  68 100 133 175 221 276 334 400
#
# _framework density 21.208462999999998
#
# number of rings (size 3 to 8) (size 9 to 14) (size 15 to 20)
#    0.000    0.857    4.286    1.714    4.000    1.143 
#    2.571    2.857    0.000    0.000    0.000    0.000 
#    0.000    0.000    0.000    0.000    0.000    0.000 
#
# Total GULP energy -347332.909600 kJ/mol
# GULP energy per Si atom -12404.746771 kJ/mol
# Density = 2.116019 g / cm^3
# Si number density = 21.208463 Si / 1000 Ang^3
#
#
#
# Elastic Constant Matrix: (Units=GPa)
#
#
# Indices 1 2 3 4 5 6 
#
# 1 111.3073 17.5951 27.3096 0.0000 9.9172 0.0000
# 2 17.5951 84.7608 23.7224 0.0000 -3.8919 0.0000
# 3 27.3096 23.7224 61.4239 0.0000 2.3154 0.0000
# 4 0.0000 0.0000 0.0000 35.8068 0.0000 -3.7902
# 5 9.9172 -3.8919 2.3154 0.0000 27.8230 0.0000
# 6 0.0000 0.0000 0.0000 -3.7902 0.0000 38.0396
#
#
#
# Elastic Compliance Matrix: (Units=1/GPa)
#
#
# Indices 1 2 3 4 5 6 
#
# 1 0.010490 -0.001204 -0.004064 0.000000 -0.003569 0.000000
# 2 -0.001204 0.013512 -0.004786 0.000000 0.002717 0.000000
# 3 -0.004064 -0.004786 0.019969 0.000000 -0.000883 0.000000
# 4 0.000000 0.000000 0.000000 0.028225 0.000000 0.002812
# 5 -0.003569 0.002717 -0.000883 0.000000 0.037667 0.000000
# 6 0.000000 0.000000 0.000000 0.002812 0.000000 0.026569
#
#
# Mechanical properties :
#
#
# Convention : Reuss Voigt Hill
#
# Bulk Modulus (GPa) = 41.90612 43.86069 42.88341
# Shear Modulus (GPa) = 30.39637 32.92489 31.66063
#
# Velocity S-wave (km/s) = 3.78989 3.94438 3.86791
# Velocity P-wave (km/s) = 6.24124 6.43970 6.34125
#
# Compressibility (1/GPa) = 0.02386286
#
# Stress axis : x y z
#
# Youngs Moduli (GPa) = 95.33233 74.00860 50.07806
#
# Poissons Ratio (x) = 0.08910 0.20353
# Poissons Ratio (y) = 0.11477 0.23965
# Poissons Ratio (z) = 0.38746 0.35418
#
# Static dielectric constant tensor:
#      x y z
#    x 4.025520 0.000000 0.252700 
#    y 0.000000 3.752610 0.000000 
#    z 0.252700 0.000000 4.453390 
# 
# 
# High freq. dielectric constant tensor:
#      x y z
#    x 1.842030 0.000000 0.003720 
#    y 0.000000 1.830230 0.000000 
#    z 0.003720 0.000000 1.833820 
# 
# From -- ./inp_files/43633.got.cif
#   From: 2010.03.12/outbox.cif.g09.slc.cpg/sg14_22_cif.got.tgz:43633.got - 2010.03.31 13:35:05.
