data_PCOD8127774
_publ_section_title
;
Structure prediction by ZEFSAII (Michael W. Deem and Ramdas Pophale) SiO2 
 PCOD8127774
Probable space group: P 21/C
;
_chemical_formula_sum "Si O2"
_cell_formula_units_Z 32
_cell_length_a 23.260593
_cell_length_b 15.471743
_cell_length_c 8.682814
_cell_angle_alpha 90.000000
_cell_angle_beta 30.640636
_cell_angle_gamma 90.000000
_cell_volume 1592.553554
_symmetry_space_group_name_H-M "P 21/C"
_symmetry_group_IT_number 14
_symmetry_cell_setting 'monoclinic'
loop_
_space_group_symop_operation_xyz
x,y,z
-x,1/2+y,1/2-z
-x,-y,-z
x,1/2-y,1/2+z
loop_
_atom_site_type_symbol
_atom_site_label
_atom_site_fract_x
_atom_site_fract_y
_atom_site_fract_z
Si Si1 0.538623 0.363423 0.833836
Si Si2 0.960211 0.363727 0.668987
Si Si3 0.384444 0.538196 0.816836
Si Si4 0.874639 0.215380 0.685207
Si Si5 0.848352 0.990717 0.241288
Si Si6 0.115184 0.538644 0.683770
Si Si7 0.624530 0.284638 0.316789
Si Si8 0.348230 0.008708 0.741676
O O1 0.594723 0.319936 0.554508
O O2 0.537016 0.291318 0.971791
O O3 0.613930 0.447024 0.705080
O O4 0.409912 0.397496 0.107466
O O5 0.960946 0.292329 0.531852
O O6 0.885536 0.447762 0.796695
O O7 0.089175 0.397217 0.395181
O O8 0.903924 0.319934 0.948389
O O9 0.500000 0.500000 0.500000
O O10 0.382876 0.638473 0.785791
O O11 0.287643 0.482766 0.949544
O O12 0.379163 0.536791 0.011530
O O13 0.885068 0.138982 0.781417
O O14 0.749124 0.248873 0.002752
O O15 0.878866 0.036816 0.012454
O O16 0.212227 0.483959 0.551353
O O17 0.000000 0.500000 0.000000
#
# Coordination Sequence:
#
# PCOD8127774 Si02
#       8
#     4   4   4   4   4   4   4   4
#     4  11  23  41  62  98 132 166 219 274 326 382
#     4  11  23  41  62  98 132 166 219 274 326 382
#     4  11  22  42  67  97 131 174 217 267 328 398
#     4  12  23  37  66 100 129 166 223 277 318 381
#     4  10  23  41  65  94 135 172 214 268 331 394
#     4  11  22  42  67  97 131 174 217 267 328 398
#     4  12  23  37  66 100 129 166 223 277 318 381
#     4  10  23  41  65  94 135 172 214 268 331 394
#
# _framework density 20.093516000000001
#
# number of rings (size 3 to 8) (size 9 to 14) (size 15 to 20)
#    0.000    1.000    5.000    2.250    3.500    0.000 
#    0.000    1.250    0.000    0.000    0.000    0.000 
#    0.000    0.000    0.000    0.000    0.000    0.000 
#
# Total GULP energy -396639.525175 kJ/mol
# GULP energy per Si atom -12394.985162 kJ/mol
# Density = 2.004778 g / cm^3
# Si number density = 20.093516 Si / 1000 Ang^3
#
#
#
# Elastic Constant Matrix: (Units=GPa)
#
#
# Indices 1 2 3 4 5 6 
#
# 1 103.5114 56.1286 49.4256 0.0000 -5.8694 0.0000
# 2 56.1286 129.1579 58.5693 0.0000 -13.5780 0.0000
# 3 49.4256 58.5693 116.3751 0.0000 -21.7214 0.0000
# 4 0.0000 0.0000 0.0000 39.2966 0.0000 -3.3976
# 5 -5.8694 -13.5780 -21.7214 0.0000 38.4794 0.0000
# 6 0.0000 0.0000 0.0000 -3.3976 0.0000 55.2956
#
#
#
# Elastic Compliance Matrix: (Units=1/GPa)
#
#
# Indices 1 2 3 4 5 6 
#
# 1 0.013848 -0.004387 -0.003989 0.000000 -0.001687 0.000000
# 2 -0.004387 0.011442 -0.003652 0.000000 0.001307 0.000000
# 3 -0.003989 -0.003652 0.013157 0.000000 0.005530 0.000000
# 4 0.000000 0.000000 0.000000 0.025583 0.000000 0.001572
# 5 -0.001687 0.001307 0.005530 0.000000 0.029314 0.000000
# 6 0.000000 0.000000 0.000000 0.001572 0.000000 0.018181
#
#
# Mechanical properties :
#
#
# Convention : Reuss Voigt Hill
#
# Bulk Modulus (GPa) = 69.47614 75.25459 72.36537
# Shear Modulus (GPa) = 35.61835 38.94238 37.28036
#
# Velocity S-wave (km/s) = 4.21483 4.40711 4.31204
# Velocity P-wave (km/s) = 7.63792 7.96432 7.80283
#
# Compressibility (1/GPa) = 0.01439343
#
# Stress axis : x y z
#
# Youngs Moduli (GPa) = 72.21075 87.39664 76.00610
#
# Poissons Ratio (x) = 0.38339 0.30316
# Poissons Ratio (y) = 0.31677 0.27754
# Poissons Ratio (z) = 0.28803 0.31913
#
# Static dielectric constant tensor:
#      x y z
#    x 4.055940 0.000000 -0.007360 
#    y 0.000000 3.533520 0.000000 
#    z -0.007360 0.000000 4.488430 
# 
# 
# High freq. dielectric constant tensor:
#      x y z
#    x 1.803680 0.000000 0.003290 
#    y 0.000000 1.782140 0.000000 
#    z 0.003290 0.000000 1.771410 
# 
# From -- ./inp_files/19545.got.cif
#   From: 2010.03.12/outbox.cif.g09.slc.cpg/sg14_10_cif.got.tgz:19545.got - 2010.03.31 13:35:05.
