data_PCOD8127679
_publ_section_title
;
Structure prediction by ZEFSAII (Michael W. Deem and Ramdas Pophale) SiO2 
 PCOD8127679
Probable space group: P 21/C
;
_chemical_formula_sum "Si O2"
_cell_formula_units_Z 28
_cell_length_a 21.838016
_cell_length_b 14.835767
_cell_length_c 9.028596
_cell_angle_alpha 90.000000
_cell_angle_beta 26.909891
_cell_angle_gamma 90.000000
_cell_volume 1323.875260
_symmetry_space_group_name_H-M "P 21/C"
_symmetry_group_IT_number 14
_symmetry_cell_setting 'monoclinic'
loop_
_space_group_symop_operation_xyz
x,y,z
-x,1/2+y,1/2-z
-x,-y,-z
x,1/2-y,1/2+z
loop_
_atom_site_type_symbol
_atom_site_label
_atom_site_fract_x
_atom_site_fract_y
_atom_site_fract_z
Si Si1 0.508701 0.146298 0.242385
Si Si2 0.178731 0.678020 0.980195
Si Si3 0.167624 0.864976 0.847192
Si Si4 0.355491 0.250085 0.821659
Si Si5 0.714454 0.633147 0.273346
Si Si6 0.546670 0.461177 0.241919
Si Si7 0.052693 0.999408 0.722562
O O1 0.457467 0.194402 0.499608
O O2 0.448423 0.186432 0.221441
O O3 0.456409 0.043572 0.367045
O O4 0.669631 0.152357 0.890878
O O5 0.145959 0.779452 0.000733
O O6 0.154888 0.670300 0.207350
O O7 0.077686 0.604594 0.117633
O O8 0.308891 0.914402 0.565969
O O9 0.053275 0.939389 0.141066
O O10 0.249004 0.306233 0.949912
O O11 0.262035 0.186950 0.125233
O O12 0.554810 0.614534 0.599287
O O13 0.798724 0.542700 0.096328
O O14 0.500000 0.500000 0.500000
O O15 0.000000 0.000000 0.000000
#
# Coordination Sequence:
#
# PCOD8127679 Si02
#       7
#     4   4   4   4   4   4   4
#     4  11  20  38  63  95 126 162 205 259 317 371
#     4  11  21  42  65  89 125 166 209 255 316 376
#     4  11  24  41  66  91 123 168 211 256 313 376
#     4  10  23  35  61  96 125 158 204 262 308 370
#     4  11  21  41  60  92 124 158 211 253 314 369
#     4  12  20  37  65  91 123 164 210 258 309 380
#     4  10  23  42  65  88 123 169 208 252 309 380
#
# _framework density 21.150029
#
# number of rings (size 3 to 8) (size 9 to 14) (size 15 to 20)
#    0.000    1.143    4.286    3.429    0.000    2.857 
#    5.143    0.714    0.000    0.000    0.000    0.000 
#    0.000    0.000    0.000    0.000    0.000    0.000 
#
# Total GULP energy -347095.763665 kJ/mol
# GULP energy per Si atom -12396.277274 kJ/mol
# Density = 2.110189 g / cm^3
# Si number density = 21.150029 Si / 1000 Ang^3
#
#
#
# Elastic Constant Matrix: (Units=GPa)
#
#
# Indices 1 2 3 4 5 6 
#
# 1 60.0343 25.3332 22.6110 0.0000 5.0828 0.0000
# 2 25.3332 119.7834 28.6846 0.0000 -4.8455 0.0000
# 3 22.6110 28.6846 61.0652 0.0000 -14.8409 0.0000
# 4 0.0000 0.0000 0.0000 37.0682 0.0000 -4.6003
# 5 5.0828 -4.8455 -14.8409 0.0000 30.4339 0.0000
# 6 0.0000 0.0000 0.0000 -4.6003 0.0000 29.8312
#
#
#
# Elastic Compliance Matrix: (Units=1/GPa)
#
#
# Indices 1 2 3 4 5 6 
#
# 1 0.021893 -0.002862 -0.008805 0.000000 -0.008406 0.000000
# 2 -0.002862 0.009796 -0.003456 0.000000 0.000352 0.000000
# 3 -0.008805 -0.003456 0.024372 0.000000 0.012805 0.000000
# 4 0.000000 0.000000 0.000000 0.027504 0.000000 0.004241
# 5 -0.008406 0.000352 0.012805 0.000000 0.040562 0.000000
# 6 0.000000 0.000000 0.000000 0.004241 0.000000 0.034176
#
#
# Mechanical properties :
#
#
# Convention : Reuss Voigt Hill
#
# Bulk Modulus (GPa) = 38.73805 43.79338 41.26572
# Shear Modulus (GPa) = 25.36117 30.41693 27.88905
#
# Velocity S-wave (km/s) = 3.46657 3.79641 3.63523
# Velocity P-wave (km/s) = 5.86331 6.32202 6.09698
#
# Compressibility (1/GPa) = 0.02581441
#
# Stress axis : x y z
#
# Youngs Moduli (GPa) = 45.67756 102.08769 41.03125
#
# Poissons Ratio (x) = 0.29214 0.36128
# Poissons Ratio (y) = 0.13071 0.14181
# Poissons Ratio (z) = 0.40219 0.35283
#
# Static dielectric constant tensor:
#      x y z
#    x 3.838940 0.000000 -0.086220 
#    y 0.000000 4.457150 0.000000 
#    z -0.086220 0.000000 3.743320 
# 
# 
# High freq. dielectric constant tensor:
#      x y z
#    x 1.808030 0.000000 -0.003540 
#    y 0.000000 1.856160 0.000000 
#    z -0.003540 0.000000 1.817610 
# 
# From -- ./inp_files/19112.got.cif
#   From: 2010.03.12/outbox.cif.g09.slc.cpg/sg14_10_cif.got.tgz:19112.got - 2010.03.31 13:35:05.
