data_PCOD8127739
_publ_section_title
;
Structure prediction by ZEFSAII (Michael W. Deem and Ramdas Pophale) SiO2 
 PCOD8127739
Probable space group: P 21/C
;
_chemical_formula_sum "Si O2"
_cell_formula_units_Z 28
_cell_length_a 14.761162
_cell_length_b 8.392385
_cell_length_c 9.069820
_cell_angle_alpha 90.000000
_cell_angle_beta 111.741349
_cell_angle_gamma 90.000000
_cell_volume 1043.656164
_symmetry_space_group_name_H-M "P 21/C"
_symmetry_group_IT_number 14
_symmetry_cell_setting 'monoclinic'
loop_
_space_group_symop_operation_xyz
x,y,z
-x,1/2+y,1/2-z
-x,-y,-z
x,1/2-y,1/2+z
loop_
_atom_site_type_symbol
_atom_site_label
_atom_site_fract_x
_atom_site_fract_y
_atom_site_fract_z
Si Si1 0.397196 0.281092 0.605736
Si Si2 0.553865 0.059683 0.708427
Si Si3 0.925118 0.586665 0.295419
Si Si4 0.228098 0.574379 0.196920
Si Si5 0.817872 0.750128 0.974584
Si Si6 0.420152 0.658717 0.456527
Si Si7 0.117567 0.755269 0.376879
O O1 0.436749 0.100567 0.640939
O O2 0.421323 0.371099 0.779464
O O3 0.283584 0.294691 0.502967
O O4 0.466642 0.384570 0.531949
O O5 0.595940 0.150191 0.590073
O O6 0.397822 0.865479 0.114534
O O7 0.856176 0.602630 0.398581
O O8 0.925199 0.405218 0.240879
O O9 0.031248 0.655399 0.405395
O O10 0.893868 0.702654 0.144157
O O11 0.199309 0.393475 0.148309
O O12 0.342405 0.572782 0.303494
O O13 0.167819 0.628421 0.302012
O O14 0.198314 0.685839 0.041501
#
# Coordination Sequence:
#
# PCOD8127739 Si02
#       7
#     4   4   4   4   4   4   4
#     4  10  24  41  66  97 139 174 223 271 323 394
#     4  10  23  40  65  93 136 178 220 270 327 383
#     4  11  26  45  68 103 130 178 223 279 342 400
#     4  11  24  45  70  99 135 178 221 280 334 400
#     4  11  26  42  69 100 137 176 227 272 334 403
#     4  10  23  40  66  97 132 177 220 264 330 391
#     4  11  25  46  71  98 136 171 225 282 340 399
#
# _framework density 26.828759999999999
#
# number of rings (size 3 to 8) (size 9 to 14) (size 15 to 20)
#    0.857    0.571    0.000    3.857    6.000    6.286 
#    0.000    0.000    0.000    0.000    0.000    0.000 
#    0.000    0.000    0.000    0.000    0.000    0.000 
#
# Total GULP energy -346984.470718 kJ/mol
# GULP energy per Si atom -12392.302526 kJ/mol
# Density = 2.676770 g / cm^3
# Si number density = 26.828760 Si / 1000 Ang^3
#
#
#
# Elastic Constant Matrix: (Units=GPa)
#
#
# Indices 1 2 3 4 5 6 
#
# 1 121.4911 34.5019 43.0557 0.0000 20.5369 0.0000
# 2 34.5019 27.6148 -10.1720 0.0000 9.5332 0.0000
# 3 43.0557 -10.1720 88.7096 0.0000 6.8435 0.0000
# 4 0.0000 0.0000 0.0000 23.5981 0.0000 -14.6208
# 5 20.5369 9.5332 6.8435 0.0000 28.8703 0.0000
# 6 0.0000 0.0000 0.0000 -14.6208 0.0000 24.7087
#
#
#
# Elastic Compliance Matrix: (Units=1/GPa)
#
#
# Indices 1 2 3 4 5 6 
#
# 1 0.024012 -0.035101 -0.015540 0.000000 -0.001807 0.000000
# 2 -0.035101 0.095379 0.029007 0.000000 -0.013402 0.000000
# 3 -0.015540 0.029007 0.022438 0.000000 -0.003843 0.000000
# 4 0.000000 0.000000 0.000000 0.066905 0.000000 0.039589
# 5 -0.001807 -0.013402 -0.003843 0.000000 0.041259 0.000000
# 6 0.000000 0.000000 0.000000 0.039589 0.000000 0.063897
#
#
# Mechanical properties :
#
#
# Convention : Reuss Voigt Hill
#
# Bulk Modulus (GPa) = 10.14593 41.39852 25.77223
# Shear Modulus (GPa) = 12.82012 26.79741 19.80877
#
# Velocity S-wave (km/s) = 2.18835 3.16386 2.72019
# Velocity P-wave (km/s) = 3.18984 5.36757 4.41508
#
# Compressibility (1/GPa) = 0.09856167
#
# Stress axis : x y z
#
# Youngs Moduli (GPa) = 41.64589 10.48443 44.56775
#
# Poissons Ratio (x) = 0.36802 0.69258
# Poissons Ratio (y) = 1.46182 -1.29279
# Poissons Ratio (z) = 0.64717 -0.30412
#
# Static dielectric constant tensor:
#      x y z
#    x 4.684610 0.000000 0.141500 
#    y 0.000000 4.951410 0.000000 
#    z 0.141500 0.000000 4.919260 
# 
# 
# High freq. dielectric constant tensor:
#      x y z
#    x 2.058770 0.000000 0.003300 
#    y 0.000000 2.091700 0.000000 
#    z 0.003300 0.000000 2.088580 
# 
# From -- ./inp_files/31609.got.cif
#   From: 2010.03.12/outbox.cif.g09.slc.cpg/sg14_16_cif.got.tgz:31609.got - 2010.03.31 13:35:05.
