data_PCOD8127932
_publ_section_title
;
Structure prediction by ZEFSAII (Michael W. Deem and Ramdas Pophale) SiO2 
 PCOD8127932
Probable space group: P 21/C
;
_chemical_formula_sum "Si O2"
_cell_formula_units_Z 24
_cell_length_a 23.303782
_cell_length_b 7.518051
_cell_length_c 16.126187
_cell_angle_alpha 90.000000
_cell_angle_beta 21.495496
_cell_angle_gamma 90.000000
_cell_volume 1035.266407
_symmetry_space_group_name_H-M "P 21/C"
_symmetry_group_IT_number 14
_symmetry_cell_setting 'monoclinic'
loop_
_space_group_symop_operation_xyz
x,y,z
-x,1/2+y,1/2-z
-x,-y,-z
x,1/2-y,1/2+z
loop_
_atom_site_type_symbol
_atom_site_label
_atom_site_fract_x
_atom_site_fract_y
_atom_site_fract_z
Si Si1 0.875643 0.094726 0.986415
Si Si2 0.769329 0.725691 0.725474
Si Si3 0.476961 0.400218 0.668911
Si Si4 0.992480 0.476934 0.856852
Si Si5 0.422427 0.718380 0.635051
Si Si6 0.305986 0.121817 0.007079
O O1 0.703201 0.127178 0.177919
O O2 0.865985 0.949234 0.072071
O O3 0.940702 0.274087 0.938737
O O4 0.994320 0.022974 0.757790
O O5 0.598938 0.717179 0.912200
O O6 0.747481 0.732774 0.853344
O O7 0.862607 0.900029 0.572404
O O8 0.375278 0.553346 0.758945
O O9 0.597142 0.333740 0.436006
O O10 0.567634 0.484925 0.625171
O O11 0.372449 0.235274 0.840315
O O12 0.160753 0.499359 0.674082
#
# Coordination Sequence:
#
# PCOD8127932 Si02
#       6
#     4   4   4   4   4   4
#     4  12  25  43  75  99 137 190 232 281 347 423
#     4  11  25  48  69 107 136 187 235 287 349 413
#     4  10  23  43  69 104 139 182 235 293 346 412
#     4  12  26  44  67 105 143 180 232 292 346 417
#     4  10  23  45  76  98 138 186 241 280 335 430
#     4  11  26  42  68 104 143 180 231 298 360 403
#
# _framework density 23.182438999999999
#
# number of rings (size 3 to 8) (size 9 to 14) (size 15 to 20)
#    0.000    1.000    1.667    5.000    9.333    0.667 
#    0.000    0.000    0.000    0.000    0.000    0.000 
#    0.000    0.000    0.000    0.000    0.000    0.000 
#
# Total GULP energy -297628.878055 kJ/mol
# GULP energy per Si atom -12401.203252 kJ/mol
# Density = 2.312967 g / cm^3
# Si number density = 23.182439 Si / 1000 Ang^3
#
#
#
# Elastic Constant Matrix: (Units=GPa)
#
#
# Indices 1 2 3 4 5 6 
#
# 1 60.2206 6.3366 26.3832 0.0000 1.1772 0.0000
# 2 6.3366 89.4123 24.7622 0.0000 1.2041 0.0000
# 3 26.3832 24.7622 90.6745 0.0000 -1.0257 0.0000
# 4 0.0000 0.0000 0.0000 37.0928 0.0000 8.1683
# 5 1.1772 1.2041 -1.0257 0.0000 21.9924 0.0000
# 6 0.0000 0.0000 0.0000 8.1683 0.0000 34.2134
#
#
#
# Elastic Compliance Matrix: (Units=1/GPa)
#
#
# Indices 1 2 3 4 5 6 
#
# 1 0.019072 0.000224 -0.005625 0.000000 -0.001295 0.000000
# 2 0.000224 0.012117 -0.003383 0.000000 -0.000833 0.000000
# 3 -0.005625 -0.003383 0.013602 0.000000 0.001121 0.000000
# 4 0.000000 0.000000 0.000000 0.028455 0.000000 -0.006794
# 5 -0.001295 -0.000833 0.001121 0.000000 0.045637 0.000000
# 6 0.000000 0.000000 0.000000 -0.006794 0.000000 0.030850
#
#
# Mechanical properties :
#
#
# Convention : Reuss Voigt Hill
#
# Bulk Modulus (GPa) = 36.73683 39.47459 38.10571
# Shear Modulus (GPa) = 28.34848 30.84807 29.59828
#
# Velocity S-wave (km/s) = 3.50071 3.65179 3.57705
# Velocity P-wave (km/s) = 5.67637 5.90301 5.79080
#
# Compressibility (1/GPa) = 0.02722064
#
# Stress axis : x y z
#
# Youngs Moduli (GPa) = 52.43353 82.53196 73.51980
#
# Poissons Ratio (x) = -0.01846 0.41355
# Poissons Ratio (y) = -0.01173 0.24875
# Poissons Ratio (z) = 0.29494 0.27924
#
# Static dielectric constant tensor:
#      x y z
#    x 4.079240 0.000000 0.091580 
#    y 0.000000 4.135340 0.000000 
#    z 0.091580 0.000000 4.210000 
# 
# 
# High freq. dielectric constant tensor:
#      x y z
#    x 1.909960 0.000000 0.008600 
#    y 0.000000 1.918060 0.000000 
#    z 0.008600 0.000000 1.922850 
# 
# From -- ./inp_files/61764.got.cif
#   From: 2010.03.12/outbox.cif.g09.slc.cpg/sg14_31_cif.got.tgz:61764.got - 2010.03.31 13:35:05.
