data_PCOD8127372
_publ_section_title
;
Structure prediction by ZEFSAII (Michael W. Deem and Ramdas Pophale) SiO2 
 PCOD8127372
Probable space group: P 21/C
;
_chemical_formula_sum "Si O2"
_cell_formula_units_Z 20
_cell_length_a 10.775312
_cell_length_b 9.957034
_cell_length_c 13.309415
_cell_angle_alpha 90.000000
_cell_angle_beta 42.201288
_cell_angle_gamma 90.000000
_cell_volume 959.220028
_symmetry_space_group_name_H-M "P 21/C"
_symmetry_group_IT_number 14
_symmetry_cell_setting 'monoclinic'
loop_
_space_group_symop_operation_xyz
x,y,z
-x,1/2+y,1/2-z
-x,-y,-z
x,1/2-y,1/2+z
loop_
_atom_site_type_symbol
_atom_site_label
_atom_site_fract_x
_atom_site_fract_y
_atom_site_fract_z
Si Si1 0.628214 0.922262 0.566277
Si Si2 0.010214 0.187479 0.700684
Si Si3 0.796977 0.567125 0.341857
Si Si4 0.638311 0.189997 0.434974
Si Si5 0.507228 0.556333 0.359549
O O1 0.824132 0.849550 0.476339
O O2 0.508737 0.828301 0.564892
O O3 0.515122 0.947310 0.735169
O O4 0.670520 0.059179 0.482634
O O5 0.105784 0.287622 0.724269
O O6 0.831210 0.265744 0.764789
O O7 0.943665 0.046787 0.788710
O O8 0.711302 0.531094 0.283914
O O9 0.628892 0.564142 0.523858
O O10 0.570363 0.303002 0.552960
#
# Coordination Sequence:
#
# PCOD8127372 Si02
#       5
#     4   4   4   4   4
#     4  11  23  41  66  92 127 168 207 259 316 370
#     4  11  21  42  64  90 132 162 205 263 312 367
#     4  10  22  42  63  93 126 165 208 264 310 368
#     4  10  23  42  62  94 129 164 209 260 312 370
#     4  10  23  41  69  88 124 170 213 255 312 374
#
# _framework density 20.850273999999999
#
# number of rings (size 3 to 8) (size 9 to 14) (size 15 to 20)
#    0.000    1.600    4.000    0.000    2.800    0.800 
#    7.200    1.000    0.000    0.000    0.000    0.000 
#    0.000    0.000    0.000    0.000    0.000    0.000 
#
# Total GULP energy -247765.560068 kJ/mol
# GULP energy per Si atom -12388.278003 kJ/mol
# Density = 2.080282 g / cm^3
# Si number density = 20.850274 Si / 1000 Ang^3
#
#
#
# Elastic Constant Matrix: (Units=GPa)
#
#
# Indices 1 2 3 4 5 6 
#
# 1 80.9143 48.4332 61.6087 0.0000 -14.0156 0.0000
# 2 48.4332 86.8429 23.5868 0.0000 -14.6271 0.0000
# 3 61.6087 23.5868 89.5629 0.0000 -5.1792 0.0000
# 4 0.0000 0.0000 0.0000 30.8708 0.0000 -16.6939
# 5 -14.0156 -14.6271 -5.1792 0.0000 37.9328 0.0000
# 6 0.0000 0.0000 0.0000 -16.6939 0.0000 20.1979
#
#
#
# Elastic Compliance Matrix: (Units=1/GPa)
#
#
# Indices 1 2 3 4 5 6 
#
# 1 0.040129 -0.015070 -0.023298 0.000000 0.005835 0.000000
# 2 -0.015070 0.018825 0.005550 0.000000 0.002449 0.000000
# 3 -0.023298 0.005550 0.025558 0.000000 -0.002978 0.000000
# 4 0.000000 0.000000 0.000000 0.058572 0.000000 0.048411
# 5 0.005835 0.002449 -0.002978 0.000000 0.029056 0.000000
# 6 0.000000 0.000000 0.000000 0.048411 0.000000 0.089522
#
#
# Mechanical properties :
#
#
# Convention : Reuss Voigt Hill
#
# Bulk Modulus (GPa) = 52.97615 58.28639 55.63127
# Shear Modulus (GPa) = 14.98850 26.04638 20.51744
#
# Velocity S-wave (km/s) = 2.68407 3.53825 3.14034
# Velocity P-wave (km/s) = 5.92188 6.68638 6.31571
#
# Compressibility (1/GPa) = 0.01887642
#
# Stress axis : x y z
#
# Youngs Moduli (GPa) = 24.91954 53.12194 39.12724
#
# Poissons Ratio (x) = 0.80054 0.91159
# Poissons Ratio (y) = 0.37553 -0.21717
# Poissons Ratio (z) = 0.58057 -0.29484
#
# Static dielectric constant tensor:
#      x y z
#    x 3.705450 0.000000 -0.515760 
#    y 0.000000 4.086110 0.000000 
#    z -0.515760 0.000000 3.666780 
# 
# 
# High freq. dielectric constant tensor:
#      x y z
#    x 1.796560 0.000000 -0.045790 
#    y 0.000000 1.843210 0.000000 
#    z -0.045790 0.000000 1.795480 
# 
# From -- ./inp_files/23423.got.cif
#   From: 2010.03.12/outbox.cif.g09.slc.cpg/sg14_12_cif.got.tgz:23423.got - 2010.03.31 13:35:05.
