data_PCOD8127799
_publ_section_title
;
Structure prediction by ZEFSAII (Michael W. Deem and Ramdas Pophale) SiO2 
 PCOD8127799
Probable space group: P 21/C
;
_chemical_formula_sum "Si O2"
_cell_formula_units_Z 28
_cell_length_a 4.914817
_cell_length_b 8.951996
_cell_length_c 28.428308
_cell_angle_alpha 90.000000
_cell_angle_beta 119.157703
_cell_angle_gamma 90.000000
_cell_volume 1092.276892
_symmetry_space_group_name_H-M "P 21/C"
_symmetry_group_IT_number 14
_symmetry_cell_setting 'monoclinic'
loop_
_space_group_symop_operation_xyz
x,y,z
-x,1/2+y,1/2-z
-x,-y,-z
x,1/2-y,1/2+z
loop_
_atom_site_type_symbol
_atom_site_label
_atom_site_fract_x
_atom_site_fract_y
_atom_site_fract_z
Si Si1 0.927234 0.392831 0.405043
Si Si2 0.382176 0.514360 0.763642
Si Si3 0.462390 0.255848 0.505463
Si Si4 0.109411 0.562066 0.120442
Si Si5 0.603744 0.465988 0.949200
Si Si6 0.764349 0.157795 0.224780
Si Si7 0.355645 0.917428 0.887596
O O1 0.796648 0.236616 0.375426
O O2 0.669764 0.487977 0.410431
O O3 0.210628 0.375112 0.466435
O O4 0.058670 0.475118 0.369413
O O5 0.684614 0.513394 0.822231
O O6 0.257005 0.684312 0.749938
O O7 0.505923 0.457239 0.723368
O O8 0.110801 0.407823 0.760962
O O9 0.674432 0.199412 0.478577
O O10 0.648871 0.314188 0.566173
O O11 0.305807 0.096009 0.505876
O O12 0.181304 0.490349 0.076187
O O13 0.748881 0.533578 0.100844
O O14 0.695740 0.180104 0.163512
#
# Coordination Sequence:
#
# PCOD8127799 Si02
#       7
#     4   4   4   4   4   4   4
#     4  11  25  41  70 105 140 195 230 294 351 439
#     4  12  28  51  79 107 148 187 254 309 383 440
#     4  10  23  43  67 103 145 187 236 290 357 431
#     4  11  24  45  71 101 141 184 246 294 366 417
#     4  10  23  41  70 102 138 186 240 293 353 437
#     4  12  29  49  78 110 141 197 244 315 376 439
#     4  12  26  44  69  98 150 181 245 286 374 422
#
# _framework density 25.634523999999999
#
# number of rings (size 3 to 8) (size 9 to 14) (size 15 to 20)
#    0.000    0.857    0.000    6.000    6.000   12.000 
#    0.000    0.000    0.000    0.000    0.000    0.000 
#    0.000    0.000    0.000    0.000    0.000    0.000 
#
# Total GULP energy -347192.716621 kJ/mol
# GULP energy per Si atom -12399.739879 kJ/mol
# Density = 2.557618 g / cm^3
# Si number density = 25.634524 Si / 1000 Ang^3
#
#
#
# Elastic Constant Matrix: (Units=GPa)
#
#
# Indices 1 2 3 4 5 6 
#
# 1 117.5864 23.9476 21.3639 0.0000 7.3679 0.0000
# 2 23.9476 76.5486 15.4735 0.0000 2.4145 0.0000
# 3 21.3639 15.4735 85.9197 0.0000 1.0567 0.0000
# 4 0.0000 0.0000 0.0000 29.6999 0.0000 -0.8945
# 5 7.3679 2.4145 1.0567 0.0000 39.0943 0.0000
# 6 0.0000 0.0000 0.0000 -0.8945 0.0000 36.1325
#
#
#
# Elastic Compliance Matrix: (Units=1/GPa)
#
#
# Indices 1 2 3 4 5 6 
#
# 1 0.009459 -0.002530 -0.001877 0.000000 -0.001576 0.000000
# 2 -0.002530 0.014257 -0.001934 0.000000 -0.000351 0.000000
# 3 -0.001877 -0.001934 0.012452 0.000000 0.000137 0.000000
# 4 0.000000 0.000000 0.000000 0.033695 0.000000 0.000834
# 5 -0.001576 -0.000351 0.000137 0.000000 0.025894 0.000000
# 6 0.000000 0.000000 0.000000 0.000834 0.000000 0.027697
#
#
# Mechanical properties :
#
#
# Convention : Reuss Voigt Hill
#
# Bulk Modulus (GPa) = 42.57852 44.62496 43.60174
# Shear Modulus (GPa) = 34.73036 35.60332 35.16684
#
# Velocity S-wave (km/s) = 3.68479 3.73081 3.70787
# Velocity P-wave (km/s) = 5.89487 6.00038 5.94786
#
# Compressibility (1/GPa) = 0.02348602
#
# Stress axis : x y z
#
# Youngs Moduli (GPa) = 105.71442 70.14000 80.30742
#
# Poissons Ratio (x) = 0.17747 0.15074
# Poissons Ratio (y) = 0.26748 0.15533
# Poissons Ratio (z) = 0.19843 0.13566
#
# Static dielectric constant tensor:
#      x y z
#    x 4.723150 0.000000 -0.193230 
#    y 0.000000 4.648270 0.000000 
#    z -0.193230 0.000000 4.420280 
# 
# 
# High freq. dielectric constant tensor:
#      x y z
#    x 2.033500 0.000000 -0.006270 
#    y 0.000000 2.019540 0.000000 
#    z -0.006270 0.000000 2.028450 
# 
# From -- ./inp_files/78741.got.cif
#   From: 2010.03.12/outbox.cif.g09.slc.cpg/sg14_40_cif.got.tgz:78741.got - 2010.03.31 13:35:05.
