data_PCOD8127285
_publ_section_title
;
Structure prediction by ZEFSAII (Michael W. Deem and Ramdas Pophale) SiO2 
 PCOD8127285
Probable space group: P 21/C
;
_chemical_formula_sum "Si O2"
_cell_formula_units_Z 20
_cell_length_a 5.141245
_cell_length_b 8.106118
_cell_length_c 26.332459
_cell_angle_alpha 90.000000
_cell_angle_beta 60.804001
_cell_angle_gamma 90.000000
_cell_volume 957.999017
_symmetry_space_group_name_H-M "P 21/C"
_symmetry_group_IT_number 14
_symmetry_cell_setting 'monoclinic'
loop_
_space_group_symop_operation_xyz
x,y,z
-x,1/2+y,1/2-z
-x,-y,-z
x,1/2-y,1/2+z
loop_
_atom_site_type_symbol
_atom_site_label
_atom_site_fract_x
_atom_site_fract_y
_atom_site_fract_z
Si Si1 0.961967 0.890546 0.150328
Si Si2 0.152547 0.289471 0.674522
Si Si3 0.718313 0.399304 0.282503
Si Si4 0.446916 0.930267 0.427520
Si Si5 0.914307 0.361340 0.943210
O O1 0.619852 0.846608 0.194098
O O2 0.154876 0.812175 0.178191
O O3 0.065001 0.813919 0.087112
O O4 0.013411 0.089291 0.144321
O O5 0.252686 0.402287 0.713090
O O6 0.442288 0.198112 0.625186
O O7 0.906869 0.157235 0.715687
O O8 0.249201 0.831304 0.487653
O O9 0.735015 0.007811 0.426637
O O10 0.246684 0.070043 0.420149
#
# Coordination Sequence:
#
# PCOD8127285 Si02
#       5
#     4   4   4   4   4
#     4  10  24  39  62  89 122 164 202 258 306 371
#     4  10  26  39  63  90 127 162 209 253 315 365
#     4  10  25  39  58  94 120 168 199 259 304 377
#     4  10  23  40  65  90 121 161 206 255 310 369
#     4  10  22  41  64  91 119 162 206 255 310 369
#
# _framework density 20.876847000000001
#
# number of rings (size 3 to 8) (size 9 to 14) (size 15 to 20)
#    1.200    0.800    0.000    1.200   11.200    0.800 
#    0.000    1.000    0.000    0.000    0.000    0.000 
#    0.000    0.000    0.000    0.000    0.000    0.000 
#
# Total GULP energy -247917.382446 kJ/mol
# GULP energy per Si atom -12395.869122 kJ/mol
# Density = 2.082933 g / cm^3
# Si number density = 20.876847 Si / 1000 Ang^3
#
#
#
# Elastic Constant Matrix: (Units=GPa)
#
#
# Indices 1 2 3 4 5 6 
#
# 1 96.3215 9.1595 18.6660 0.0000 -10.6873 0.0000
# 2 9.1595 87.5995 71.8348 0.0000 0.3913 0.0000
# 3 18.6660 71.8348 122.7967 0.0000 -14.3261 0.0000
# 4 0.0000 0.0000 0.0000 45.3476 0.0000 8.4466
# 5 -10.6873 0.3913 -14.3261 0.0000 26.9272 0.0000
# 6 0.0000 0.0000 0.0000 8.4466 0.0000 20.7567
#
#
#
# Elastic Compliance Matrix: (Units=1/GPa)
#
#
# Indices 1 2 3 4 5 6 
#
# 1 0.011040 -0.000310 -0.001050 0.000000 0.003827 0.000000
# 2 -0.000310 0.023521 -0.014678 0.000000 -0.008274 0.000000
# 3 -0.001050 -0.014678 0.017982 0.000000 0.009364 0.000000
# 4 0.000000 0.000000 0.000000 0.023860 0.000000 -0.009710
# 5 0.003827 -0.008274 0.009364 0.000000 0.043758 0.000000
# 6 0.000000 0.000000 0.000000 -0.009710 0.000000 0.052128
#
#
# Mechanical properties :
#
#
# Convention : Reuss Voigt Hill
#
# Bulk Modulus (GPa) = 48.86058 56.22648 52.54353
# Shear Modulus (GPa) = 23.67550 32.41011 28.04281
#
# Velocity S-wave (km/s) = 3.37123 3.94438 3.66901
# Velocity P-wave (km/s) = 6.21358 6.90906 6.57053
#
# Compressibility (1/GPa) = 0.02046640
#
# Stress axis : x y z
#
# Youngs Moduli (GPa) = 90.58337 42.51442 55.61121
#
# Poissons Ratio (x) = 0.01319 0.05839
# Poissons Ratio (y) = 0.02811 0.81626
# Poissons Ratio (z) = 0.09511 0.62402
#
# Static dielectric constant tensor:
#      x y z
#    x 3.740520 0.000000 -0.030770 
#    y 0.000000 3.471760 0.000000 
#    z -0.030770 0.000000 3.653260 
# 
# 
# High freq. dielectric constant tensor:
#      x y z
#    x 1.823440 0.000000 -0.009430 
#    y 0.000000 1.795040 0.000000 
#    z -0.009430 0.000000 1.813990 
# 
# From -- ./inp_files/70887.got.cif
#   From: 2010.03.12/outbox.cif.g09.slc.cpg/sg14_36_cif.got.tgz:70887.got - 2010.03.31 13:35:05.
