data_PCOD8127869
_publ_section_title
;
Structure prediction by ZEFSAII (Michael W. Deem and Ramdas Pophale) SiO2 
 PCOD8127869
Probable space group: P 21/C
;
_chemical_formula_sum "Si O2"
_cell_formula_units_Z 28
_cell_length_a 9.078988
_cell_length_b 14.645621
_cell_length_c 13.411719
_cell_angle_alpha 90.000000
_cell_angle_beta 141.853423
_cell_angle_gamma 90.000000
_cell_volume 1101.513884
_symmetry_space_group_name_H-M "P 21/C"
_symmetry_group_IT_number 14
_symmetry_cell_setting 'monoclinic'
loop_
_space_group_symop_operation_xyz
x,y,z
-x,1/2+y,1/2-z
-x,-y,-z
x,1/2-y,1/2+z
loop_
_atom_site_type_symbol
_atom_site_label
_atom_site_fract_x
_atom_site_fract_y
_atom_site_fract_z
Si Si1 0.125075 0.022634 0.830776
Si Si2 0.479289 0.802660 0.462246
Si Si3 0.009881 0.120941 0.092050
Si Si4 0.481359 0.316122 0.786842
Si Si5 0.385675 0.953364 0.790596
Si Si6 0.988536 0.724709 0.752009
Si Si7 0.477657 0.885296 0.262596
O O1 0.992893 0.115150 0.726758
O O2 0.175440 0.962876 0.758579
O O3 0.366287 0.045228 0.018037
O O4 0.953383 0.957120 0.804608
O O5 0.455673 0.835324 0.563954
O O6 0.719930 0.744048 0.568720
O O7 0.501913 0.885072 0.395306
O O8 0.223477 0.748922 0.307980
O O9 0.235132 0.128152 0.139116
O O10 0.972888 0.220899 0.123804
O O11 0.796740 0.094181 0.906812
O O12 0.654536 0.361202 0.796448
O O13 0.447359 0.209852 0.748380
O O14 0.360525 0.037357 0.699713
#
# Coordination Sequence:
#
# PCOD8127869 Si02
#       7
#     4   4   4   4   4   4   4
#     4  10  23  43  74 104 143 193 240 292 362 437
#     4  11  26  44  74 103 147 191 234 304 362 419
#     4  10  24  43  72 104 139 190 246 292 362 436
#     4  11  24  45  68 104 141 184 244 300 351 430
#     4  10  23  42  71 101 145 189 243 287 359 440
#     4  11  24  48  72 104 146 188 240 295 362 427
#     4  11  24  42  70 101 140 190 238 291 362 433
#
# _framework density 25.419559
#
# number of rings (size 3 to 8) (size 9 to 14) (size 15 to 20)
#    0.000    1.429    1.429    2.571   12.000    1.714 
#    2.571    0.714    0.000    0.000    0.000    0.000 
#    0.000    0.000    0.000    0.000    0.000    0.000 
#
# Total GULP energy -346929.297412 kJ/mol
# GULP energy per Si atom -12390.332050 kJ/mol
# Density = 2.536170 g / cm^3
# Si number density = 25.419559 Si / 1000 Ang^3
#
#
#
# Elastic Constant Matrix: (Units=GPa)
#
#
# Indices 1 2 3 4 5 6 
#
# 1 83.3606 -4.4114 38.3874 0.0000 -1.8256 0.0000
# 2 -4.4114 72.9284 0.4875 0.0000 -7.2190 0.0000
# 3 38.3874 0.4875 48.0468 0.0000 18.1790 0.0000
# 4 0.0000 0.0000 0.0000 23.5203 0.0000 -7.0065
# 5 -1.8256 -7.2190 18.1790 0.0000 54.4521 0.0000
# 6 0.0000 0.0000 0.0000 -7.0065 0.0000 31.5575
#
#
#
# Elastic Compliance Matrix: (Units=1/GPa)
#
#
# Indices 1 2 3 4 5 6 
#
# 1 0.021589 0.002209 -0.020208 0.000000 0.007763 0.000000
# 2 0.002209 0.014159 -0.003030 0.000000 0.002963 0.000000
# 3 -0.020208 -0.003030 0.042805 0.000000 -0.015370 0.000000
# 4 0.000000 0.000000 0.000000 0.045528 0.000000 0.010108
# 5 0.007763 0.002963 -0.015370 0.000000 0.024149 0.000000
# 6 0.000000 0.000000 0.000000 0.010108 0.000000 0.033932
#
#
# Mechanical properties :
#
#
# Convention : Reuss Voigt Hill
#
# Bulk Modulus (GPa) = 27.40089 30.36253 28.88171
# Shear Modulus (GPa) = 21.15194 33.23080 27.19137
#
# Velocity S-wave (km/s) = 2.88777 3.61957 3.27418
# Velocity P-wave (km/s) = 4.68207 5.42576 5.06758
#
# Compressibility (1/GPa) = 0.03649517
#
# Stress axis : x y z
#
# Youngs Moduli (GPa) = 46.31999 70.62520 23.36191
#
# Poissons Ratio (x) = -0.15604 0.47211
# Poissons Ratio (y) = -0.10234 0.07078
# Poissons Ratio (z) = 0.93605 0.21399
#
# Static dielectric constant tensor:
#      x y z
#    x 4.924930 0.000000 0.211070 
#    y 0.000000 4.469820 0.000000 
#    z 0.211070 0.000000 4.613460 
# 
# 
# High freq. dielectric constant tensor:
#      x y z
#    x 2.027180 0.000000 -0.000580 
#    y 0.000000 2.007630 0.000000 
#    z -0.000580 0.000000 1.996330 
# 
# From -- ./inp_files/41436.got.cif
#   From: 2010.03.12/outbox.cif.g09.slc.cpg/sg14_21_cif.got.tgz:41436.got - 2010.03.31 13:35:05.
