data_PCOD8127455
_publ_section_title
;
Structure prediction by ZEFSAII (Michael W. Deem and Ramdas Pophale) SiO2 
 PCOD8127455
Probable space group: P 21/C
;
_chemical_formula_sum "Si O2"
_cell_formula_units_Z 24
_cell_length_a 8.001269
_cell_length_b 14.263808
_cell_length_c 9.367281
_cell_angle_alpha 90.000000
_cell_angle_beta 94.133481
_cell_angle_gamma 90.000000
_cell_volume 1066.293495
_symmetry_space_group_name_H-M "P 21/C"
_symmetry_group_IT_number 14
_symmetry_cell_setting 'monoclinic'
loop_
_space_group_symop_operation_xyz
x,y,z
-x,1/2+y,1/2-z
-x,-y,-z
x,1/2-y,1/2+z
loop_
_atom_site_type_symbol
_atom_site_label
_atom_site_fract_x
_atom_site_fract_y
_atom_site_fract_z
Si Si1 0.388594 0.461782 0.618581
Si Si2 0.830402 0.811883 0.050794
Si Si3 0.289279 0.336964 0.146391
Si Si4 0.206190 0.649981 0.634990
Si Si5 0.378431 0.537682 0.111154
Si Si6 0.664287 0.293415 0.069309
O O1 0.500000 0.500000 0.500000
O O2 0.272672 0.377406 0.562377
O O3 0.273608 0.546110 0.670436
O O4 0.512046 0.424810 0.749503
O O5 0.738145 0.799342 0.195797
O O6 0.013456 0.854842 0.079090
O O7 0.840163 0.710393 0.973268
O O8 0.260271 0.449809 0.148395
O O9 0.474280 0.307929 0.107325
O O10 0.314353 0.695569 0.512962
O O11 0.219044 0.707664 0.783551
O O12 0.500000 0.500000 0.000000
O O13 0.276370 0.624887 0.038238
#
# Coordination Sequence:
#
# PCOD8127455 Si02
#       6
#     4   4   4   4   4   4
#     4  12  23  44  70  97 128 176 232 271 324 404
#     4  12  27  42  67 100 140 174 214 283 343 389
#     4  11  23  45  67 100 128 178 231 264 325 404
#     4  12  26  45  64 102 139 173 216 283 344 385
#     4  10  22  42  70  98 120 169 234 275 312 380
#     4  11  24  44  71  96 131 176 232 272 322 405
#
# _framework density 22.507876
#
# number of rings (size 3 to 8) (size 9 to 14) (size 15 to 20)
#    0.000    0.667    5.000    3.500    9.333    0.000 
#    0.000    3.333    0.000    0.000    0.000    0.000 
#    0.000    0.000    0.000    0.000    0.000    0.000 
#
# Total GULP energy -297661.887221 kJ/mol
# GULP energy per Si atom -12402.578634 kJ/mol
# Density = 2.245665 g / cm^3
# Si number density = 22.507876 Si / 1000 Ang^3
#
#
#
# Elastic Constant Matrix: (Units=GPa)
#
#
# Indices 1 2 3 4 5 6 
#
# 1 63.1758 15.8759 19.7964 0.0000 5.0368 0.0000
# 2 15.8759 67.6805 22.3419 0.0000 -1.6176 0.0000
# 3 19.7964 22.3419 144.7807 0.0000 0.3507 0.0000
# 4 0.0000 0.0000 0.0000 46.1333 0.0000 7.9800
# 5 5.0368 -1.6176 0.3507 0.0000 30.7482 0.0000
# 6 0.0000 0.0000 0.0000 7.9800 0.0000 24.8499
#
#
#
# Elastic Compliance Matrix: (Units=1/GPa)
#
#
# Indices 1 2 3 4 5 6 
#
# 1 0.017548 -0.003582 -0.001839 0.000000 -0.003042 0.000000
# 2 -0.003582 0.016322 -0.002032 0.000000 0.001469 0.000000
# 3 -0.001839 -0.002032 0.007472 0.000000 0.000109 0.000000
# 4 0.000000 0.000000 0.000000 0.022951 0.000000 -0.007370
# 5 -0.003042 0.001469 0.000109 0.000000 0.033096 0.000000
# 6 0.000000 0.000000 0.000000 -0.007370 0.000000 0.042608
#
#
# Mechanical properties :
#
#
# Convention : Reuss Voigt Hill
#
# Bulk Modulus (GPa) = 37.82983 43.51837 40.67410
# Shear Modulus (GPa) = 30.54073 34.85447 32.69760
#
# Velocity S-wave (km/s) = 3.68760 3.93943 3.81559
# Velocity P-wave (km/s) = 5.91397 6.32999 6.12551
#
# Compressibility (1/GPa) = 0.02643416
#
# Stress axis : x y z
#
# Youngs Moduli (GPa) = 56.98719 61.26877 133.83536
#
# Poissons Ratio (x) = 0.21945 0.24616
# Poissons Ratio (y) = 0.20411 0.27202
# Poissons Ratio (z) = 0.10482 0.12453
#
# Static dielectric constant tensor:
#      x y z
#    x 3.717750 0.000000 0.017630 
#    y 0.000000 5.006930 0.000000 
#    z 0.017630 0.000000 4.318890 
# 
# 
# High freq. dielectric constant tensor:
#      x y z
#    x 1.856770 0.000000 0.000970 
#    y 0.000000 1.894000 0.000000 
#    z 0.000970 0.000000 1.911520 
# 
# From -- ./inp_files/8598.got.cif
#   From: 2010.03.12/outbox.cif.g09.slc.cpg/sg14_5_cif.got.tgz:8598.got - 2010.03.31 13:35:05.
