data_PCOD8127693
_publ_section_title
;
Structure prediction by ZEFSAII (Michael W. Deem and Ramdas Pophale) SiO2 
 PCOD8127693
Probable space group: P 21/C
;
_chemical_formula_sum "Si O2"
_cell_formula_units_Z 28
_cell_length_a 17.274232
_cell_length_b 13.911597
_cell_length_c 8.625155
_cell_angle_alpha 90.000000
_cell_angle_beta 142.588559
_cell_angle_gamma 90.000000
_cell_volume 1259.254642
_symmetry_space_group_name_H-M "P 21/C"
_symmetry_group_IT_number 14
_symmetry_cell_setting 'monoclinic'
loop_
_space_group_symop_operation_xyz
x,y,z
-x,1/2+y,1/2-z
-x,-y,-z
x,1/2-y,1/2+z
loop_
_atom_site_type_symbol
_atom_site_label
_atom_site_fract_x
_atom_site_fract_y
_atom_site_fract_z
Si Si1 0.415822 0.944459 0.240724
Si Si2 0.865422 0.371431 0.264101
Si Si3 0.363785 0.176306 0.491801
Si Si4 0.199375 0.803849 0.007192
Si Si5 0.043077 0.403153 0.987939
Si Si6 0.299585 0.361008 0.532179
Si Si7 0.863123 0.583799 0.212328
O O1 0.509814 0.887090 0.273136
O O2 0.500000 0.000000 0.500000
O O3 0.333771 0.029652 0.031969
O O4 0.327379 0.861701 0.172089
O O5 0.826556 0.315551 0.355301
O O6 0.796536 0.311228 0.017204
O O7 0.812205 0.479396 0.184611
O O8 0.019160 0.380610 0.493393
O O9 0.386299 0.289323 0.564890
O O10 0.319794 0.158280 0.246116
O O11 0.255388 0.152740 0.445677
O O12 0.081533 0.837674 0.714115
O O13 0.149456 0.348244 0.258566
O O14 0.097066 0.421669 0.902615
O O15 0.000000 0.500000 0.000000
#
# Coordination Sequence:
#
# PCOD8127693 Si02
#       7
#     4   4   4   4   4   4   4
#     4  10  23  42  65  90 132 175 220 270 328 382
#     4  10  23  38  63  91 133 161 214 266 330 385
#     4  11  24  42  68  93 133 178 222 267 327 401
#     4  11  23  40  63  98 126 174 212 273 330 391
#     4  11  23  40  69  93 128 164 217 272 332 390
#     4  11  23  43  67  97 130 174 223 272 333 390
#     4  10  23  42  61  95 129 173 208 268 330 393
#
# _framework density 22.235375999999999
#
# number of rings (size 3 to 8) (size 9 to 14) (size 15 to 20)
#    0.000    1.429    1.429    3.429    6.000    5.714 
#    0.000    2.857    0.000    0.000    0.000    0.000 
#    0.000    0.000    0.000    0.000    0.000    0.000 
#
# Total GULP energy -347106.540778 kJ/mol
# GULP energy per Si atom -12396.662171 kJ/mol
# Density = 2.218477 g / cm^3
# Si number density = 22.235376 Si / 1000 Ang^3
#
#
#
# Elastic Constant Matrix: (Units=GPa)
#
#
# Indices 1 2 3 4 5 6 
#
# 1 97.4873 44.6626 26.0359 0.0000 7.6106 0.0000
# 2 44.6626 121.5263 16.7102 0.0000 4.7683 0.0000
# 3 26.0359 16.7102 62.0051 0.0000 5.5716 0.0000
# 4 0.0000 0.0000 0.0000 40.4262 0.0000 1.9493
# 5 7.6106 4.7683 5.5716 0.0000 33.6144 0.0000
# 6 0.0000 0.0000 0.0000 1.9493 0.0000 45.1394
#
#
#
# Elastic Compliance Matrix: (Units=1/GPa)
#
#
# Indices 1 2 3 4 5 6 
#
# 1 0.013531 -0.004305 -0.004366 0.000000 -0.001729 0.000000
# 2 -0.004305 0.009938 -0.000844 0.000000 -0.000295 0.000000
# 3 -0.004366 -0.000844 0.018362 0.000000 -0.001935 0.000000
# 4 0.000000 0.000000 0.000000 0.024788 0.000000 -0.001070
# 5 -0.001729 -0.000295 -0.001935 0.000000 0.030503 0.000000
# 6 0.000000 0.000000 0.000000 -0.001070 0.000000 0.022200
#
#
# Mechanical properties :
#
#
# Convention : Reuss Voigt Hill
#
# Bulk Modulus (GPa) = 43.85660 50.64846 47.25253
# Shear Modulus (GPa) = 34.25746 36.74333 35.50040
#
# Velocity S-wave (km/s) = 3.92940 4.06947 4.00005
# Velocity P-wave (km/s) = 6.35244 6.70138 6.52925
#
# Compressibility (1/GPa) = 0.02280159
#
# Stress axis : x y z
#
# Youngs Moduli (GPa) = 73.90495 100.62038 54.45884
#
# Poissons Ratio (x) = 0.43313 0.23778
# Poissons Ratio (y) = 0.31813 0.04598
# Poissons Ratio (z) = 0.32268 0.08496
#
# Static dielectric constant tensor:
#      x y z
#    x 3.906120 0.000000 0.294300 
#    y 0.000000 4.822920 0.000000 
#    z 0.294300 0.000000 4.119560 
# 
# 
# High freq. dielectric constant tensor:
#      x y z
#    x 1.863590 0.000000 0.008950 
#    y 0.000000 1.897530 0.000000 
#    z 0.008950 0.000000 1.862510 
# 
# From -- ./inp_files/18018.got.cif
#   From: 2010.03.12/outbox.cif.g09.slc.cpg/sg14_10_cif.got.tgz:18018.got - 2010.03.31 13:35:05.
