data_PCOD8127631
_publ_section_title
;
Structure prediction by ZEFSAII (Michael W. Deem and Ramdas Pophale) SiO2 
 PCOD8127631
Probable space group: P 21/C
;
_chemical_formula_sum "Si O2"
_cell_formula_units_Z 24
_cell_length_a 8.024640
_cell_length_b 21.552026
_cell_length_c 11.211520
_cell_angle_alpha 90.000000
_cell_angle_beta 145.213759
_cell_angle_gamma 90.000000
_cell_volume 1106.232108
_symmetry_space_group_name_H-M "P 21/C"
_symmetry_group_IT_number 14
_symmetry_cell_setting 'monoclinic'
loop_
_space_group_symop_operation_xyz
x,y,z
-x,1/2+y,1/2-z
-x,-y,-z
x,1/2-y,1/2+z
loop_
_atom_site_type_symbol
_atom_site_label
_atom_site_fract_x
_atom_site_fract_y
_atom_site_fract_z
Si Si1 0.159689 0.799240 0.262856
Si Si2 0.914050 0.090884 0.948092
Si Si3 0.509340 0.323363 0.592536
Si Si4 0.180416 0.518513 0.841236
Si Si5 0.448124 0.876378 0.625838
Si Si6 0.329790 0.941864 0.955477
O O1 0.193782 0.842703 0.166116
O O2 0.253998 0.729911 0.288085
O O3 0.383875 0.820702 0.496857
O O4 0.822358 0.798687 0.107726
O O5 0.966794 0.045064 0.867043
O O6 0.676028 0.064142 0.902566
O O7 0.222173 0.098317 0.198721
O O8 0.594575 0.353223 0.767012
O O9 0.549408 0.376874 0.518506
O O10 0.000245 0.458880 0.780512
O O11 0.500000 0.500000 0.000000
O O12 0.200784 0.571313 0.954871
O O13 0.500000 0.000000 0.000000
#
# Coordination Sequence:
#
# PCOD8127631 Si02
#       6
#     4   4   4   4   4   4
#     4  10  25  47  70  96 132 180 233 275 354 405
#     4  10  23  44  70  97 138 182 221 285 340 410
#     4  11  27  44  69 101 137 176 229 295 334 418
#     4  11  23  42  71  98 134 186 226 273 347 411
#     4  10  22  45  68  98 132 178 228 280 339 411
#     4  12  25  43  67 104 143 176 230 286 345 410
#
# _framework density 21.695266
#
# number of rings (size 3 to 8) (size 9 to 14) (size 15 to 20)
#    0.000    1.333    1.667    3.500    7.000    2.000 
#    6.000    0.000    0.000    0.000    0.000    0.000 
#    0.000    0.000    0.000    0.000    0.000    0.000 
#
# Total GULP energy -297458.769236 kJ/mol
# GULP energy per Si atom -12394.115385 kJ/mol
# Density = 2.164589 g / cm^3
# Si number density = 21.695266 Si / 1000 Ang^3
#
#
#
# Elastic Constant Matrix: (Units=GPa)
#
#
# Indices 1 2 3 4 5 6 
#
# 1 107.1355 58.7139 54.0876 0.0000 13.9434 0.0000
# 2 58.7139 112.9534 25.4300 0.0000 19.1664 0.0000
# 3 54.0876 25.4300 112.2637 0.0000 1.6859 0.0000
# 4 0.0000 0.0000 0.0000 36.7254 0.0000 12.4489
# 5 13.9434 19.1664 1.6859 0.0000 36.5508 0.0000
# 6 0.0000 0.0000 0.0000 12.4489 0.0000 42.3421
#
#
#
# Elastic Compliance Matrix: (Units=1/GPa)
#
#
# Indices 1 2 3 4 5 6 
#
# 1 0.016614 -0.006764 -0.006435 0.000000 -0.002494 0.000000
# 2 -0.006764 0.013007 0.000377 0.000000 -0.004257 0.000000
# 3 -0.006435 0.000377 0.011897 0.000000 0.001709 0.000000
# 4 0.000000 0.000000 0.000000 0.030243 0.000000 -0.008892
# 5 -0.002494 -0.004257 0.001709 0.000000 0.030464 0.000000
# 6 0.000000 0.000000 0.000000 -0.008892 0.000000 0.026231
#
#
# Mechanical properties :
#
#
# Convention : Reuss Voigt Hill
#
# Bulk Modulus (GPa) = 63.00029 67.64620 65.32325
# Shear Modulus (GPa) = 31.36890 36.06505 33.71698
#
# Velocity S-wave (km/s) = 3.80661 4.08161 3.94651
# Velocity P-wave (km/s) = 6.95860 7.31168 7.13732
#
# Compressibility (1/GPa) = 0.01587294
#
# Stress axis : x y z
#
# Youngs Moduli (GPa) = 60.18904 76.88182 84.05534
#
# Poissons Ratio (x) = 0.52005 0.54089
# Poissons Ratio (y) = 0.40713 -0.03165
# Poissons Ratio (z) = 0.38731 -0.02895
#
# Static dielectric constant tensor:
#      x y z
#    x 3.904660 0.000000 0.067610 
#    y 0.000000 4.023170 0.000000 
#    z 0.067610 0.000000 4.383550 
# 
# 
# High freq. dielectric constant tensor:
#      x y z
#    x 1.846560 0.000000 -0.000660 
#    y 0.000000 1.863960 0.000000 
#    z -0.000660 0.000000 1.855490 
# 
# From -- ./inp_files/27057.got.cif
#   From: 2010.03.12/outbox.cif.g09.slc.cpg/sg14_14_cif.got.tgz:27057.got - 2010.03.31 13:35:05.
