data_PCOD8127851
_publ_section_title
;
Structure prediction by ZEFSAII (Michael W. Deem and Ramdas Pophale) SiO2 
 PCOD8127851
Probable space group: P 21/C
;
_chemical_formula_sum "Si O2"
_cell_formula_units_Z 28
_cell_length_a 10.333704
_cell_length_b 9.650985
_cell_length_c 25.358768
_cell_angle_alpha 90.000000
_cell_angle_beta 146.791900
_cell_angle_gamma 90.000000
_cell_volume 1385.108804
_symmetry_space_group_name_H-M "P 21/C"
_symmetry_group_IT_number 14
_symmetry_cell_setting 'monoclinic'
loop_
_space_group_symop_operation_xyz
x,y,z
-x,1/2+y,1/2-z
-x,-y,-z
x,1/2-y,1/2+z
loop_
_atom_site_type_symbol
_atom_site_label
_atom_site_fract_x
_atom_site_fract_y
_atom_site_fract_z
Si Si1 0.319386 0.444055 0.219091
Si Si2 0.817390 0.099140 0.586417
Si Si3 0.530801 0.420169 0.630645
Si Si4 0.648829 0.250303 0.764451
Si Si5 0.133970 0.400903 0.411264
Si Si6 0.310027 0.330324 0.896752
Si Si7 0.920959 0.357082 0.683497
O O1 0.440934 0.450044 0.319062
O O2 0.321442 0.600663 0.196159
O O3 0.459095 0.341410 0.229582
O O4 0.050697 0.387475 0.130230
O O5 0.580958 0.138491 0.473642
O O6 0.823646 0.204969 0.637442
O O7 0.800806 0.943555 0.601820
O O8 0.554899 0.276880 0.672507
O O9 0.285884 0.426255 0.515808
O O10 0.748697 0.432374 0.665378
O O11 0.899586 0.176427 0.849018
O O12 0.282380 0.315579 0.418030
O O13 0.061080 0.549517 0.362735
O O14 0.177567 0.334627 0.796106
#
# Coordination Sequence:
#
# PCOD8127851 Si02
#       7
#     4   4   4   4   4   4   4
#     4  10  23  46  65  91 132 176 227 266 315 391
#     4  11  23  38  64  97 134 163 219 268 331 387
#     4  10  23  42  68  94 134 169 217 273 321 392
#     4  10  24  45  67  91 132 176 224 272 314 383
#     4  12  23  42  68  97 134 175 212 266 337 393
#     4  11  22  38  64  96 136 168 206 272 333 383
#     4  12  23  37  67 104 134 168 212 265 343 397
#
# _framework density 20.215017
#
# number of rings (size 3 to 8) (size 9 to 14) (size 15 to 20)
#    0.857    0.286    5.714    1.286    2.000    0.571 
#    0.000    2.143    3.143    0.000    0.000    0.000 
#    0.000    0.000    0.000    0.000    0.000    0.000 
#
# Total GULP energy -347136.365855 kJ/mol
# GULP energy per Si atom -12397.727352 kJ/mol
# Density = 2.016901 g / cm^3
# Si number density = 20.215017 Si / 1000 Ang^3
#
#
#
# Elastic Constant Matrix: (Units=GPa)
#
#
# Indices 1 2 3 4 5 6 
#
# 1 77.3367 31.8937 43.3942 0.0000 18.1659 0.0000
# 2 31.8937 69.2404 25.1453 0.0000 4.1326 0.0000
# 3 43.3942 25.1453 158.4629 0.0000 -0.7929 0.0000
# 4 0.0000 0.0000 0.0000 24.6633 0.0000 -1.2135
# 5 18.1659 4.1326 -0.7929 0.0000 27.2119 0.0000
# 6 0.0000 0.0000 0.0000 -1.2135 0.0000 41.8771
#
#
#
# Elastic Compliance Matrix: (Units=1/GPa)
#
#
# Indices 1 2 3 4 5 6 
#
# 1 0.022002 -0.007539 -0.004897 0.000000 -0.013686 0.000000
# 2 -0.007539 0.018067 -0.000791 0.000000 0.002266 0.000000
# 3 -0.004897 -0.000791 0.007795 0.000000 0.003617 0.000000
# 4 0.000000 0.000000 0.000000 0.040604 0.000000 0.001177
# 5 -0.013686 0.002266 0.003617 0.000000 0.045646 0.000000
# 6 0.000000 0.000000 0.000000 0.001177 0.000000 0.023913
#
#
# Mechanical properties :
#
#
# Convention : Reuss Voigt Hill
#
# Bulk Modulus (GPa) = 46.70832 56.21181 51.46007
# Shear Modulus (GPa) = 26.09323 32.39092 29.24207
#
# Velocity S-wave (km/s) = 3.59665 4.00724 3.80748
# Velocity P-wave (km/s) = 6.35639 7.01983 6.69633
#
# Compressibility (1/GPa) = 0.02140946
#
# Stress axis : x y z
#
# Youngs Moduli (GPa) = 45.44963 55.34867 128.28170
#
# Poissons Ratio (x) = 0.41730 0.62824
# Poissons Ratio (y) = 0.34267 0.10147
# Poissons Ratio (z) = 0.22258 0.04378
#
# Static dielectric constant tensor:
#      x y z
#    x 3.333210 0.000000 0.079620 
#    y 0.000000 3.711860 0.000000 
#    z 0.079620 0.000000 3.841140 
# 
# 
# High freq. dielectric constant tensor:
#      x y z
#    x 1.758840 0.000000 0.011170 
#    y 0.000000 1.796790 0.000000 
#    z 0.011170 0.000000 1.797840 
# 
# From -- ./inp_files/79914.got.cif
#   From: 2010.03.12/outbox.cif.g09.slc.cpg/sg14_40_cif.got.tgz:79914.got - 2010.03.31 13:35:05.
