data_PCOD8127968
_publ_section_title
;
Structure prediction by ZEFSAII (Michael W. Deem and Ramdas Pophale) SiO2 
 PCOD8127968
Probable space group: P 21/C
;
_chemical_formula_sum "Si O2"
_cell_formula_units_Z 32
_cell_length_a 8.896195
_cell_length_b 15.278514
_cell_length_c 13.031686
_cell_angle_alpha 90.000000
_cell_angle_beta 122.984762
_cell_angle_gamma 90.000000
_cell_volume 1485.772808
_symmetry_space_group_name_H-M "P 21/C"
_symmetry_group_IT_number 14
_symmetry_cell_setting 'monoclinic'
loop_
_space_group_symop_operation_xyz
x,y,z
-x,1/2+y,1/2-z
-x,-y,-z
x,1/2-y,1/2+z
loop_
_atom_site_type_symbol
_atom_site_label
_atom_site_fract_x
_atom_site_fract_y
_atom_site_fract_z
Si Si1 0.878912 0.457389 0.194970
Si Si2 0.749671 0.743229 0.698077
Si Si3 0.947452 0.183051 0.550446
Si Si4 0.741499 0.563299 0.599565
Si Si5 0.468799 0.912293 0.312092
Si Si6 0.595870 0.273465 0.813646
Si Si7 0.462451 0.944255 0.832132
Si Si8 0.825543 0.625254 0.056360
O O1 0.699668 0.452025 0.192788
O O2 0.909756 0.553976 0.162920
O O3 0.873730 0.390690 0.098741
O O4 0.044044 0.438067 0.332908
O O5 0.913819 0.747264 0.840158
O O6 0.688953 0.643913 0.654309
O O7 0.577827 0.793035 0.680708
O O8 0.810854 0.784555 0.613452
O O9 0.047019 0.137099 0.493244
O O10 0.775245 0.237272 0.447978
O O11 0.672003 0.474411 0.627568
O O12 0.656190 0.574856 0.455217
O O13 0.428433 0.815025 0.258356
O O14 0.631177 0.908151 0.451384
O O15 0.521684 0.978134 0.242512
O O16 0.617764 0.355954 0.745999
#
# Coordination Sequence:
#
# PCOD8127968 Si02
#       8
#     4   4   4   4   4   4   4   4
#     4  11  24  42  66  98 134 170 228 275 332 403
#     4  11  24  45  64 100 134 174 220 282 329 391
#     4  11  25  42  68  96 134 177 223 275 332 401
#     4  10  23  44  64  94 141 176 223 278 330 403
#     4  12  24  42  67 100 134 175 223 280 331 397
#     4  12  24  42  69  96 134 177 226 273 337 397
#     4  11  23  43  69  94 132 186 219 273 347 386
#     4  12  23  44  70  95 134 177 222 277 336 393
#
# _framework density 21.537614000000001
#
# number of rings (size 3 to 8) (size 9 to 14) (size 15 to 20)
#    0.000    0.750    2.500    5.250    3.500    1.500 
#    0.000    0.000    0.000    0.000    0.000    0.000 
#    0.000    0.000    0.000    0.000    0.000    0.000 
#
# Total GULP energy -396989.709467 kJ/mol
# GULP energy per Si atom -12405.928421 kJ/mol
# Density = 2.148859 g / cm^3
# Si number density = 21.537614 Si / 1000 Ang^3
#
#
#
# Elastic Constant Matrix: (Units=GPa)
#
#
# Indices 1 2 3 4 5 6 
#
# 1 48.7475 -5.3813 22.8859 0.0000 15.4681 0.0000
# 2 -5.3813 50.3976 29.2402 0.0000 3.7593 0.0000
# 3 22.8859 29.2402 131.0688 0.0000 20.5617 0.0000
# 4 0.0000 0.0000 0.0000 26.3251 0.0000 -2.3624
# 5 15.4681 3.7593 20.5617 0.0000 35.0619 0.0000
# 6 0.0000 0.0000 0.0000 -2.3624 0.0000 30.3629
#
#
#
# Elastic Compliance Matrix: (Units=1/GPa)
#
#
# Indices 1 2 3 4 5 6 
#
# 1 0.026345 0.006115 -0.004447 0.000000 -0.009670 0.000000
# 2 0.006115 0.024223 -0.006212 0.000000 -0.001651 0.000000
# 3 -0.004447 -0.006212 0.010330 0.000000 -0.003430 0.000000
# 4 0.000000 0.000000 0.000000 0.038254 0.000000 0.002976
# 5 -0.009670 -0.001651 -0.003430 0.000000 0.034976 0.000000
# 6 0.000000 0.000000 0.000000 0.002976 0.000000 0.033167
#
#
# Mechanical properties :
#
#
# Convention : Reuss Voigt Hill
#
# Bulk Modulus (GPa) = 19.30207 35.96707 27.63457
# Shear Modulus (GPa) = 25.81934 30.58125 28.20030
#
# Velocity S-wave (km/s) = 3.46613 3.77224 3.62242
# Velocity P-wave (km/s) = 5.00002 5.97570 5.50950
#
# Compressibility (1/GPa) = 0.05180792
#
# Stress axis : x y z
#
# Youngs Moduli (GPa) = 37.95755 41.28365 96.80432
#
# Poissons Ratio (x) = -0.25243 0.43051
# Poissons Ratio (y) = -0.23210 0.60139
# Poissons Ratio (z) = 0.16881 0.25647
#
# Static dielectric constant tensor:
#      x y z
#    x 3.848680 0.000000 0.122420 
#    y 0.000000 3.847070 0.000000 
#    z 0.122420 0.000000 4.132760 
# 
# 
# High freq. dielectric constant tensor:
#      x y z
#    x 1.846870 0.000000 0.007700 
#    y 0.000000 1.846450 0.000000 
#    z 0.007700 0.000000 1.860340 
# 
# From -- ./inp_files/41247.got.cif
#   From: 2010.03.12/outbox.cif.g09.slc.cpg/sg14_21_cif.got.tgz:41247.got - 2010.03.31 13:35:05.
