data_PCOD8127889
_publ_section_title
;
Structure prediction by ZEFSAII (Michael W. Deem and Ramdas Pophale) SiO2 
 PCOD8127889
Probable space group: P 21/C
;
_chemical_formula_sum "Si O2"
_cell_formula_units_Z 28
_cell_length_a 19.504529
_cell_length_b 5.623208
_cell_length_c 12.711732
_cell_angle_alpha 90.000000
_cell_angle_beta 117.914082
_cell_angle_gamma 90.000000
_cell_volume 1231.983578
_symmetry_space_group_name_H-M "P 21/C"
_symmetry_group_IT_number 14
_symmetry_cell_setting 'monoclinic'
loop_
_space_group_symop_operation_xyz
x,y,z
-x,1/2+y,1/2-z
-x,-y,-z
x,1/2-y,1/2+z
loop_
_atom_site_type_symbol
_atom_site_label
_atom_site_fract_x
_atom_site_fract_y
_atom_site_fract_z
Si Si1 0.372692 0.493570 0.058453
Si Si2 0.689591 0.570205 0.760220
Si Si3 0.963489 0.101129 0.078969
Si Si4 0.418837 0.523194 0.498376
Si Si5 0.851499 0.155260 0.360570
Si Si6 0.898983 0.840445 0.216222
Si Si7 0.240649 0.445719 0.815973
O O1 0.363134 0.460105 0.175853
O O2 0.423393 0.736751 0.075207
O O3 0.291044 0.561793 0.944954
O O4 0.405386 0.234900 0.044816
O O5 0.648688 0.424620 0.636118
O O6 0.777495 0.491849 0.845245
O O7 0.698185 0.841867 0.726232
O O8 0.031635 0.159873 0.209082
O O9 0.908589 0.919486 0.102530
O O10 0.905856 0.312994 0.002176
O O11 0.000000 0.000000 0.000000
O O12 0.500000 0.500000 0.500000
O O13 0.820822 0.397921 0.289441
O O14 0.905854 0.044865 0.309303
O O15 0.810994 0.750594 0.161899
#
# Coordination Sequence:
#
# PCOD8127889 Si02
#       7
#     4   4   4   4   4   4   4
#     4  11  25  42  74 100 139 183 227 280 342 402
#     4  10  25  41  69 100 133 175 228 280 338 413
#     4  12  25  42  65  88 128 173 224 281 345 413
#     4  11  25  46  68 105 146 181 226 279 334 412
#     4  11  23  43  65  90 130 169 219 281 343 404
#     4  11  26  42  62  93 128 173 223 286 345 413
#     4  10  23  43  63  98 130 168 227 283 340 405
#
# _framework density 22.727575999999999
#
# number of rings (size 3 to 8) (size 9 to 14) (size 15 to 20)
#    0.000    1.143    2.857    1.714    6.000    1.143 
#    0.000    0.000    0.000    0.000    0.000    0.000 
#    0.000    0.000    0.000    0.000    0.000    0.000 
#
# Total GULP energy -346922.145727 kJ/mol
# GULP energy per Si atom -12390.076633 kJ/mol
# Density = 2.267585 g / cm^3
# Si number density = 22.727576 Si / 1000 Ang^3
#
#
#
# Elastic Constant Matrix: (Units=GPa)
#
#
# Indices 1 2 3 4 5 6 
#
# 1 94.5805 26.8630 15.7866 0.0000 -28.8615 0.0000
# 2 26.8630 102.2708 12.2089 0.0000 -24.0936 0.0000
# 3 15.7866 12.2089 45.7081 0.0000 -25.8021 0.0000
# 4 0.0000 0.0000 0.0000 28.8036 0.0000 -3.0042
# 5 -28.8615 -24.0936 -25.8021 0.0000 44.4680 0.0000
# 6 0.0000 0.0000 0.0000 -3.0042 0.0000 25.3864
#
#
#
# Elastic Compliance Matrix: (Units=1/GPa)
#
#
# Indices 1 2 3 4 5 6 
#
# 1 0.013438 -0.001684 0.000323 0.000000 0.007996 0.000000
# 2 -0.001684 0.011433 0.000606 0.000000 0.005453 0.000000
# 3 0.000323 0.000606 0.032579 0.000000 0.019442 0.000000
# 4 0.000000 0.000000 0.000000 0.035152 0.000000 0.004160
# 5 0.007996 0.005453 0.019442 0.000000 0.041913 0.000000
# 6 0.000000 0.000000 0.000000 0.004160 0.000000 0.039883
#
#
# Mechanical properties :
#
#
# Convention : Reuss Voigt Hill
#
# Bulk Modulus (GPa) = 17.87677 39.14183 28.50930
# Shear Modulus (GPa) = 25.69965 32.24500 28.97232
#
# Velocity S-wave (km/s) = 3.36634 3.77073 3.57426
# Velocity P-wave (km/s) = 4.79504 6.01809 5.44104
#
# Compressibility (1/GPa) = 0.05593851
#
# Stress axis : x y z
#
# Youngs Moduli (GPa) = 74.41823 87.46872 30.69429
#
# Poissons Ratio (x) = 0.14733 -0.00990
# Poissons Ratio (y) = 0.12534 -0.01861
# Poissons Ratio (z) = -0.02401 -0.05302
#
# Static dielectric constant tensor:
#      x y z
#    x 4.180960 0.000000 0.111950 
#    y 0.000000 4.246010 0.000000 
#    z 0.111950 0.000000 4.251720 
# 
# 
# High freq. dielectric constant tensor:
#      x y z
#    x 1.905380 0.000000 -0.000820 
#    y 0.000000 1.893520 0.000000 
#    z -0.000820 0.000000 1.892420 
# 
# From -- ./inp_files/34594.got.cif
#   From: 2010.03.12/outbox.cif.g09.slc.cpg/sg14_18_cif.got.tgz:34594.got - 2010.03.31 13:35:05.
