data_PCOD8127818
_publ_section_title
;
Structure prediction by ZEFSAII (Michael W. Deem and Ramdas Pophale) SiO2 
 PCOD8127818
Probable space group: P 21/C
;
_chemical_formula_sum "Si O2"
_cell_formula_units_Z 32
_cell_length_a 13.842848
_cell_length_b 11.356354
_cell_length_c 14.048691
_cell_angle_alpha 90.000000
_cell_angle_beta 141.156425
_cell_angle_gamma 90.000000
_cell_volume 1385.172135
_symmetry_space_group_name_H-M "P 21/C"
_symmetry_group_IT_number 14
_symmetry_cell_setting 'monoclinic'
loop_
_space_group_symop_operation_xyz
x,y,z
-x,1/2+y,1/2-z
-x,-y,-z
x,1/2-y,1/2+z
loop_
_atom_site_type_symbol
_atom_site_label
_atom_site_fract_x
_atom_site_fract_y
_atom_site_fract_z
Si Si1 0.813869 0.268833 0.118743
Si Si2 0.910233 0.131428 0.496712
Si Si3 0.121789 0.982024 0.224103
Si Si4 0.047443 0.087235 0.353190
Si Si5 0.527336 0.128830 0.915126
Si Si6 0.558749 0.134041 0.156173
Si Si7 0.672720 0.731353 0.891154
Si Si8 0.897044 0.664114 0.435359
O O1 0.760128 0.387610 0.135631
O O2 0.929179 0.195085 0.276187
O O3 0.901708 0.302562 0.090667
O O4 0.674375 0.187390 0.978211
O O5 0.740319 0.127892 0.318555
O O6 0.041115 0.202583 0.538755
O O7 0.970906 0.998277 0.568117
O O8 0.009016 0.021758 0.224164
O O9 0.185592 0.099917 0.219727
O O10 0.041816 0.912011 0.077748
O O11 0.224229 0.132960 0.476572
O O12 0.378351 0.177429 0.748884
O O13 0.529432 0.989446 0.901196
O O14 0.534096 0.172557 0.028910
O O15 0.469760 0.227090 0.154325
O O16 0.782104 0.836186 0.937677
#
# Coordination Sequence:
#
# PCOD8127818 Si02
#       8
#     4   4   4   4   4   4   4   4
#     4  11  22  44  70 101 138 187 229 291 355 423
#     4  11  23  44  71 102 144 183 234 297 350 430
#     4  10  23  42  64 101 138 179 238 284 353 421
#     4  11  24  42  71 105 139 183 239 288 353 423
#     4  11  26  46  70 103 143 191 237 285 372 417
#     4  11  26  46  70 100 149 186 238 295 355 430
#     4  12  26  46  69 108 141 188 237 298 355 432
#     4  11  24  42  70 104 142 181 242 294 354 425
#
# _framework density 23.101823
#
# number of rings (size 3 to 8) (size 9 to 14) (size 15 to 20)
#    0.000    1.000    5.000    0.750    3.500    2.500 
#    2.250    0.625    0.000    0.000    0.000    0.000 
#    0.000    0.000    0.000    0.000    0.000    0.000 
#
# Total GULP energy -396510.400355 kJ/mol
# GULP energy per Si atom -12390.950011 kJ/mol
# Density = 2.304924 g / cm^3
# Si number density = 23.101823 Si / 1000 Ang^3
#
#
#
# Elastic Constant Matrix: (Units=GPa)
#
#
# Indices 1 2 3 4 5 6 
#
# 1 45.9751 10.2739 14.7469 0.0000 -7.0153 0.0000
# 2 10.2739 97.0686 29.3506 0.0000 -3.0598 0.0000
# 3 14.7469 29.3506 86.7807 0.0000 -5.3035 0.0000
# 4 0.0000 0.0000 0.0000 37.9294 0.0000 -5.5046
# 5 -7.0153 -3.0598 -5.3035 0.0000 36.4979 0.0000
# 6 0.0000 0.0000 0.0000 -5.5046 0.0000 20.8768
#
#
#
# Elastic Compliance Matrix: (Units=1/GPa)
#
#
# Indices 1 2 3 4 5 6 
#
# 1 0.023730 -0.001382 -0.003323 0.000000 0.003962 0.000000
# 2 -0.001382 0.011562 -0.003665 0.000000 0.000171 0.000000
# 3 -0.003323 -0.003665 0.013389 0.000000 0.001000 0.000000
# 4 0.000000 0.000000 0.000000 0.027414 0.000000 0.007228
# 5 0.003962 0.000171 0.001000 0.000000 0.028320 0.000000
# 6 0.000000 0.000000 0.000000 0.007228 0.000000 0.049806
#
#
# Mechanical properties :
#
#
# Convention : Reuss Voigt Hill
#
# Bulk Modulus (GPa) = 31.30807 37.61858 34.46333
# Shear Modulus (GPa) = 27.53190 30.75768 29.14479
#
# Velocity S-wave (km/s) = 3.45594 3.65279 3.55573
# Velocity P-wave (km/s) = 5.43197 5.84035 5.63986
#
# Compressibility (1/GPa) = 0.03194065
#
# Stress axis : x y z
#
# Youngs Moduli (GPa) = 42.14031 86.49116 74.69005
#
# Poissons Ratio (x) = 0.11953 0.24819
# Poissons Ratio (y) = 0.05824 0.27375
# Poissons Ratio (z) = 0.14003 0.31700
#
# Static dielectric constant tensor:
#      x y z
#    x 3.798510 0.000000 -0.329790 
#    y 0.000000 4.517520 0.000000 
#    z -0.329790 0.000000 4.280870 
# 
# 
# High freq. dielectric constant tensor:
#      x y z
#    x 1.896770 0.000000 -0.033300 
#    y 0.000000 1.928700 0.000000 
#    z -0.033300 0.000000 1.915310 
# 
# From -- ./inp_files/47158.got.cif
#   From: 2010.03.12/outbox.cif.g09.slc.cpg/sg14_24_cif.got.tgz:47158.got - 2010.03.31 13:35:05.
