data_PCOD8127550
_publ_section_title
;
Structure prediction by ZEFSAII (Michael W. Deem and Ramdas Pophale) SiO2 
 PCOD8127550
Probable space group: P 21/C
;
_chemical_formula_sum "Si O2"
_cell_formula_units_Z 20
_cell_length_a 7.048651
_cell_length_b 14.556920
_cell_length_c 9.665893
_cell_angle_alpha 90.000000
_cell_angle_beta 77.568582
_cell_angle_gamma 90.000000
_cell_volume 968.531878
_symmetry_space_group_name_H-M "P 21/C"
_symmetry_group_IT_number 14
_symmetry_cell_setting 'monoclinic'
loop_
_space_group_symop_operation_xyz
x,y,z
-x,1/2+y,1/2-z
-x,-y,-z
x,1/2-y,1/2+z
loop_
_atom_site_type_symbol
_atom_site_label
_atom_site_fract_x
_atom_site_fract_y
_atom_site_fract_z
Si Si1 0.789638 0.306299 0.659350
Si Si2 0.721451 0.907278 0.498683
Si Si3 0.610200 0.482891 0.774373
Si Si4 0.416872 0.316373 0.236607
Si Si5 0.032476 0.279395 0.890034
O O1 0.723212 0.412501 0.657743
O O2 0.612889 0.240002 0.728395
O O3 0.951694 0.299290 0.751803
O O4 0.879297 0.282246 0.497277
O O5 0.587067 0.932947 0.648971
O O6 0.625690 0.824675 0.421703
O O7 0.927793 0.873133 0.528136
O O8 0.741796 0.995205 0.392094
O O9 0.561355 0.579221 0.704902
O O10 0.240219 0.269671 0.345108
#
# Coordination Sequence:
#
# PCOD8127550 Si02
#       5
#     4   4   4   4   4
#     4  12  24  40  69  94 128 174 214 258 336 366
#     4   9  19  43  65  90 126 171 215 257 306 384
#     4   9  20  41  68  91 126 177 211 256 322 379
#     4  10  22  44  60  94 133 160 217 271 301 382
#     4  12  24  40  66 100 128 169 210 274 312 384
#
# _framework density 20.649811
#
# number of rings (size 3 to 8) (size 9 to 14) (size 15 to 20)
#    1.200    0.400    4.000    1.200    0.000    1.600 
#    3.600    1.000    0.000    0.000    0.000    0.000 
#    0.000    0.000    0.000    0.000    0.000    0.000 
#
# Total GULP energy -247831.203996 kJ/mol
# GULP energy per Si atom -12391.560200 kJ/mol
# Density = 2.060281 g / cm^3
# Si number density = 20.649811 Si / 1000 Ang^3
#
#
#
# Elastic Constant Matrix: (Units=GPa)
#
#
# Indices 1 2 3 4 5 6 
#
# 1 77.6933 36.4690 10.1998 0.0000 -11.2000 0.0000
# 2 36.4690 97.7544 8.7433 0.0000 -11.4969 0.0000
# 3 10.1998 8.7433 29.9760 0.0000 -11.4959 0.0000
# 4 0.0000 0.0000 0.0000 29.2678 0.0000 -3.2515
# 5 -11.2000 -11.4969 -11.4959 0.0000 38.5367 0.0000
# 6 0.0000 0.0000 0.0000 -3.2515 0.0000 32.5248
#
#
#
# Elastic Compliance Matrix: (Units=1/GPa)
#
#
# Indices 1 2 3 4 5 6 
#
# 1 0.016167 -0.005505 -0.003075 0.000000 0.002139 0.000000
# 2 -0.005505 0.012597 -0.001099 0.000000 0.001830 0.000000
# 3 -0.003075 -0.001099 0.038684 0.000000 0.010318 0.000000
# 4 0.000000 0.000000 0.000000 0.034551 0.000000 0.003454
# 5 0.002139 0.001830 0.010318 0.000000 0.030195 0.000000
# 6 0.000000 0.000000 0.000000 0.003454 0.000000 0.031091
#
#
# Mechanical properties :
#
#
# Convention : Reuss Voigt Hill
#
# Bulk Modulus (GPa) = 20.79446 35.13868 27.96657
# Shear Modulus (GPa) = 25.16692 30.06663 27.61678
#
# Velocity S-wave (km/s) = 3.49485 3.81993 3.66100
# Velocity P-wave (km/s) = 5.13587 6.04229 5.60742
#
# Compressibility (1/GPa) = 0.04808973
#
# Stress axis : x y z
#
# Youngs Moduli (GPa) = 61.85385 79.38414 25.85047
#
# Poissons Ratio (x) = 0.43700 0.07949
# Poissons Ratio (y) = 0.34049 0.02842
# Poissons Ratio (z) = 0.19021 0.08726
#
# Static dielectric constant tensor:
#      x y z
#    x 3.534700 0.000000 -0.048990 
#    y 0.000000 3.895330 0.000000 
#    z -0.048990 0.000000 3.426690 
# 
# 
# High freq. dielectric constant tensor:
#      x y z
#    x 1.795900 0.000000 -0.006630 
#    y 0.000000 1.811190 0.000000 
#    z -0.006630 0.000000 1.787110 
# 
# From -- ./inp_files/20757.got.cif
#   From: 2010.03.12/outbox.cif.g09.slc.cpg/sg14_11_cif.got.tgz:20757.got - 2010.03.31 13:35:05.
