data_PCOD8127784
_publ_section_title
;
Structure prediction by ZEFSAII (Michael W. Deem and Ramdas Pophale) SiO2 
 PCOD8127784
Probable space group: P 21/C
;
_chemical_formula_sum "Si O2"
_cell_formula_units_Z 32
_cell_length_a 18.499803
_cell_length_b 8.717975
_cell_length_c 19.382831
_cell_angle_alpha 90.000000
_cell_angle_beta 29.904091
_cell_angle_gamma 90.000000
_cell_volume 1558.505488
_symmetry_space_group_name_H-M "P 21/C"
_symmetry_group_IT_number 14
_symmetry_cell_setting 'monoclinic'
loop_
_space_group_symop_operation_xyz
x,y,z
-x,1/2+y,1/2-z
-x,-y,-z
x,1/2-y,1/2+z
loop_
_atom_site_type_symbol
_atom_site_label
_atom_site_fract_x
_atom_site_fract_y
_atom_site_fract_z
Si Si1 0.392337 0.733253 0.910134
Si Si2 0.911359 0.156318 0.872835
Si Si3 0.313651 0.834100 0.235939
Si Si4 0.222017 0.149589 0.254984
Si Si5 0.176728 0.131726 0.135555
Si Si6 0.506559 0.331241 0.025818
Si Si7 0.949120 0.355338 0.498981
Si Si8 0.467670 0.086670 0.830451
O O1 0.490610 0.620804 0.782752
O O2 0.452585 0.905924 0.855907
O O3 0.224097 0.728078 0.025809
O O4 0.404044 0.666470 0.977215
O O5 0.063581 0.231082 0.727195
O O6 0.913073 0.096395 0.950221
O O7 0.901340 0.018357 0.827958
O O8 0.415181 0.789571 0.088420
O O9 0.407252 0.839699 0.227374
O O10 0.192815 0.705319 0.345361
O O11 0.241059 0.998644 0.284692
O O12 0.232093 0.100682 0.166931
O O13 0.067650 0.221298 0.401367
O O14 0.343731 0.274009 0.173540
O O15 0.315905 0.171316 0.973317
O O16 0.500000 0.500000 0.000000
O O17 0.000000 0.500000 0.500000
#
# Coordination Sequence:
#
# PCOD8127784 Si02
#       8
#     4   4   4   4   4   4   4   4
#     4  11  25  43  66 100 134 178 224 282 338 406
#     4  10  23  43  64  94 133 171 214 269 333 394
#     4  12  22  45  67  96 134 178 224 278 334 407
#     4  11  23  43  67  98 129 174 223 271 338 400
#     4  10  23  41  66  93 128 170 215 267 326 398
#     4  12  26  41  69 101 137 175 230 284 341 397
#     4  11  25  43  67  99 137 171 222 279 335 400
#     4  11  23  42  69  96 132 176 226 277 335 399
#
# _framework density 20.532489999999999
#
# number of rings (size 3 to 8) (size 9 to 14) (size 15 to 20)
#    0.000    1.000    3.750    3.000    1.750    7.000 
#    0.000    0.000    0.000    0.000    0.000    0.000 
#    0.000    0.000    0.000    0.000    0.000    0.000 
#
# Total GULP energy -396992.016918 kJ/mol
# GULP energy per Si atom -12406.000529 kJ/mol
# Density = 2.048576 g / cm^3
# Si number density = 20.532490 Si / 1000 Ang^3
#
#
#
# Elastic Constant Matrix: (Units=GPa)
#
#
# Indices 1 2 3 4 5 6 
#
# 1 115.9244 40.2868 25.7953 0.0000 -5.3415 0.0000
# 2 40.2868 90.9530 19.2870 0.0000 -3.2103 0.0000
# 3 25.7953 19.2870 55.5854 0.0000 -7.9515 0.0000
# 4 0.0000 0.0000 0.0000 31.6084 0.0000 0.1354
# 5 -5.3415 -3.2103 -7.9515 0.0000 33.6013 0.0000
# 6 0.0000 0.0000 0.0000 0.1354 0.0000 37.9659
#
#
#
# Elastic Compliance Matrix: (Units=1/GPa)
#
#
# Indices 1 2 3 4 5 6 
#
# 1 0.010842 -0.004030 -0.003562 0.000000 0.000496 0.000000
# 2 -0.004030 0.013366 -0.002771 0.000000 -0.000019 0.000000
# 3 -0.003562 -0.002771 0.021204 0.000000 0.004187 0.000000
# 4 0.000000 0.000000 0.000000 0.031638 0.000000 -0.000113
# 5 0.000496 -0.000019 0.004187 0.000000 0.030828 0.000000
# 6 0.000000 0.000000 0.000000 -0.000113 0.000000 0.026340
#
#
# Mechanical properties :
#
#
# Convention : Reuss Voigt Hill
#
# Bulk Modulus (GPa) = 40.50690 48.13346 44.32018
# Shear Modulus (GPa) = 30.64238 32.44136 31.54187
#
# Velocity S-wave (km/s) = 3.86733 3.97924 3.92368
# Velocity P-wave (km/s) = 6.30180 6.67876 6.49302
#
# Compressibility (1/GPa) = 0.02468715
#
# Stress axis : x y z
#
# Youngs Moduli (GPa) = 92.23197 74.81448 47.16133
#
# Poissons Ratio (x) = 0.30147 0.16801
# Poissons Ratio (y) = 0.37165 0.13067
# Poissons Ratio (z) = 0.32857 0.20728
#
# Static dielectric constant tensor:
#      x y z
#    x 3.906970 0.000000 -0.095660 
#    y 0.000000 3.541600 0.000000 
#    z -0.095660 0.000000 3.883570 
# 
# 
# High freq. dielectric constant tensor:
#      x y z
#    x 1.817000 0.000000 -0.006780 
#    y 0.000000 1.797100 0.000000 
#    z -0.006780 0.000000 1.816110 
# 
# From -- ./inp_files/69139.got.cif
#   From: 2010.03.12/outbox.cif.g09.slc.cpg/sg14_35_cif.got.tgz:69139.got - 2010.03.31 13:35:05.
