data_PCOD8127319
_publ_section_title
;
Structure prediction by ZEFSAII (Michael W. Deem and Ramdas Pophale) SiO2 
 PCOD8127319
Probable space group: P 21/C
;
_chemical_formula_sum "Si O2"
_cell_formula_units_Z 24
_cell_length_a 11.758732
_cell_length_b 5.250107
_cell_length_c 15.767861
_cell_angle_alpha 90.000000
_cell_angle_beta 78.975960
_cell_angle_gamma 90.000000
_cell_volume 955.460080
_symmetry_space_group_name_H-M "P 21/C"
_symmetry_group_IT_number 14
_symmetry_cell_setting 'monoclinic'
loop_
_space_group_symop_operation_xyz
x,y,z
-x,1/2+y,1/2-z
-x,-y,-z
x,1/2-y,1/2+z
loop_
_atom_site_type_symbol
_atom_site_label
_atom_site_fract_x
_atom_site_fract_y
_atom_site_fract_z
Si Si1 0.425449 0.930477 0.753977
Si Si2 0.234040 0.304354 0.375492
Si Si3 0.354290 0.609238 0.940067
Si Si4 0.601283 0.804204 0.406666
Si Si5 0.990039 0.865831 0.199018
Si Si6 0.794901 0.013041 0.944993
O O1 0.522090 0.148249 0.757622
O O2 0.318865 0.955609 0.838625
O O3 0.367105 0.987177 0.669872
O O4 0.129679 0.281438 0.325699
O O5 0.185586 0.323387 0.478404
O O6 0.308696 0.041167 0.362492
O O7 0.467851 0.790148 0.902157
O O8 0.405419 0.395108 0.995672
O O9 0.249605 0.729448 0.006597
O O10 0.700024 0.585907 0.389784
O O11 0.034794 0.617452 0.242185
O O12 0.083093 0.940809 0.115527
#
# Coordination Sequence:
#
# PCOD8127319 Si02
#       6
#     4   4   4   4   4   4
#     4  12  26  42  70 107 151 193 241 305 374 445
#     4  11  26  46  73 111 146 201 254 309 376 454
#     4  10  22  42  71 107 143 192 244 310 372 455
#     4  10  22  41  68 109 146 193 242 301 380 448
#     4  12  31  52  77 111 147 202 257 318 381 447
#     4  11  25  45  77 100 150 196 252 313 372 452
#
# _framework density 25.118790000000001
#
# number of rings (size 3 to 8) (size 9 to 14) (size 15 to 20)
#    0.000    1.000    1.667    3.000   11.667    0.667 
#    0.000    0.000    0.000    0.000    0.000    0.000 
#    0.000    0.000    0.000    0.000    0.000    0.000 
#
# Total GULP energy -297448.852719 kJ/mol
# GULP energy per Si atom -12393.702197 kJ/mol
# Density = 2.506162 g / cm^3
# Si number density = 25.118790 Si / 1000 Ang^3
#
#
#
# Elastic Constant Matrix: (Units=GPa)
#
#
# Indices 1 2 3 4 5 6 
#
# 1 142.6331 37.1853 47.2375 0.0000 0.7148 0.0000
# 2 37.1853 97.3417 12.8727 0.0000 6.2021 0.0000
# 3 47.2375 12.8727 123.4095 0.0000 -6.0616 0.0000
# 4 0.0000 0.0000 0.0000 39.9930 0.0000 -3.7618
# 5 0.7148 6.2021 -6.0616 0.0000 31.5235 0.0000
# 6 0.0000 0.0000 0.0000 -3.7618 0.0000 26.3332
#
#
#
# Elastic Compliance Matrix: (Units=1/GPa)
#
#
# Indices 1 2 3 4 5 6 
#
# 1 0.008795 -0.002940 -0.003070 0.000000 -0.000211 0.000000
# 2 -0.002940 0.011565 -0.000191 0.000000 -0.002245 0.000000
# 3 -0.003070 -0.000191 0.009392 0.000000 0.001913 0.000000
# 4 0.000000 0.000000 0.000000 0.025345 0.000000 0.003621
# 5 -0.000211 -0.002245 0.001913 0.000000 0.032537 0.000000
# 6 0.000000 0.000000 0.000000 0.003621 0.000000 0.038492
#
#
# Mechanical properties :
#
#
# Convention : Reuss Voigt Hill
#
# Bulk Modulus (GPa) = 57.64106 61.99724 59.81915
# Shear Modulus (GPa) = 34.64695 37.30919 35.97807
#
# Velocity S-wave (km/s) = 3.71795 3.85815 3.78870
# Velocity P-wave (km/s) = 6.43647 6.67700 6.55784
#
# Compressibility (1/GPa) = 0.01734874
#
# Stress axis : x y z
#
# Youngs Moduli (GPa) = 113.69482 86.47007 106.47093
#
# Poissons Ratio (x) = 0.25426 0.32690
# Poissons Ratio (y) = 0.33431 0.02034
# Poissons Ratio (z) = 0.34908 0.01652
#
# Static dielectric constant tensor:
#      x y z
#    x 4.566840 0.000000 0.156260 
#    y 0.000000 4.472600 0.000000 
#    z 0.156260 0.000000 5.047380 
# 
# 
# High freq. dielectric constant tensor:
#      x y z
#    x 2.000610 0.000000 0.008560 
#    y 0.000000 1.995910 0.000000 
#    z 0.008560 0.000000 2.022600 
# 
# From -- ./inp_files/56536.got.cif
#   From: 2010.03.12/outbox.cif.g09.slc.cpg/sg14_29_cif.got.tgz:56536.got - 2010.03.31 13:35:05.
