data_PCOD8127588
_publ_section_title
;
Structure prediction by ZEFSAII (Michael W. Deem and Ramdas Pophale) SiO2 
 PCOD8127588
Probable space group: P 21/C
;
_chemical_formula_sum "Si O2"
_cell_formula_units_Z 32
_cell_length_a 18.435846
_cell_length_b 14.386413
_cell_length_c 12.112722
_cell_angle_alpha 90.000000
_cell_angle_beta 152.300811
_cell_angle_gamma 90.000000
_cell_volume 1493.313667
_symmetry_space_group_name_H-M "P 21/C"
_symmetry_group_IT_number 14
_symmetry_cell_setting 'monoclinic'
loop_
_space_group_symop_operation_xyz
x,y,z
-x,1/2+y,1/2-z
-x,-y,-z
x,1/2-y,1/2+z
loop_
_atom_site_type_symbol
_atom_site_label
_atom_site_fract_x
_atom_site_fract_y
_atom_site_fract_z
Si Si1 0.801651 0.226254 0.303800
Si Si2 0.590787 0.129985 0.404887
Si Si3 0.266583 0.364074 0.589370
Si Si4 0.448723 0.893605 0.906773
Si Si5 0.068495 0.400954 0.115564
Si Si6 0.227756 0.331504 0.121299
Si Si7 0.787936 0.965856 0.772845
Si Si8 0.973962 0.887685 0.839405
O O1 0.708360 0.149357 0.250880
O O2 0.927131 0.169268 0.404364
O O3 0.902477 0.303137 0.507575
O O4 0.694397 0.279967 0.071945
O O5 0.427851 0.148438 0.244116
O O6 0.566893 0.122636 0.243418
O O7 0.672300 0.034968 0.553444
O O8 0.183877 0.272268 0.526503
O O9 0.304668 0.427023 0.746793
O O10 0.139074 0.404826 0.333375
O O11 0.586956 0.834287 0.146865
O O12 0.500000 0.000000 0.000000
O O13 0.200149 0.365359 0.208802
O O14 0.000000 0.500000 0.000000
O O15 0.128909 0.399190 0.909117
O O16 0.851221 0.882628 0.777751
O O17 0.937947 0.015841 0.026689
#
# Coordination Sequence:
#
# PCOD8127588 Si02
#       8
#     4   4   4   4   4   4   4   4
#     4  11  25  44  70 104 138 184 234 294 353 419
#     4  11  25  47  68 106 142 185 242 283 364 430
#     4  12  24  44  70 104 142 186 235 290 354 432
#     4  12  26  47  69 101 144 191 236 295 358 431
#     4  12  26  45  71 106 141 185 238 300 357 422
#     4  12  24  44  69  99 143 181 232 285 356 420
#     4  10  23  43  74  99 141 178 235 290 351 422
#     4  10  22  44  69 104 132 184 230 289 350 421
#
# _framework density 21.428853
#
# number of rings (size 3 to 8) (size 9 to 14) (size 15 to 20)
#    0.000    0.750    3.750    3.375    1.750    3.000 
#    2.250    0.000    0.000    0.000    0.000    0.000 
#    0.000    0.000    0.000    0.000    0.000    0.000 
#
# Total GULP energy -396612.419556 kJ/mol
# GULP energy per Si atom -12394.138111 kJ/mol
# Density = 2.138008 g / cm^3
# Si number density = 21.428853 Si / 1000 Ang^3
#
#
#
# Elastic Constant Matrix: (Units=GPa)
#
#
# Indices 1 2 3 4 5 6 
#
# 1 82.2931 24.7591 29.5471 0.0000 -2.5521 0.0000
# 2 24.7591 80.0101 32.5486 0.0000 0.0732 0.0000
# 3 29.5471 32.5486 119.6511 0.0000 -9.7708 0.0000
# 4 0.0000 0.0000 0.0000 32.9898 0.0000 4.2019
# 5 -2.5521 0.0732 -9.7708 0.0000 36.9298 0.0000
# 6 0.0000 0.0000 0.0000 4.2019 0.0000 37.8223
#
#
#
# Elastic Compliance Matrix: (Units=1/GPa)
#
#
# Indices 1 2 3 4 5 6 
#
# 1 0.014075 -0.003319 -0.002548 0.000000 0.000305 0.000000
# 2 -0.003319 0.014877 -0.003320 0.000000 -0.001137 0.000000
# 3 -0.002548 -0.003320 0.010094 0.000000 0.002501 0.000000
# 4 0.000000 0.000000 0.000000 0.030747 0.000000 -0.003416
# 5 0.000305 -0.001137 0.002501 0.000000 0.027763 0.000000
# 6 0.000000 0.000000 0.000000 -0.003416 0.000000 0.026819
#
#
# Mechanical properties :
#
#
# Convention : Reuss Voigt Hill
#
# Bulk Modulus (GPa) = 48.37558 50.62932 49.50245
# Shear Modulus (GPa) = 33.41328 34.55501 33.98415
#
# Velocity S-wave (km/s) = 3.95304 4.02001 3.98666
# Velocity P-wave (km/s) = 6.59237 6.72497 6.65900
#
# Compressibility (1/GPa) = 0.02067159
#
# Stress axis : x y z
#
# Youngs Moduli (GPa) = 71.05014 67.21653 99.06622
#
# Poissons Ratio (x) = 0.22311 0.25240
# Poissons Ratio (y) = 0.23583 0.32893
# Poissons Ratio (z) = 0.18102 0.22318
#
# Static dielectric constant tensor:
#      x y z
#    x 4.006490 0.000000 -0.003300 
#    y 0.000000 3.794050 0.000000 
#    z -0.003300 0.000000 4.028850 
# 
# 
# High freq. dielectric constant tensor:
#      x y z
#    x 1.841450 0.000000 0.002750 
#    y 0.000000 1.844440 0.000000 
#    z 0.002750 0.000000 1.858240 
# 
# From -- ./inp_files/34186.got.cif
#   From: 2010.03.12/outbox.cif.g09.slc.cpg/sg14_18_cif.got.tgz:34186.got - 2010.03.31 13:35:05.
