data_PCOD8127674
_publ_section_title
;
Structure prediction by ZEFSAII (Michael W. Deem and Ramdas Pophale) SiO2 
 PCOD8127674
Probable space group: P 21/C
;
_chemical_formula_sum "Si O2"
_cell_formula_units_Z 32
_cell_length_a 12.045360
_cell_length_b 13.322435
_cell_length_c 8.835454
_cell_angle_alpha 90.000000
_cell_angle_beta 90.617752
_cell_angle_gamma 90.000000
_cell_volume 1417.774044
_symmetry_space_group_name_H-M "P 21/C"
_symmetry_group_IT_number 14
_symmetry_cell_setting 'monoclinic'
loop_
_space_group_symop_operation_xyz
x,y,z
-x,1/2+y,1/2-z
-x,-y,-z
x,1/2-y,1/2+z
loop_
_atom_site_type_symbol
_atom_site_label
_atom_site_fract_x
_atom_site_fract_y
_atom_site_fract_z
Si Si1 0.696101 0.417252 0.176214
Si Si2 0.356751 0.952749 0.850823
Si Si3 0.489613 0.884098 0.116226
Si Si4 0.318600 0.377237 0.963628
Si Si5 0.435708 0.837625 0.576320
Si Si6 0.792423 0.779916 0.254490
Si Si7 0.919514 0.639631 0.476965
Si Si8 0.848511 0.420411 0.443514
O O1 0.594654 0.450593 0.284225
O O2 0.733626 0.515850 0.084075
O O3 0.794563 0.377601 0.286940
O O4 0.650538 0.327949 0.066487
O O5 0.364618 0.909502 0.683722
O O6 0.384375 0.074255 0.854098
O O7 0.459139 0.900512 0.940538
O O8 0.238786 0.926751 0.920688
O O9 0.470427 0.767258 0.153435
O O10 0.451418 0.389670 0.979798
O O11 0.289630 0.295012 0.835418
O O12 0.274816 0.348704 0.128869
O O13 0.884269 0.720221 0.352226
O O14 0.856021 0.849205 0.135450
O O15 0.894963 0.530645 0.407742
O O16 0.051513 0.652717 0.506831
#
# Coordination Sequence:
#
# PCOD8127674 Si02
#       8
#     4   4   4   4   4   4   4   4
#     4  11  23  43  59  97 140 174 219 274 330 400
#     4  10  23  41  63  95 131 185 217 273 336 406
#     4  10  23  40  61  88 137 181 229 259 333 407
#     4  11  24  39  67  99 135 174 217 283 325 401
#     4  12  25  37  64  98 139 178 224 270 327 408
#     4  10  24  42  73 100 128 168 237 280 336 391
#     4  10  22  47  71  96 123 173 229 290 338 389
#     4  10  23  45  71  88 134 180 220 276 353 397
#
# _framework density 22.570591
#
# number of rings (size 3 to 8) (size 9 to 14) (size 15 to 20)
#    0.000    1.500    2.500    1.125    8.750    0.000 
#    9.000    1.875    0.000    0.000    0.000    0.000 
#    0.000    0.000    0.000    0.000    0.000    0.000 
#
# Total GULP energy -396720.443800 kJ/mol
# GULP energy per Si atom -12397.513869 kJ/mol
# Density = 2.251922 g / cm^3
# Si number density = 22.570591 Si / 1000 Ang^3
#
#
#
# Elastic Constant Matrix: (Units=GPa)
#
#
# Indices 1 2 3 4 5 6 
#
# 1 130.1126 17.1914 52.4352 0.0000 12.2772 0.0000
# 2 17.1914 65.7095 22.0242 0.0000 -0.0621 0.0000
# 3 52.4352 22.0242 118.2776 0.0000 11.3426 0.0000
# 4 0.0000 0.0000 0.0000 33.6155 0.0000 -0.1304
# 5 12.2772 -0.0621 11.3426 0.0000 30.7404 0.0000
# 6 0.0000 0.0000 0.0000 -0.1304 0.0000 28.3717
#
#
#
# Elastic Compliance Matrix: (Units=1/GPa)
#
#
# Indices 1 2 3 4 5 6 
#
# 1 0.009609 -0.001245 -0.003794 0.000000 -0.002440 0.000000
# 2 -0.001245 0.016435 -0.002653 0.000000 0.001509 0.000000
# 3 -0.003794 -0.002653 0.010871 0.000000 -0.002501 0.000000
# 4 0.000000 0.000000 0.000000 0.029749 0.000000 0.000137
# 5 -0.002440 0.001509 -0.002501 0.000000 0.034431 0.000000
# 6 0.000000 0.000000 0.000000 0.000137 0.000000 0.035247
#
#
# Mechanical properties :
#
#
# Convention : Reuss Voigt Hill
#
# Bulk Modulus (GPa) = 46.44554 55.26681 50.85617
# Shear Modulus (GPa) = 31.46572 33.37544 32.42058
#
# Velocity S-wave (km/s) = 3.73782 3.84958 3.79411
# Velocity P-wave (km/s) = 6.26506 6.65570 6.46333
#
# Compressibility (1/GPa) = 0.02153059
#
# Stress axis : x y z
#
# Youngs Moduli (GPa) = 104.06398 60.84622 91.99046
#
# Poissons Ratio (x) = 0.07573 0.34904
# Poissons Ratio (y) = 0.12952 0.24407
# Poissons Ratio (z) = 0.39485 0.16144
#
# Static dielectric constant tensor:
#      x y z
#    x 3.993940 0.000000 0.184850 
#    y 0.000000 3.879350 0.000000 
#    z 0.184850 0.000000 4.138010 
# 
# 
# High freq. dielectric constant tensor:
#      x y z
#    x 1.871200 0.000000 0.012030 
#    y 0.000000 1.879700 0.000000 
#    z 0.012030 0.000000 1.906330 
# 
# From -- ./inp_files/13330.got.cif
#   From: 2010.03.12/outbox.cif.g09.slc.cpg/sg14_7_cif.got.tgz:13330.got - 2010.03.31 13:35:05.
