data_PCOD8127746
_publ_section_title
;
Structure prediction by ZEFSAII (Michael W. Deem and Ramdas Pophale) SiO2 
 PCOD8127746
Probable space group: P 21/C
;
_chemical_formula_sum "Si O2"
_cell_formula_units_Z 24
_cell_length_a 19.282888
_cell_length_b 8.260417
_cell_length_c 19.144030
_cell_angle_alpha 90.000000
_cell_angle_beta 158.511280
_cell_angle_gamma 90.000000
_cell_volume 1117.032296
_symmetry_space_group_name_H-M "P 21/C"
_symmetry_group_IT_number 14
_symmetry_cell_setting 'monoclinic'
loop_
_space_group_symop_operation_xyz
x,y,z
-x,1/2+y,1/2-z
-x,-y,-z
x,1/2-y,1/2+z
loop_
_atom_site_type_symbol
_atom_site_label
_atom_site_fract_x
_atom_site_fract_y
_atom_site_fract_z
Si Si1 0.523165 0.432652 0.444940
Si Si2 0.715354 0.398496 0.282922
Si Si3 0.666075 0.428417 0.081533
Si Si4 0.862408 0.037622 0.435024
Si Si5 0.011479 0.546556 0.336536
Si Si6 0.863362 0.909105 0.188882
O O1 0.500000 0.500000 0.500000
O O2 0.598827 0.253565 0.518314
O O3 0.310588 0.414028 0.215839
O O4 0.653882 0.554611 0.522270
O O5 0.750235 0.471886 0.237673
O O6 0.756686 0.208027 0.323788
O O7 0.850421 0.475457 0.467826
O O8 0.495728 0.442932 0.093016
O O9 0.833091 0.430720 0.181714
O O10 0.981785 0.010694 0.616205
O O11 0.000000 0.000000 0.500000
O O12 0.126910 0.490814 0.377500
O O13 0.916458 0.721304 0.237303
#
# Coordination Sequence:
#
# PCOD8127746 Si02
#       6
#     4   4   4   4   4   4
#     4  12  23  41  68  98 131 167 218 268 325 384
#     4  10  23  40  66  98 130 169 217 268 326 381
#     4  11  23  40  68  99 132 166 218 270 324 389
#     4  11  22  41  68  96 128 170 218 271 325 385
#     4  11  25  44  66  95 135 173 217 265 327 391
#     4  11  25  43  67  94 133 174 217 268 325 390
#
# _framework density 21.485503000000001
#
# number of rings (size 3 to 8) (size 9 to 14) (size 15 to 20)
#    0.000    1.000    3.333    2.500    2.333    5.333 
#    0.000    0.000    0.000    0.000    0.000    0.000 
#    0.000    0.000    0.000    0.000    0.000    0.000 
#
# Total GULP energy -297476.278670 kJ/mol
# GULP energy per Si atom -12394.844945 kJ/mol
# Density = 2.143660 g / cm^3
# Si number density = 21.485503 Si / 1000 Ang^3
#
#
#
# Elastic Constant Matrix: (Units=GPa)
#
#
# Indices 1 2 3 4 5 6 
#
# 1 133.5935 48.4423 68.3205 0.0000 27.0991 0.0000
# 2 48.4423 84.9298 50.5828 0.0000 1.6066 0.0000
# 3 68.3205 50.5828 142.1935 0.0000 11.8570 0.0000
# 4 0.0000 0.0000 0.0000 39.0872 0.0000 4.4192
# 5 27.0991 1.6066 11.8570 0.0000 35.2021 0.0000
# 6 0.0000 0.0000 0.0000 4.4192 0.0000 34.0351
#
#
#
# Elastic Compliance Matrix: (Units=1/GPa)
#
#
# Indices 1 2 3 4 5 6 
#
# 1 0.012915 -0.004988 -0.003726 0.000000 -0.008460 0.000000
# 2 -0.004988 0.016910 -0.003987 0.000000 0.004411 0.000000
# 3 -0.003726 -0.003987 0.010275 0.000000 -0.000411 0.000000
# 4 0.000000 0.000000 0.000000 0.025965 0.000000 -0.003371
# 5 -0.008460 0.004411 -0.000411 0.000000 0.034857 0.000000
# 6 0.000000 0.000000 0.000000 -0.003371 0.000000 0.029819
#
#
# Mechanical properties :
#
#
# Convention : Reuss Voigt Hill
#
# Bulk Modulus (GPa) = 68.02532 77.26754 72.64643
# Shear Modulus (GPa) = 31.04750 34.55628 32.80189
#
# Velocity S-wave (km/s) = 3.80550 4.01478 3.91154
# Velocity P-wave (km/s) = 7.14415 7.58498 7.36786
#
# Compressibility (1/GPa) = 0.01470041
#
# Stress axis : x y z
#
# Youngs Moduli (GPa) = 77.42652 59.13517 97.31991
#
# Poissons Ratio (x) = 0.29495 0.36260
# Poissons Ratio (y) = 0.38618 0.38801
# Poissons Ratio (z) = 0.28848 0.23577
#
# Static dielectric constant tensor:
#      x y z
#    x 4.792600 0.000000 1.477940 
#    y 0.000000 3.431550 0.000000 
#    z 1.477940 0.000000 6.897290 
# 
# 
# High freq. dielectric constant tensor:
#      x y z
#    x 1.838520 0.000000 0.006390 
#    y 0.000000 1.845030 0.000000 
#    z 0.006390 0.000000 1.860540 
# 
# From -- ./inp_files/69740.got.cif
#   From: 2010.03.12/outbox.cif.g09.slc.cpg/sg14_35_cif.got.tgz:69740.got - 2010.03.31 13:35:05.
