data_PCOD8127867
_publ_section_title
;
Structure prediction by ZEFSAII (Michael W. Deem and Ramdas Pophale) SiO2 
 PCOD8127867
Probable space group: P 21/C
;
_chemical_formula_sum "Si O2"
_cell_formula_units_Z 24
_cell_length_a 8.718896
_cell_length_b 12.160312
_cell_length_c 11.678900
_cell_angle_alpha 90.000000
_cell_angle_beta 64.590787
_cell_angle_gamma 90.000000
_cell_volume 1118.469040
_symmetry_space_group_name_H-M "P 21/C"
_symmetry_group_IT_number 14
_symmetry_cell_setting 'monoclinic'
loop_
_space_group_symop_operation_xyz
x,y,z
-x,1/2+y,1/2-z
-x,-y,-z
x,1/2-y,1/2+z
loop_
_atom_site_type_symbol
_atom_site_label
_atom_site_fract_x
_atom_site_fract_y
_atom_site_fract_z
Si Si1 0.363231 0.019747 0.143287
Si Si2 0.550404 0.564776 0.808777
Si Si3 0.966224 0.376399 0.986815
Si Si4 0.318042 0.629741 0.091640
Si Si5 0.141960 0.825516 0.238197
Si Si6 0.203043 0.242110 0.266525
O O1 0.433703 0.976363 0.242832
O O2 0.193038 0.947086 0.175642
O O3 0.308077 0.148139 0.163450
O O4 0.500000 0.000000 0.000000
O O5 0.652723 0.458945 0.819327
O O6 0.679298 0.658823 0.728395
O O7 0.451072 0.619310 0.946624
O O8 0.865059 0.319159 0.121691
O O9 0.868882 0.381991 0.898712
O O10 0.000000 0.500000 0.000000
O O11 0.140229 0.311297 0.906082
O O12 0.305402 0.750164 0.153037
O O13 0.955657 0.792263 0.253029
#
# Coordination Sequence:
#
# PCOD8127867 Si02
#       6
#     4   4   4   4   4   4
#     4  12  27  46  69 104 144 184 235 293 350 412
#     4  11  24  44  69 101 138 181 234 285 353 413
#     4  11  20  43  68  96 133 182 228 279 347 414
#     4  10  23  42  70  97 134 182 227 282 348 418
#     4  11  24  43  70  99 140 175 235 280 349 418
#     4  11  26  41  70 100 133 185 234 285 350 413
#
# _framework density 21.457901
#
# number of rings (size 3 to 8) (size 9 to 14) (size 15 to 20)
#    0.000    1.000    3.333    2.000    7.000    4.000 
#    0.000    1.667    0.000    0.000    0.000    0.000 
#    0.000    0.000    0.000    0.000    0.000    0.000 
#
# Total GULP energy -297426.467028 kJ/mol
# GULP energy per Si atom -12392.769460 kJ/mol
# Density = 2.140906 g / cm^3
# Si number density = 21.457901 Si / 1000 Ang^3
#
#
#
# Elastic Constant Matrix: (Units=GPa)
#
#
# Indices 1 2 3 4 5 6 
#
# 1 90.5785 56.9934 25.3407 0.0000 -3.3599 0.0000
# 2 56.9934 102.1906 21.9151 0.0000 5.5151 0.0000
# 3 25.3407 21.9151 100.3762 0.0000 -2.2722 0.0000
# 4 0.0000 0.0000 0.0000 40.3651 0.0000 -13.5739
# 5 -3.3599 5.5151 -2.2722 0.0000 27.2699 0.0000
# 6 0.0000 0.0000 0.0000 -13.5739 0.0000 49.7764
#
#
#
# Elastic Compliance Matrix: (Units=1/GPa)
#
#
# Indices 1 2 3 4 5 6 
#
# 1 0.017963 -0.009736 -0.002319 0.000000 0.003989 0.000000
# 2 -0.009736 0.015685 -0.001068 0.000000 -0.004461 0.000000
# 3 -0.002319 -0.001068 0.010800 0.000000 0.000830 0.000000
# 4 0.000000 0.000000 0.000000 0.027275 0.000000 0.007438
# 5 0.003989 -0.004461 0.000830 0.000000 0.038133 0.000000
# 6 0.000000 0.000000 0.000000 0.007438 0.000000 0.022118
#
#
# Mechanical properties :
#
#
# Convention : Reuss Voigt Hill
#
# Bulk Modulus (GPa) = 54.93660 55.73818 55.33739
# Shear Modulus (GPa) = 30.43440 36.07536 33.25488
#
# Velocity S-wave (km/s) = 3.77016 4.10471 3.94099
# Velocity P-wave (km/s) = 6.67905 6.96397 6.82300
#
# Compressibility (1/GPa) = 0.01820280
#
# Stress axis : x y z
#
# Youngs Moduli (GPa) = 55.66978 63.75349 92.59421
#
# Poissons Ratio (x) = 0.62072 0.21471
# Poissons Ratio (y) = 0.54202 0.09885
# Poissons Ratio (z) = 0.12909 0.06806
#
# Static dielectric constant tensor:
#      x y z
#    x 3.829710 0.000000 -0.358860 
#    y 0.000000 4.011750 0.000000 
#    z -0.358860 0.000000 2.608400 
# 
# 
# High freq. dielectric constant tensor:
#      x y z
#    x 1.840710 0.000000 -0.012080 
#    y 0.000000 1.857660 0.000000 
#    z -0.012080 0.000000 1.845240 
# 
# From -- ./inp_files/24090.got.cif
#   From: 2010.03.12/outbox.cif.g09.slc.cpg/sg14_13_cif.got.tgz:24090.got - 2010.03.31 13:35:05.
