data_PCOD8127355
_publ_section_title
;
Structure prediction by ZEFSAII (Michael W. Deem and Ramdas Pophale) SiO2 
 PCOD8127355
Probable space group: P 21/C
;
_chemical_formula_sum "Si O2"
_cell_formula_units_Z 32
_cell_length_a 6.839982
_cell_length_b 8.218081
_cell_length_c 29.801841
_cell_angle_alpha 90.000000
_cell_angle_beta 68.915468
_cell_angle_gamma 90.000000
_cell_volume 1563.053010
_symmetry_space_group_name_H-M "P 21/C"
_symmetry_group_IT_number 14
_symmetry_cell_setting 'monoclinic'
loop_
_space_group_symop_operation_xyz
x,y,z
-x,1/2+y,1/2-z
-x,-y,-z
x,1/2-y,1/2+z
loop_
_atom_site_type_symbol
_atom_site_label
_atom_site_fract_x
_atom_site_fract_y
_atom_site_fract_z
Si Si1 0.883671 0.133041 0.478878
Si Si2 0.313441 0.270084 0.833031
Si Si3 0.233308 0.881386 0.695816
Si Si4 0.442206 0.620970 0.464159
Si Si5 0.157032 0.084741 0.925470
Si Si6 0.883736 0.631972 0.384684
Si Si7 0.932082 0.502842 0.879255
Si Si8 0.957901 0.571173 0.707881
O O1 0.657161 0.203580 0.513571
O O2 0.837290 0.061031 0.433637
O O3 0.044384 0.281782 0.465026
O O4 0.000000 0.000000 0.500000
O O5 0.533227 0.354943 0.805060
O O6 0.324342 0.170382 0.878724
O O7 0.248131 0.145339 0.799095
O O8 0.145664 0.413140 0.849632
O O9 0.235058 0.965948 0.646557
O O10 0.128613 0.706648 0.703273
O O11 0.109099 0.997054 0.739583
O O12 0.500000 0.500000 0.500000
O O13 0.267049 0.537875 0.449014
O O14 0.639734 0.655033 0.416146
O O15 0.979916 0.992283 0.912133
O O16 0.923790 0.564038 0.331674
O O17 0.990295 0.808137 0.378660
#
# Coordination Sequence:
#
# PCOD8127355 Si02
#       8
#     4   4   4   4   4   4   4   4
#     4  11  24  42  63  93 134 171 217 275 326 378
#     4   9  22  41  65  89 127 168 206 258 329 384
#     4  11  22  42  67  94 130 165 214 266 319 391
#     4  12  25  38  67  93 121 178 219 257 328 393
#     4  10  22  42  61  88 129 166 211 270 317 376
#     4  11  23  43  63  92 132 166 216 268 322 390
#     4  10  24  41  63  94 131 167 214 272 322 379
#     4  10  23  40  64  97 124 168 208 268 322 381
#
# _framework density 20.472753999999998
#
# number of rings (size 3 to 8) (size 9 to 14) (size 15 to 20)
#    0.000    1.500    1.250    3.375    3.500    6.500 
#    0.000    2.500    0.000    0.000    0.000    0.000 
#    0.000    0.000    0.000    0.000    0.000    0.000 
#
# Total GULP energy -396860.284966 kJ/mol
# GULP energy per Si atom -12401.883905 kJ/mol
# Density = 2.042616 g / cm^3
# Si number density = 20.472754 Si / 1000 Ang^3
#
#
#
# Elastic Constant Matrix: (Units=GPa)
#
#
# Indices 1 2 3 4 5 6 
#
# 1 76.3722 23.9856 40.2464 0.0000 -0.5394 0.0000
# 2 23.9856 118.3732 45.9357 0.0000 -6.0865 0.0000
# 3 40.2464 45.9357 113.4465 0.0000 7.2158 0.0000
# 4 0.0000 0.0000 0.0000 39.7341 0.0000 6.0783
# 5 -0.5394 -6.0865 7.2158 0.0000 19.1158 0.0000
# 6 0.0000 0.0000 0.0000 6.0783 0.0000 27.8680
#
#
#
# Elastic Compliance Matrix: (Units=1/GPa)
#
#
# Indices 1 2 3 4 5 6 
#
# 1 0.016346 -0.001061 -0.005509 0.000000 0.002203 0.000000
# 2 -0.001061 0.010548 -0.004208 0.000000 0.004917 0.000000
# 3 -0.005509 -0.004208 0.012877 0.000000 -0.006356 0.000000
# 4 0.000000 0.000000 0.000000 0.026036 0.000000 -0.005679
# 5 0.002203 0.004917 -0.006356 0.000000 0.056340 0.000000
# 6 0.000000 0.000000 0.000000 -0.005679 0.000000 0.037122
#
#
# Mechanical properties :
#
#
# Convention : Reuss Voigt Hill
#
# Bulk Modulus (GPa) = 54.89746 58.72525 56.81135
# Shear Modulus (GPa) = 26.75270 30.54519 28.64894
#
# Velocity S-wave (km/s) = 3.61882 3.86682 3.74487
# Velocity P-wave (km/s) = 6.65839 6.97734 6.81973
#
# Compressibility (1/GPa) = 0.01821578
#
# Stress axis : x y z
#
# Youngs Moduli (GPa) = 61.17759 94.80091 77.65633
#
# Poissons Ratio (x) = 0.10057 0.42784
# Poissons Ratio (y) = 0.06490 0.32675
# Poissons Ratio (z) = 0.33706 0.39888
#
# Static dielectric constant tensor:
#      x y z
#    x 3.542960 0.000000 0.016650 
#    y 0.000000 3.952210 0.000000 
#    z 0.016650 0.000000 3.659180 
# 
# 
# High freq. dielectric constant tensor:
#      x y z
#    x 1.792990 0.000000 0.005410 
#    y 0.000000 1.814940 0.000000 
#    z 0.005410 0.000000 1.807630 
# 
# From -- ./inp_files/78793.got.cif
#   From: 2010.03.12/outbox.cif.g09.slc.cpg/sg14_40_cif.got.tgz:78793.got - 2010.03.31 13:35:05.
