data_PCOD8127334
_publ_section_title
;
Structure prediction by ZEFSAII (Michael W. Deem and Ramdas Pophale) SiO2 
 PCOD8127334
Probable space group: P 21/C
;
_chemical_formula_sum "Si O2"
_cell_formula_units_Z 28
_cell_length_a 7.646623
_cell_length_b 21.294494
_cell_length_c 13.195737
_cell_angle_alpha 90.000000
_cell_angle_beta 143.653457
_cell_angle_gamma 90.000000
_cell_volume 1273.449966
_symmetry_space_group_name_H-M "P 21/C"
_symmetry_group_IT_number 14
_symmetry_cell_setting 'monoclinic'
loop_
_space_group_symop_operation_xyz
x,y,z
-x,1/2+y,1/2-z
-x,-y,-z
x,1/2-y,1/2+z
loop_
_atom_site_type_symbol
_atom_site_label
_atom_site_fract_x
_atom_site_fract_y
_atom_site_fract_z
Si Si1 0.218849 0.802407 0.362599
Si Si2 0.438244 0.186611 0.896118
Si Si3 0.832077 0.548372 0.061119
Si Si4 0.464876 0.577539 0.084457
Si Si5 0.541986 0.147479 0.730239
Si Si6 0.539927 0.067085 0.066998
Si Si7 0.103493 0.428970 0.535412
O O1 0.328810 0.739436 0.466069
O O2 0.290868 0.861665 0.466724
O O3 0.365229 0.807915 0.319701
O O4 0.867163 0.797239 0.190567
O O5 0.395158 0.186585 0.753659
O O6 0.569564 0.120021 0.994898
O O7 0.693172 0.554194 0.107044
O O8 0.176452 0.565147 0.227083
O O9 0.774896 0.476455 0.999652
O O10 0.686601 0.594889 0.912708
O O11 0.658591 0.593530 0.272134
O O12 0.825115 0.115684 0.912445
O O13 0.244695 0.081196 0.991449
O O14 0.500000 0.000000 0.000000
O O15 0.000000 0.500000 0.500000
#
# Coordination Sequence:
#
# PCOD8127334 Si02
#       7
#     4   4   4   4   4   4   4
#     4  11  28  48  69 104 142 191 237 296 353 435
#     4  12  28  49  73 103 146 187 246 294 363 431
#     4  10  22  41  71 103 133 184 234 297 350 425
#     4  10  22  41  69  97 145 179 235 286 363 418
#     4  11  25  47  73 101 145 187 240 294 362 425
#     4  12  26  43  71 107 144 182 245 297 359 428
#     4  12  23  42  69 106 144 189 232 295 361 421
#
# _framework density 21.987511999999999
#
# number of rings (size 3 to 8) (size 9 to 14) (size 15 to 20)
#    0.000    0.857    2.857    3.429   10.000    2.857 
#    0.000    0.000    0.000    0.000    0.000    0.000 
#    0.000    0.000    0.000    0.000    0.000    0.000 
#
# Total GULP energy -347372.025572 kJ/mol
# GULP energy per Si atom -12406.143770 kJ/mol
# Density = 2.193747 g / cm^3
# Si number density = 21.987512 Si / 1000 Ang^3
#
#
#
# Elastic Constant Matrix: (Units=GPa)
#
#
# Indices 1 2 3 4 5 6 
#
# 1 86.5983 34.8017 29.0805 0.0000 -11.6288 0.0000
# 2 34.8017 123.3826 41.5649 0.0000 -8.1958 0.0000
# 3 29.0805 41.5649 117.8353 0.0000 -0.7960 0.0000
# 4 0.0000 0.0000 0.0000 37.2107 0.0000 -2.4199
# 5 -11.6288 -8.1958 -0.7960 0.0000 42.0660 0.0000
# 6 0.0000 0.0000 0.0000 -2.4199 0.0000 25.8072
#
#
#
# Elastic Compliance Matrix: (Units=1/GPa)
#
#
# Indices 1 2 3 4 5 6 
#
# 1 0.013959 -0.002915 -0.002395 0.000000 0.003246 0.000000
# 2 -0.002915 0.009934 -0.002778 0.000000 0.001077 0.000000
# 3 -0.002395 -0.002778 0.010050 0.000000 -0.001013 0.000000
# 4 0.000000 0.000000 0.000000 0.027039 0.000000 0.002535
# 5 0.003246 0.001077 -0.001013 0.000000 0.024860 0.000000
# 6 0.000000 0.000000 0.000000 0.002535 0.000000 0.038987
#
#
# Mechanical properties :
#
#
# Convention : Reuss Voigt Hill
#
# Bulk Modulus (GPa) = 56.27759 59.85670 58.06714
# Shear Modulus (GPa) = 34.03048 35.84137 34.93593
#
# Velocity S-wave (km/s) = 3.93837 4.04180 3.99042
# Velocity P-wave (km/s) = 6.80675 7.00455 6.90636
#
# Compressibility (1/GPa) = 0.01776906
#
# Stress axis : x y z
#
# Youngs Moduli (GPa) = 71.63803 100.66110 99.49923
#
# Poissons Ratio (x) = 0.29343 0.23828
# Poissons Ratio (y) = 0.20882 0.27636
# Poissons Ratio (z) = 0.17156 0.27959
#
# Static dielectric constant tensor:
#      x y z
#    x 3.740520 0.000000 -0.247380 
#    y 0.000000 3.842400 0.000000 
#    z -0.247380 0.000000 4.307990 
# 
# 
# High freq. dielectric constant tensor:
#      x y z
#    x 1.872250 0.000000 -0.000410 
#    y 0.000000 1.856600 0.000000 
#    z -0.000410 0.000000 1.877220 
# 
# From -- ./inp_files/16933.got.cif
#   From: 2010.03.12/outbox.cif.g09.slc.cpg/sg14_9_cif.got.tgz:16933.got - 2010.03.31 13:35:05.
