data_PCOD8127525
_publ_section_title
;
Structure prediction by ZEFSAII (Michael W. Deem and Ramdas Pophale) SiO2 
 PCOD8127525
Probable space group: P 21/C
;
_chemical_formula_sum "Si O2"
_cell_formula_units_Z 20
_cell_length_a 11.123536
_cell_length_b 5.114857
_cell_length_c 25.459304
_cell_angle_alpha 90.000000
_cell_angle_beta 33.622445
_cell_angle_gamma 90.000000
_cell_volume 802.068330
_symmetry_space_group_name_H-M "P 21/C"
_symmetry_group_IT_number 14
_symmetry_cell_setting 'monoclinic'
loop_
_space_group_symop_operation_xyz
x,y,z
-x,1/2+y,1/2-z
-x,-y,-z
x,1/2-y,1/2+z
loop_
_atom_site_type_symbol
_atom_site_label
_atom_site_fract_x
_atom_site_fract_y
_atom_site_fract_z
Si Si1 0.563072 0.928474 0.561206
Si Si2 0.788425 0.113032 0.152345
Si Si3 0.271885 0.068602 0.165216
Si Si4 0.306567 0.386300 0.871950
Si Si5 0.941946 0.813532 0.354488
O O1 0.401537 0.694670 0.605055
O O2 0.702359 0.857936 0.562085
O O3 0.727211 0.965000 0.452592
O O4 0.433385 0.194664 0.618902
O O5 0.813283 0.350911 0.102436
O O6 0.555711 0.121288 0.264377
O O7 0.968589 0.128200 0.132090
O O8 0.825862 0.849610 0.106210
O O9 0.114579 0.127503 0.173800
O O10 0.123566 0.024365 0.270943
#
# Coordination Sequence:
#
# PCOD8127525 Si02
#       5
#     4   4   4   4   4
#     4  12  27  49  77 110 149 190 244 310 361 434
#     4  10  23  41  72 103 144 192 237 291 365 428
#     4  12  28  49  73 110 152 189 244 308 359 437
#     4  10  22  43  69 107 143 188 235 303 357 423
#     4  12  28  48  79 108 146 200 246 295 374 438
#
# _framework density 24.935531999999998
#
# number of rings (size 3 to 8) (size 9 to 14) (size 15 to 20)
#    0.000    0.800    2.000    3.600    5.600    8.000 
#    0.000    0.000    0.000    0.000    0.000    0.000 
#    0.000    0.000    0.000    0.000    0.000    0.000 
#
# Total GULP energy -248195.551786 kJ/mol
# GULP energy per Si atom -12409.777589 kJ/mol
# Density = 2.487878 g / cm^3
# Si number density = 24.935532 Si / 1000 Ang^3
#
#
#
# Elastic Constant Matrix: (Units=GPa)
#
#
# Indices 1 2 3 4 5 6 
#
# 1 115.1982 16.3876 27.3624 0.0000 -1.4336 0.0000
# 2 16.3876 134.8769 73.6638 0.0000 0.3602 0.0000
# 3 27.3624 73.6638 145.3547 0.0000 4.2054 0.0000
# 4 0.0000 0.0000 0.0000 25.4490 0.0000 -2.0859
# 5 -1.4336 0.3602 4.2054 0.0000 31.2188 0.0000
# 6 0.0000 0.0000 0.0000 -2.0859 0.0000 26.9489
#
#
#
# Elastic Compliance Matrix: (Units=1/GPa)
#
#
# Indices 1 2 3 4 5 6 
#
# 1 0.009105 -0.000224 -0.001619 0.000000 0.000639 0.000000
# 2 -0.000224 0.010268 -0.005178 0.000000 0.000569 0.000000
# 3 -0.001619 -0.005178 0.009847 0.000000 -0.001341 0.000000
# 4 0.000000 0.000000 0.000000 0.039545 0.000000 0.003061
# 5 0.000639 0.000569 -0.001341 0.000000 0.032235 0.000000
# 6 0.000000 0.000000 0.000000 0.003061 0.000000 0.037344
#
#
# Mechanical properties :
#
#
# Convention : Reuss Voigt Hill
#
# Bulk Modulus (GPa) = 65.88132 70.02860 67.95496
# Shear Modulus (GPa) = 31.75693 35.25775 33.50734
#
# Velocity S-wave (km/s) = 3.57257 3.76434 3.66971
# Velocity P-wave (km/s) = 6.59513 6.85846 6.72808
#
# Compressibility (1/GPa) = 0.01517881
#
# Stress axis : x y z
#
# Youngs Moduli (GPa) = 109.82929 97.39206 101.54946
#
# Poissons Ratio (x) = 0.02179 0.16442
# Poissons Ratio (y) = 0.02457 0.52582
# Poissons Ratio (z) = 0.17783 0.50429
#
# Static dielectric constant tensor:
#      x y z
#    x 4.605180 0.000000 0.046540 
#    y 0.000000 4.570320 0.000000 
#    z 0.046540 0.000000 4.577800 
# 
# 
# High freq. dielectric constant tensor:
#      x y z
#    x 2.006140 0.000000 0.000510 
#    y 0.000000 1.990890 0.000000 
#    z 0.000510 0.000000 2.003780 
# 
# From -- ./inp_files/76891.got.cif
#   From: 2010.03.12/outbox.cif.g09.slc.cpg/sg14_39_cif.got.tgz:76891.got - 2010.03.31 13:35:05.
