data_PCOD8127005
_publ_section_title
;
Structure prediction by ZEFSAII (Michael W. Deem and Ramdas Pophale) SiO2 
 PCOD8127005
Probable space group: P 21/C
;
_chemical_formula_sum "Si O2"
_cell_formula_units_Z 32
_cell_length_a 15.813371
_cell_length_b 8.873094
_cell_length_c 25.025855
_cell_angle_alpha 90.000000
_cell_angle_beta 152.850014
_cell_angle_gamma 90.000000
_cell_volume 1602.356983
_symmetry_space_group_name_H-M "P 21/C"
_symmetry_group_IT_number 14
_symmetry_cell_setting 'monoclinic'
loop_
_space_group_symop_operation_xyz
x,y,z
-x,1/2+y,1/2-z
-x,-y,-z
x,1/2-y,1/2+z
loop_
_atom_site_type_symbol
_atom_site_label
_atom_site_fract_x
_atom_site_fract_y
_atom_site_fract_z
Si Si1 0.546722 0.487507 0.304403
Si Si2 0.003551 0.127448 0.580351
Si Si3 0.482055 0.943262 0.930047
Si Si4 0.125525 0.852287 0.073719
Si Si5 0.626805 0.450085 0.901128
Si Si6 0.882495 0.307574 0.825634
Si Si7 0.608035 0.701238 0.691670
Si Si8 0.723065 0.779755 0.986391
O O1 0.691568 0.378177 0.357491
O O2 0.424384 0.566472 0.190180
O O3 0.406973 0.383849 0.259672
O O4 0.653344 0.610554 0.400149
O O5 0.177279 0.212891 0.705567
O O6 0.979059 0.207359 0.509350
O O7 0.822819 0.138500 0.516857
O O8 0.049610 0.950290 0.601272
O O9 0.287383 0.856394 0.808489
O O10 0.651846 0.838572 0.004378
O O11 0.504509 0.101440 0.912956
O O12 0.500000 0.000000 0.000000
O O13 0.181176 0.816002 0.166382
O O14 0.000000 0.000000 0.000000
O O15 0.476415 0.367645 0.853614
O O16 0.630988 0.619138 0.924006
O O17 0.053012 0.236750 0.887304
#
# Coordination Sequence:
#
# PCOD8127005 Si02
#       8
#     4   4   4   4   4   4   4   4
#     4  11  21  33  53  86 128 166 193 231 294 374
#     4  10  23  34  53  82 125 163 197 238 295 367
#     4  10  23  45  67  84 114 158 211 268 317 355
#     4  12  21  33  54  89 130 162 198 235 290 376
#     4  11  21  35  56  86 126 160 196 241 296 374
#     4  10  22  39  61  88 121 163 203 251 310 373
#     4  10  22  38  57  84 117 159 204 245 304 365
#     4  10  22  39  60  88 123 160 203 253 308 369
#
# _framework density 19.970583000000001
#
# number of rings (size 3 to 8) (size 9 to 14) (size 15 to 20)
#    0.000    1.500    2.500    2.625    8.750    0.000 
#    0.000    4.375    0.000    0.000    0.000    0.000 
#    0.000    0.000    0.000    0.000    0.000    0.000 
#
# Total GULP energy -396572.041362 kJ/mol
# GULP energy per Si atom -12392.876293 kJ/mol
# Density = 1.992513 g / cm^3
# Si number density = 19.970583 Si / 1000 Ang^3
#
#
#
# Elastic Constant Matrix: (Units=GPa)
#
#
# Indices 1 2 3 4 5 6 
#
# 1 116.7818 56.8255 57.9177 0.0000 1.3669 0.0000
# 2 56.8255 93.0099 50.2954 0.0000 0.7542 0.0000
# 3 57.9177 50.2954 86.3038 0.0000 10.5446 0.0000
# 4 0.0000 0.0000 0.0000 27.0048 0.0000 7.2548
# 5 1.3669 0.7542 10.5446 0.0000 28.8715 0.0000
# 6 0.0000 0.0000 0.0000 7.2548 0.0000 31.0739
#
#
#
# Elastic Compliance Matrix: (Units=1/GPa)
#
#
# Indices 1 2 3 4 5 6 
#
# 1 0.014485 -0.005077 -0.007007 0.000000 0.002006 0.000000
# 2 -0.005077 0.017742 -0.007228 0.000000 0.002417 0.000000
# 3 -0.007007 -0.007228 0.021393 0.000000 -0.007293 0.000000
# 4 0.000000 0.000000 0.000000 0.039508 0.000000 -0.009224
# 5 0.002006 0.002417 -0.007293 0.000000 0.037142 0.000000
# 6 0.000000 0.000000 0.000000 -0.009224 0.000000 0.034335
#
#
# Mechanical properties :
#
#
# Convention : Reuss Voigt Hill
#
# Bulk Modulus (GPa) = 66.68459 69.57474 68.12967
# Shear Modulus (GPa) = 24.01216 26.12717 25.06966
#
# Velocity S-wave (km/s) = 3.47129 3.62094 3.54691
# Velocity P-wave (km/s) = 7.03778 7.23850 7.13885
#
# Compressibility (1/GPa) = 0.01499597
#
# Stress axis : x y z
#
# Youngs Moduli (GPa) = 69.03615 56.36259 46.74493
#
# Poissons Ratio (x) = 0.28615 0.32755
# Poissons Ratio (y) = 0.35049 0.33787
# Poissons Ratio (z) = 0.48375 0.40738
#
# Static dielectric constant tensor:
#      x y z
#    x 3.637390 0.000000 0.450930 
#    y 0.000000 3.740050 0.000000 
#    z 0.450930 0.000000 3.646450 
# 
# 
# High freq. dielectric constant tensor:
#      x y z
#    x 1.752450 0.000000 0.041130 
#    y 0.000000 1.791900 0.000000 
#    z 0.041130 0.000000 1.763690 
# 
# From -- ./inp_files/73761.got.cif
#   From: 2010.03.12/outbox.cif.g09.slc.cpg/sg14_37_cif.got.tgz:73761.got - 2010.03.31 13:35:05.
