data_PCOD8127921
_publ_section_title
;
Structure prediction by ZEFSAII (Michael W. Deem and Ramdas Pophale) SiO2 
 PCOD8127921
Probable space group: P 21/C
;
_chemical_formula_sum "Si O2"
_cell_formula_units_Z 24
_cell_length_a 7.853504
_cell_length_b 11.396762
_cell_length_c 12.900434
_cell_angle_alpha 90.000000
_cell_angle_beta 99.662000
_cell_angle_gamma 90.000000
_cell_volume 1138.268430
_symmetry_space_group_name_H-M "P 21/C"
_symmetry_group_IT_number 14
_symmetry_cell_setting 'monoclinic'
loop_
_space_group_symop_operation_xyz
x,y,z
-x,1/2+y,1/2-z
-x,-y,-z
x,1/2-y,1/2+z
loop_
_atom_site_type_symbol
_atom_site_label
_atom_site_fract_x
_atom_site_fract_y
_atom_site_fract_z
Si Si1 0.130615 0.147203 0.289368
Si Si2 0.280920 0.107737 0.777594
Si Si3 0.667707 0.048879 0.572361
Si Si4 0.345958 0.833013 0.221463
Si Si5 0.198032 0.608610 0.128214
Si Si6 0.989625 0.026761 0.880971
O O1 0.224146 0.259021 0.249048
O O2 0.985745 0.168643 0.363051
O O3 0.266242 0.058245 0.352226
O O4 0.031227 0.094185 0.181566
O O5 0.487807 0.104072 0.814192
O O6 0.178058 0.077787 0.871680
O O7 0.221569 0.021270 0.679002
O O8 0.635114 0.154696 0.651122
O O9 0.795782 0.096400 0.496181
O O10 0.500000 0.000000 0.500000
O O11 0.345813 0.695686 0.188748
O O12 0.168904 0.888231 0.162241
O O13 0.000000 0.000000 0.000000
#
# Coordination Sequence:
#
# PCOD8127921 Si02
#       6
#     4   4   4   4   4   4
#     4  10  23  43  67  96 138 175 231 281 330 408
#     4  11  23  43  68  98 139 176 225 284 337 403
#     4  11  22  43  70 100 131 182 232 277 345 408
#     4  11  24  44  68 100 140 172 229 288 336 411
#     4  11  23  43  69 101 134 181 227 279 344 402
#     4  10  24  45  65  97 135 180 229 279 341 399
#
# _framework density 21.084655999999999
#
# number of rings (size 3 to 8) (size 9 to 14) (size 15 to 20)
#    0.000    1.333    3.333    1.500    2.333    4.667 
#    3.000    0.000    0.000    0.000    0.000    0.000 
#    0.000    0.000    0.000    0.000    0.000    0.000 
#
# Total GULP energy -297476.415153 kJ/mol
# GULP energy per Si atom -12394.850631 kJ/mol
# Density = 2.103667 g / cm^3
# Si number density = 21.084656 Si / 1000 Ang^3
#
#
#
# Elastic Constant Matrix: (Units=GPa)
#
#
# Indices 1 2 3 4 5 6 
#
# 1 121.4603 25.0648 47.0620 0.0000 -24.1197 0.0000
# 2 25.0648 103.5121 45.2915 0.0000 -11.2455 0.0000
# 3 47.0620 45.2915 135.3416 0.0000 -15.4706 0.0000
# 4 0.0000 0.0000 0.0000 16.7686 0.0000 -5.6530
# 5 -24.1197 -11.2455 -15.4706 0.0000 27.7730 0.0000
# 6 0.0000 0.0000 0.0000 -5.6530 0.0000 33.8008
#
#
#
# Elastic Compliance Matrix: (Units=1/GPa)
#
#
# Indices 1 2 3 4 5 6 
#
# 1 0.010952 -0.000623 -0.002714 0.000000 0.007747 0.000000
# 2 -0.000623 0.011538 -0.003388 0.000000 0.002244 0.000000
# 3 -0.002714 -0.003388 0.009655 0.000000 0.001649 0.000000
# 4 0.000000 0.000000 0.000000 0.063199 0.000000 0.010570
# 5 0.007747 0.002244 0.001649 0.000000 0.044561 0.000000
# 6 0.000000 0.000000 0.000000 0.010570 0.000000 0.031353
#
#
# Mechanical properties :
#
#
# Convention : Reuss Voigt Hill
#
# Bulk Modulus (GPa) = 53.49230 66.12786 59.81008
# Shear Modulus (GPa) = 26.18645 31.86151 29.02398
#
# Velocity S-wave (km/s) = 3.52798 3.89153 3.71421
# Velocity P-wave (km/s) = 6.48235 7.18493 6.84266
#
# Compressibility (1/GPa) = 0.01869428
#
# Stress axis : x y z
#
# Youngs Moduli (GPa) = 91.30952 86.67266 103.57492
#
# Poissons Ratio (x) = 0.05396 0.28113
# Poissons Ratio (y) = 0.05685 0.35092
# Poissons Ratio (z) = 0.24784 0.29365
#
# Static dielectric constant tensor:
#      x y z
#    x 4.023980 0.000000 -0.225480 
#    y 0.000000 3.894950 0.000000 
#    z -0.225480 0.000000 3.941220 
# 
# 
# High freq. dielectric constant tensor:
#      x y z
#    x 1.843430 0.000000 -0.011490 
#    y 0.000000 1.830120 0.000000 
#    z -0.011490 0.000000 1.807830 
# 
# From -- ./inp_files/24249.got.cif
#   From: 2010.03.12/outbox.cif.g09.slc.cpg/sg14_13_cif.got.tgz:24249.got - 2010.03.31 13:35:05.
