data_PCOD8127097
_publ_section_title
;
Structure prediction by ZEFSAII (Michael W. Deem and Ramdas Pophale) SiO2 
 PCOD8127097
Probable space group: P 21/C
;
_chemical_formula_sum "Si O2"
_cell_formula_units_Z 28
_cell_length_a 10.874678
_cell_length_b 5.133023
_cell_length_c 21.697735
_cell_angle_alpha 90.000000
_cell_angle_beta 72.933023
_cell_angle_gamma 90.000000
_cell_volume 1157.829994
_symmetry_space_group_name_H-M "P 21/C"
_symmetry_group_IT_number 14
_symmetry_cell_setting 'monoclinic'
loop_
_space_group_symop_operation_xyz
x,y,z
-x,1/2+y,1/2-z
-x,-y,-z
x,1/2-y,1/2+z
loop_
_atom_site_type_symbol
_atom_site_label
_atom_site_fract_x
_atom_site_fract_y
_atom_site_fract_z
Si Si1 0.442215 0.233708 0.083141
Si Si2 0.992976 0.136449 0.210549
Si Si3 0.331191 0.239855 0.385129
Si Si4 0.218811 0.868138 0.115329
Si Si5 0.610830 0.380126 0.816975
Si Si6 0.318995 0.921020 0.502535
Si Si7 0.736744 0.275676 0.676438
O O1 0.417386 0.320211 0.158389
O O2 0.595835 0.202250 0.048062
O O3 0.355540 0.995099 0.076449
O O4 0.401449 0.484376 0.048957
O O5 0.106852 0.072535 0.145179
O O6 0.959989 0.872827 0.252951
O O7 0.875130 0.234932 0.187697
O O8 0.486672 0.289119 0.359391
O O9 0.259922 0.507048 0.377803
O O10 0.282969 0.152341 0.460405
O O11 0.294034 0.011741 0.342854
O O12 0.251506 0.709984 0.173308
O O13 0.192299 0.701620 0.055995
O O14 0.626774 0.361255 0.741474
#
# Coordination Sequence:
#
# PCOD8127097 Si02
#       7
#     4   4   4   4   4   4   4
#     4   9  19  36  66  95 133 164 228 283 337 383
#     4  12  26  47  71  98 135 173 232 289 331 396
#     4  11  26  41  66  92 142 175 212 270 339 418
#     4  11  22  38  73  96 128 175 230 287 328 388
#     4  10  22  39  63 101 125 172 225 282 340 395
#     4   9  21  39  59 102 129 178 218 276 335 402
#     4  12  25  44  63  97 134 180 216 268 344 405
#
# _framework density 24.18317
#
# number of rings (size 3 to 8) (size 9 to 14) (size 15 to 20)
#    0.000    1.429    1.429    3.857   10.000    0.000 
#    0.000    1.429    0.000    0.000    0.000    0.000 
#    0.000    0.000    0.000    0.000    0.000    0.000 
#
# Total GULP energy -346982.661796 kJ/mol
# GULP energy per Si atom -12392.237921 kJ/mol
# Density = 2.412813 g / cm^3
# Si number density = 24.183170 Si / 1000 Ang^3
#
#
#
# Elastic Constant Matrix: (Units=GPa)
#
#
# Indices 1 2 3 4 5 6 
#
# 1 69.8514 0.8250 8.6536 0.0000 1.7963 0.0000
# 2 0.8250 48.3864 -3.7868 0.0000 -12.1737 0.0000
# 3 8.6536 -3.7868 71.2362 0.0000 -2.3752 0.0000
# 4 0.0000 0.0000 0.0000 27.6210 0.0000 -2.6004
# 5 1.7963 -12.1737 -2.3752 0.0000 17.3238 0.0000
# 6 0.0000 0.0000 0.0000 -2.6004 0.0000 26.2259
#
#
#
# Elastic Compliance Matrix: (Units=1/GPa)
#
#
# Indices 1 2 3 4 5 6 
#
# 1 0.014630 -0.001029 -0.001915 0.000000 -0.002503 0.000000
# 2 -0.001029 0.025445 0.002087 0.000000 0.018274 0.000000
# 3 -0.001915 0.002087 0.014503 0.000000 0.003654 0.000000
# 4 0.000000 0.000000 0.000000 0.036546 0.000000 0.003624
# 5 -0.002503 0.018274 0.003654 0.000000 0.071326 0.000000
# 6 0.000000 0.000000 0.000000 0.003624 0.000000 0.038489
#
#
# Mechanical properties :
#
#
# Convention : Reuss Voigt Hill
#
# Bulk Modulus (GPa) = 18.91657 22.31752 20.61704
# Shear Modulus (GPa) = 22.69885 26.48629 24.59257
#
# Velocity S-wave (km/s) = 3.06702 3.31303 3.19239
# Velocity P-wave (km/s) = 4.51457 4.88707 4.70450
#
# Compressibility (1/GPa) = 0.05286370
#
# Stress axis : x y z
#
# Youngs Moduli (GPa) = 68.35321 39.29984 68.95018
#
# Poissons Ratio (x) = 0.04044 0.13206
# Poissons Ratio (y) = 0.07033 -0.14389
# Poissons Ratio (z) = 0.13092 -0.08202
#
# Static dielectric constant tensor:
#      x y z
#    x 4.005900 0.000000 0.086180 
#    y 0.000000 4.225580 0.000000 
#    z 0.086180 0.000000 4.634400 
# 
# 
# High freq. dielectric constant tensor:
#      x y z
#    x 1.917440 0.000000 0.007520 
#    y 0.000000 1.966240 0.000000 
#    z 0.007520 0.000000 1.973100 
# 
# From -- ./inp_files/66469.got.cif
#   From: 2010.03.12/outbox.cif.g09.slc.cpg/sg14_34_cif.got.tgz:66469.got - 2010.03.31 13:35:05.
