data_PCOD8127718
_publ_section_title
;
Structure prediction by ZEFSAII (Michael W. Deem and Ramdas Pophale) SiO2 
 PCOD8127718
Probable space group: P 21/C
;
_chemical_formula_sum "Si O2"
_cell_formula_units_Z 28
_cell_length_a 16.074727
_cell_length_b 14.053204
_cell_length_c 10.874660
_cell_angle_alpha 90.000000
_cell_angle_beta 148.033702
_cell_angle_gamma 90.000000
_cell_volume 1300.574600
_symmetry_space_group_name_H-M "P 21/C"
_symmetry_group_IT_number 14
_symmetry_cell_setting 'monoclinic'
loop_
_space_group_symop_operation_xyz
x,y,z
-x,1/2+y,1/2-z
-x,-y,-z
x,1/2-y,1/2+z
loop_
_atom_site_type_symbol
_atom_site_label
_atom_site_fract_x
_atom_site_fract_y
_atom_site_fract_z
Si Si1 0.242942 0.533569 0.267118
Si Si2 0.024470 0.123986 0.417899
Si Si3 0.302653 0.456371 0.784752
Si Si4 0.818098 0.150993 0.939189
Si Si5 0.707958 0.153996 0.398603
Si Si6 0.526976 0.957488 0.738569
Si Si7 0.000271 0.834456 0.074900
O O1 0.329718 0.592499 0.269597
O O2 0.359809 0.511070 0.524439
O O3 0.095930 0.597838 0.124059
O O4 0.183735 0.434959 0.133500
O O5 0.074079 0.234569 0.477159
O O6 0.940158 0.100394 0.184238
O O7 0.297059 0.569319 0.750767
O O8 0.373805 0.409545 0.749648
O O9 0.136194 0.411922 0.611916
O O10 0.416128 0.456882 0.046383
O O11 0.915277 0.190821 0.946499
O O12 0.715105 0.233732 0.875617
O O13 0.568047 0.129607 0.318024
O O14 0.875458 0.125648 0.669530
#
# Coordination Sequence:
#
# PCOD8127718 Si02
#       7
#     4   4   4   4   4   4   4
#     4  11  22  43  64  94 140 173 222 273 337 399
#     4  10  23  39  67  97 125 176 221 284 326 388
#     4  11  24  44  69  97 137 178 223 275 339 402
#     4  11  21  42  70  96 128 174 223 279 327 396
#     4  11  24  41  70  99 133 173 229 269 345 401
#     4  11  25  44  65  97 137 184 214 278 343 403
#     4  11  23  43  69 100 127 173 234 278 326 400
#
# _framework density 21.528946000000001
#
# number of rings (size 3 to 8) (size 9 to 14) (size 15 to 20)
#    0.000    1.143    4.286    1.714    4.000    0.000 
#    5.143    1.429    0.000    0.000    0.000    0.000 
#    0.000    0.000    0.000    0.000    0.000    0.000 
#
# Total GULP energy -347170.109931 kJ/mol
# GULP energy per Si atom -12398.932498 kJ/mol
# Density = 2.147995 g / cm^3
# Si number density = 21.528946 Si / 1000 Ang^3
#
#
#
# Elastic Constant Matrix: (Units=GPa)
#
#
# Indices 1 2 3 4 5 6 
#
# 1 90.8988 37.6466 23.8052 0.0000 -7.0506 0.0000
# 2 37.6466 89.5343 44.4445 0.0000 7.1894 0.0000
# 3 23.8052 44.4445 107.9431 0.0000 -13.1964 0.0000
# 4 0.0000 0.0000 0.0000 17.2157 0.0000 -0.0480
# 5 -7.0506 7.1894 -13.1964 0.0000 36.0836 0.0000
# 6 0.0000 0.0000 0.0000 -0.0480 0.0000 31.2245
#
#
#
# Elastic Compliance Matrix: (Units=1/GPa)
#
#
# Indices 1 2 3 4 5 6 
#
# 1 0.013849 -0.006104 -0.000064 0.000000 0.003899 0.000000
# 2 -0.006104 0.017703 -0.006825 0.000000 -0.007216 0.000000
# 3 -0.000064 -0.006825 0.012827 0.000000 0.006038 0.000000
# 4 0.000000 0.000000 0.000000 0.058087 0.000000 0.000089
# 5 0.003899 -0.007216 0.006038 0.000000 0.032121 0.000000
# 6 0.000000 0.000000 0.000000 0.000089 0.000000 0.032026
#
#
# Mechanical properties :
#
#
# Convention : Reuss Voigt Hill
#
# Bulk Modulus (GPa) = 54.37299 55.57431 54.97365
# Shear Modulus (GPa) = 25.15990 29.07010 27.11500
#
# Velocity S-wave (km/s) = 3.42227 3.67860 3.55275
# Velocity P-wave (km/s) = 6.39738 6.62666 6.51303
#
# Compressibility (1/GPa) = 0.01839149
#
# Stress axis : x y z
#
# Youngs Moduli (GPa) = 72.20991 56.48820 77.96313
#
# Poissons Ratio (x) = 0.34481 0.00500
# Poissons Ratio (y) = 0.44078 0.53209
# Poissons Ratio (z) = 0.00463 0.38553
#
# Static dielectric constant tensor:
#      x y z
#    x 3.952300 0.000000 -0.223650 
#    y 0.000000 3.715340 0.000000 
#    z -0.223650 0.000000 3.928830 
# 
# 
# High freq. dielectric constant tensor:
#      x y z
#    x 1.848360 0.000000 -0.018160 
#    y 0.000000 1.830130 0.000000 
#    z -0.018160 0.000000 1.849270 
# 
# From -- ./inp_files/34114.got.cif
#   From: 2010.03.12/outbox.cif.g09.slc.cpg/sg14_18_cif.got.tgz:34114.got - 2010.03.31 13:35:05.
