data_PCOD8127738
_publ_section_title
;
Structure prediction by ZEFSAII (Michael W. Deem and Ramdas Pophale) SiO2 
 PCOD8127738
Probable space group: P 21/C
;
_chemical_formula_sum "Si O2"
_cell_formula_units_Z 28
_cell_length_a 8.593841
_cell_length_b 21.898241
_cell_length_c 8.879684
_cell_angle_alpha 90.000000
_cell_angle_beta 47.594382
_cell_angle_gamma 90.000000
_cell_volume 1233.898408
_symmetry_space_group_name_H-M "P 21/C"
_symmetry_group_IT_number 14
_symmetry_cell_setting 'monoclinic'
loop_
_space_group_symop_operation_xyz
x,y,z
-x,1/2+y,1/2-z
-x,-y,-z
x,1/2-y,1/2+z
loop_
_atom_site_type_symbol
_atom_site_label
_atom_site_fract_x
_atom_site_fract_y
_atom_site_fract_z
Si Si1 0.977121 0.208077 0.780692
Si Si2 0.133395 0.318825 0.867755
Si Si3 0.952435 0.593980 0.555829
Si Si4 0.746027 0.474169 0.442244
Si Si5 0.047887 0.930514 0.656466
Si Si6 0.571898 0.347431 0.438690
Si Si7 0.507931 0.572418 0.766541
O O1 0.747986 0.204595 0.848558
O O2 0.010057 0.271852 0.841230
O O3 0.144250 0.200760 0.535718
O O4 0.995523 0.156760 0.895712
O O5 0.373135 0.325763 0.662328
O O6 0.007218 0.382682 0.939871
O O7 0.706676 0.577509 0.749834
O O8 0.106529 0.540111 0.509540
O O9 0.979913 0.600998 0.358414
O O10 0.660834 0.412449 0.431729
O O11 0.552709 0.518112 0.616172
O O12 0.904343 0.509130 0.222935
O O13 0.296673 0.945111 0.494244
O O14 0.514453 0.361060 0.301784
#
# Coordination Sequence:
#
# PCOD8127738 Si02
#       7
#     4   4   4   4   4   4   4
#     4  11  27  46  69  98 129 172 231 278 337 398
#     4  12  25  44  71  96 130 173 222 285 334 394
#     4  10  23  43  63 100 140 174 222 278 326 395
#     4  10  23  40  65 102 144 174 222 278 318 407
#     4  11  22  39  69  99 137 178 221 271 334 391
#     4  11  24  44  68 101 134 176 223 275 338 392
#     4  11  21  38  68  97 136 179 219 260 339 388
#
# _framework density 22.692305999999999
#
# number of rings (size 3 to 8) (size 9 to 14) (size 15 to 20)
#    0.000    1.143    4.286    3.000    0.000    9.714 
#    0.000    0.000    0.000    0.000    0.000    0.000 
#    0.000    0.000    0.000    0.000    0.000    0.000 
#
# Total GULP energy -347184.089298 kJ/mol
# GULP energy per Si atom -12399.431761 kJ/mol
# Density = 2.264066 g / cm^3
# Si number density = 22.692306 Si / 1000 Ang^3
#
#
#
# Elastic Constant Matrix: (Units=GPa)
#
#
# Indices 1 2 3 4 5 6 
#
# 1 66.0848 18.8863 28.2144 0.0000 -24.3196 0.0000
# 2 18.8863 74.5615 24.2750 0.0000 -15.1509 0.0000
# 3 28.2144 24.2750 103.6102 0.0000 -33.3834 0.0000
# 4 0.0000 0.0000 0.0000 16.5456 0.0000 -1.5676
# 5 -24.3196 -15.1509 -33.3834 0.0000 48.9966 0.0000
# 6 0.0000 0.0000 0.0000 -1.5676 0.0000 29.1022
#
#
#
# Elastic Compliance Matrix: (Units=1/GPa)
#
#
# Indices 1 2 3 4 5 6 
#
# 1 0.019593 -0.002717 -0.002353 0.000000 0.007282 0.000000
# 2 -0.002717 0.015198 -0.002231 0.000000 0.001831 0.000000
# 3 -0.002353 -0.002231 0.013090 0.000000 0.007061 0.000000
# 4 0.000000 0.000000 0.000000 0.060749 0.000000 0.003272
# 5 0.007282 0.001831 0.007061 0.000000 0.029401 0.000000
# 6 0.000000 0.000000 0.000000 0.003272 0.000000 0.034538
#
#
# Mechanical properties :
#
#
# Convention : Reuss Voigt Hill
#
# Bulk Modulus (GPa) = 30.04840 43.00090 36.52465
# Shear Modulus (GPa) = 25.21888 30.45426 27.83657
#
# Velocity S-wave (km/s) = 3.33729 3.66738 3.50622
# Velocity P-wave (km/s) = 5.30287 6.07648 5.70281
#
# Compressibility (1/GPa) = 0.03327964
#
# Stress axis : x y z
#
# Youngs Moduli (GPa) = 51.03921 65.79641 76.39406
#
# Poissons Ratio (x) = 0.17878 0.17972
# Poissons Ratio (y) = 0.13869 0.17044
# Poissons Ratio (z) = 0.12007 0.14679
#
# Static dielectric constant tensor:
#      x y z
#    x 4.463340 0.000000 -0.141380 
#    y 0.000000 4.053050 0.000000 
#    z -0.141380 0.000000 3.994720 
# 
# 
# High freq. dielectric constant tensor:
#      x y z
#    x 1.909390 0.000000 -0.011400 
#    y 0.000000 1.889120 0.000000 
#    z -0.011400 0.000000 1.889210 
# 
# From -- ./inp_files/10391.got.cif
#   From: 2010.03.12/outbox.cif.g09.slc.cpg/sg14_6_cif.got.tgz:10391.got - 2010.03.31 13:35:05.
