data_PCOD8127734
_publ_section_title
;
Structure prediction by ZEFSAII (Michael W. Deem and Ramdas Pophale) SiO2 
 PCOD8127734
Probable space group: P 21/C
;
_chemical_formula_sum "Si O2"
_cell_formula_units_Z 16
_cell_length_a 11.880092
_cell_length_b 7.223851
_cell_length_c 12.485517
_cell_angle_alpha 90.000000
_cell_angle_beta 134.538387
_cell_angle_gamma 90.000000
_cell_volume 763.749681
_symmetry_space_group_name_H-M "P 21/C"
_symmetry_group_IT_number 14
_symmetry_cell_setting 'monoclinic'
loop_
_space_group_symop_operation_xyz
x,y,z
-x,1/2+y,1/2-z
-x,-y,-z
x,1/2-y,1/2+z
loop_
_atom_site_type_symbol
_atom_site_label
_atom_site_fract_x
_atom_site_fract_y
_atom_site_fract_z
Si Si1 0.185187 0.050150 0.414414
Si Si2 0.830995 0.545264 0.656697
Si Si3 0.312398 0.499281 0.216395
Si Si4 0.381034 0.727707 0.592688
O O1 0.322317 0.899350 0.477583
O O2 0.017972 0.967509 0.266667
O O3 0.220251 0.240726 0.377854
O O4 0.188237 0.081653 0.546055
O O5 0.774609 0.457233 0.731132
O O6 0.747265 0.436900 0.503517
O O7 0.449223 0.347793 0.328585
O O8 0.384348 0.693647 0.217511
#
# Coordination Sequence:
#
# PCOD8127734 Si02
#       4
#     4   4   4   4
#     4  10  23  40  64  91 126 158 209 249 299 373
#     4  12  21  45  63  91 126 162 201 258 305 357
#     4  10  23  42  64  90 127 160 202 256 305 357
#     4  10  23  42  61  93 124 159 210 250 297 374
#
# _framework density 20.949271
#
# number of rings (size 3 to 8) (size 9 to 14) (size 15 to 20)
#    1.500    0.000    2.500    3.000    0.000    1.000 
#    9.000    2.500    0.000    0.000    0.000    0.000 
#    0.000    0.000    0.000    0.000    0.000    0.000 
#
# Total GULP energy -198245.990152 kJ/mol
# GULP energy per Si atom -12390.374385 kJ/mol
# Density = 2.090159 g / cm^3
# Si number density = 20.949271 Si / 1000 Ang^3
#
#
#
# Elastic Constant Matrix: (Units=GPa)
#
#
# Indices 1 2 3 4 5 6 
#
# 1 48.3537 10.2599 9.2634 0.0000 -6.1397 0.0000
# 2 10.2599 112.0457 39.4954 0.0000 11.9736 0.0000
# 3 9.2634 39.4954 81.4137 0.0000 16.6619 0.0000
# 4 0.0000 0.0000 0.0000 47.8061 0.0000 0.8798
# 5 -6.1397 11.9736 16.6619 0.0000 25.4046 0.0000
# 6 0.0000 0.0000 0.0000 0.8798 0.0000 24.5795
#
#
#
# Elastic Compliance Matrix: (Units=1/GPa)
#
#
# Indices 1 2 3 4 5 6 
#
# 1 0.022829 -0.001780 -0.003506 0.000000 0.008655 0.000000
# 2 -0.001780 0.010985 -0.004596 0.000000 -0.002593 0.000000
# 3 -0.003506 -0.004596 0.016911 0.000000 -0.009773 0.000000
# 4 0.000000 0.000000 0.000000 0.020932 0.000000 -0.000749
# 5 0.008655 -0.002593 -0.009773 0.000000 0.049087 0.000000
# 6 0.000000 0.000000 0.000000 -0.000749 0.000000 0.040711
#
#
# Mechanical properties :
#
#
# Convention : Reuss Voigt Hill
#
# Bulk Modulus (GPa) = 32.29613 39.98338 36.13975
# Shear Modulus (GPa) = 26.10449 31.74434 28.92442
#
# Velocity S-wave (km/s) = 3.53382 3.89690 3.71979
# Velocity P-wave (km/s) = 5.66571 6.27495 5.97810
#
# Compressibility (1/GPa) = 0.03096346
#
# Stress axis : x y z
#
# Youngs Moduli (GPa) = 43.80373 91.03315 59.13176
#
# Poissons Ratio (x) = 0.16201 0.20729
# Poissons Ratio (y) = 0.07796 0.27176
# Poissons Ratio (z) = 0.15356 0.41837
#
# Static dielectric constant tensor:
#      x y z
#    x 3.114280 0.000000 0.096330 
#    y 0.000000 3.775480 0.000000 
#    z 0.096330 0.000000 3.955350 
# 
# 
# High freq. dielectric constant tensor:
#      x y z
#    x 1.771370 0.000000 0.015960 
#    y 0.000000 1.825240 0.000000 
#    z 0.015960 0.000000 1.835400 
# 
# From -- ./inp_files/11490.got.cif
#   From: 2010.03.12/outbox.cif.g09.slc.cpg/sg14_6_cif.got.tgz:11490.got - 2010.03.31 13:35:05.
