data_PCOD8127646
_publ_section_title
;
Structure prediction by ZEFSAII (Michael W. Deem and Ramdas Pophale) SiO2 
 PCOD8127646
Probable space group: P 21/C
;
_chemical_formula_sum "Si O2"
_cell_formula_units_Z 24
_cell_length_a 15.411001
_cell_length_b 5.244107
_cell_length_c 21.924422
_cell_angle_alpha 90.000000
_cell_angle_beta 33.538525
_cell_angle_gamma 90.000000
_cell_volume 978.950892
_symmetry_space_group_name_H-M "P 21/C"
_symmetry_group_IT_number 14
_symmetry_cell_setting 'monoclinic'
loop_
_space_group_symop_operation_xyz
x,y,z
-x,1/2+y,1/2-z
-x,-y,-z
x,1/2-y,1/2+z
loop_
_atom_site_type_symbol
_atom_site_label
_atom_site_fract_x
_atom_site_fract_y
_atom_site_fract_z
Si Si1 0.160358 0.384695 0.614203
Si Si2 0.344240 0.906093 0.710953
Si Si3 0.921486 0.733678 0.103008
Si Si4 0.247631 0.636307 0.880705
Si Si5 0.866933 0.374810 0.242935
Si Si6 0.330491 0.612904 0.967160
O O1 0.159196 0.426592 0.687117
O O2 0.252211 0.617480 0.528659
O O3 0.980420 0.359953 0.696924
O O4 0.242292 0.116554 0.551983
O O5 0.175231 0.039638 0.811461
O O6 0.488989 0.096686 0.614925
O O7 0.368747 0.753964 0.760399
O O8 0.309131 0.718261 0.674287
O O9 0.823136 0.627587 0.103152
O O10 0.949998 0.516395 0.137643
O O11 0.096245 0.824018 0.980152
O O12 0.339364 0.581611 0.889144
#
# Coordination Sequence:
#
# PCOD8127646 Si02
#       6
#     4   4   4   4   4   4
#     4  12  28  49  77 111 146 203 250 320 362 462
#     4  11  27  43  75 108 154 202 241 320 375 456
#     4  10  22  45  72 106 142 194 256 312 362 449
#     4  10  23  43  71 105 146 199 248 308 366 447
#     4  11  26  48  78 107 146 198 266 304 381 435
#     4  12  29  46  75 114 158 193 250 305 393 444
#
# _framework density 24.516038000000002
#
# number of rings (size 3 to 8) (size 9 to 14) (size 15 to 20)
#    0.000    1.000    1.667    2.500   14.000    1.333 
#    0.000    0.000    0.000    0.000    0.000    0.000 
#    0.000    0.000    0.000    0.000    0.000    0.000 
#
# Total GULP energy -297555.547673 kJ/mol
# GULP energy per Si atom -12398.147820 kJ/mol
# Density = 2.446024 g / cm^3
# Si number density = 24.516038 Si / 1000 Ang^3
#
#
#
# Elastic Constant Matrix: (Units=GPa)
#
#
# Indices 1 2 3 4 5 6 
#
# 1 101.9241 -1.0345 31.0609 0.0000 8.3271 0.0000
# 2 -1.0345 56.5499 15.6165 0.0000 -4.7576 0.0000
# 3 31.0609 15.6165 65.9253 0.0000 -0.6994 0.0000
# 4 0.0000 0.0000 0.0000 26.6616 0.0000 1.5427
# 5 8.3271 -4.7576 -0.6994 0.0000 33.2256 0.0000
# 6 0.0000 0.0000 0.0000 1.5427 0.0000 30.9917
#
#
#
# Elastic Compliance Matrix: (Units=1/GPa)
#
#
# Indices 1 2 3 4 5 6 
#
# 1 0.011899 0.001640 -0.006025 0.000000 -0.002874 0.000000
# 2 0.001640 0.019377 -0.005339 0.000000 0.002251 0.000000
# 3 -0.006025 -0.005339 0.019284 0.000000 0.001151 0.000000
# 4 0.000000 0.000000 0.000000 0.037615 0.000000 -0.001872
# 5 -0.002874 0.002251 0.001151 0.000000 0.031164 0.000000
# 6 0.000000 0.000000 0.000000 -0.001872 0.000000 0.032360
#
#
# Mechanical properties :
#
#
# Convention : Reuss Voigt Hill
#
# Bulk Modulus (GPa) = 32.14189 35.07611 33.60900
# Shear Modulus (GPa) = 27.54537 30.09289 28.81913
#
# Velocity S-wave (km/s) = 3.35560 3.50734 3.43231
# Velocity P-wave (km/s) = 5.30588 5.54440 5.42645
#
# Compressibility (1/GPa) = 0.03111205
#
# Stress axis : x y z
#
# Youngs Moduli (GPa) = 84.04220 51.60701 51.85575
#
# Poissons Ratio (x) = -0.08462 0.31243
# Poissons Ratio (y) = -0.13781 0.27685
# Poissons Ratio (z) = 0.50636 0.27552
#
# Static dielectric constant tensor:
#      x y z
#    x 4.539010 0.000000 0.131360 
#    y 0.000000 4.312480 0.000000 
#    z 0.131360 0.000000 4.383170 
# 
# 
# High freq. dielectric constant tensor:
#      x y z
#    x 1.987180 0.000000 0.010220 
#    y 0.000000 1.969430 0.000000 
#    z 0.010220 0.000000 1.964880 
# 
# From -- ./inp_files/74051.got.cif
#   From: 2010.03.12/outbox.cif.g09.slc.cpg/sg14_38_cif.got.tgz:74051.got - 2010.03.31 13:35:05.
