data_PCOD8127591
_publ_section_title
;
Structure prediction by ZEFSAII (Michael W. Deem and Ramdas Pophale) SiO2 
 PCOD8127591
Probable space group: P 21/C
;
_chemical_formula_sum "Si O2"
_cell_formula_units_Z 28
_cell_length_a 11.485505
_cell_length_b 8.929037
_cell_length_c 13.649669
_cell_angle_alpha 90.000000
_cell_angle_beta 69.329339
_cell_angle_gamma 90.000000
_cell_volume 1309.720464
_symmetry_space_group_name_H-M "P 21/C"
_symmetry_group_IT_number 14
_symmetry_cell_setting 'monoclinic'
loop_
_space_group_symop_operation_xyz
x,y,z
-x,1/2+y,1/2-z
-x,-y,-z
x,1/2-y,1/2+z
loop_
_atom_site_type_symbol
_atom_site_label
_atom_site_fract_x
_atom_site_fract_y
_atom_site_fract_z
Si Si1 0.153503 0.987228 0.070776
Si Si2 0.812896 0.393449 0.228587
Si Si3 0.433696 0.785385 0.702899
Si Si4 0.031715 0.714845 0.462279
Si Si5 0.206614 0.192417 0.368987
Si Si6 0.604576 0.864940 0.300110
Si Si7 0.355641 0.269898 0.500493
O O1 0.128837 0.905531 0.180920
O O2 0.288154 0.068463 0.032208
O O3 0.145936 0.866538 0.984713
O O4 0.041590 0.103646 0.087928
O O5 0.706503 0.269673 0.262084
O O6 0.917910 0.347853 0.119698
O O7 0.761606 0.554382 0.210828
O O8 0.494742 0.737796 0.787948
O O9 0.510438 0.708734 0.590881
O O10 0.436208 0.963675 0.692494
O O11 0.939985 0.780578 0.573191
O O12 0.269078 0.339071 0.300276
O O13 0.270023 0.165253 0.456049
O O14 0.627990 0.817003 0.403911
#
# Coordination Sequence:
#
# PCOD8127591 Si02
#       7
#     4   4   4   4   4   4   4
#     4  10  24  44  68 100 135 184 218 284 342 394
#     4  12  25  43  68 105 131 179 226 276 342 399
#     4  11  26  39  68 101 130 176 224 280 331 409
#     4  10  25  44  68  99 140 173 234 273 335 400
#     4  10  23  45  67  99 135 177 222 280 328 398
#     4  11  23  45  68  96 138 175 227 275 338 401
#     4  10  22  44  69  93 138 176 218 279 342 392
#
# _framework density 21.378608
#
# number of rings (size 3 to 8) (size 9 to 14) (size 15 to 20)
#    0.000    1.429    1.429    2.571   10.000    2.857 
#    0.000    0.000    0.000    0.000    0.000    0.000 
#    0.000    0.000    0.000    0.000    0.000    0.000 
#
# Total GULP energy -347262.275969 kJ/mol
# GULP energy per Si atom -12402.224142 kJ/mol
# Density = 2.132995 g / cm^3
# Si number density = 21.378608 Si / 1000 Ang^3
#
#
#
# Elastic Constant Matrix: (Units=GPa)
#
#
# Indices 1 2 3 4 5 6 
#
# 1 82.2330 35.2242 52.9623 0.0000 8.0196 0.0000
# 2 35.2242 90.6762 41.4825 0.0000 10.0143 0.0000
# 3 52.9623 41.4825 119.2464 0.0000 13.1147 0.0000
# 4 0.0000 0.0000 0.0000 34.0035 0.0000 1.1332
# 5 8.0196 10.0143 13.1147 0.0000 44.2383 0.0000
# 6 0.0000 0.0000 0.0000 1.1332 0.0000 29.7423
#
#
#
# Elastic Compliance Matrix: (Units=1/GPa)
#
#
# Indices 1 2 3 4 5 6 
#
# 1 0.018187 -0.003977 -0.006647 0.000000 -0.000426 0.000000
# 2 -0.003977 0.014106 -0.002965 0.000000 -0.001593 0.000000
# 3 -0.006647 -0.002965 0.012574 0.000000 -0.001851 0.000000
# 4 0.000000 0.000000 0.000000 0.029446 0.000000 -0.001122
# 5 -0.000426 -0.001593 -0.001851 0.000000 0.023591 0.000000
# 6 0.000000 0.000000 0.000000 -0.001122 0.000000 0.033665
#
#
# Mechanical properties :
#
#
# Convention : Reuss Voigt Hill
#
# Bulk Modulus (GPa) = 56.53912 61.27707 58.90809
# Shear Modulus (GPa) = 30.36874 32.42928 31.39901
#
# Velocity S-wave (km/s) = 3.77307 3.89897 3.83653
# Velocity P-wave (km/s) = 6.74428 6.99959 6.87312
#
# Compressibility (1/GPa) = 0.01768687
#
# Stress axis : x y z
#
# Youngs Moduli (GPa) = 54.98516 70.89342 79.53232
#
# Poissons Ratio (x) = 0.28193 0.52867
# Poissons Ratio (y) = 0.21867 0.23585
# Poissons Ratio (z) = 0.36550 0.21023
#
# Static dielectric constant tensor:
#      x y z
#    x 3.854330 0.000000 0.064030 
#    y 0.000000 3.806070 0.000000 
#    z 0.064030 0.000000 3.958260 
# 
# 
# High freq. dielectric constant tensor:
#      x y z
#    x 1.838110 0.000000 0.004810 
#    y 0.000000 1.831860 0.000000 
#    z 0.004810 0.000000 1.848400 
# 
# From -- ./inp_files/43361.got.cif
#   From: 2010.03.12/outbox.cif.g09.slc.cpg/sg14_22_cif.got.tgz:43361.got - 2010.03.31 13:35:05.
