data_PCOD8127008
_publ_section_title
;
Structure prediction by ZEFSAII (Michael W. Deem and Ramdas Pophale) SiO2 
 PCOD8127008
Probable space group: P 21/C
;
_chemical_formula_sum "Si O2"
_cell_formula_units_Z 20
_cell_length_a 19.696395
_cell_length_b 9.817557
_cell_length_c 13.114421
_cell_angle_alpha 90.000000
_cell_angle_beta 155.974178
_cell_angle_gamma 90.000000
_cell_volume 1032.504474
_symmetry_space_group_name_H-M "P 21/C"
_symmetry_group_IT_number 14
_symmetry_cell_setting 'monoclinic'
loop_
_space_group_symop_operation_xyz
x,y,z
-x,1/2+y,1/2-z
-x,-y,-z
x,1/2-y,1/2+z
loop_
_atom_site_type_symbol
_atom_site_label
_atom_site_fract_x
_atom_site_fract_y
_atom_site_fract_z
Si Si1 0.745023 0.464290 0.964815
Si Si2 0.339639 0.245006 0.166805
Si Si3 0.136430 0.449118 0.510029
Si Si4 0.363987 0.110753 0.502519
Si Si5 0.630081 0.186804 0.713401
O O1 0.940554 0.452081 0.252463
O O2 0.705370 0.604397 0.849136
O O3 0.655053 0.475110 0.952974
O O4 0.678041 0.338928 0.808959
O O5 0.356982 0.256710 0.067631
O O6 0.509807 0.190177 0.450548
O O7 0.188950 0.142239 0.985073
O O8 0.206374 0.602365 0.592258
O O9 0.211818 0.379070 0.714573
O O10 0.538384 0.109259 0.681006
#
# Coordination Sequence:
#
# PCOD8127008 Si02
#       5
#     4   4   4   4   4
#     4  10  22  38  59  88 120 149 190 246 287 334
#     4   9  21  37  60  84 118 151 192 236 286 341
#     4  11  21  40  61  88 116 154 191 240 292 344
#     4   9  22  36  61  82 118 150 197 227 289 343
#     4  11  22  37  65  84 116 155 198 232 289 345
#
# _framework density 19.370374999999999
#
# number of rings (size 3 to 8) (size 9 to 14) (size 15 to 20)
#    1.200    0.800    0.000    4.800    5.600    0.000 
#    0.000    0.000    0.000    4.800    0.000    0.000 
#    0.000    0.000    0.000    0.000    0.000    0.000 
#
# Total GULP energy -247865.589952 kJ/mol
# GULP energy per Si atom -12393.279498 kJ/mol
# Density = 1.932629 g / cm^3
# Si number density = 19.370375 Si / 1000 Ang^3
#
#
#
# Elastic Constant Matrix: (Units=GPa)
#
#
# Indices 1 2 3 4 5 6 
#
# 1 69.7502 10.7855 15.9908 0.0000 -11.3240 0.0000
# 2 10.7855 71.1894 14.4827 0.0000 3.1578 0.0000
# 3 15.9908 14.4827 42.9127 0.0000 11.8103 0.0000
# 4 0.0000 0.0000 0.0000 29.7241 0.0000 -0.0913
# 5 -11.3240 3.1578 11.8103 0.0000 26.8421 0.0000
# 6 0.0000 0.0000 0.0000 -0.0913 0.0000 35.3314
#
#
#
# Elastic Compliance Matrix: (Units=1/GPa)
#
#
# Indices 1 2 3 4 5 6 
#
# 1 0.018883 -0.001378 -0.010022 0.000000 0.012538 0.000000
# 2 -0.001378 0.015190 -0.004507 0.000000 -0.000385 0.000000
# 3 -0.010022 -0.004507 0.033651 0.000000 -0.018504 0.000000
# 4 0.000000 0.000000 0.000000 0.033643 0.000000 0.000087
# 5 0.012538 -0.000385 -0.018504 0.000000 0.050732 0.000000
# 6 0.000000 0.000000 0.000000 0.000087 0.000000 0.028304
#
#
# Mechanical properties :
#
#
# Convention : Reuss Voigt Hill
#
# Bulk Modulus (GPa) = 27.84723 29.59669 28.72196
# Shear Modulus (GPa) = 22.30281 27.88574 25.09427
#
# Velocity S-wave (km/s) = 3.39689 3.79833 3.60321
# Velocity P-wave (km/s) = 5.45826 5.87784 5.67193
#
# Compressibility (1/GPa) = 0.03591021
#
# Stress axis : x y z
#
# Youngs Moduli (GPa) = 52.95706 65.83371 29.71643
#
# Poissons Ratio (x) = 0.09073 0.29782
# Poissons Ratio (y) = 0.07298 0.13393
# Poissons Ratio (z) = 0.53074 0.29670
#
# Static dielectric constant tensor:
#      x y z
#    x 3.518460 0.000000 0.007270 
#    y 0.000000 3.533720 0.000000 
#    z 0.007270 0.000000 3.317920 
# 
# 
# High freq. dielectric constant tensor:
#      x y z
#    x 1.750880 0.000000 0.002870 
#    y 0.000000 1.754860 0.000000 
#    z 0.002870 0.000000 1.742320 
# 
# From -- ./inp_files/50364.got.cif
#   From: 2010.03.12/outbox.cif.g09.slc.cpg/sg14_26_cif.got.tgz:50364.got - 2010.03.31 13:35:05.
