data_PCOD8127733
_publ_section_title
;
Structure prediction by ZEFSAII (Michael W. Deem and Ramdas Pophale) SiO2 
 PCOD8127733
Probable space group: P 21/C
;
_chemical_formula_sum "Si O2"
_cell_formula_units_Z 16
_cell_length_a 7.056745
_cell_length_b 20.505772
_cell_length_c 4.889136
_cell_angle_alpha 90.000000
_cell_angle_beta 111.011038
_cell_angle_gamma 90.000000
_cell_volume 660.438342
_symmetry_space_group_name_H-M "P 21/C"
_symmetry_group_IT_number 14
_symmetry_cell_setting 'monoclinic'
loop_
_space_group_symop_operation_xyz
x,y,z
-x,1/2+y,1/2-z
-x,-y,-z
x,1/2-y,1/2+z
loop_
_atom_site_type_symbol
_atom_site_label
_atom_site_fract_x
_atom_site_fract_y
_atom_site_fract_z
Si Si1 0.914669 0.104304 0.951018
Si Si2 0.271918 0.958413 0.636357
Si Si3 0.338878 0.095604 0.434357
Si Si4 0.582130 0.206387 0.814406
O O1 0.789832 0.055311 0.084379
O O2 0.144224 0.115790 0.157430
O O3 0.906918 0.069582 0.651226
O O4 0.802609 0.173858 0.883565
O O5 0.481516 0.921401 0.683122
O O6 0.294150 0.035410 0.611819
O O7 0.401007 0.156155 0.656768
O O8 0.562811 0.270683 0.616887
#
# Coordination Sequence:
#
# PCOD8127733 Si02
#       4
#     4   4   4   4
#     4  11  23  41  65  92 126 162 201 255 313 367
#     4  10  23  40  64 101 127 149 203 258 309 381
#     4  10  23  41  68  92 125 166 198 253 320 363
#     4  11  25  42  59  88 124 163 216 256 288 360
#
# _framework density 24.226336
#
# number of rings (size 3 to 8) (size 9 to 14) (size 15 to 20)
#    0.000    1.500    0.000    4.500    0.000   19.000 
#    0.000    0.000    0.000    0.000    0.000    0.000 
#    0.000    0.000    0.000    0.000    0.000    0.000 
#
# Total GULP energy -198538.127251 kJ/mol
# GULP energy per Si atom -12408.632953 kJ/mol
# Density = 2.417120 g / cm^3
# Si number density = 24.226336 Si / 1000 Ang^3
#
#
#
# Elastic Constant Matrix: (Units=GPa)
#
#
# Indices 1 2 3 4 5 6 
#
# 1 70.2506 15.3644 32.1679 0.0000 41.2415 0.0000
# 2 15.3644 112.3411 34.5804 0.0000 26.7626 0.0000
# 3 32.1679 34.5804 94.2566 0.0000 29.0507 0.0000
# 4 0.0000 0.0000 0.0000 40.0762 0.0000 1.9580
# 5 41.2415 26.7626 29.0507 0.0000 57.9706 0.0000
# 6 0.0000 0.0000 0.0000 1.9580 0.0000 2.4898
#
#
#
# Elastic Compliance Matrix: (Units=1/GPa)
#
#
# Indices 1 2 3 4 5 6 
#
# 1 0.025792 0.001839 -0.004210 0.000000 -0.017089 0.000000
# 2 0.001839 0.010729 -0.003115 0.000000 -0.004701 0.000000
# 3 -0.004210 -0.003115 0.013982 0.000000 -0.002573 0.000000
# 4 0.000000 0.000000 0.000000 0.025950 0.000000 -0.020407
# 5 -0.017089 -0.004701 -0.002573 0.000000 0.032867 0.000000
# 6 0.000000 0.000000 0.000000 -0.020407 0.000000 0.417686
#
#
# Mechanical properties :
#
#
# Convention : Reuss Voigt Hill
#
# Bulk Modulus (GPa) = 25.29651 49.00818 37.15235
# Shear Modulus (GPa) = 9.07186 33.08970 21.08078
#
# Velocity S-wave (km/s) = 1.93720 3.69976 2.95305
# Velocity P-wave (km/s) = 3.93295 6.20678 5.19578
#
# Compressibility (1/GPa) = 0.03953114
#
# Stress axis : x y z
#
# Youngs Moduli (GPa) = 38.77098 93.20927 71.51914
#
# Poissons Ratio (x) = -0.17146 0.30113
# Poissons Ratio (y) = -0.07132 0.22279
# Poissons Ratio (z) = 0.16324 0.29035
#
# Static dielectric constant tensor:
#      x y z
#    x 4.247030 0.000000 0.252060 
#    y 0.000000 4.307800 0.000000 
#    z 0.252060 0.000000 4.480160 
# 
# 
# High freq. dielectric constant tensor:
#      x y z
#    x 1.955630 0.000000 0.009840 
#    y 0.000000 1.960470 0.000000 
#    z 0.009840 0.000000 1.978540 
# 
# From -- ./inp_files/1026.got.cif
#   From: 2010.03.12/outbox.cif.g09.slc.cpg/sg14_1_cif.got.tgz:1026.got - 2010.03.31 13:35:05.
