data_PCOD8127691
_publ_section_title
;
Structure prediction by ZEFSAII (Michael W. Deem and Ramdas Pophale) SiO2 
 PCOD8127691
Probable space group: P 21/C
;
_chemical_formula_sum "Si O2"
_cell_formula_units_Z 28
_cell_length_a 12.828865
_cell_length_b 20.731893
_cell_length_c 13.796740
_cell_angle_alpha 90.000000
_cell_angle_beta 21.155516
_cell_angle_gamma 90.000000
_cell_volume 1324.314983
_symmetry_space_group_name_H-M "P 21/C"
_symmetry_group_IT_number 14
_symmetry_cell_setting 'monoclinic'
loop_
_space_group_symop_operation_xyz
x,y,z
-x,1/2+y,1/2-z
-x,-y,-z
x,1/2-y,1/2+z
loop_
_atom_site_type_symbol
_atom_site_label
_atom_site_fract_x
_atom_site_fract_y
_atom_site_fract_z
Si Si1 0.743401 0.106732 0.684884
Si Si2 0.564737 0.761245 0.074316
Si Si3 0.870878 0.558066 0.318815
Si Si4 0.462787 0.663982 0.322037
Si Si5 0.361975 0.275668 0.201397
Si Si6 0.018636 0.669804 0.314167
Si Si7 0.004538 0.585542 0.824424
O O1 0.663707 0.182407 0.751984
O O2 0.847818 0.085091 0.699145
O O3 0.998422 0.094286 0.387898
O O4 0.474549 0.061460 0.889974
O O5 0.404576 0.707985 0.278581
O O6 0.676059 0.727325 0.880279
O O7 0.841940 0.787484 0.890459
O O8 0.974254 0.594682 0.326808
O O9 0.973162 0.485085 0.240664
O O10 0.623075 0.703534 0.268586
O O11 0.155838 0.637778 0.623794
O O12 0.668498 0.603495 0.120213
O O13 0.090222 0.314117 0.482728
O O14 0.647293 0.313810 0.986756
#
# Coordination Sequence:
#
# PCOD8127691 Si02
#       7
#     4   4   4   4   4   4   4
#     4  11  22  37  61  88 117 158 196 240 309 356
#     4  10  23  38  64  87 126 152 197 254 296 362
#     4  11  22  39  59  86 120 159 198 243 291 358
#     4  11  23  38  56  92 117 159 195 238 309 349
#     4  11  22  40  61  86 123 156 196 252 295 360
#     4  10  23  38  60  89 115 157 204 235 304 355
#     4  12  23  38  59  86 126 153 197 245 295 359
#
# _framework density 21.143004999999999
#
# number of rings (size 3 to 8) (size 9 to 14) (size 15 to 20)
#    0.000    1.143    1.429    6.857    2.000    4.571 
#    0.000    0.000    0.000    5.143    0.000    0.000 
#    0.000    0.000    0.000    0.000    0.000    0.000 
#
# Total GULP energy -347399.843989 kJ/mol
# GULP energy per Si atom -12407.137285 kJ/mol
# Density = 2.109488 g / cm^3
# Si number density = 21.143005 Si / 1000 Ang^3
#
#
#
# Elastic Constant Matrix: (Units=GPa)
#
#
# Indices 1 2 3 4 5 6 
#
# 1 49.7978 6.8944 -2.1921 0.0000 23.9009 0.0000
# 2 6.8944 73.3536 4.1775 0.0000 14.9919 0.0000
# 3 -2.1921 4.1775 67.1541 0.0000 14.1612 0.0000
# 4 0.0000 0.0000 0.0000 29.1183 0.0000 5.7040
# 5 23.9009 14.9919 14.1612 0.0000 39.5010 0.0000
# 6 0.0000 0.0000 0.0000 5.7040 0.0000 16.4031
#
#
#
# Elastic Compliance Matrix: (Units=1/GPa)
#
#
# Indices 1 2 3 4 5 6 
#
# 1 0.029952 0.001056 0.005212 0.000000 -0.020392 0.000000
# 2 0.001056 0.014821 0.000469 0.000000 -0.006432 0.000000
# 3 0.005212 0.000469 0.017021 0.000000 -0.009434 0.000000
# 4 0.000000 0.000000 0.000000 0.036853 0.000000 -0.012815
# 5 -0.020392 -0.006432 -0.009434 0.000000 0.043478 0.000000
# 6 0.000000 0.000000 0.000000 -0.012815 0.000000 0.065420
#
#
# Mechanical properties :
#
#
# Convention : Reuss Voigt Hill
#
# Bulk Modulus (GPa) = 13.28578 23.11836 18.20207
# Shear Modulus (GPa) = 22.81420 29.09952 25.95686
#
# Velocity S-wave (km/s) = 3.28844 3.71390 3.50763
# Velocity P-wave (km/s) = 4.55147 5.41745 5.00323
#
# Compressibility (1/GPa) = 0.07526846
#
# Stress axis : x y z
#
# Youngs Moduli (GPa) = 33.38675 67.47085 58.74923
#
# Poissons Ratio (x) = -0.07123 -0.30622
# Poissons Ratio (y) = -0.03525 -0.02754
# Poissons Ratio (z) = -0.17402 -0.03163
#
# Static dielectric constant tensor:
#      x y z
#    x 3.612670 0.000000 0.201710 
#    y 0.000000 3.861270 0.000000 
#    z 0.201710 0.000000 4.003130 
# 
# 
# High freq. dielectric constant tensor:
#      x y z
#    x 1.803900 0.000000 0.009080 
#    y 0.000000 1.818640 0.000000 
#    z 0.009080 0.000000 1.850380 
# 
# From -- ./inp_files/37664.got.cif
#   From: 2010.03.12/outbox.cif.g09.slc.cpg/sg14_19_cif.got.tgz:37664.got - 2010.03.31 13:35:05.
