data_PCOD8127251
_publ_section_title
;
Structure prediction by ZEFSAII (Michael W. Deem and Ramdas Pophale) SiO2 
 PCOD8127251
Probable space group: P 21/C
;
_chemical_formula_sum "Si O2"
_cell_formula_units_Z 32
_cell_length_a 11.741882
_cell_length_b 11.693366
_cell_length_c 20.215087
_cell_angle_alpha 90.000000
_cell_angle_beta 145.956251
_cell_angle_gamma 90.000000
_cell_volume 1553.838045
_symmetry_space_group_name_H-M "P 21/C"
_symmetry_group_IT_number 14
_symmetry_cell_setting 'monoclinic'
loop_
_space_group_symop_operation_xyz
x,y,z
-x,1/2+y,1/2-z
-x,-y,-z
x,1/2-y,1/2+z
loop_
_atom_site_type_symbol
_atom_site_label
_atom_site_fract_x
_atom_site_fract_y
_atom_site_fract_z
Si Si1 0.847032 0.014217 0.866707
Si Si2 0.493423 0.656704 0.413728
Si Si3 0.246553 0.725774 0.174493
Si Si4 0.154842 0.503448 0.402653
Si Si5 0.541379 0.214130 0.959722
Si Si6 0.941346 0.538092 0.043779
Si Si7 0.569543 0.100056 0.361836
Si Si8 0.194357 0.050375 0.779954
O O1 0.778117 0.141900 0.843943
O O2 0.651195 0.931300 0.773240
O O3 0.954226 0.986638 0.849508
O O4 0.000000 0.000000 0.000000
O O5 0.426096 0.715602 0.314172
O O6 0.722088 0.609932 0.515268
O O7 0.461317 0.739844 0.462198
O O8 0.367662 0.543394 0.365539
O O9 0.316366 0.675129 0.138264
O O10 0.034501 0.665845 0.098137
O O11 0.282377 0.621328 0.471323
O O12 0.073119 0.473352 0.289654
O O13 0.570063 0.329084 0.930720
O O14 0.314452 0.169757 0.833303
O O15 0.045935 0.453242 0.146499
O O16 0.698294 0.518736 0.935776
O O17 0.000000 0.500000 0.000000
#
# Coordination Sequence:
#
# PCOD8127251 Si02
#       8
#     4   4   4   4   4   4   4   4
#     4  12  26  40  57  85 114 148 193 238 288 351
#     4   8  16  36  63  87 112 151 195 230 280 339
#     4  10  22  41  61  81 113 154 188 236 293 343
#     4   9  18  36  60  88 117 153 196 232 273 341
#     4   9  18  35  61  89 119 153 189 237 282 326
#     4   9  20  38  59  84 113 151 194 233 283 343
#     4  11  24  38  58  88 117 147 191 243 290 340
#     4   8  16  34  62  86 114 155 196 229 275 339
#
# _framework density 20.594166000000001
#
# number of rings (size 3 to 8) (size 9 to 14) (size 15 to 20)
#    0.000    2.500    0.000    3.000    0.000   10.000 
#    0.000    8.750    0.000    0.000    0.000    0.000 
#    0.000    0.000    0.000    0.000    0.000    0.000 
#
# Total GULP energy -396449.382195 kJ/mol
# GULP energy per Si atom -12389.043194 kJ/mol
# Density = 2.054729 g / cm^3
# Si number density = 20.594166 Si / 1000 Ang^3
#
#
#
# Elastic Constant Matrix: (Units=GPa)
#
#
# Indices 1 2 3 4 5 6 
#
# 1 63.1167 3.3776 9.9556 0.0000 -4.0860 0.0000
# 2 3.3776 63.2941 2.5908 0.0000 -0.1416 0.0000
# 3 9.9556 2.5908 77.5839 0.0000 -16.6641 0.0000
# 4 0.0000 0.0000 0.0000 22.3328 0.0000 -1.5726
# 5 -4.0860 -0.1416 -16.6641 0.0000 39.7118 0.0000
# 6 0.0000 0.0000 0.0000 -1.5726 0.0000 27.8458
#
#
#
# Elastic Compliance Matrix: (Units=1/GPa)
#
#
# Indices 1 2 3 4 5 6 
#
# 1 0.016238 -0.000788 -0.001867 0.000000 0.000884 0.000000
# 2 -0.000788 0.015860 -0.000477 0.000000 -0.000225 0.000000
# 3 -0.001867 -0.000477 0.014401 0.000000 0.005849 0.000000
# 4 0.000000 0.000000 0.000000 0.044956 0.000000 0.002539
# 5 0.000884 -0.000225 0.005849 0.000000 0.027726 0.000000
# 6 0.000000 0.000000 0.000000 0.002539 0.000000 0.036055
#
#
# Mechanical properties :
#
#
# Convention : Reuss Voigt Hill
#
# Bulk Modulus (GPa) = 24.85415 26.20475 25.52945
# Shear Modulus (GPa) = 28.58569 30.51613 29.55091
#
# Velocity S-wave (km/s) = 3.72969 3.85357 3.79214
# Velocity P-wave (km/s) = 5.53554 5.70544 5.62113
#
# Compressibility (1/GPa) = 0.04023473
#
# Stress axis : x y z
#
# Youngs Moduli (GPa) = 61.58533 63.05042 69.43877
#
# Poissons Ratio (x) = 0.04969 0.12967
# Poissons Ratio (y) = 0.04853 0.03310
# Poissons Ratio (z) = 0.11500 0.03006
#
# Static dielectric constant tensor:
#      x y z
#    x 3.977290 0.000000 -0.254880 
#    y 0.000000 3.235580 0.000000 
#    z -0.254880 0.000000 4.115540 
# 
# 
# High freq. dielectric constant tensor:
#      x y z
#    x 1.808140 0.000000 -0.013210 
#    y 0.000000 1.780910 0.000000 
#    z -0.013210 0.000000 1.810370 
# 
# From -- ./inp_files/67429.got.cif
#   From: 2010.03.12/outbox.cif.g09.slc.cpg/sg14_34_cif.got.tgz:67429.got - 2010.03.31 13:35:05.
