data_PCOD8127268
_publ_section_title
;
Structure prediction by ZEFSAII (Michael W. Deem and Ramdas Pophale) SiO2 
 PCOD8127268
Probable space group: P 21/C
;
_chemical_formula_sum "Si O2"
_cell_formula_units_Z 24
_cell_length_a 12.486237
_cell_length_b 5.228289
_cell_length_c 18.542409
_cell_angle_alpha 90.000000
_cell_angle_beta 115.216336
_cell_angle_gamma 90.000000
_cell_volume 1095.127295
_symmetry_space_group_name_H-M "P 21/C"
_symmetry_group_IT_number 14
_symmetry_cell_setting 'monoclinic'
loop_
_space_group_symop_operation_xyz
x,y,z
-x,1/2+y,1/2-z
-x,-y,-z
x,1/2-y,1/2+z
loop_
_atom_site_type_symbol
_atom_site_label
_atom_site_fract_x
_atom_site_fract_y
_atom_site_fract_z
Si Si1 0.359632 0.472056 0.526561
Si Si2 0.423795 0.814912 0.367353
Si Si3 0.660071 0.012512 0.398597
Si Si4 0.007559 0.327664 0.796655
Si Si5 0.736324 0.782003 0.625565
Si Si6 0.237072 0.975263 0.726995
O O1 0.502687 0.422892 0.574822
O O2 0.312561 0.713946 0.557425
O O3 0.313685 0.473263 0.430016
O O4 0.293368 0.215675 0.536748
O O5 0.324592 0.740174 0.281880
O O6 0.517401 0.989367 0.349489
O O7 0.360604 0.989780 0.410845
O O8 0.722639 0.958804 0.341219
O O9 0.897341 0.371467 0.818723
O O10 0.995331 0.532889 0.728979
O O11 0.136426 0.370354 0.870313
O O12 0.754778 0.715329 0.715747
#
# Coordination Sequence:
#
# PCOD8127268 Si02
#       6
#     4   4   4   4   4   4
#     4  10  25  41  62  95 134 160 205 253 321 375
#     4  10  23  37  67  90 131 158 212 249 319 364
#     4  10  26  40  60  97 130 164 201 256 320 373
#     4  10  22  41  62  94 120 160 213 262 301 359
#     4  11  23  42  67  94 124 168 211 260 305 369
#     4  11  24  40  67  92 127 164 214 259 307 368
#
# _framework density 21.915261000000001
#
# number of rings (size 3 to 8) (size 9 to 14) (size 15 to 20)
#    1.000    0.667    1.667    1.500    9.333    1.333 
#    0.000    1.667    0.000    0.000    0.000    0.000 
#    0.000    0.000    0.000    0.000    0.000    0.000 
#
# Total GULP energy -297346.360016 kJ/mol
# GULP energy per Si atom -12389.431667 kJ/mol
# Density = 2.186538 g / cm^3
# Si number density = 21.915261 Si / 1000 Ang^3
#
#
#
# Elastic Constant Matrix: (Units=GPa)
#
#
# Indices 1 2 3 4 5 6 
#
# 1 142.0976 9.3044 37.0540 0.0000 9.9683 0.0000
# 2 9.3044 91.8622 4.2779 0.0000 1.7391 0.0000
# 3 37.0540 4.2779 49.1873 0.0000 -0.0491 0.0000
# 4 0.0000 0.0000 0.0000 29.5436 0.0000 3.3050
# 5 9.9683 1.7391 -0.0491 0.0000 10.1603 0.0000
# 6 0.0000 0.0000 0.0000 3.3050 0.0000 24.1732
#
#
#
# Elastic Compliance Matrix: (Units=1/GPa)
#
#
# Indices 1 2 3 4 5 6 
#
# 1 0.009604 -0.000460 -0.007204 0.000000 -0.009379 0.000000
# 2 -0.000460 0.010988 -0.000611 0.000000 -0.001433 0.000000
# 3 -0.007204 -0.000611 0.025818 0.000000 0.007297 0.000000
# 4 0.000000 0.000000 0.000000 0.034374 0.000000 -0.004700
# 5 -0.009379 -0.001433 0.007297 0.000000 0.107904 0.000000
# 6 0.000000 0.000000 0.000000 -0.004700 0.000000 0.042011
#
#
# Mechanical properties :
#
#
# Convention : Reuss Voigt Hill
#
# Bulk Modulus (GPa) = 33.48909 42.71331 38.10120
# Shear Modulus (GPa) = 19.43999 28.27615 23.85807
#
# Velocity S-wave (km/s) = 2.98157 3.59590 3.30305
# Velocity P-wave (km/s) = 5.21224 6.06409 5.65423
#
# Compressibility (1/GPa) = 0.02986047
#
# Stress axis : x y z
#
# Youngs Moduli (GPa) = 104.12237 91.00837 38.73255
#
# Poissons Ratio (x) = 0.04184 0.27904
# Poissons Ratio (y) = 0.04787 0.02366
# Poissons Ratio (z) = 0.75014 0.05558
#
# Static dielectric constant tensor:
#      x y z
#    x 4.138650 0.000000 0.139580 
#    y 0.000000 3.843520 0.000000 
#    z 0.139580 0.000000 3.583970 
# 
# 
# High freq. dielectric constant tensor:
#      x y z
#    x 1.864710 0.000000 0.008430 
#    y 0.000000 1.869320 0.000000 
#    z 0.008430 0.000000 1.825150 
# 
# From -- ./inp_files/56544.got.cif
#   From: 2010.03.12/outbox.cif.g09.slc.cpg/sg14_29_cif.got.tgz:56544.got - 2010.03.31 13:35:05.
