data_PCOD8127835
_publ_section_title
;
Structure prediction by ZEFSAII (Michael W. Deem and Ramdas Pophale) SiO2 
 PCOD8127835
Probable space group: P 21/C
;
_chemical_formula_sum "Si O2"
_cell_formula_units_Z 28
_cell_length_a 13.459022
_cell_length_b 9.063259
_cell_length_c 11.238760
_cell_angle_alpha 90.000000
_cell_angle_beta 114.200249
_cell_angle_gamma 90.000000
_cell_volume 1250.453299
_symmetry_space_group_name_H-M "P 21/C"
_symmetry_group_IT_number 14
_symmetry_cell_setting 'monoclinic'
loop_
_space_group_symop_operation_xyz
x,y,z
-x,1/2+y,1/2-z
-x,-y,-z
x,1/2-y,1/2+z
loop_
_atom_site_type_symbol
_atom_site_label
_atom_site_fract_x
_atom_site_fract_y
_atom_site_fract_z
Si Si1 0.181570 0.370414 0.704395
Si Si2 0.534699 0.423054 0.397783
Si Si3 0.252818 0.760075 0.485229
Si Si4 0.867039 0.206480 0.820059
Si Si5 0.936109 0.852230 0.490632
Si Si6 0.715866 0.910020 0.506569
Si Si7 0.600545 0.803139 0.802390
O O1 0.128781 0.530909 0.682874
O O2 0.083743 0.253801 0.633620
O O3 0.245021 0.331991 0.854802
O O4 0.276323 0.360891 0.652771
O O5 0.500000 0.500000 0.500000
O O6 0.658105 0.367595 0.465489
O O7 0.454808 0.285974 0.332680
O O8 0.526829 0.554835 0.296411
O O9 0.186823 0.758522 0.579326
O O10 0.185486 0.731243 0.328869
O O11 0.313366 0.917145 0.496518
O O12 0.992427 0.260976 0.878759
O O13 0.817152 0.901695 0.468466
O O14 0.000000 0.000000 0.500000
O O15 0.609803 0.818885 0.412361
#
# Coordination Sequence:
#
# PCOD8127835 Si02
#       7
#     4   4   4   4   4   4   4
#     4  10  23  43  63  95 135 173 227 273 345 398
#     4  12  27  43  71 100 132 183 234 293 356 427
#     4  11  25  45  70  99 140 175 232 285 351 409
#     4  11  24  45  66 100 138 182 223 285 338 414
#     4  11  23  39  65  97 134 177 228 270 333 409
#     4  10  23  42  66  95 135 177 218 285 337 412
#     4  11  24  44  67  98 133 170 231 280 353 409
#
# _framework density 22.391878999999999
#
# number of rings (size 3 to 8) (size 9 to 14) (size 15 to 20)
#    0.000    1.143    2.857    2.143    6.000    1.143 
#    0.000    3.571    0.000    0.000    0.000    0.000 
#    0.000    0.000    0.000    0.000    0.000    0.000 
#
# Total GULP energy -346884.577826 kJ/mol
# GULP energy per Si atom -12388.734922 kJ/mol
# Density = 2.234091 g / cm^3
# Si number density = 22.391879 Si / 1000 Ang^3
#
#
#
# Elastic Constant Matrix: (Units=GPa)
#
#
# Indices 1 2 3 4 5 6 
#
# 1 35.7936 22.7380 10.3203 0.0000 3.1615 0.0000
# 2 22.7380 122.4945 43.4806 0.0000 11.4202 0.0000
# 3 10.3203 43.4806 125.0006 0.0000 -5.0220 0.0000
# 4 0.0000 0.0000 0.0000 42.4201 0.0000 6.8229
# 5 3.1615 11.4202 -5.0220 0.0000 31.0764 0.0000
# 6 0.0000 0.0000 0.0000 6.8229 0.0000 28.0096
#
#
#
# Elastic Compliance Matrix: (Units=1/GPa)
#
#
# Indices 1 2 3 4 5 6 
#
# 1 0.031771 -0.005503 -0.000763 0.000000 -0.001333 0.000000
# 2 -0.005503 0.010781 -0.003455 0.000000 -0.003960 0.000000
# 3 -0.000763 -0.003455 0.009380 0.000000 0.002863 0.000000
# 4 0.000000 0.000000 0.000000 0.024535 0.000000 -0.005977
# 5 -0.001333 -0.003960 0.002863 0.000000 0.034232 0.000000
# 6 0.000000 0.000000 0.000000 -0.005977 0.000000 0.037158
#
#
# Mechanical properties :
#
#
# Convention : Reuss Voigt Hill
#
# Bulk Modulus (GPa) = 30.77725 48.48518 39.63122
# Shear Modulus (GPa) = 28.06987 34.08452 31.07720
#
# Velocity S-wave (km/s) = 3.54443 3.90575 3.72947
# Velocity P-wave (km/s) = 5.52497 6.48381 6.02350
#
# Compressibility (1/GPa) = 0.03249153
#
# Stress axis : x y z
#
# Youngs Moduli (GPa) = 31.47513 92.75971 106.61374
#
# Poissons Ratio (x) = 0.51041 0.08131
# Poissons Ratio (y) = 0.17319 0.36832
# Poissons Ratio (z) = 0.02400 0.32046
#
# Static dielectric constant tensor:
#      x y z
#    x 4.017690 0.000000 0.025510 
#    y 0.000000 4.640650 0.000000 
#    z 0.025510 0.000000 4.326800 
# 
# 
# High freq. dielectric constant tensor:
#      x y z
#    x 1.863630 0.000000 0.008210 
#    y 0.000000 1.902730 0.000000 
#    z 0.008210 0.000000 1.887930 
# 
# From -- ./inp_files/31466.got.cif
#   From: 2010.03.12/outbox.cif.g09.slc.cpg/sg14_16_cif.got.tgz:31466.got - 2010.03.31 13:35:05.
