data_PCOD8127677
_publ_section_title
;
Structure prediction by ZEFSAII (Michael W. Deem and Ramdas Pophale) SiO2 
 PCOD8127677
Probable space group: P 21/C
;
_chemical_formula_sum "Si O2"
_cell_formula_units_Z 16
_cell_length_a 5.251538
_cell_length_b 13.049471
_cell_length_c 11.470487
_cell_angle_alpha 90.000000
_cell_angle_beta 106.305387
_cell_angle_gamma 90.000000
_cell_volume 754.453493
_symmetry_space_group_name_H-M "P 21/C"
_symmetry_group_IT_number 14
_symmetry_cell_setting 'monoclinic'
loop_
_space_group_symop_operation_xyz
x,y,z
-x,1/2+y,1/2-z
-x,-y,-z
x,1/2-y,1/2+z
loop_
_atom_site_type_symbol
_atom_site_label
_atom_site_fract_x
_atom_site_fract_y
_atom_site_fract_z
Si Si1 0.844298 0.579816 0.557992
Si Si2 0.472457 0.403660 0.914237
Si Si3 0.064241 0.706950 0.126886
Si Si4 0.590582 0.082268 0.176904
O O1 0.599931 0.623643 0.449720
O O2 0.732455 0.523791 0.658273
O O3 0.000000 0.500000 0.500000
O O4 0.042018 0.670285 0.621587
O O5 0.740900 0.333839 0.951280
O O6 0.425381 0.441351 0.774391
O O7 0.226917 0.338335 0.928617
O O8 0.500000 0.500000 0.000000
O O9 0.189222 0.670385 0.267192
#
# Coordination Sequence:
#
# PCOD8127677 Si02
#       4
#     4   4   4   4
#     4  11  23  47  67 106 144 180 235 286 353 420
#     4  10  22  48  65 105 135 179 232 286 345 408
#     4  10  24  45  68 104 136 183 233 278 355 409
#     4   9  24  41  73  99 141 186 226 289 348 411
#
# _framework density 21.207404
#
# number of rings (size 3 to 8) (size 9 to 14) (size 15 to 20)
#    1.500    0.500    0.000    2.250    7.000    0.000 
#   18.000    0.000    0.000    0.000    0.000    0.000 
#    0.000    0.000    0.000    0.000    0.000    0.000 
#
# Total GULP energy -198294.068593 kJ/mol
# GULP energy per Si atom -12393.379287 kJ/mol
# Density = 2.115913 g / cm^3
# Si number density = 21.207404 Si / 1000 Ang^3
#
#
#
# Elastic Constant Matrix: (Units=GPa)
#
#
# Indices 1 2 3 4 5 6 
#
# 1 149.0507 63.9393 24.0651 0.0000 3.1500 0.0000
# 2 63.9393 153.7906 61.4857 0.0000 17.6915 0.0000
# 3 24.0651 61.4857 79.6058 0.0000 7.3706 0.0000
# 4 0.0000 0.0000 0.0000 29.8522 0.0000 1.7125
# 5 3.1500 17.6915 7.3706 0.0000 22.3109 0.0000
# 6 0.0000 0.0000 0.0000 1.7125 0.0000 44.0050
#
#
#
# Elastic Compliance Matrix: (Units=1/GPa)
#
#
# Indices 1 2 3 4 5 6 
#
# 1 0.008227 -0.003702 0.000215 0.000000 0.001703 0.000000
# 2 -0.003702 0.011702 -0.007333 0.000000 -0.006334 0.000000
# 3 0.000215 -0.007333 0.018181 0.000000 -0.000222 0.000000
# 4 0.000000 0.000000 0.000000 0.033573 0.000000 -0.001307
# 5 0.001703 -0.006334 -0.000222 0.000000 0.049677 0.000000
# 6 0.000000 0.000000 0.000000 -0.001307 0.000000 0.022776
#
#
# Mechanical properties :
#
#
# Convention : Reuss Voigt Hill
#
# Bulk Modulus (GPa) = 60.71769 75.71413 68.21591
# Shear Modulus (GPa) = 29.19467 34.76408 31.97938
#
# Velocity S-wave (km/s) = 3.71432 4.05315 3.88743
# Velocity P-wave (km/s) = 6.86203 7.59495 7.23777
#
# Compressibility (1/GPa) = 0.01646966
#
# Stress axis : x y z
#
# Youngs Moduli (GPa) = 121.55778 85.45797 55.00242
#
# Poissons Ratio (x) = 0.31637 -0.01181
# Poissons Ratio (y) = 0.45001 0.40331
# Poissons Ratio (z) = -0.02610 0.62662
#
# Static dielectric constant tensor:
#      x y z
#    x 4.097000 0.000000 0.016620 
#    y 0.000000 3.969930 0.000000 
#    z 0.016620 0.000000 3.635310 
# 
# 
# High freq. dielectric constant tensor:
#      x y z
#    x 1.848020 0.000000 -0.001360 
#    y 0.000000 1.819350 0.000000 
#    z -0.001360 0.000000 1.813270 
# 
# From -- ./inp_files/20333.got.cif
#   From: 2010.03.12/outbox.cif.g09.slc.cpg/sg14_11_cif.got.tgz:20333.got - 2010.03.31 13:35:05.
