data_PCOD8127657
_publ_section_title
;
Structure prediction by ZEFSAII (Michael W. Deem and Ramdas Pophale) SiO2 
 PCOD8127657
Probable space group: P 21/C
;
_chemical_formula_sum "Si O2"
_cell_formula_units_Z 16
_cell_length_a 9.176040
_cell_length_b 10.788704
_cell_length_c 9.627016
_cell_angle_alpha 90.000000
_cell_angle_beta 41.389957
_cell_angle_gamma 90.000000
_cell_volume 630.138802
_symmetry_space_group_name_H-M "P 21/C"
_symmetry_group_IT_number 14
_symmetry_cell_setting 'monoclinic'
loop_
_space_group_symop_operation_xyz
x,y,z
-x,1/2+y,1/2-z
-x,-y,-z
x,1/2-y,1/2+z
loop_
_atom_site_type_symbol
_atom_site_label
_atom_site_fract_x
_atom_site_fract_y
_atom_site_fract_z
Si Si1 0.201922 0.698399 0.149156
Si Si2 0.499098 0.574986 0.359969
Si Si3 0.908193 0.785702 0.606961
Si Si4 0.253028 0.473247 0.280998
O O1 0.328277 0.569930 0.104138
O O2 0.098428 0.753659 0.362874
O O3 0.014607 0.662053 0.172316
O O4 0.359498 0.798913 0.967980
O O5 0.500000 0.500000 0.500000
O O6 0.753584 0.609738 0.148759
O O7 0.408148 0.487969 0.304056
O O8 0.748601 0.670036 0.764349
O O9 0.000000 0.500000 0.500000
#
# Coordination Sequence:
#
# PCOD8127657 Si02
#       4
#     4   4   4   4
#     4  11  24  46  69 102 140 183 226 287 343 407
#     4  12  26  44  73 103 140 182 237 282 345 417
#     4  11  26  45  73  99 141 185 229 283 353 406
#     4  10  22  46  67  99 144 177 224 291 335 409
#
# _framework density 25.39123
#
# number of rings (size 3 to 8) (size 9 to 14) (size 15 to 20)
#    0.000    1.000    5.000    3.000    7.000    2.000 
#    0.000    0.000    0.000    0.000    0.000    0.000 
#    0.000    0.000    0.000    0.000    0.000    0.000 
#
# Total GULP energy -198453.661072 kJ/mol
# GULP energy per Si atom -12403.353817 kJ/mol
# Density = 2.533344 g / cm^3
# Si number density = 25.391230 Si / 1000 Ang^3
#
#
#
# Elastic Constant Matrix: (Units=GPa)
#
#
# Indices 1 2 3 4 5 6 
#
# 1 211.8210 49.5119 4.5550 0.0000 29.8554 0.0000
# 2 49.5119 54.5172 -6.7434 0.0000 -0.8280 0.0000
# 3 4.5550 -6.7434 34.2604 0.0000 18.2183 0.0000
# 4 0.0000 0.0000 0.0000 40.4529 0.0000 -0.7330
# 5 29.8554 -0.8280 18.2183 0.0000 32.5272 0.0000
# 6 0.0000 0.0000 0.0000 -0.7330 0.0000 59.0009
#
#
#
# Elastic Compliance Matrix: (Units=1/GPa)
#
#
# Indices 1 2 3 4 5 6 
#
# 1 0.007337 -0.006537 0.002004 0.000000 -0.008023 0.000000
# 2 -0.006537 0.024744 0.003153 0.000000 0.004864 0.000000
# 3 0.002004 0.003153 0.043406 0.000000 -0.026070 0.000000
# 4 0.000000 0.000000 0.000000 0.024726 0.000000 0.000307
# 5 -0.008023 0.004864 -0.026070 0.000000 0.052833 0.000000
# 6 0.000000 0.000000 0.000000 0.000307 0.000000 0.016953
#
#
# Mechanical properties :
#
#
# Convention : Reuss Voigt Hill
#
# Bulk Modulus (GPa) = 13.75030 43.91617 28.83324
# Shear Modulus (GPa) = 25.38081 43.28120 34.33100
#
# Velocity S-wave (km/s) = 3.16506 4.13313 3.68105
# Velocity P-wave (km/s) = 4.33404 6.33327 5.42652
#
# Compressibility (1/GPa) = 0.07272569
#
# Stress axis : x y z
#
# Youngs Moduli (GPa) = 136.30160 40.41457 23.03853
#
# Poissons Ratio (x) = 0.26419 -0.04617
# Poissons Ratio (y) = 0.89101 -0.07264
# Poissons Ratio (z) = -0.27317 -0.12742
#
# Static dielectric constant tensor:
#      x y z
#    x 4.941450 0.000000 -0.189500 
#    y 0.000000 5.833560 0.000000 
#    z -0.189500 0.000000 4.443910 
# 
# 
# High freq. dielectric constant tensor:
#      x y z
#    x 2.036100 0.000000 -0.011490 
#    y 0.000000 2.021220 0.000000 
#    z -0.011490 0.000000 2.005720 
# 
# From -- ./inp_files/7408.got.cif
#   From: 2010.03.12/outbox.cif.g09.slc.cpg/sg14_4_cif.got.tgz:7408.got - 2010.03.31 13:35:05.
