data_PCOD8127491
_publ_section_title
;
Structure prediction by ZEFSAII (Michael W. Deem and Ramdas Pophale) SiO2 
 PCOD8127491
Probable space group: P 21/C
;
_chemical_formula_sum "Si O2"
_cell_formula_units_Z 32
_cell_length_a 6.401124
_cell_length_b 17.361002
_cell_length_c 13.428949
_cell_angle_alpha 90.000000
_cell_angle_beta 89.459697
_cell_angle_gamma 90.000000
_cell_volume 1492.291762
_symmetry_space_group_name_H-M "P 21/C"
_symmetry_group_IT_number 14
_symmetry_cell_setting 'monoclinic'
loop_
_space_group_symop_operation_xyz
x,y,z
-x,1/2+y,1/2-z
-x,-y,-z
x,1/2-y,1/2+z
loop_
_atom_site_type_symbol
_atom_site_label
_atom_site_fract_x
_atom_site_fract_y
_atom_site_fract_z
Si Si1 0.652246 0.036323 0.418422
Si Si2 0.744453 0.776194 0.615578
Si Si3 0.085252 0.834959 0.472119
Si Si4 0.692158 0.923300 0.726073
Si Si5 0.641214 0.200416 0.974052
Si Si6 0.994919 0.948254 0.313909
Si Si7 0.365158 0.430247 0.544811
Si Si8 0.968463 0.621282 0.608521
O O1 0.797448 0.103544 0.459649
O O2 0.532604 0.070956 0.324237
O O3 0.500000 0.000000 0.500000
O O4 0.787482 0.966210 0.376357
O O5 0.765122 0.835164 0.708160
O O6 0.502793 0.754743 0.594971
O O7 0.857092 0.815014 0.518917
O O8 0.860386 0.698923 0.647158
O O9 0.213855 0.755716 0.460809
O O10 0.075054 0.868106 0.360496
O O11 0.690579 0.947065 0.841239
O O12 0.843479 0.982570 0.668602
O O13 0.788625 0.140137 0.913783
O O14 0.493844 0.149242 0.044461
O O15 0.952574 0.939734 0.197324
O O16 0.500000 0.500000 0.500000
O O17 0.150125 0.417677 0.484527
#
# Coordination Sequence:
#
# PCOD8127491 Si02
#       8
#     4   4   4   4   4   4   4   4
#     4  12  23  41  66 101 136 171 214 278 337 409
#     4  10  22  43  65  96 134 169 219 281 333 412
#     4  11  22  41  66  96 136 168 211 272 348 406
#     4  12  24  40  70  97 128 179 224 275 336 404
#     4  10  23  44  68  92 138 175 219 284 336 399
#     4  12  25  40  67 100 134 175 219 275 346 406
#     4  11  25  46  66  94 131 179 234 282 327 396
#     4  10  25  45  64  94 134 176 223 281 335 397
#
# _framework density 21.443529999999999
#
# number of rings (size 3 to 8) (size 9 to 14) (size 15 to 20)
#    0.000    1.000    3.750    2.625    0.000    8.000 
#    0.000    0.000    0.000    0.000    0.000    0.000 
#    0.000    0.000    0.000    0.000    0.000    0.000 
#
# Total GULP energy -396813.958560 kJ/mol
# GULP energy per Si atom -12400.436205 kJ/mol
# Density = 2.139472 g / cm^3
# Si number density = 21.443530 Si / 1000 Ang^3
#
#
#
# Elastic Constant Matrix: (Units=GPa)
#
#
# Indices 1 2 3 4 5 6 
#
# 1 118.5286 30.7987 44.2931 0.0000 -4.2826 0.0000
# 2 30.7987 87.9914 27.0527 0.0000 -4.3426 0.0000
# 3 44.2931 27.0527 106.3626 0.0000 5.6259 0.0000
# 4 0.0000 0.0000 0.0000 34.2743 0.0000 -2.3893
# 5 -4.2826 -4.3426 5.6259 0.0000 30.9419 0.0000
# 6 0.0000 0.0000 0.0000 -2.3893 0.0000 43.8220
#
#
#
# Elastic Compliance Matrix: (Units=1/GPa)
#
#
# Indices 1 2 3 4 5 6 
#
# 1 0.010585 -0.002419 -0.003890 0.000000 0.001833 0.000000
# 2 -0.002419 0.013049 -0.002414 0.000000 0.001936 0.000000
# 3 -0.003890 -0.002414 0.011795 0.000000 -0.003022 0.000000
# 4 0.000000 0.000000 0.000000 0.029288 0.000000 0.001597
# 5 0.001833 0.001936 -0.003022 0.000000 0.033393 0.000000
# 6 0.000000 0.000000 0.000000 0.001597 0.000000 0.022907
#
#
# Mechanical properties :
#
#
# Convention : Reuss Voigt Hill
#
# Bulk Modulus (GPa) = 55.60326 57.46351 56.53338
# Shear Modulus (GPa) = 34.61232 35.85685 35.23458
#
# Velocity S-wave (km/s) = 4.02196 4.09363 4.05796
# Velocity P-wave (km/s) = 6.89599 7.01424 6.95536
#
# Compressibility (1/GPa) = 0.01798456
#
# Stress axis : x y z
#
# Youngs Moduli (GPa) = 94.47306 76.63386 84.77820
#
# Poissons Ratio (x) = 0.18535 0.32977
# Poissons Ratio (y) = 0.22849 0.20467
# Poissons Ratio (z) = 0.36748 0.18500
#
# Static dielectric constant tensor:
#      x y z
#    x 4.136610 0.000000 0.021180 
#    y 0.000000 4.094700 0.000000 
#    z 0.021180 0.000000 3.527200 
# 
# 
# High freq. dielectric constant tensor:
#      x y z
#    x 1.853300 0.000000 -0.000660 
#    y 0.000000 1.861660 0.000000 
#    z -0.000660 0.000000 1.818050 
# 
# From -- ./inp_files/37862.got.cif
#   From: 2010.03.12/outbox.cif.g09.slc.cpg/sg14_19_cif.got.tgz:37862.got - 2010.03.31 13:35:05.
