data_PCOD8127341
_publ_section_title
;
Structure prediction by ZEFSAII (Michael W. Deem and Ramdas Pophale) SiO2 
 PCOD8127341
Probable space group: P 21/C
;
_chemical_formula_sum "Si O2"
_cell_formula_units_Z 28
_cell_length_a 9.061275
_cell_length_b 12.221884
_cell_length_c 26.424209
_cell_angle_alpha 90.000000
_cell_angle_beta 27.400849
_cell_angle_gamma 90.000000
_cell_volume 1346.754050
_symmetry_space_group_name_H-M "P 21/C"
_symmetry_group_IT_number 14
_symmetry_cell_setting 'monoclinic'
loop_
_space_group_symop_operation_xyz
x,y,z
-x,1/2+y,1/2-z
-x,-y,-z
x,1/2-y,1/2+z
loop_
_atom_site_type_symbol
_atom_site_label
_atom_site_fract_x
_atom_site_fract_y
_atom_site_fract_z
Si Si1 0.593102 0.698267 0.066824
Si Si2 0.165023 0.904692 0.204087
Si Si3 0.667567 0.928135 0.699721
Si Si4 0.090396 0.793048 0.500992
Si Si5 0.802711 0.576581 0.913985
Si Si6 0.595035 0.518707 0.821026
Si Si7 0.676891 0.431247 0.592314
O O1 0.325272 0.789670 0.145057
O O2 0.443328 0.583676 0.130006
O O3 0.716867 0.684802 0.971839
O O4 0.878353 0.734414 0.016469
O O5 0.914934 0.884675 0.325255
O O6 0.955474 0.936156 0.218536
O O7 0.418251 0.998627 0.140384
O O8 0.451724 0.893819 0.813233
O O9 0.857859 0.823419 0.618889
O O10 0.442273 0.981842 0.725531
O O11 0.917386 0.018361 0.640624
O O12 0.326937 0.892736 0.417556
O O13 0.271588 0.678918 0.456608
O O14 0.500000 0.500000 0.000000
O O15 0.000000 0.500000 0.500000
#
# Coordination Sequence:
#
# PCOD8127341 Si02
#       7
#     4   4   4   4   4   4   4
#     4  11  21  40  67  95 132 165 224 270 324 390
#     4  11  25  40  67  99 134 173 213 282 330 389
#     4  10  22  41  70  93 125 181 217 268 329 390
#     4  11  21  41  70  95 131 173 224 269 325 398
#     4  11  20  41  68  96 125 171 228 265 326 393
#     4  11  22  42  66  99 130 171 225 269 325 398
#     4  11  25  44  64  99 139 169 219 275 334 388
#
# _framework density 20.79073
#
# number of rings (size 3 to 8) (size 9 to 14) (size 15 to 20)
#    0.000    1.143    5.714    0.857    2.000    3.429 
#    0.000    2.143    0.000    0.000    0.000    0.000 
#    0.000    0.000    0.000    0.000    0.000    0.000 
#
# Total GULP energy -347250.053455 kJ/mol
# GULP energy per Si atom -12401.787623 kJ/mol
# Density = 2.074341 g / cm^3
# Si number density = 20.790730 Si / 1000 Ang^3
#
#
#
# Elastic Constant Matrix: (Units=GPa)
#
#
# Indices 1 2 3 4 5 6 
#
# 1 88.0991 20.1860 43.3096 0.0000 -7.9852 0.0000
# 2 20.1860 123.7310 57.6073 0.0000 4.1582 0.0000
# 3 43.3096 57.6073 121.8514 0.0000 0.3062 0.0000
# 4 0.0000 0.0000 0.0000 47.4704 0.0000 -4.3486
# 5 -7.9852 4.1582 0.3062 0.0000 34.3874 0.0000
# 6 0.0000 0.0000 0.0000 -4.3486 0.0000 15.6057
#
#
#
# Elastic Compliance Matrix: (Units=1/GPa)
#
#
# Indices 1 2 3 4 5 6 
#
# 1 0.014125 -0.000096 -0.004983 0.000000 0.003336 0.000000
# 2 -0.000096 0.010414 -0.004886 0.000000 -0.001238 0.000000
# 3 -0.004983 -0.004886 0.012290 0.000000 -0.000676 0.000000
# 4 0.000000 0.000000 0.000000 0.021618 0.000000 0.006024
# 5 0.003336 -0.001238 -0.000676 0.000000 0.030011 0.000000
# 6 0.000000 0.000000 0.000000 0.006024 0.000000 0.065758
#
#
# Mechanical properties :
#
#
# Convention : Reuss Voigt Hill
#
# Bulk Modulus (GPa) = 59.18087 63.98748 61.58417
# Shear Modulus (GPa) = 27.81183 33.66460 30.73821
#
# Velocity S-wave (km/s) = 3.66143 4.02831 3.84924
# Velocity P-wave (km/s) = 6.81187 7.24432 7.03142
#
# Compressibility (1/GPa) = 0.01689735
#
# Stress axis : x y z
#
# Youngs Moduli (GPa) = 70.79585 96.02170 81.36924
#
# Poissons Ratio (x) = 0.00926 0.40549
# Poissons Ratio (y) = 0.00682 0.39758
# Poissons Ratio (z) = 0.35280 0.46918
#
# Static dielectric constant tensor:
#      x y z
#    x 3.919810 0.000000 -0.015900 
#    y 0.000000 3.711660 0.000000 
#    z -0.015900 0.000000 3.935620 
# 
# 
# High freq. dielectric constant tensor:
#      x y z
#    x 1.818150 0.000000 -0.011280 
#    y 0.000000 1.811300 0.000000 
#    z -0.011280 0.000000 1.814810 
# 
# From -- ./inp_files/76647.got.cif
#   From: 2010.03.12/outbox.cif.g09.slc.cpg/sg14_39_cif.got.tgz:76647.got - 2010.03.31 13:35:05.
