data_PCOD8127404
_publ_section_title
;
Structure prediction by ZEFSAII (Michael W. Deem and Ramdas Pophale) SiO2 
 PCOD8127404
Probable space group: P 21/C
;
_chemical_formula_sum "Si O2"
_cell_formula_units_Z 28
_cell_length_a 11.491919
_cell_length_b 7.543740
_cell_length_c 26.404010
_cell_angle_alpha 90.000000
_cell_angle_beta 30.695319
_cell_angle_gamma 90.000000
_cell_volume 1168.480986
_symmetry_space_group_name_H-M "P 21/C"
_symmetry_group_IT_number 14
_symmetry_cell_setting 'monoclinic'
loop_
_space_group_symop_operation_xyz
x,y,z
-x,1/2+y,1/2-z
-x,-y,-z
x,1/2-y,1/2+z
loop_
_atom_site_type_symbol
_atom_site_label
_atom_site_fract_x
_atom_site_fract_y
_atom_site_fract_z
Si Si1 0.616087 0.817976 0.472815
Si Si2 0.592928 0.232743 0.634146
Si Si3 0.766198 0.700689 0.310759
Si Si4 0.970177 0.599223 0.563262
Si Si5 0.210947 0.693776 0.687124
Si Si6 0.525443 0.080359 0.756679
Si Si7 0.923550 0.294079 0.661235
O O1 0.652961 0.703994 0.408566
O O2 0.453709 0.714491 0.571292
O O3 0.854737 0.834115 0.414177
O O4 0.500000 0.000000 0.500000
O O5 0.387863 0.197820 0.672232
O O6 0.823134 0.257671 0.514281
O O7 0.609419 0.063398 0.666025
O O8 0.535361 0.397506 0.693271
O O9 0.794508 0.497100 0.283647
O O10 0.013618 0.793514 0.218499
O O11 0.000000 0.500000 0.500000
O O12 0.718683 0.687929 0.656799
O O13 0.991933 0.467878 0.603689
O O14 0.164605 0.840206 0.748627
O O15 0.717913 0.190366 0.712468
#
# Coordination Sequence:
#
# PCOD8127404 Si02
#       7
#     4   4   4   4   4   4   4
#     4  11  26  44  65 101 134 175 232 282 350 416
#     4  11  24  44  69  98 140 179 232 287 342 417
#     4  11  24  43  68  99 134 181 221 286 344 411
#     4  10  22  42  65  96 135 179 229 274 346 403
#     4  11  23  42  69  95 136 175 232 282 349 413
#     4  11  22  41  68  96 132 180 228 277 342 406
#     4  11  22  41  71  95 129 184 219 283 337 402
#
# _framework density 23.962734000000001
#
# number of rings (size 3 to 8) (size 9 to 14) (size 15 to 20)
#    0.000    1.143    4.286    3.000    2.000    5.714 
#    0.000    0.714    0.000    0.000    0.000    0.000 
#    0.000    0.000    0.000    0.000    0.000    0.000 
#
# Total GULP energy -346919.522210 kJ/mol
# GULP energy per Si atom -12389.982936 kJ/mol
# Density = 2.390819 g / cm^3
# Si number density = 23.962734 Si / 1000 Ang^3
#
#
#
# Elastic Constant Matrix: (Units=GPa)
#
#
# Indices 1 2 3 4 5 6 
#
# 1 166.5550 16.6850 63.9017 0.0000 -27.6589 0.0000
# 2 16.6850 33.1839 22.9512 0.0000 -3.4722 0.0000
# 3 63.9017 22.9512 150.6985 0.0000 -18.0090 0.0000
# 4 0.0000 0.0000 0.0000 31.2155 0.0000 8.9181
# 5 -27.6589 -3.4722 -18.0090 0.0000 49.5158 0.0000
# 6 0.0000 0.0000 0.0000 8.9181 0.0000 30.6242
#
#
#
# Elastic Compliance Matrix: (Units=1/GPa)
#
#
# Indices 1 2 3 4 5 6 
#
# 1 0.007722 -0.001729 -0.002624 0.000000 0.003238 0.000000
# 2 -0.001729 0.034083 -0.004482 0.000000 -0.000206 0.000000
# 3 -0.002624 -0.004482 0.008592 0.000000 0.001345 0.000000
# 4 0.000000 0.000000 0.000000 0.034943 0.000000 -0.010176
# 5 0.003238 -0.000206 0.001345 0.000000 0.022479 0.000000
# 6 0.000000 0.000000 0.000000 -0.010176 0.000000 0.035617
#
#
# Mechanical properties :
#
#
# Convention : Reuss Voigt Hill
#
# Bulk Modulus (GPa) = 30.55669 61.94590 46.25130
# Shear Modulus (GPa) = 29.06742 38.73106 33.89924
#
# Velocity S-wave (km/s) = 3.48663 4.02469 3.76528
# Velocity P-wave (km/s) = 5.38407 6.89236 6.18437
#
# Compressibility (1/GPa) = 0.03272606
#
# Stress axis : x y z
#
# Youngs Moduli (GPa) = 129.50651 29.34016 116.38977
#
# Poissons Ratio (x) = 0.05072 0.30541
# Poissons Ratio (y) = 0.22389 0.52170
# Poissons Ratio (z) = 0.33983 0.13151
#
# Static dielectric constant tensor:
#      x y z
#    x 4.722730 0.000000 -0.227850 
#    y 0.000000 4.009940 0.000000 
#    z -0.227850 0.000000 5.376490 
# 
# 
# High freq. dielectric constant tensor:
#      x y z
#    x 1.969910 0.000000 -0.007110 
#    y 0.000000 1.912720 0.000000 
#    z -0.007110 0.000000 1.969380 
# 
# From -- ./inp_files/77086.got.cif
#   From: 2010.03.12/outbox.cif.g09.slc.cpg/sg14_39_cif.got.tgz:77086.got - 2010.03.31 13:35:05.
