data_PCOD8127230
_publ_section_title
;
Structure prediction by ZEFSAII (Michael W. Deem and Ramdas Pophale) SiO2 
 PCOD8127230
Probable space group: P 21/C
;
_chemical_formula_sum "Si O2"
_cell_formula_units_Z 24
_cell_length_a 8.815192
_cell_length_b 6.057509
_cell_length_c 23.071053
_cell_angle_alpha 90.000000
_cell_angle_beta 122.768609
_cell_angle_gamma 90.000000
_cell_volume 1035.901928
_symmetry_space_group_name_H-M "P 21/C"
_symmetry_group_IT_number 14
_symmetry_cell_setting 'monoclinic'
loop_
_space_group_symop_operation_xyz
x,y,z
-x,1/2+y,1/2-z
-x,-y,-z
x,1/2-y,1/2+z
loop_
_atom_site_type_symbol
_atom_site_label
_atom_site_fract_x
_atom_site_fract_y
_atom_site_fract_z
Si Si1 0.542622 0.784009 0.188589
Si Si2 0.308230 0.146798 0.397326
Si Si3 0.320048 0.760090 0.481359
Si Si4 0.793556 0.444426 0.925321
Si Si5 0.294714 0.155250 0.159450
Si Si6 0.037063 0.373778 0.413303
O O1 0.681274 0.693475 0.168949
O O2 0.368936 0.627592 0.150427
O O3 0.637946 0.782801 0.270145
O O4 0.464154 0.032712 0.163047
O O5 0.469206 0.290316 0.461293
O O6 0.113943 0.233723 0.376114
O O7 0.312822 0.886843 0.417629
O O8 0.259902 0.935361 0.518444
O O9 0.193972 0.546680 0.463663
O O10 0.814299 0.697419 0.909817
O O11 0.975652 0.297385 0.952336
O O12 0.142506 0.984282 0.148794
#
# Coordination Sequence:
#
# PCOD8127230 Si02
#       6
#     4   4   4   4   4   4
#     4  10  22  42  66  89 122 169 220 262 319 381
#     4  10  23  41  62  96 128 167 210 263 322 386
#     4  10  22  42  66  91 133 171 209 258 320 389
#     4  10  22  40  67  94 125 169 217 261 312 382
#     4  11  22  42  65  91 123 169 218 270 314 386
#     4  11  23  39  60  99 131 164 210 263 324 381
#
# _framework density 23.168215
#
# number of rings (size 3 to 8) (size 9 to 14) (size 15 to 20)
#    0.000    1.667    1.667    2.000    0.000   10.667 
#    6.000    0.000    0.000    0.000    0.000    0.000 
#    0.000    0.000    0.000    0.000    0.000    0.000 
#
# Total GULP energy -297338.228737 kJ/mol
# GULP energy per Si atom -12389.092864 kJ/mol
# Density = 2.311548 g / cm^3
# Si number density = 23.168215 Si / 1000 Ang^3
#
#
#
# Elastic Constant Matrix: (Units=GPa)
#
#
# Indices 1 2 3 4 5 6 
#
# 1 127.3660 28.5587 15.8717 0.0000 -17.2375 0.0000
# 2 28.5587 59.4023 4.5801 0.0000 -16.3640 0.0000
# 3 15.8717 4.5801 58.6516 0.0000 -17.8878 0.0000
# 4 0.0000 0.0000 0.0000 20.0290 0.0000 6.4795
# 5 -17.2375 -16.3640 -17.8878 0.0000 35.5524 0.0000
# 6 0.0000 0.0000 0.0000 6.4795 0.0000 51.6802
#
#
#
# Elastic Compliance Matrix: (Units=1/GPa)
#
#
# Indices 1 2 3 4 5 6 
#
# 1 0.009150 -0.003751 -0.001603 0.000000 0.001903 0.000000
# 2 -0.003751 0.020917 0.002083 0.000000 0.008857 0.000000
# 3 -0.001603 0.002083 0.020526 0.000000 0.010509 0.000000
# 4 0.000000 0.000000 0.000000 0.052038 0.000000 -0.006524
# 5 0.001903 0.008857 0.010509 0.000000 0.038415 0.000000
# 6 0.000000 0.000000 0.000000 -0.006524 0.000000 0.020168
#
#
# Mechanical properties :
#
#
# Convention : Reuss Voigt Hill
#
# Bulk Modulus (GPa) = 22.70077 38.16010 30.43044
# Shear Modulus (GPa) = 27.40646 34.54628 30.97637
#
# Velocity S-wave (km/s) = 3.44311 3.86567 3.66050
# Velocity P-wave (km/s) = 5.06223 6.03583 5.57034
#
# Compressibility (1/GPa) = 0.04405137
#
# Stress axis : x y z
#
# Youngs Moduli (GPa) = 109.29240 47.80797 48.71876
#
# Poissons Ratio (x) = 0.17933 0.07808
# Poissons Ratio (y) = 0.40995 -0.10148
# Poissons Ratio (z) = 0.17515 -0.09958
#
# Static dielectric constant tensor:
#      x y z
#    x 4.500700 0.000000 0.068500 
#    y 0.000000 4.216900 0.000000 
#    z 0.068500 0.000000 3.654020 
# 
# 
# High freq. dielectric constant tensor:
#      x y z
#    x 1.928970 0.000000 0.006620 
#    y 0.000000 1.917510 0.000000 
#    z 0.006620 0.000000 1.887770 
# 
# From -- ./inp_files/71588.got.cif
#   From: 2010.03.12/outbox.cif.g09.slc.cpg/sg14_36_cif.got.tgz:71588.got - 2010.03.31 13:35:05.
