data_PCOD8127956
_publ_section_title
;
Structure prediction by ZEFSAII (Michael W. Deem and Ramdas Pophale) SiO2 
 PCOD8127956
Probable space group: P 21/C
;
_chemical_formula_sum "Si O2"
_cell_formula_units_Z 28
_cell_length_a 12.239883
_cell_length_b 14.568233
_cell_length_c 8.685817
_cell_angle_alpha 90.000000
_cell_angle_beta 126.074943
_cell_angle_gamma 90.000000
_cell_volume 1251.812196
_symmetry_space_group_name_H-M "P 21/C"
_symmetry_group_IT_number 14
_symmetry_cell_setting 'monoclinic'
loop_
_space_group_symop_operation_xyz
x,y,z
-x,1/2+y,1/2-z
-x,-y,-z
x,1/2-y,1/2+z
loop_
_atom_site_type_symbol
_atom_site_label
_atom_site_fract_x
_atom_site_fract_y
_atom_site_fract_z
Si Si1 0.774536 0.033082 0.615073
Si Si2 0.957441 0.623570 0.577035
Si Si3 0.870674 0.749202 0.747531
Si Si4 0.739283 0.634515 0.899816
Si Si5 0.675398 0.968621 0.842189
Si Si6 0.437448 0.640939 0.585912
Si Si7 0.424920 0.659868 0.216831
O O1 0.672984 0.989636 0.657353
O O2 0.704468 0.119413 0.477899
O O3 0.912904 0.058340 0.817599
O O4 0.811728 0.958284 0.516345
O O5 0.979776 0.702928 0.723977
O O6 0.944689 0.668197 0.397644
O O7 0.820332 0.571665 0.510584
O O8 0.746319 0.789871 0.542790
O O9 0.813644 0.672275 0.812527
O O10 0.589552 0.604802 0.729306
O O11 0.657391 0.062555 0.921829
O O12 0.561264 0.892974 0.781813
O O13 0.399173 0.654783 0.377160
O O14 0.429107 0.734416 0.673895
#
# Coordination Sequence:
#
# PCOD8127956 Si02
#       7
#     4   4   4   4   4   4   4
#     4  12  27  44  69 103 143 183 226 288 352 410
#     4  11  25  46  70 103 138 182 234 284 346 415
#     4  10  23  43  72  99 136 184 232 285 343 418
#     4  11  22  43  70 103 135 180 234 283 348 414
#     4  12  25  45  73 100 143 180 233 288 350 411
#     4  12  26  44  74 102 142 180 237 289 348 408
#     4  12  27  47  70 104 140 184 235 288 346 412
#
# _framework density 22.367571000000002
#
# number of rings (size 3 to 8) (size 9 to 14) (size 15 to 20)
#    0.000    0.571    2.857    5.571    4.000    2.857 
#    2.571    0.000    0.000    0.000    0.000    0.000 
#    0.000    0.000    0.000    0.000    0.000    0.000 
#
# Total GULP energy -347309.631826 kJ/mol
# GULP energy per Si atom -12403.915422 kJ/mol
# Density = 2.231666 g / cm^3
# Si number density = 22.367571 Si / 1000 Ang^3
#
#
#
# Elastic Constant Matrix: (Units=GPa)
#
#
# Indices 1 2 3 4 5 6 
#
# 1 39.8553 17.0794 16.1554 0.0000 0.3038 0.0000
# 2 17.0794 102.5651 14.7839 0.0000 1.1161 0.0000
# 3 16.1554 14.7839 100.4886 0.0000 -6.5922 0.0000
# 4 0.0000 0.0000 0.0000 45.9551 0.0000 -1.3087
# 5 0.3038 1.1161 -6.5922 0.0000 38.3087 0.0000
# 6 0.0000 0.0000 0.0000 -1.3087 0.0000 21.1850
#
#
#
# Elastic Compliance Matrix: (Units=1/GPa)
#
#
# Indices 1 2 3 4 5 6 
#
# 1 0.028510 -0.004159 -0.004024 0.000000 -0.000797 0.000000
# 2 -0.004159 0.010579 -0.000916 0.000000 -0.000433 0.000000
# 3 -0.004024 -0.000916 0.010860 0.000000 0.001927 0.000000
# 4 0.000000 0.000000 0.000000 0.021799 0.000000 0.001347
# 5 -0.000797 -0.000433 0.001927 0.000000 0.026454 0.000000
# 6 0.000000 0.000000 0.000000 0.001347 0.000000 0.047286
#
#
# Mechanical properties :
#
#
# Convention : Reuss Voigt Hill
#
# Bulk Modulus (GPa) = 31.49527 37.66070 34.57798
# Shear Modulus (GPa) = 28.69108 34.08245 31.38677
#
# Velocity S-wave (km/s) = 3.58538 3.90775 3.75003
# Velocity P-wave (km/s) = 5.59028 6.10200 5.85174
#
# Compressibility (1/GPa) = 0.03175080
#
# Stress axis : x y z
#
# Youngs Moduli (GPa) = 35.07520 94.52485 92.08496
#
# Poissons Ratio (x) = 0.39312 0.37055
# Poissons Ratio (y) = 0.14587 0.08437
# Poissons Ratio (z) = 0.14114 0.08660
#
# Static dielectric constant tensor:
#      x y z
#    x 3.818880 0.000000 -0.171370 
#    y 0.000000 4.241090 0.000000 
#    z -0.171370 0.000000 4.230040 
# 
# 
# High freq. dielectric constant tensor:
#      x y z
#    x 1.859030 0.000000 -0.015920 
#    y 0.000000 1.900540 0.000000 
#    z -0.015920 0.000000 1.898270 
# 
# From -- ./inp_files/13411.got.cif
#   From: 2010.03.12/outbox.cif.g09.slc.cpg/sg14_7_cif.got.tgz:13411.got - 2010.03.31 13:35:05.
