data_PCOD8127451
_publ_section_title
;
Structure prediction by ZEFSAII (Michael W. Deem and Ramdas Pophale) SiO2 
 PCOD8127451
Probable space group: P 21/C
;
_chemical_formula_sum "Si O2"
_cell_formula_units_Z 20
_cell_length_a 10.825670
_cell_length_b 8.160663
_cell_length_c 9.434640
_cell_angle_alpha 90.000000
_cell_angle_beta 92.220230
_cell_angle_gamma 90.000000
_cell_volume 832.874210
_symmetry_space_group_name_H-M "P 21/C"
_symmetry_group_IT_number 14
_symmetry_cell_setting 'monoclinic'
loop_
_space_group_symop_operation_xyz
x,y,z
-x,1/2+y,1/2-z
-x,-y,-z
x,1/2-y,1/2+z
loop_
_atom_site_type_symbol
_atom_site_label
_atom_site_fract_x
_atom_site_fract_y
_atom_site_fract_z
Si Si1 0.041555 0.866165 0.112121
Si Si2 0.731786 0.364448 0.927727
Si Si3 0.100627 0.057211 0.393663
Si Si4 0.519645 0.768828 0.957793
Si Si5 0.401316 0.454068 0.289378
O O1 0.157225 0.764137 0.058443
O O2 0.922715 0.749561 0.138764
O O3 0.086981 0.954366 0.252657
O O4 0.000000 0.000000 0.000000
O O5 0.716730 0.435004 0.764246
O O6 0.764525 0.517261 0.033964
O O7 0.608158 0.272465 0.969777
O O8 0.000000 0.000000 0.500000
O O9 0.560477 0.617520 0.863079
O O10 0.507595 0.926127 0.854257
O O11 0.618900 0.816707 0.088420
#
# Coordination Sequence:
#
# PCOD8127451 Si02
#       5
#     4   4   4   4   4
#     4  11  24  48  71 101 141 178 235 297 355 424
#     4  11  23  45  73 102 141 189 237 285 357 417
#     4  10  22  42  70 101 135 176 230 291 349 419
#     4  11  24  46  70 102 149 188 237 292 347 423
#     4  11  24  45  69 102 144 187 240 290 348 420
#
# _framework density 24.013228999999999
#
# number of rings (size 3 to 8) (size 9 to 14) (size 15 to 20)
#    0.000    1.200    2.000    4.200    0.000    1.600 
#   18.000    0.000    0.000    0.000    0.000    0.000 
#    0.000    0.000    0.000    0.000    0.000    0.000 
#
# Total GULP energy -247840.040331 kJ/mol
# GULP energy per Si atom -12392.002017 kJ/mol
# Density = 2.395857 g / cm^3
# Si number density = 24.013229 Si / 1000 Ang^3
#
#
#
# Elastic Constant Matrix: (Units=GPa)
#
#
# Indices 1 2 3 4 5 6 
#
# 1 40.1503 36.7900 40.5380 0.0000 19.1736 0.0000
# 2 36.7900 126.4641 54.4216 0.0000 16.8914 0.0000
# 3 40.5380 54.4216 166.9382 0.0000 36.4840 0.0000
# 4 0.0000 0.0000 0.0000 73.1443 0.0000 10.8406
# 5 19.1736 16.8914 36.4840 0.0000 38.8836 0.0000
# 6 0.0000 0.0000 0.0000 10.8406 0.0000 32.3963
#
#
#
# Elastic Compliance Matrix: (Units=1/GPa)
#
#
# Indices 1 2 3 4 5 6 
#
# 1 0.044608 -0.009056 -0.004947 0.000000 -0.013421 0.000000
# 2 -0.009056 0.011105 -0.001689 0.000000 0.001226 0.000000
# 3 -0.004947 -0.001689 0.008867 0.000000 -0.005147 0.000000
# 4 0.000000 0.000000 0.000000 0.014385 0.000000 -0.004814
# 5 -0.013421 0.001226 -0.005147 0.000000 0.036632 0.000000
# 6 0.000000 0.000000 0.000000 -0.004814 0.000000 0.032478
#
#
# Mechanical properties :
#
#
# Convention : Reuss Voigt Hill
#
# Bulk Modulus (GPa) = 30.12396 66.33910 48.23153
# Shear Modulus (GPa) = 26.24339 42.33837 34.29088
#
# Velocity S-wave (km/s) = 3.30945 4.20352 3.78299
# Velocity P-wave (km/s) = 5.21299 7.15859 6.26182
#
# Compressibility (1/GPa) = 0.03319617
#
# Stress axis : x y z
#
# Youngs Moduli (GPa) = 22.41754 90.05047 112.77772
#
# Poissons Ratio (x) = 0.81546 0.55792
# Poissons Ratio (y) = 0.20300 0.19050
# Poissons Ratio (z) = 0.11090 0.15211
#
# Static dielectric constant tensor:
#      x y z
#    x 4.298450 0.000000 0.760510 
#    y 0.000000 4.982500 0.000000 
#    z 0.760510 0.000000 5.104960 
# 
# 
# High freq. dielectric constant tensor:
#      x y z
#    x 1.917050 0.000000 0.026780 
#    y 0.000000 1.975270 0.000000 
#    z 0.026780 0.000000 1.974870 
# 
# From -- ./inp_files/11886.got.cif
#   From: 2010.03.12/outbox.cif.g09.slc.cpg/sg14_6_cif.got.tgz:11886.got - 2010.03.31 13:35:05.
