data_PCOD8127750
_publ_section_title
;
Structure prediction by ZEFSAII (Michael W. Deem and Ramdas Pophale) SiO2 
 PCOD8127750
Probable space group: P 21/C
;
_chemical_formula_sum "Si O2"
_cell_formula_units_Z 24
_cell_length_a 10.531108
_cell_length_b 9.036582
_cell_length_c 11.589212
_cell_angle_alpha 90.000000
_cell_angle_beta 116.554854
_cell_angle_gamma 90.000000
_cell_volume 986.542500
_symmetry_space_group_name_H-M "P 21/C"
_symmetry_group_IT_number 14
_symmetry_cell_setting 'monoclinic'
loop_
_space_group_symop_operation_xyz
x,y,z
-x,1/2+y,1/2-z
-x,-y,-z
x,1/2-y,1/2+z
loop_
_atom_site_type_symbol
_atom_site_label
_atom_site_fract_x
_atom_site_fract_y
_atom_site_fract_z
Si Si1 0.090998 0.587712 0.279042
Si Si2 0.098064 0.190345 0.672543
Si Si3 0.597215 0.327396 0.656854
Si Si4 0.581525 0.003741 0.745107
Si Si5 0.629022 0.757916 0.594712
Si Si6 0.182318 0.366477 0.509926
O O1 0.040344 0.478745 0.153530
O O2 0.238766 0.664672 0.308759
O O3 0.102011 0.475618 0.391542
O O4 0.974896 0.712572 0.255088
O O5 0.268678 0.179602 0.768752
O O6 0.069502 0.268892 0.538446
O O7 0.548745 0.456652 0.724489
O O8 0.512490 0.334828 0.498980
O O9 0.563744 0.175453 0.710504
O O10 0.581326 0.917769 0.621860
O O11 0.730099 0.970770 0.867724
O O12 0.718359 0.756512 0.511403
#
# Coordination Sequence:
#
# PCOD8127750 Si02
#       6
#     4   4   4   4   4   4
#     4  11  25  43  69  98 134 178 223 271 338 392
#     4  10  23  44  66  95 134 176 223 272 327 395
#     4  11  25  40  70 100 129 178 221 276 334 397
#     4  10  23  40  67  98 136 164 225 277 330 389
#     4   9  21  42  66  92 130 172 215 279 322 383
#     4   9  21  41  70  90 133 179 218 267 336 390
#
# _framework density 24.327385
#
# number of rings (size 3 to 8) (size 9 to 14) (size 15 to 20)
#    0.000    2.000    0.000    1.000   16.333    3.333 
#    0.000    3.333    0.000    0.000    0.000    0.000 
#    0.000    0.000    0.000    0.000    0.000    0.000 
#
# Total GULP energy -297375.594188 kJ/mol
# GULP energy per Si atom -12390.649758 kJ/mol
# Density = 2.427202 g / cm^3
# Si number density = 24.327385 Si / 1000 Ang^3
#
#
#
# Elastic Constant Matrix: (Units=GPa)
#
#
# Indices 1 2 3 4 5 6 
#
# 1 70.8448 34.1698 10.6930 0.0000 -1.7417 0.0000
# 2 34.1698 102.4010 21.9082 0.0000 -6.2857 0.0000
# 3 10.6930 21.9082 55.6036 0.0000 -3.4269 0.0000
# 4 0.0000 0.0000 0.0000 27.2298 0.0000 -6.3091
# 5 -1.7417 -6.2857 -3.4269 0.0000 23.2906 0.0000
# 6 0.0000 0.0000 0.0000 -6.3091 0.0000 40.5915
#
#
#
# Elastic Compliance Matrix: (Units=1/GPa)
#
#
# Indices 1 2 3 4 5 6 
#
# 1 0.016890 -0.005415 -0.001137 0.000000 -0.000366 0.000000
# 2 -0.005415 0.012522 -0.003743 0.000000 0.002424 0.000000
# 3 -0.001137 -0.003743 0.019790 0.000000 0.001817 0.000000
# 4 0.000000 0.000000 0.000000 0.038097 0.000000 0.005921
# 5 -0.000366 0.002424 0.001817 0.000000 0.043830 0.000000
# 6 0.000000 0.000000 0.000000 0.005921 0.000000 0.025556
#
#
# Mechanical properties :
#
#
# Convention : Reuss Voigt Hill
#
# Bulk Modulus (GPa) = 34.95102 40.26571 37.60836
# Shear Modulus (GPa) = 26.76494 29.02758 27.89626
#
# Velocity S-wave (km/s) = 3.32052 3.45803 3.38997
# Velocity P-wave (km/s) = 5.39438 5.70364 5.55116
#
# Compressibility (1/GPa) = 0.02861147
#
# Stress axis : x y z
#
# Youngs Moduli (GPa) = 59.20734 79.85908 50.53096
#
# Poissons Ratio (x) = 0.43244 0.05745
# Poissons Ratio (y) = 0.32061 0.18914
# Poissons Ratio (z) = 0.06732 0.29892
#
# Static dielectric constant tensor:
#      x y z
#    x 4.325720 0.000000 -0.244910 
#    y 0.000000 4.384330 0.000000 
#    z -0.244910 0.000000 4.493660 
# 
# 
# High freq. dielectric constant tensor:
#      x y z
#    x 1.959660 0.000000 -0.013800 
#    y 0.000000 1.965000 0.000000 
#    z -0.013800 0.000000 1.962680 
# 
# From -- ./inp_files/28190.got.cif
#   From: 2010.03.12/outbox.cif.g09.slc.cpg/sg14_15_cif.got.tgz:28190.got - 2010.03.31 13:35:05.
