data_PCOD8127453
_publ_section_title
;
Structure prediction by ZEFSAII (Michael W. Deem and Ramdas Pophale) SiO2 
 PCOD8127453
Probable space group: P 21/C
;
_chemical_formula_sum "Si O2"
_cell_formula_units_Z 32
_cell_length_a 9.190856
_cell_length_b 11.378004
_cell_length_c 15.430443
_cell_angle_alpha 90.000000
_cell_angle_beta 72.649162
_cell_angle_gamma 90.000000
_cell_volume 1540.191806
_symmetry_space_group_name_H-M "P 21/C"
_symmetry_group_IT_number 14
_symmetry_cell_setting 'monoclinic'
loop_
_space_group_symop_operation_xyz
x,y,z
-x,1/2+y,1/2-z
-x,-y,-z
x,1/2-y,1/2+z
loop_
_atom_site_type_symbol
_atom_site_label
_atom_site_fract_x
_atom_site_fract_y
_atom_site_fract_z
Si Si1 0.616711 0.039479 0.850352
Si Si2 0.902527 0.765430 0.101466
Si Si3 0.751769 0.234389 0.942999
Si Si4 0.514548 0.790930 0.903596
Si Si5 0.211124 0.973516 0.663224
Si Si6 0.901950 0.608539 0.264048
Si Si7 0.195937 0.209331 0.572887
Si Si8 0.621633 0.626192 0.739561
O O1 0.646367 0.136836 0.917064
O O2 0.527396 0.099348 0.788054
O O3 0.516573 0.932274 0.904484
O O4 0.779524 0.994193 0.789816
O O5 0.895165 0.655464 0.166964
O O6 0.773844 0.858355 0.153913
O O7 0.076776 0.814217 0.074126
O O8 0.875611 0.728649 0.007854
O O9 0.740482 0.354851 0.892631
O O10 0.659589 0.252921 0.050133
O O11 0.624354 0.741280 0.960744
O O12 0.584178 0.744838 0.800041
O O13 0.169013 0.073262 0.600561
O O14 0.348594 0.018631 0.699634
O O15 0.066047 0.949963 0.750414
O O16 0.882330 0.709844 0.339311
#
# Coordination Sequence:
#
# PCOD8127453 Si02
#       8
#     4   4   4   4   4   4   4   4
#     4  11  23  39  68  88 136 174 217 272 328 390
#     4  11  22  43  68  97 129 172 219 271 335 391
#     4  11  25  39  64 100 131 169 225 273 326 399
#     4  10  23  45  59  96 133 169 222 273 330 392
#     4  10  23  41  66  96 137 167 223 277 323 394
#     4  10  22  43  65  95 132 172 216 276 332 388
#     4  10  22  42  70  90 132 177 213 277 332 387
#     4  11  23  42  67  94 130 178 221 266 337 395
#
# _framework density 20.776633
#
# number of rings (size 3 to 8) (size 9 to 14) (size 15 to 20)
#    0.000    1.500    3.750    1.875    3.500    9.000 
#    0.000    3.750    0.000    0.000    0.000    0.000 
#    0.000    0.000    0.000    0.000    0.000    0.000 
#
# Total GULP energy -396704.705001 kJ/mol
# GULP energy per Si atom -12397.022031 kJ/mol
# Density = 2.072934 g / cm^3
# Si number density = 20.776633 Si / 1000 Ang^3
#
#
#
# Elastic Constant Matrix: (Units=GPa)
#
#
# Indices 1 2 3 4 5 6 
#
# 1 87.0526 36.6345 60.1672 0.0000 -7.6911 0.0000
# 2 36.6345 100.5113 35.0434 0.0000 -9.0631 0.0000
# 3 60.1672 35.0434 112.5369 0.0000 -5.0767 0.0000
# 4 0.0000 0.0000 0.0000 10.8116 0.0000 -3.0374
# 5 -7.6911 -9.0631 -5.0767 0.0000 43.2700 0.0000
# 6 0.0000 0.0000 0.0000 -3.0374 0.0000 28.2131
#
#
#
# Elastic Compliance Matrix: (Units=1/GPa)
#
#
# Indices 1 2 3 4 5 6 
#
# 1 0.019599 -0.003781 -0.009229 0.000000 0.001609 0.000000
# 2 -0.003781 0.012055 -0.001658 0.000000 0.001658 0.000000
# 3 -0.009229 -0.001658 0.014322 0.000000 -0.000307 0.000000
# 4 0.000000 0.000000 0.000000 0.095378 0.000000 0.010268
# 5 0.001609 0.001658 -0.000307 0.000000 0.023708 0.000000
# 6 0.000000 0.000000 0.000000 0.010268 0.000000 0.036550
#
#
# Mechanical properties :
#
#
# Convention : Reuss Voigt Hill
#
# Bulk Modulus (GPa) = 60.08895 62.64345 61.36620
# Shear Modulus (GPa) = 21.14226 27.67598 24.40912
#
# Velocity S-wave (km/s) = 3.19344 3.65372 3.43131
# Velocity P-wave (km/s) = 6.52546 6.92935 6.73044
#
# Compressibility (1/GPa) = 0.01664199
#
# Stress axis : x y z
#
# Youngs Moduli (GPa) = 51.02323 82.95580 69.82148
#
# Poissons Ratio (x) = 0.31364 0.64435
# Poissons Ratio (y) = 0.19291 0.11573
# Poissons Ratio (z) = 0.47087 0.13750
#
# Static dielectric constant tensor:
#      x y z
#    x 3.922770 0.000000 -0.189530 
#    y 0.000000 3.699230 0.000000 
#    z -0.189530 0.000000 3.715990 
# 
# 
# High freq. dielectric constant tensor:
#      x y z
#    x 1.817880 0.000000 -0.012790 
#    y 0.000000 1.812850 0.000000 
#    z -0.012790 0.000000 1.812360 
# 
# From -- ./inp_files/40281.got.cif
#   From: 2010.03.12/outbox.cif.g09.slc.cpg/sg14_21_cif.got.tgz:40281.got - 2010.03.31 13:35:05.
