data_PCOD8127607
_publ_section_title
;
Structure prediction by ZEFSAII (Michael W. Deem and Ramdas Pophale) SiO2 
 PCOD8127607
Probable space group: P 21/C
;
_chemical_formula_sum "Si O2"
_cell_formula_units_Z 24
_cell_length_a 5.201301
_cell_length_b 17.969077
_cell_length_c 12.695041
_cell_angle_alpha 90.000000
_cell_angle_beta 119.034612
_cell_angle_gamma 90.000000
_cell_volume 1037.398449
_symmetry_space_group_name_H-M "P 21/C"
_symmetry_group_IT_number 14
_symmetry_cell_setting 'monoclinic'
loop_
_space_group_symop_operation_xyz
x,y,z
-x,1/2+y,1/2-z
-x,-y,-z
x,1/2-y,1/2+z
loop_
_atom_site_type_symbol
_atom_site_label
_atom_site_fract_x
_atom_site_fract_y
_atom_site_fract_z
Si Si1 0.440524 0.378435 0.518378
Si Si2 0.231264 0.764397 0.429295
Si Si3 0.466821 0.391760 0.910157
Si Si4 0.387281 0.451607 0.117288
Si Si5 0.923620 0.877994 0.864758
Si Si6 0.013109 0.394967 0.239457
O O1 0.494783 0.289691 0.547142
O O2 0.291589 0.414299 0.592319
O O3 0.244848 0.393464 0.378335
O O4 0.758109 0.419532 0.569819
O O5 0.327126 0.818413 0.544666
O O6 0.968142 0.708537 0.410218
O O7 0.122193 0.813105 0.308007
O O8 0.674718 0.461208 0.918037
O O9 0.201267 0.380321 0.777335
O O10 0.331532 0.404051 0.000052
O O11 0.173511 0.423555 0.165937
O O12 0.736824 0.447027 0.216725
#
# Coordination Sequence:
#
# PCOD8127607 Si02
#       6
#     4   4   4   4   4   4
#     4  10  23  39  61  95 123 162 197 250 316 361
#     4   9  23  37  67  89 121 162 194 267 302 352
#     4  10  22  45  62  94 123 155 216 244 304 364
#     4  10  25  40  67  88 119 171 197 261 290 351
#     4  10  23  38  62  96 119 162 195 255 312 354
#     4  11  22  43  60  91 124 158 213 242 309 366
#
# _framework density 23.134795
#
# number of rings (size 3 to 8) (size 9 to 14) (size 15 to 20)
#    1.000    1.000    0.000    2.000    4.667   11.333 
#    0.000    5.000    0.000    0.000    0.000    0.000 
#    0.000    0.000    0.000    0.000    0.000    0.000 
#
# Total GULP energy -297390.211296 kJ/mol
# GULP energy per Si atom -12391.258804 kJ/mol
# Density = 2.308214 g / cm^3
# Si number density = 23.134795 Si / 1000 Ang^3
#
#
#
# Elastic Constant Matrix: (Units=GPa)
#
#
# Indices 1 2 3 4 5 6 
#
# 1 118.5868 23.8358 48.6018 0.0000 -5.7721 0.0000
# 2 23.8358 32.7663 3.8495 0.0000 1.0504 0.0000
# 3 48.6018 3.8495 177.8751 0.0000 23.0341 0.0000
# 4 0.0000 0.0000 0.0000 4.7601 0.0000 6.5957
# 5 -5.7721 1.0504 23.0341 0.0000 24.3666 0.0000
# 6 0.0000 0.0000 0.0000 6.5957 0.0000 19.4662
#
#
#
# Elastic Compliance Matrix: (Units=1/GPa)
#
#
# Indices 1 2 3 4 5 6 
#
# 1 0.012170 -0.008603 -0.004057 0.000000 0.007089 0.000000
# 2 -0.008603 0.036693 0.002308 0.000000 -0.005801 0.000000
# 3 -0.004057 0.002308 0.007769 0.000000 -0.008404 0.000000
# 4 0.000000 0.000000 0.000000 0.395993 0.000000 -0.134174
# 5 0.007089 -0.005801 -0.008404 0.000000 0.050914 0.000000
# 6 0.000000 0.000000 0.000000 -0.134174 0.000000 0.096833
#
#
# Mechanical properties :
#
#
# Convention : Reuss Voigt Hill
#
# Bulk Modulus (GPa) = 27.83488 53.53362 40.68425
# Shear Modulus (GPa) = 7.89825 26.58133 17.23979
#
# Velocity S-wave (km/s) = 1.84971 3.39333 2.73278
# Velocity P-wave (km/s) = 4.07672 6.20830 5.25179
#
# Compressibility (1/GPa) = 0.03592615
#
# Stress axis : x y z
#
# Youngs Moduli (GPa) = 82.17149 27.25348 128.71957
#
# Poissons Ratio (x) = 0.23447 0.52221
# Poissons Ratio (y) = 0.70696 -0.29708
# Poissons Ratio (z) = 0.33337 -0.06290
#
# Static dielectric constant tensor:
#      x y z
#    x 3.990110 0.000000 0.237780 
#    y 0.000000 4.125370 0.000000 
#    z 0.237780 0.000000 4.059320 
# 
# 
# High freq. dielectric constant tensor:
#      x y z
#    x 1.905440 0.000000 0.019500 
#    y 0.000000 1.907140 0.000000 
#    z 0.019500 0.000000 1.916600 
# 
# From -- ./inp_files/21647.got.cif
#   From: 2010.03.12/outbox.cif.g09.slc.cpg/sg14_11_cif.got.tgz:21647.got - 2010.03.31 13:35:05.
