data_PCOD8127587
_publ_section_title
;
Structure prediction by ZEFSAII (Michael W. Deem and Ramdas Pophale) SiO2 
 PCOD8127587
Probable space group: P 21/C
;
_chemical_formula_sum "Si O2"
_cell_formula_units_Z 32
_cell_length_a 19.810300
_cell_length_b 14.317731
_cell_length_c 13.751064
_cell_angle_alpha 90.000000
_cell_angle_beta 22.393996
_cell_angle_gamma 90.000000
_cell_volume 1485.923026
_symmetry_space_group_name_H-M "P 21/C"
_symmetry_group_IT_number 14
_symmetry_cell_setting 'monoclinic'
loop_
_space_group_symop_operation_xyz
x,y,z
-x,1/2+y,1/2-z
-x,-y,-z
x,1/2-y,1/2+z
loop_
_atom_site_type_symbol
_atom_site_label
_atom_site_fract_x
_atom_site_fract_y
_atom_site_fract_z
Si Si1 0.224257 0.409807 0.427172
Si Si2 0.180234 0.966122 0.804444
Si Si3 0.516106 0.546056 0.748957
Si Si4 0.354198 0.719467 0.866394
Si Si5 0.916100 0.263228 0.614041
Si Si6 0.304273 0.256171 0.178070
Si Si7 0.134280 0.874559 0.494218
Si Si8 0.655231 0.964938 0.860173
O O1 0.205874 0.496180 0.378331
O O2 0.334118 0.448359 0.369913
O O3 0.315601 0.318060 0.260073
O O4 0.032736 0.376140 0.714075
O O5 0.342660 0.006515 0.522538
O O6 0.172196 0.854087 0.817166
O O7 0.000000 0.000000 0.000000
O O8 0.448796 0.647855 0.811600
O O9 0.604213 0.499684 0.536708
O O10 0.518320 0.787311 0.618433
O O11 0.192878 0.766270 0.142175
O O12 0.290558 0.669468 0.851456
O O13 0.903003 0.182513 0.553331
O O14 0.122581 0.281716 0.363972
O O15 0.308439 0.145566 0.195961
O O16 0.172693 0.979765 0.406633
O O17 0.500000 0.000000 0.000000
#
# Coordination Sequence:
#
# PCOD8127587 Si02
#       8
#     4   4   4   4   4   4   4   4
#     4  12  25  44  71 104 143 180 231 300 342 422
#     4  11  23  46  72  99 139 185 229 289 355 413
#     4  10  23  43  68 102 138 176 239 288 342 418
#     4  10  22  44  68  98 140 176 233 291 340 421
#     4  11  25  46  69 103 137 184 229 288 351 417
#     4  11  23  44  72 102 137 182 235 282 354 412
#     4  12  24  46  70  99 141 181 230 290 349 417
#     4  11  24  45  72  98 137 187 232 283 350 414
#
# _framework density 21.535435
#
# number of rings (size 3 to 8) (size 9 to 14) (size 15 to 20)
#    0.000    1.000    5.000    2.625    3.500    4.000 
#    2.250    0.000    0.000    0.000    0.000    0.000 
#    0.000    0.000    0.000    0.000    0.000    0.000 
#
# Total GULP energy -396637.156871 kJ/mol
# GULP energy per Si atom -12394.911152 kJ/mol
# Density = 2.148642 g / cm^3
# Si number density = 21.535435 Si / 1000 Ang^3
#
#
#
# Elastic Constant Matrix: (Units=GPa)
#
#
# Indices 1 2 3 4 5 6 
#
# 1 147.3906 28.4027 51.5351 0.0000 4.8461 0.0000
# 2 28.4027 59.5859 27.1744 0.0000 13.1930 0.0000
# 3 51.5351 27.1744 163.5071 0.0000 16.9912 0.0000
# 4 0.0000 0.0000 0.0000 36.3910 0.0000 4.8008
# 5 4.8461 13.1930 16.9912 0.0000 39.7565 0.0000
# 6 0.0000 0.0000 0.0000 4.8008 0.0000 40.9927
#
#
#
# Elastic Compliance Matrix: (Units=1/GPa)
#
#
# Indices 1 2 3 4 5 6 
#
# 1 0.008097 -0.003096 -0.002137 0.000000 0.000954 0.000000
# 2 -0.003096 0.020327 -0.001821 0.000000 -0.005589 0.000000
# 3 -0.002137 -0.001821 0.007328 0.000000 -0.002267 0.000000
# 4 0.000000 0.000000 0.000000 0.027911 0.000000 -0.003269
# 5 0.000954 -0.005589 -0.002267 0.000000 0.027861 0.000000
# 6 0.000000 0.000000 0.000000 -0.003269 0.000000 0.024777
#
#
# Mechanical properties :
#
#
# Convention : Reuss Voigt Hill
#
# Bulk Modulus (GPa) = 46.20521 64.96755 55.58638
# Shear Modulus (GPa) = 36.33115 40.98613 38.65864
#
# Velocity S-wave (km/s) = 4.11182 4.36729 4.24148
# Velocity P-wave (km/s) = 6.63662 7.46085 7.06077
#
# Compressibility (1/GPa) = 0.02164258
#
# Stress axis : x y z
#
# Youngs Moduli (GPa) = 123.50137 49.19635 136.46955
#
# Poissons Ratio (x) = 0.15233 0.29158
# Poissons Ratio (y) = 0.38241 0.24857
# Poissons Ratio (z) = 0.26387 0.08961
#
# Static dielectric constant tensor:
#      x y z
#    x 3.980930 0.000000 0.201770 
#    y 0.000000 7.993280 0.000000 
#    z 0.201770 0.000000 4.584110 
# 
# 
# High freq. dielectric constant tensor:
#      x y z
#    x 1.852500 0.000000 0.001050 
#    y 0.000000 1.826520 0.000000 
#    z 0.001050 0.000000 1.871230 
# 
# From -- ./inp_files/50661.got.cif
#   From: 2010.03.12/outbox.cif.g09.slc.cpg/sg14_26_cif.got.tgz:50661.got - 2010.03.31 13:35:05.
