data_PCOD8127440
_publ_section_title
;
Structure prediction by ZEFSAII (Michael W. Deem and Ramdas Pophale) SiO2 
 PCOD8127440
Probable space group: P 21/C
;
_chemical_formula_sum "Si O2"
_cell_formula_units_Z 16
_cell_length_a 4.879599
_cell_length_b 8.744670
_cell_length_c 16.806644
_cell_angle_alpha 90.000000
_cell_angle_beta 53.095233
_cell_angle_gamma 90.000000
_cell_volume 573.456120
_symmetry_space_group_name_H-M "P 21/C"
_symmetry_group_IT_number 14
_symmetry_cell_setting 'monoclinic'
loop_
_space_group_symop_operation_xyz
x,y,z
-x,1/2+y,1/2-z
-x,-y,-z
x,1/2-y,1/2+z
loop_
_atom_site_type_symbol
_atom_site_label
_atom_site_fract_x
_atom_site_fract_y
_atom_site_fract_z
Si Si1 0.125994 0.338406 0.048825
Si Si2 0.198250 0.426595 0.345080
Si Si3 0.599124 0.126027 0.053204
Si Si4 0.614934 0.591811 0.154945
O O1 0.261225 0.224214 0.093063
O O2 0.880759 0.247935 0.031696
O O3 0.928185 0.478481 0.123701
O O4 0.421877 0.398251 0.935386
O O5 0.442756 0.498099 0.371598
O O6 0.265958 0.518993 0.251691
O O7 0.313289 0.252041 0.313418
O O8 0.788651 0.447299 0.440057
#
# Coordination Sequence:
#
# PCOD8127440 Si02
#       4
#     4   4   4   4
#     4  10  23  46  71  97 137 186 235 289 349 416
#     4  10  22  42  69 104 141 184 235 291 352 421
#     4  10  23  46  71  97 137 186 235 289 349 416
#     4  10  22  42  69 104 141 184 235 291 352 421
#
# _framework density 27.901
#
# number of rings (size 3 to 8) (size 9 to 14) (size 15 to 20)
#    0.000    2.000    0.000    1.500    0.000   20.000 
#    0.000   40.000    0.000    0.000    0.000    0.000 
#    0.000    0.000    0.000    0.000    0.000    0.000 
#
# Total GULP energy -198419.006973 kJ/mol
# GULP energy per Si atom -12401.187936 kJ/mol
# Density = 2.783750 g / cm^3
# Si number density = 27.901000 Si / 1000 Ang^3
#
#
#
# Elastic Constant Matrix: (Units=GPa)
#
#
# Indices 1 2 3 4 5 6 
#
# 1 77.0487 23.7506 0.4106 0.0000 3.9356 0.0000
# 2 23.7506 182.7894 55.7997 0.0000 -6.7673 0.0000
# 3 0.4106 55.7997 135.7631 0.0000 -3.2949 0.0000
# 4 0.0000 0.0000 0.0000 43.8819 0.0000 -16.4983
# 5 3.9356 -6.7673 -3.2949 0.0000 22.3309 0.0000
# 6 0.0000 0.0000 0.0000 -16.4983 0.0000 27.0576
#
#
#
# Elastic Compliance Matrix: (Units=1/GPa)
#
#
# Indices 1 2 3 4 5 6 
#
# 1 0.013784 -0.002134 0.000763 0.000000 -0.002963 0.000000
# 2 -0.002134 0.006638 -0.002673 0.000000 0.001993 0.000000
# 3 0.000763 -0.002673 0.008470 0.000000 0.000305 0.000000
# 4 0.000000 0.000000 0.000000 0.029566 0.000000 0.018028
# 5 -0.002963 0.001993 0.000305 0.000000 0.045952 0.000000
# 6 0.000000 0.000000 0.000000 0.018028 0.000000 0.047951
#
#
# Mechanical properties :
#
#
# Convention : Reuss Voigt Hill
#
# Bulk Modulus (GPa) = 48.06800 61.72480 54.89640
# Shear Modulus (GPa) = 29.87158 39.69676 34.78417
#
# Velocity S-wave (km/s) = 3.27559 3.77606 3.53469
# Velocity P-wave (km/s) = 5.61885 6.41734 6.03133
#
# Compressibility (1/GPa) = 0.02080386
#
# Stress axis : x y z
#
# Youngs Moduli (GPa) = 72.54882 150.64957 118.06852
#
# Poissons Ratio (x) = 0.32145 -0.09013
# Poissons Ratio (y) = 0.15480 0.31565
# Poissons Ratio (z) = -0.05538 0.40275
#
# Static dielectric constant tensor:
#      x y z
#    x 4.679130 0.000000 -0.119310 
#    y 0.000000 5.651500 0.000000 
#    z -0.119310 0.000000 5.094830 
# 
# 
# High freq. dielectric constant tensor:
#      x y z
#    x 2.094410 0.000000 -0.002810 
#    y 0.000000 2.169870 0.000000 
#    z -0.002810 0.000000 2.121660 
# 
# From -- ./inp_files/62970.got.cif
#   From: 2010.03.12/outbox.cif.g09.slc.cpg/sg14_32_cif.got.tgz:62970.got - 2010.03.31 13:35:05.
