data_PCOD8127609
_publ_section_title
;
Structure prediction by ZEFSAII (Michael W. Deem and Ramdas Pophale) SiO2 
 PCOD8127609
Probable space group: P 21/C
;
_chemical_formula_sum "Si O2"
_cell_formula_units_Z 32
_cell_length_a 22.170268
_cell_length_b 13.002122
_cell_length_c 11.025713
_cell_angle_alpha 90.000000
_cell_angle_beta 149.891534
_cell_angle_gamma 90.000000
_cell_volume 1594.346751
_symmetry_space_group_name_H-M "P 21/C"
_symmetry_group_IT_number 14
_symmetry_cell_setting 'monoclinic'
loop_
_space_group_symop_operation_xyz
x,y,z
-x,1/2+y,1/2-z
-x,-y,-z
x,1/2-y,1/2+z
loop_
_atom_site_type_symbol
_atom_site_label
_atom_site_fract_x
_atom_site_fract_y
_atom_site_fract_z
Si Si1 0.589054 0.185183 0.445859
Si Si2 0.904999 0.957455 0.482787
Si Si3 0.304713 0.603701 0.417743
Si Si4 0.363116 0.964399 0.270773
Si Si5 0.208132 0.273340 0.089968
Si Si6 0.652812 0.704486 0.923923
Si Si7 0.475258 0.997687 0.817182
Si Si8 0.871552 0.918160 0.152547
O O1 0.682127 0.278719 0.598536
O O2 0.654890 0.102176 0.642111
O O3 0.467442 0.227884 0.293534
O O4 0.563620 0.120034 0.278969
O O5 0.860840 0.880752 0.510518
O O6 0.897410 0.900375 0.339881
O O7 0.826472 0.062070 0.345232
O O8 0.041772 0.992199 0.747930
O O9 0.325274 0.609111 0.596188
O O10 0.399991 0.521881 0.532226
O O11 0.500000 0.000000 0.500000
O O12 0.270188 0.058873 0.113752
O O13 0.277682 0.244276 0.335341
O O14 0.285126 0.282138 0.099349
O O15 0.107640 0.186522 0.886891
O O16 0.622771 0.583659 0.892061
O O17 0.500000 0.000000 0.000000
#
# Coordination Sequence:
#
# PCOD8127609 Si02
#       8
#     4   4   4   4   4   4   4   4
#     4  11  23  35  59  88 129 166 206 261 324 378
#     4  10  22  45  64  91 129 167 218 263 310 382
#     4  10  23  37  58  87 122 168 205 257 314 374
#     4  11  21  39  60  90 123 157 212 261 305 385
#     4  12  22  42  68  96 122 174 217 264 315 392
#     4  11  24  36  64  95 130 170 219 257 326 387
#     4  11  22  36  55  89 133 163 205 268 323 371
#     4  10  23  41  69  91 122 172 216 259 316 383
#
# _framework density 20.070914999999999
#
# number of rings (size 3 to 8) (size 9 to 14) (size 15 to 20)
#    0.000    1.250    2.500    3.750    8.750    1.000 
#    0.000    0.625    0.000    0.000    0.000    0.000 
#    0.000    0.000    0.000    0.000    0.000    0.000 
#
# Total GULP energy -396624.679022 kJ/mol
# GULP energy per Si atom -12394.521219 kJ/mol
# Density = 2.002523 g / cm^3
# Si number density = 20.070915 Si / 1000 Ang^3
#
#
#
# Elastic Constant Matrix: (Units=GPa)
#
#
# Indices 1 2 3 4 5 6 
#
# 1 103.0976 35.2038 35.2170 0.0000 -9.9006 0.0000
# 2 35.2038 106.7517 38.7664 0.0000 1.3747 0.0000
# 3 35.2170 38.7664 85.7750 0.0000 7.1949 0.0000
# 4 0.0000 0.0000 0.0000 16.7753 0.0000 -0.9410
# 5 -9.9006 1.3747 7.1949 0.0000 26.8140 0.0000
# 6 0.0000 0.0000 0.0000 -0.9410 0.0000 35.3321
#
#
#
# Elastic Compliance Matrix: (Units=1/GPa)
#
#
# Indices 1 2 3 4 5 6 
#
# 1 0.012731 -0.002624 -0.004549 0.000000 0.006056 0.000000
# 2 -0.002624 0.011765 -0.004202 0.000000 -0.000445 0.000000
# 3 -0.004549 -0.004202 0.015906 0.000000 -0.005732 0.000000
# 4 0.000000 0.000000 0.000000 0.059701 0.000000 0.001590
# 5 0.006056 -0.000445 -0.005732 0.000000 0.041091 0.000000
# 6 0.000000 0.000000 0.000000 0.001590 0.000000 0.028345
#
#
# Mechanical properties :
#
#
# Convention : Reuss Voigt Hill
#
# Bulk Modulus (GPa) = 56.65498 57.11094 56.88296
# Shear Modulus (GPa) = 25.23041 28.21343 26.72192
#
# Velocity S-wave (km/s) = 3.54935 3.75332 3.65276
# Velocity P-wave (km/s) = 6.71460 6.87747 6.79652
#
# Compressibility (1/GPa) = 0.01765070
#
# Stress axis : x y z
#
# Youngs Moduli (GPa) = 78.54779 84.99942 62.86869
#
# Poissons Ratio (x) = 0.22308 0.28598
# Poissons Ratio (y) = 0.20614 0.26420
# Poissons Ratio (z) = 0.35731 0.35720
#
# Static dielectric constant tensor:
#      x y z
#    x 3.783000 0.000000 -0.161780 
#    y 0.000000 4.087290 0.000000 
#    z -0.161780 0.000000 3.748680 
# 
# 
# High freq. dielectric constant tensor:
#      x y z
#    x 1.782400 0.000000 -0.010880 
#    y 0.000000 1.794140 0.000000 
#    z -0.010880 0.000000 1.767340 
# 
# From -- ./inp_files/35928.got.cif
#   From: 2010.03.12/outbox.cif.g09.slc.cpg/sg14_18_cif.got.tgz:35928.got - 2010.03.31 13:35:05.
