data_PCOD8127160
_publ_section_title
;
Structure prediction by ZEFSAII (Michael W. Deem and Ramdas Pophale) SiO2 
 PCOD8127160
Probable space group: P 21/C
;
_chemical_formula_sum "Si O2"
_cell_formula_units_Z 32
_cell_length_a 28.138056
_cell_length_b 9.210971
_cell_length_c 10.426305
_cell_angle_alpha 90.000000
_cell_angle_beta 146.592533
_cell_angle_gamma 90.000000
_cell_volume 1487.845662
_symmetry_space_group_name_H-M "P 21/C"
_symmetry_group_IT_number 14
_symmetry_cell_setting 'monoclinic'
loop_
_space_group_symop_operation_xyz
x,y,z
-x,1/2+y,1/2-z
-x,-y,-z
x,1/2-y,1/2+z
loop_
_atom_site_type_symbol
_atom_site_label
_atom_site_fract_x
_atom_site_fract_y
_atom_site_fract_z
Si Si1 0.903625 0.436760 0.931522
Si Si2 0.270154 0.949763 0.562125
Si Si3 0.092488 0.012783 0.271517
Si Si4 0.638310 0.702828 0.593800
Si Si5 0.279359 0.628821 0.572816
Si Si6 0.239326 0.051945 0.215132
Si Si7 0.080286 0.338015 0.240470
Si Si8 0.416647 0.400864 0.799796
O O1 0.812596 0.360763 0.704464
O O2 0.906180 0.594572 0.870343
O O3 0.920774 0.452243 0.118119
O O4 0.979238 0.334629 0.046024
O O5 0.316583 0.792615 0.654080
O O6 0.171045 0.925204 0.383478
O O7 0.327948 0.044950 0.787713
O O8 0.269879 0.032366 0.427335
O O9 0.120808 0.179541 0.331453
O O10 0.000000 0.000000 0.000000
O O11 0.720945 0.799984 0.749238
O O12 0.584056 0.782094 0.585659
O O13 0.582822 0.680165 0.337756
O O14 0.271500 0.584093 0.703826
O O15 0.335912 0.511044 0.624315
O O16 0.135235 0.065972 0.966644
O O17 0.500000 0.500000 0.000000
#
# Coordination Sequence:
#
# PCOD8127160 Si02
#       8
#     4   4   4   4   4   4   4   4
#     4  10  23  41  59  87 132 173 224 284 341 395
#     4  12  24  40  71 100 136 180 231 273 346 411
#     4  12  25  35  60  90 125 175 232 282 330 404
#     4  11  23  47  75 105 137 187 228 278 343 423
#     4  10  25  44  67  99 139 178 221 293 342 405
#     4  10  22  41  68  98 135 180 232 273 336 412
#     4  10  22  40  61  85 128 179 226 284 331 394
#     4  11  26  50  76 107 144 177 234 287 351 418
#
# _framework density 21.507607
#
# number of rings (size 3 to 8) (size 9 to 14) (size 15 to 20)
#    0.000    1.250    2.500    2.250    7.000    1.000 
#    2.250    1.250    0.000    0.000    0.000    0.000 
#    0.000    0.000    0.000    0.000    0.000    0.000 
#
# Total GULP energy -396818.351618 kJ/mol
# GULP energy per Si atom -12400.573488 kJ/mol
# Density = 2.145865 g / cm^3
# Si number density = 21.507607 Si / 1000 Ang^3
#
#
#
# Elastic Constant Matrix: (Units=GPa)
#
#
# Indices 1 2 3 4 5 6 
#
# 1 100.2118 30.4393 48.0524 0.0000 -23.8555 0.0000
# 2 30.4393 106.9302 22.7272 0.0000 -6.0363 0.0000
# 3 48.0524 22.7272 97.3261 0.0000 -10.6429 0.0000
# 4 0.0000 0.0000 0.0000 41.4155 0.0000 -2.3297
# 5 -23.8555 -6.0363 -10.6429 0.0000 37.9910 0.0000
# 6 0.0000 0.0000 0.0000 -2.3297 0.0000 23.0047
#
#
#
# Elastic Compliance Matrix: (Units=1/GPa)
#
#
# Indices 1 2 3 4 5 6 
#
# 1 0.015602 -0.002684 -0.006243 0.000000 0.007622 0.000000
# 2 -0.002684 0.010335 -0.001127 0.000000 -0.000359 0.000000
# 3 -0.006243 -0.001127 0.013588 0.000000 -0.000293 0.000000
# 4 0.000000 0.000000 0.000000 0.024284 0.000000 0.002459
# 5 0.007622 -0.000359 -0.000293 0.000000 0.030969 0.000000
# 6 0.000000 0.000000 0.000000 0.002459 0.000000 0.043718
#
#
# Mechanical properties :
#
#
# Convention : Reuss Voigt Hill
#
# Bulk Modulus (GPa) = 51.50253 56.32287 53.91270
# Shear Modulus (GPa) = 30.28869 34.03217 32.16043
#
# Velocity S-wave (km/s) = 3.75677 3.98217 3.87111
# Velocity P-wave (km/s) = 6.54339 6.88388 6.71580
#
# Compressibility (1/GPa) = 0.01941652
#
# Stress axis : x y z
#
# Youngs Moduli (GPa) = 64.09427 96.75514 73.59273
#
# Poissons Ratio (x) = 0.25971 0.45943
# Poissons Ratio (y) = 0.17204 0.08297
# Poissons Ratio (z) = 0.40013 0.10909
#
# Static dielectric constant tensor:
#      x y z
#    x 3.943320 0.000000 -0.086100 
#    y 0.000000 3.904920 0.000000 
#    z -0.086100 0.000000 3.705190 
# 
# 
# High freq. dielectric constant tensor:
#      x y z
#    x 1.842080 0.000000 -0.012140 
#    y 0.000000 1.848890 0.000000 
#    z -0.012140 0.000000 1.836040 
# 
# From -- ./inp_files/36438.got.cif
#   From: 2010.03.12/outbox.cif.g09.slc.cpg/sg14_19_cif.got.tgz:36438.got - 2010.03.31 13:35:05.
