data_PCOD8127866
_publ_section_title
;
Structure prediction by ZEFSAII (Michael W. Deem and Ramdas Pophale) SiO2 
 PCOD8127866
Probable space group: P 21/C
;
_chemical_formula_sum "Si O2"
_cell_formula_units_Z 20
_cell_length_a 22.935608
_cell_length_b 7.489369
_cell_length_c 9.877762
_cell_angle_alpha 90.000000
_cell_angle_beta 150.899803
_cell_angle_gamma 90.000000
_cell_volume 825.187407
_symmetry_space_group_name_H-M "P 21/C"
_symmetry_group_IT_number 14
_symmetry_cell_setting 'monoclinic'
loop_
_space_group_symop_operation_xyz
x,y,z
-x,1/2+y,1/2-z
-x,-y,-z
x,1/2-y,1/2+z
loop_
_atom_site_type_symbol
_atom_site_label
_atom_site_fract_x
_atom_site_fract_y
_atom_site_fract_z
Si Si1 0.398985 0.186316 0.569521
Si Si2 0.342488 0.686874 0.876603
Si Si3 0.706638 0.607158 0.406282
Si Si4 0.953998 0.762027 0.328127
Si Si5 0.097376 0.871261 0.362601
O O1 0.362493 0.236225 0.341430
O O2 0.330874 0.331654 0.521684
O O3 0.353333 0.981720 0.504074
O O4 0.541400 0.188566 0.879990
O O5 0.333046 0.598646 0.705638
O O6 0.226522 0.803960 0.676109
O O7 0.849574 0.615381 0.677919
O O8 0.895033 0.574652 0.168117
O O9 0.005464 0.858883 0.300494
O O10 0.054230 0.745048 0.647222
#
# Coordination Sequence:
#
# PCOD8127866 Si02
#       5
#     4   4   4   4   4
#     4  10  24  43  66  97 135 178 224 276 334 397
#     4  10  25  43  68 100 135 178 226 277 337 397
#     4  10  23  42  70  95 136 175 222 279 333 397
#     4  11  25  45  70 103 139 175 226 280 339 407
#     4  11  26  44  72 102 137 180 225 279 342 402
#
# _framework density 24.236919
#
# number of rings (size 3 to 8) (size 9 to 14) (size 15 to 20)
#    1.200    0.400    0.000    3.000    8.400    7.200 
#    0.000    0.000    0.000    0.000    0.000    0.000 
#    0.000    0.000    0.000    0.000    0.000    0.000 
#
# Total GULP energy -247942.440966 kJ/mol
# GULP energy per Si atom -12397.122048 kJ/mol
# Density = 2.418175 g / cm^3
# Si number density = 24.236919 Si / 1000 Ang^3
#
#
#
# Elastic Constant Matrix: (Units=GPa)
#
#
# Indices 1 2 3 4 5 6 
#
# 1 48.0846 -15.6732 0.7101 0.0000 2.8094 0.0000
# 2 -15.6732 40.7532 16.8205 0.0000 4.7834 0.0000
# 3 0.7101 16.8205 101.1780 0.0000 20.4354 0.0000
# 4 0.0000 0.0000 0.0000 43.8225 0.0000 4.2485
# 5 2.8094 4.7834 20.4354 0.0000 36.3303 0.0000
# 6 0.0000 0.0000 0.0000 4.2485 0.0000 14.8677
#
#
#
# Elastic Compliance Matrix: (Units=1/GPa)
#
#
# Indices 1 2 3 4 5 6 
#
# 1 0.024282 0.010191 -0.001370 0.000000 -0.002449 0.000000
# 2 0.010191 0.030665 -0.004732 0.000000 -0.002164 0.000000
# 3 -0.001370 -0.004732 0.011883 0.000000 -0.005955 0.000000
# 4 0.000000 0.000000 0.000000 0.023470 0.000000 -0.006707
# 5 -0.002449 -0.002164 -0.005955 0.000000 0.031349 0.000000
# 6 0.000000 0.000000 0.000000 -0.006707 0.000000 0.069176
#
#
# Mechanical properties :
#
#
# Convention : Reuss Voigt Hill
#
# Bulk Modulus (GPa) = 13.33208 21.52564 17.42886
# Shear Modulus (GPa) = 24.07913 31.54798 27.81356
#
# Velocity S-wave (km/s) = 3.15539 3.61175 3.39126
# Velocity P-wave (km/s) = 4.33451 5.12773 4.74771
#
# Compressibility (1/GPa) = 0.07500706
#
# Stress axis : x y z
#
# Youngs Moduli (GPa) = 41.18293 32.61081 84.15622
#
# Poissons Ratio (x) = -0.33235 0.11530
# Poissons Ratio (y) = -0.41971 0.39827
# Poissons Ratio (z) = 0.05643 0.15433
#
# Static dielectric constant tensor:
#      x y z
#    x 4.025620 0.000000 -0.186580 
#    y 0.000000 4.149800 0.000000 
#    z -0.186580 0.000000 4.430110 
# 
# 
# High freq. dielectric constant tensor:
#      x y z
#    x 1.939650 0.000000 -0.005050 
#    y 0.000000 1.958440 0.000000 
#    z -0.005050 0.000000 1.980460 
# 
# From -- ./inp_files/36225.got.cif
#   From: 2010.03.12/outbox.cif.g09.slc.cpg/sg14_19_cif.got.tgz:36225.got - 2010.03.31 13:35:05.
