data_PCOD8127615
_publ_section_title
;
Structure prediction by ZEFSAII (Michael W. Deem and Ramdas Pophale) SiO2 
 PCOD8127615
Probable space group: P 21/C
;
_chemical_formula_sum "Si O2"
_cell_formula_units_Z 20
_cell_length_a 8.781576
_cell_length_b 10.697208
_cell_length_c 18.239211
_cell_angle_alpha 90.000000
_cell_angle_beta 146.753086
_cell_angle_gamma 90.000000
_cell_volume 939.347222
_symmetry_space_group_name_H-M "P 21/C"
_symmetry_group_IT_number 14
_symmetry_cell_setting 'monoclinic'
loop_
_space_group_symop_operation_xyz
x,y,z
-x,1/2+y,1/2-z
-x,-y,-z
x,1/2-y,1/2+z
loop_
_atom_site_type_symbol
_atom_site_label
_atom_site_fract_x
_atom_site_fract_y
_atom_site_fract_z
Si Si1 0.837918 0.878954 0.910501
Si Si2 0.783429 0.857129 0.470497
Si Si3 0.698288 0.512258 0.791528
Si Si4 0.138561 0.256849 0.228546
Si Si5 0.482115 0.851302 0.491414
O O1 0.946847 0.759784 0.000174
O O2 0.867711 0.850767 0.836136
O O3 0.521932 0.902412 0.809038
O O4 0.000000 0.000000 0.000000
O O5 0.627267 0.931040 0.342903
O O6 0.568238 0.808605 0.444529
O O7 0.998540 0.952715 0.593553
O O8 0.682286 0.623468 0.725808
O O9 0.293940 0.203583 0.361659
O O10 0.823623 0.297549 0.118146
O O11 0.500000 0.000000 0.500000
#
# Coordination Sequence:
#
# PCOD8127615 Si02
#       5
#     4   4   4   4   4
#     4  11  25  41  69  98 132 177 231 277 337 410
#     4  10  24  40  69  91 132 178 223 272 339 400
#     4  10  22  45  66  95 131 176 232 277 328 405
#     4  11  26  44  72  99 144 177 231 288 346 411
#     4  12  25  45  68 104 140 183 225 288 356 408
#
# _framework density 21.291381999999999
#
# number of rings (size 3 to 8) (size 9 to 14) (size 15 to 20)
#    0.000    1.200    2.000    2.400   14.000    1.600 
#    0.000    3.000    0.000    0.000    0.000    0.000 
#    0.000    0.000    0.000    0.000    0.000    0.000 
#
# Total GULP energy -247990.132366 kJ/mol
# GULP energy per Si atom -12399.506618 kJ/mol
# Density = 2.124292 g / cm^3
# Si number density = 21.291382 Si / 1000 Ang^3
#
#
#
# Elastic Constant Matrix: (Units=GPa)
#
#
# Indices 1 2 3 4 5 6 
#
# 1 131.5936 31.7489 47.2886 0.0000 2.5407 0.0000
# 2 31.7489 112.0483 46.0694 0.0000 -3.3248 0.0000
# 3 47.2886 46.0694 96.4163 0.0000 2.5719 0.0000
# 4 0.0000 0.0000 0.0000 39.0162 0.0000 0.1298
# 5 2.5407 -3.3248 2.5719 0.0000 27.0291 0.0000
# 6 0.0000 0.0000 0.0000 0.1298 0.0000 38.3424
#
#
#
# Elastic Compliance Matrix: (Units=1/GPa)
#
#
# Indices 1 2 3 4 5 6 
#
# 1 0.009315 -0.000978 -0.004085 0.000000 -0.000607 0.000000
# 2 -0.000978 0.011305 -0.004974 0.000000 0.001956 0.000000
# 3 -0.004085 -0.004974 0.014796 0.000000 -0.001636 0.000000
# 4 0.000000 0.000000 0.000000 0.025631 0.000000 -0.000087
# 5 -0.000607 0.001956 -0.001636 0.000000 0.037450 0.000000
# 6 0.000000 0.000000 0.000000 -0.000087 0.000000 0.026081
#
#
# Mechanical properties :
#
#
# Convention : Reuss Voigt Hill
#
# Bulk Modulus (GPa) = 65.18457 65.58578 65.38517
# Shear Modulus (GPa) = 33.38540 35.20764 34.29652
#
# Velocity S-wave (km/s) = 3.96412 4.07087 4.01785
# Velocity P-wave (km/s) = 7.18570 7.27783 7.23191
#
# Compressibility (1/GPa) = 0.01534106
#
# Stress axis : x y z
#
# Youngs Moduli (GPa) = 107.35615 88.45602 67.58670
#
# Poissons Ratio (x) = 0.08648 0.27610
# Poissons Ratio (y) = 0.10496 0.33620
# Poissons Ratio (z) = 0.43857 0.44002
#
# Static dielectric constant tensor:
#      x y z
#    x 4.323040 0.000000 0.100210 
#    y 0.000000 2.958460 0.000000 
#    z 0.100210 0.000000 3.939560 
# 
# 
# High freq. dielectric constant tensor:
#      x y z
#    x 1.843630 0.000000 0.000670 
#    y 0.000000 1.850740 0.000000 
#    z 0.000670 0.000000 1.825480 
# 
# From -- ./inp_files/7855.got.cif
#   From: 2010.03.12/outbox.cif.g09.slc.cpg/sg14_4_cif.got.tgz:7855.got - 2010.03.31 13:35:05.
