data_PCOD8127707
_publ_section_title
;
Structure prediction by ZEFSAII (Michael W. Deem and Ramdas Pophale) SiO2 
 PCOD8127707
Probable space group: P 21/C
;
_chemical_formula_sum "Si O2"
_cell_formula_units_Z 24
_cell_length_a 21.042461
_cell_length_b 11.716905
_cell_length_c 14.294109
_cell_angle_alpha 90.000000
_cell_angle_beta 19.357237
_cell_angle_gamma 90.000000
_cell_volume 1168.137063
_symmetry_space_group_name_H-M "P 21/C"
_symmetry_group_IT_number 14
_symmetry_cell_setting 'monoclinic'
loop_
_space_group_symop_operation_xyz
x,y,z
-x,1/2+y,1/2-z
-x,-y,-z
x,1/2-y,1/2+z
loop_
_atom_site_type_symbol
_atom_site_label
_atom_site_fract_x
_atom_site_fract_y
_atom_site_fract_z
Si Si1 0.181957 0.861468 0.630167
Si Si2 0.895969 0.239998 0.949490
Si Si3 0.503115 0.492600 0.230071
Si Si4 0.214846 0.485854 0.336138
Si Si5 0.328950 0.697070 0.579378
Si Si6 0.689755 0.826668 0.126585
O O1 0.178560 0.774359 0.549119
O O2 0.219662 0.795506 0.674157
O O3 0.363503 0.947680 0.369642
O O4 0.986845 0.931410 0.913362
O O5 0.124501 0.247083 0.636815
O O6 0.817379 0.333972 0.133459
O O7 0.819029 0.114242 0.080423
O O8 0.380047 0.597812 0.437289
O O9 0.343191 0.399661 0.422499
O O10 0.639740 0.522484 0.952362
O O11 0.308623 0.412651 0.288607
O O12 0.513676 0.740617 0.379468
#
# Coordination Sequence:
#
# PCOD8127707 Si02
#       6
#     4   4   4   4   4   4
#     4  10  23  39  62  96 122 163 210 259 307 364
#     4  11  23  41  63  91 129 159 211 258 313 366
#     4  11  22  40  64  91 124 166 212 252 312 370
#     4  11  21  41  69  89 121 173 209 256 303 378
#     4  11  24  38  64  95 126 162 208 262 306 372
#     4  10  23  39  62  96 122 163 210 259 307 364
#
# _framework density 20.545534
#
# number of rings (size 3 to 8) (size 9 to 14) (size 15 to 20)
#    0.000    1.333    3.333    3.000    4.667    1.333 
#    0.000    0.000    0.000    0.000    0.000    0.000 
#    0.000    0.000    0.000    0.000    0.000    0.000 
#
# Total GULP energy -297504.989020 kJ/mol
# GULP energy per Si atom -12396.041209 kJ/mol
# Density = 2.049877 g / cm^3
# Si number density = 20.545534 Si / 1000 Ang^3
#
#
#
# Elastic Constant Matrix: (Units=GPa)
#
#
# Indices 1 2 3 4 5 6 
#
# 1 83.9659 -1.2707 37.6597 0.0000 -12.4514 0.0000
# 2 -1.2707 25.1166 -5.5018 0.0000 0.8551 0.0000
# 3 37.6597 -5.5018 43.0621 0.0000 3.6101 0.0000
# 4 0.0000 0.0000 0.0000 33.9082 0.0000 3.1129
# 5 -12.4514 0.8551 3.6101 0.0000 32.7563 0.0000
# 6 0.0000 0.0000 0.0000 3.1129 0.0000 21.4123
#
#
#
# Elastic Compliance Matrix: (Units=1/GPa)
#
#
# Indices 1 2 3 4 5 6 
#
# 1 0.023360 -0.004002 -0.021896 0.000000 0.011397 0.000000
# 2 -0.004002 0.041736 0.009136 0.000000 -0.003618 0.000000
# 3 -0.021896 0.009136 0.044669 0.000000 -0.013485 0.000000
# 4 0.000000 0.000000 0.000000 0.029890 0.000000 -0.004345
# 5 0.011397 -0.003618 -0.013485 0.000000 0.036441 0.000000
# 6 0.000000 0.000000 0.000000 -0.004345 0.000000 0.047334
#
#
# Mechanical properties :
#
#
# Convention : Reuss Voigt Hill
#
# Bulk Modulus (GPa) = 13.11646 23.76879 18.44263
# Shear Modulus (GPa) = 17.70736 25.69921 21.70328
#
# Velocity S-wave (km/s) = 2.93893 3.54056 3.25368
# Velocity P-wave (km/s) = 4.23254 5.32053 4.80741
#
# Compressibility (1/GPa) = 0.07624006
#
# Stress axis : x y z
#
# Youngs Moduli (GPa) = 42.80877 23.96000 22.38692
#
# Poissons Ratio (x) = 0.09590 0.49018
# Poissons Ratio (y) = 0.17134 -0.20453
# Poissons Ratio (z) = 0.93734 -0.21890
#
# Static dielectric constant tensor:
#      x y z
#    x 3.875830 0.000000 -0.218690 
#    y 0.000000 3.702560 0.000000 
#    z -0.218690 0.000000 3.838410 
# 
# 
# High freq. dielectric constant tensor:
#      x y z
#    x 1.816670 0.000000 -0.019330 
#    y 0.000000 1.796930 0.000000 
#    z -0.019330 0.000000 1.808480 
# 
# From -- ./inp_files/24163.got.cif
#   From: 2010.03.12/outbox.cif.g09.slc.cpg/sg14_13_cif.got.tgz:24163.got - 2010.03.31 13:35:05.
