data_PCOD8127274
_publ_section_title
;
Structure prediction by ZEFSAII (Michael W. Deem and Ramdas Pophale) SiO2 
 PCOD8127274
Probable space group: P 21/C
;
_chemical_formula_sum "Si O2"
_cell_formula_units_Z 24
_cell_length_a 15.515607
_cell_length_b 4.854148
_cell_length_c 29.156001
_cell_angle_alpha 90.000000
_cell_angle_beta 155.425300
_cell_angle_gamma 90.000000
_cell_volume 913.223345
_symmetry_space_group_name_H-M "P 21/C"
_symmetry_group_IT_number 14
_symmetry_cell_setting 'monoclinic'
loop_
_space_group_symop_operation_xyz
x,y,z
-x,1/2+y,1/2-z
-x,-y,-z
x,1/2-y,1/2+z
loop_
_atom_site_type_symbol
_atom_site_label
_atom_site_fract_x
_atom_site_fract_y
_atom_site_fract_z
Si Si1 0.228462 0.430780 0.393330
Si Si2 0.861673 0.240751 0.005968
Si Si3 0.334275 0.285231 0.131460
Si Si4 0.758002 0.433088 0.161982
Si Si5 0.673435 0.821785 0.769495
Si Si6 0.460457 0.763204 0.079327
O O1 0.268081 0.118424 0.396612
O O2 0.398375 0.491931 0.514672
O O3 0.990606 0.474147 0.295007
O O4 0.272892 0.620752 0.369993
O O5 0.085820 0.107962 0.119932
O O6 0.862483 0.520859 0.976757
O O7 0.761927 0.326951 0.006843
O O8 0.714443 0.025279 0.907445
O O9 0.367637 0.329048 0.202055
O O10 0.539598 0.395409 0.204345
O O11 0.585291 0.513748 0.115675
O O12 0.602531 0.636461 0.691239
#
# Coordination Sequence:
#
# PCOD8127274 Si02
#       6
#     4   4   4   4   4   4
#     4  10  22  41  63  90 122 168 211 260 321 382
#     4  11  26  44  68  97 134 175 219 268 324 387
#     4  11  25  45  68  96 131 179 221 263 324 388
#     4  10  22  41  64  87 125 167 211 259 319 388
#     4  11  24  45  69  98 134 172 220 273 323 385
#     4  11  23  40  64  98 128 165 214 271 323 382
#
# _framework density 26.280535
#
# number of rings (size 3 to 8) (size 9 to 14) (size 15 to 20)
#    0.000    1.333    0.000    5.000    0.000    9.333 
#    0.000    6.667    0.000    0.000    0.000    0.000 
#    0.000    0.000    0.000    0.000    0.000    0.000 
#
# Total GULP energy -297439.300812 kJ/mol
# GULP energy per Si atom -12393.304201 kJ/mol
# Density = 2.622072 g / cm^3
# Si number density = 26.280535 Si / 1000 Ang^3
#
#
#
# Elastic Constant Matrix: (Units=GPa)
#
#
# Indices 1 2 3 4 5 6 
#
# 1 129.1983 10.4809 71.6673 0.0000 17.2620 0.0000
# 2 10.4809 66.0585 1.9667 0.0000 -1.3217 0.0000
# 3 71.6673 1.9667 141.5341 0.0000 8.4459 0.0000
# 4 0.0000 0.0000 0.0000 26.4582 0.0000 8.5431
# 5 17.2620 -1.3217 8.4459 0.0000 54.5394 0.0000
# 6 0.0000 0.0000 0.0000 8.5431 0.0000 17.8450
#
#
#
# Elastic Compliance Matrix: (Units=1/GPa)
#
#
# Indices 1 2 3 4 5 6 
#
# 1 0.011322 -0.001687 -0.005545 0.000000 -0.002766 0.000000
# 2 -0.001687 0.015404 0.000591 0.000000 0.000816 0.000000
# 3 -0.005545 0.000591 0.009850 0.000000 0.000244 0.000000
# 4 0.000000 0.000000 0.000000 0.044706 0.000000 -0.021402
# 5 -0.002766 0.000816 0.000244 0.000000 0.019193 0.000000
# 6 0.000000 0.000000 0.000000 -0.021402 0.000000 0.066284
#
#
# Mechanical properties :
#
#
# Convention : Reuss Voigt Hill
#
# Bulk Modulus (GPa) = 42.92410 56.11341 49.51876
# Shear Modulus (GPa) = 26.62339 36.61360 31.61850
#
# Velocity S-wave (km/s) = 3.18629 3.73659 3.47236
# Velocity P-wave (km/s) = 5.46856 6.32567 5.91267
#
# Compressibility (1/GPa) = 0.02329694
#
# Stress axis : x y z
#
# Youngs Moduli (GPa) = 88.32378 64.91646 101.52079
#
# Poissons Ratio (x) = 0.10949 0.56288
# Poissons Ratio (y) = 0.14897 -0.06003
# Poissons Ratio (z) = 0.48971 -0.03839
#
# Static dielectric constant tensor:
#      x y z
#    x 4.850900 0.000000 0.098530 
#    y 0.000000 4.245060 0.000000 
#    z 0.098530 0.000000 4.982760 
# 
# 
# High freq. dielectric constant tensor:
#      x y z
#    x 2.055180 0.000000 0.007960 
#    y 0.000000 2.030440 0.000000 
#    z 0.007960 0.000000 2.072870 
# 
# From -- ./inp_files/80149.got.cif
#   From: 2010.03.12/outbox.cif.g09.slc.cpg/sg14_41_cif.got.tgz:80149.got - 2010.03.31 13:35:05.
