data_PCOD8127481
_publ_section_title
;
Structure prediction by ZEFSAII (Michael W. Deem and Ramdas Pophale) SiO2 
 PCOD8127481
Probable space group: P 21/C
;
_chemical_formula_sum "Si O2"
_cell_formula_units_Z 32
_cell_length_a 22.761575
_cell_length_b 8.771151
_cell_length_c 11.050312
_cell_angle_alpha 90.000000
_cell_angle_beta 42.360336
_cell_angle_gamma 90.000000
_cell_volume 1486.478578
_symmetry_space_group_name_H-M "P 21/C"
_symmetry_group_IT_number 14
_symmetry_cell_setting 'monoclinic'
loop_
_space_group_symop_operation_xyz
x,y,z
-x,1/2+y,1/2-z
-x,-y,-z
x,1/2-y,1/2+z
loop_
_atom_site_type_symbol
_atom_site_label
_atom_site_fract_x
_atom_site_fract_y
_atom_site_fract_z
Si Si1 0.170903 0.854582 0.730879
Si Si2 0.518474 0.579213 0.342055
Si Si3 0.793162 0.455656 0.197800
Si Si4 0.940720 0.165444 0.318483
Si Si5 0.886326 0.495950 0.461848
Si Si6 0.458767 0.075663 0.683458
Si Si7 0.711095 0.547434 0.098913
Si Si8 0.252208 0.119173 0.000890
O O1 0.212444 0.711440 0.737031
O O2 0.084756 0.816637 0.783768
O O3 0.245591 0.902134 0.526777
O O4 0.150278 0.001114 0.846228
O O5 0.500000 0.500000 0.500000
O O6 0.495953 0.758305 0.380728
O O7 0.476012 0.507339 0.286076
O O8 0.621127 0.568217 0.168034
O O9 0.708323 0.496716 0.244379
O O10 0.789158 0.586455 0.304824
O O11 0.881298 0.460397 0.980852
O O12 0.930303 0.329484 0.393911
O O13 0.041794 0.122327 0.175986
O O14 0.803185 0.510896 0.502714
O O15 0.500000 0.000000 0.500000
O O16 0.354099 0.078911 0.829380
O O17 0.765233 0.704750 0.004411
#
# Coordination Sequence:
#
# PCOD8127481 Si02
#       8
#     4   4   4   4   4   4   4   4
#     4  10  22  43  63  94 133 168 224 274 330 392
#     4  11  24  46  68 101 137 179 229 287 341 419
#     4  10  22  44  63  96 135 165 223 277 322 405
#     4  10  23  42  62  96 130 175 222 269 333 391
#     4  11  24  41  65  93 134 173 221 274 327 399
#     4  11  26  46  70 103 139 181 232 285 349 411
#     4  10  25  40  70  96 127 176 223 265 341 399
#     4  11  25  44  66  97 135 175 219 277 337 394
#
# _framework density 21.527387999999998
#
# number of rings (size 3 to 8) (size 9 to 14) (size 15 to 20)
#    0.000    1.500    1.250    1.875    7.000    5.500 
#    2.250    0.000    0.000    0.000    0.000    0.000 
#    0.000    0.000    0.000    0.000    0.000    0.000 
#
# Total GULP energy -396554.932751 kJ/mol
# GULP energy per Si atom -12392.341648 kJ/mol
# Density = 2.147839 g / cm^3
# Si number density = 21.527388 Si / 1000 Ang^3
#
#
#
# Elastic Constant Matrix: (Units=GPa)
#
#
# Indices 1 2 3 4 5 6 
#
# 1 129.1774 53.4971 51.3300 0.0000 16.0485 0.0000
# 2 53.4971 118.6248 45.2894 0.0000 6.3565 0.0000
# 3 51.3300 45.2894 60.7358 0.0000 18.2694 0.0000
# 4 0.0000 0.0000 0.0000 30.5451 0.0000 -4.1263
# 5 16.0485 6.3565 18.2694 0.0000 40.0468 0.0000
# 6 0.0000 0.0000 0.0000 -4.1263 0.0000 26.8394
#
#
#
# Elastic Compliance Matrix: (Units=1/GPa)
#
#
# Indices 1 2 3 4 5 6 
#
# 1 0.012054 -0.002221 -0.008327 0.000000 -0.000679 0.000000
# 2 -0.002221 0.012410 -0.008174 0.000000 0.002649 0.000000
# 3 -0.008327 -0.008174 0.032690 0.000000 -0.010279 0.000000
# 4 0.000000 0.000000 0.000000 0.033433 0.000000 0.005140
# 5 -0.000679 0.002649 -0.010279 0.000000 0.029512 0.000000
# 6 0.000000 0.000000 0.000000 0.005140 0.000000 0.038049
#
#
# Mechanical properties :
#
#
# Convention : Reuss Voigt Hill
#
# Bulk Modulus (GPa) = 50.73604 67.64121 59.18863
# Shear Modulus (GPa) = 24.73268 30.04769 27.39018
#
# Velocity S-wave (km/s) = 3.39321 3.74008 3.57086
# Velocity P-wave (km/s) = 6.24269 7.08097 6.67500
#
# Compressibility (1/GPa) = 0.01970986
#
# Stress axis : x y z
#
# Youngs Moduli (GPa) = 82.95835 80.57867 30.59068
#
# Poissons Ratio (x) = 0.17893 0.25474
# Poissons Ratio (y) = 0.18421 0.25006
# Poissons Ratio (z) = 0.69082 0.65867
#
# Static dielectric constant tensor:
#      x y z
#    x 4.109980 0.000000 0.232610 
#    y 0.000000 3.944110 0.000000 
#    z 0.232610 0.000000 4.046390 
# 
# 
# High freq. dielectric constant tensor:
#      x y z
#    x 1.856640 0.000000 0.013490 
#    y 0.000000 1.847550 0.000000 
#    z 0.013490 0.000000 1.845400 
# 
# From -- ./inp_files/35743.got.cif
#   From: 2010.03.12/outbox.cif.g09.slc.cpg/sg14_18_cif.got.tgz:35743.got - 2010.03.31 13:35:05.
