data_PCOD8127899
_publ_section_title
;
Structure prediction by ZEFSAII (Michael W. Deem and Ramdas Pophale) SiO2 
 PCOD8127899
Probable space group: P 21/C
;
_chemical_formula_sum "Si O2"
_cell_formula_units_Z 28
_cell_length_a 7.876449
_cell_length_b 20.799473
_cell_length_c 10.625035
_cell_angle_alpha 90.000000
_cell_angle_beta 44.850231
_cell_angle_gamma 90.000000
_cell_volume 1227.608724
_symmetry_space_group_name_H-M "P 21/C"
_symmetry_group_IT_number 14
_symmetry_cell_setting 'monoclinic'
loop_
_space_group_symop_operation_xyz
x,y,z
-x,1/2+y,1/2-z
-x,-y,-z
x,1/2-y,1/2+z
loop_
_atom_site_type_symbol
_atom_site_label
_atom_site_fract_x
_atom_site_fract_y
_atom_site_fract_z
Si Si1 0.979531 0.666466 0.783291
Si Si2 0.336831 0.525734 0.249574
Si Si3 0.797109 0.584611 0.091781
Si Si4 0.669798 0.148465 0.108208
Si Si5 0.673412 0.617445 0.719443
Si Si6 0.994448 0.806605 0.870895
Si Si7 0.179510 0.591949 0.085007
O O1 0.975017 0.613345 0.894347
O O2 0.772424 0.650993 0.792441
O O3 0.919416 0.735764 0.870555
O O4 0.242895 0.663046 0.579179
O O5 0.214383 0.580006 0.403208
O O6 0.233960 0.456489 0.340185
O O7 0.289027 0.541573 0.127755
O O8 0.629372 0.527667 0.122682
O O9 0.619369 0.643212 0.232650
O O10 0.960826 0.559060 0.120898
O O11 0.785077 0.200009 0.144254
O O12 0.761378 0.657608 0.552813
O O13 0.385127 0.616710 0.881483
O O14 0.077734 0.844682 0.704560
#
# Coordination Sequence:
#
# PCOD8127899 Si02
#       7
#     4   4   4   4   4   4   4
#     4  11  22  41  68  96 133 189 225 278 345 402
#     4   9  21  48  70 102 139 174 231 283 350 405
#     4  10  23  43  65 104 137 174 233 278 338 413
#     4   8  21  44  64  96 137 178 223 285 337 402
#     4  11  23  46  72  99 140 183 221 296 343 398
#     4  10  24  41  65 100 129 186 236 265 347 405
#     4  11  23  43  70 100 137 184 221 286 343 404
#
# _framework density 22.80857
#
# number of rings (size 3 to 8) (size 9 to 14) (size 15 to 20)
#    0.857    1.143    1.429    0.429    4.000    8.000 
#    5.143    0.714    0.000    0.000    0.000    0.000 
#    0.000    0.000    0.000    0.000    0.000    0.000 
#
# Total GULP energy -347076.844786 kJ/mol
# GULP energy per Si atom -12395.601600 kJ/mol
# Density = 2.275666 g / cm^3
# Si number density = 22.808570 Si / 1000 Ang^3
#
#
#
# Elastic Constant Matrix: (Units=GPa)
#
#
# Indices 1 2 3 4 5 6 
#
# 1 111.0906 31.3333 5.6069 0.0000 -6.0123 0.0000
# 2 31.3333 108.9868 19.0447 0.0000 14.3311 0.0000
# 3 5.6069 19.0447 79.0776 0.0000 11.3489 0.0000
# 4 0.0000 0.0000 0.0000 21.4285 0.0000 16.4485
# 5 -6.0123 14.3311 11.3489 0.0000 23.8927 0.0000
# 6 0.0000 0.0000 0.0000 16.4485 0.0000 16.6846
#
#
#
# Elastic Compliance Matrix: (Units=1/GPa)
#
#
# Indices 1 2 3 4 5 6 
#
# 1 0.010291 -0.003509 -0.000599 0.000000 0.004979 0.000000
# 2 -0.003509 0.011363 -0.001484 0.000000 -0.006994 0.000000
# 3 -0.000599 -0.001484 0.013886 0.000000 -0.005856 0.000000
# 4 0.000000 0.000000 0.000000 0.191837 0.000000 -0.189122
# 5 0.004979 -0.006994 -0.005856 0.000000 0.050083 0.000000
# 6 0.000000 0.000000 0.000000 -0.189122 0.000000 0.246381
#
#
# Mechanical properties :
#
#
# Convention : Reuss Voigt Hill
#
# Bulk Modulus (GPa) = 41.05697 45.68052 43.36875
# Shear Modulus (GPa) = 9.20566 28.61250 18.90908
#
# Velocity S-wave (km/s) = 2.01117 3.54568 2.88242
# Velocity P-wave (km/s) = 4.84075 6.06908 5.48938
#
# Compressibility (1/GPa) = 0.02435640
#
# Stress axis : x y z
#
# Youngs Moduli (GPa) = 97.17269 88.00420 72.01374
#
# Poissons Ratio (x) = 0.30877 0.04315
# Poissons Ratio (y) = 0.34094 0.10688
# Poissons Ratio (z) = 0.05823 0.13061
#
# Static dielectric constant tensor:
#      x y z
#    x 3.893700 0.000000 0.026850 
#    y 0.000000 3.805760 0.000000 
#    z 0.026850 0.000000 4.139630 
# 
# 
# High freq. dielectric constant tensor:
#      x y z
#    x 1.887040 0.000000 -0.000880 
#    y 0.000000 1.886570 0.000000 
#    z -0.000880 0.000000 1.908130 
# 
# From -- ./inp_files/26735.got.cif
#   From: 2010.03.12/outbox.cif.g09.slc.cpg/sg14_14_cif.got.tgz:26735.got - 2010.03.31 13:35:05.
