data_PCOD8127776
_publ_section_title
;
Structure prediction by ZEFSAII (Michael W. Deem and Ramdas Pophale) SiO2 
 PCOD8127776
Probable space group: P 21/C
;
_chemical_formula_sum "Si O2"
_cell_formula_units_Z 32
_cell_length_a 13.911328
_cell_length_b 17.762228
_cell_length_c 12.159913
_cell_angle_alpha 90.000000
_cell_angle_beta 150.051480
_cell_angle_gamma 90.000000
_cell_volume 1499.995426
_symmetry_space_group_name_H-M "P 21/C"
_symmetry_group_IT_number 14
_symmetry_cell_setting 'monoclinic'
loop_
_space_group_symop_operation_xyz
x,y,z
-x,1/2+y,1/2-z
-x,-y,-z
x,1/2-y,1/2+z
loop_
_atom_site_type_symbol
_atom_site_label
_atom_site_fract_x
_atom_site_fract_y
_atom_site_fract_z
Si Si1 0.440859 0.195431 0.417395
Si Si2 0.272409 0.478375 0.074090
Si Si3 0.607765 0.675285 0.884201
Si Si4 0.786154 0.481761 0.749090
Si Si5 0.894041 0.719565 0.568599
Si Si6 0.463050 0.458595 0.850439
Si Si7 0.120994 0.444826 0.369209
Si Si8 0.277256 0.811069 0.893576
O O1 0.424783 0.158272 0.520906
O O2 0.225619 0.216477 0.164189
O O3 0.518625 0.129206 0.415411
O O4 0.592184 0.264537 0.564953
O O5 0.281542 0.388941 0.073755
O O6 0.339777 0.501050 0.265411
O O7 0.417915 0.511454 0.132049
O O8 0.059956 0.501676 0.827581
O O9 0.748123 0.746357 0.013937
O O10 0.396325 0.686859 0.624409
O O11 0.743874 0.539125 0.605267
O O12 0.762710 0.394437 0.692060
O O13 0.000000 0.500000 0.000000
O O14 0.950667 0.640491 0.682206
O O15 0.080843 0.768367 0.726920
O O16 0.238575 0.468848 0.594838
O O17 0.500000 0.500000 0.000000
#
# Coordination Sequence:
#
# PCOD8127776 Si02
#       8
#     4   4   4   4   4   4   4   4
#     4  10  24  42  61  98 129 172 221 276 331 398
#     4  11  23  42  65  95 133 174 222 276 337 388
#     4  11  24  41  65  96 131 167 223 276 332 400
#     4  10  23  41  67  98 130 170 229 275 329 402
#     4  10  23  43  64  94 134 173 219 274 334 402
#     4  11  22  41  64  92 134 168 225 270 325 405
#     4  10  23  41  65  95 129 172 219 271 332 394
#     4  11  24  44  67  95 134 178 221 273 344 397
#
# _framework density 21.333397999999999
#
# number of rings (size 3 to 8) (size 9 to 14) (size 15 to 20)
#    0.000    1.500    1.250    3.000    0.000   12.500 
#    2.250    0.000    0.000    0.000    0.000    0.000 
#    0.000    0.000    0.000    0.000    0.000    0.000 
#
# Total GULP energy -396608.981012 kJ/mol
# GULP energy per Si atom -12394.030657 kJ/mol
# Density = 2.128484 g / cm^3
# Si number density = 21.333398 Si / 1000 Ang^3
#
#
#
# Elastic Constant Matrix: (Units=GPa)
#
#
# Indices 1 2 3 4 5 6 
#
# 1 80.3275 49.6793 31.7559 0.0000 -8.0457 0.0000
# 2 49.6793 114.5646 51.5426 0.0000 -6.4767 0.0000
# 3 31.7559 51.5426 101.6196 0.0000 -2.2965 0.0000
# 4 0.0000 0.0000 0.0000 39.7151 0.0000 5.2505
# 5 -8.0457 -6.4767 -2.2965 0.0000 29.1042 0.0000
# 6 0.0000 0.0000 0.0000 5.2505 0.0000 37.3991
#
#
#
# Elastic Compliance Matrix: (Units=1/GPa)
#
#
# Indices 1 2 3 4 5 6 
#
# 1 0.017644 -0.006503 -0.002142 0.000000 0.003261 0.000000
# 2 -0.006503 0.013832 -0.004963 0.000000 0.000889 0.000000
# 3 -0.002142 -0.004963 0.013012 0.000000 -0.000670 0.000000
# 4 0.000000 0.000000 0.000000 0.025656 0.000000 -0.003602
# 5 0.003261 0.000889 -0.000670 0.000000 0.035406 0.000000
# 6 0.000000 0.000000 0.000000 -0.003602 0.000000 0.027244
#
#
# Mechanical properties :
#
#
# Convention : Reuss Voigt Hill
#
# Bulk Modulus (GPa) = 57.89709 62.49636 60.19673
# Shear Modulus (GPa) = 30.16258 32.14593 31.15426
#
# Velocity S-wave (km/s) = 3.76422 3.88601 3.82560
# Velocity P-wave (km/s) = 6.78900 7.03516 6.91318
#
# Compressibility (1/GPa) = 0.01727202
#
# Stress axis : x y z
#
# Youngs Moduli (GPa) = 56.67522 72.29574 76.85085
#
# Poissons Ratio (x) = 0.47017 0.16458
# Poissons Ratio (y) = 0.36858 0.38144
# Poissons Ratio (z) = 0.12137 0.35883
#
# Static dielectric constant tensor:
#      x y z
#    x 3.488960 0.000000 -0.102420 
#    y 0.000000 3.912430 0.000000 
#    z -0.102420 0.000000 4.043560 
# 
# 
# High freq. dielectric constant tensor:
#      x y z
#    x 1.832560 0.000000 -0.003660 
#    y 0.000000 1.848330 0.000000 
#    z -0.003660 0.000000 1.850780 
# 
# From -- ./inp_files/33055.got.cif
#   From: 2010.03.12/outbox.cif.g09.slc.cpg/sg14_17_cif.got.tgz:33055.got - 2010.03.31 13:35:05.
