data_PCOD8127909
_publ_section_title
;
Structure prediction by ZEFSAII (Michael W. Deem and Ramdas Pophale) SiO2 
 PCOD8127909
Probable space group: P 21/C
;
_chemical_formula_sum "Si O2"
_cell_formula_units_Z 28
_cell_length_a 21.258004
_cell_length_b 9.254935
_cell_length_c 14.975326
_cell_angle_alpha 90.000000
_cell_angle_beta 155.353655
_cell_angle_gamma 90.000000
_cell_volume 1228.640927
_symmetry_space_group_name_H-M "P 21/C"
_symmetry_group_IT_number 14
_symmetry_cell_setting 'monoclinic'
loop_
_space_group_symop_operation_xyz
x,y,z
-x,1/2+y,1/2-z
-x,-y,-z
x,1/2-y,1/2+z
loop_
_atom_site_type_symbol
_atom_site_label
_atom_site_fract_x
_atom_site_fract_y
_atom_site_fract_z
Si Si1 0.334503 0.393443 0.228622
Si Si2 0.197157 0.682363 0.785330
Si Si3 0.820491 0.916413 0.171200
Si Si4 0.071855 0.122161 0.501297
Si Si5 0.639738 0.212453 0.175401
Si Si6 0.713141 0.608288 0.031395
Si Si7 0.386686 0.651027 0.669429
O O1 0.335765 0.541181 0.286551
O O2 0.466184 0.277390 0.418201
O O3 0.339380 0.445628 0.133044
O O4 0.178963 0.316594 0.060726
O O5 0.244088 0.718688 0.744954
O O6 0.035994 0.750921 0.601322
O O7 0.188126 0.509748 0.788256
O O8 0.327358 0.736704 0.019820
O O9 0.823988 0.939161 0.283295
O O10 0.817938 0.747000 0.147879
O O11 0.973076 0.991479 0.331331
O O12 0.676496 0.992579 0.939005
O O13 0.665798 0.300824 0.300102
O O14 0.567858 0.649549 0.902925
#
# Coordination Sequence:
#
# PCOD8127909 Si02
#       7
#     4   4   4   4   4   4   4
#     4  11  23  40  72 103 134 183 227 278 345 413
#     4  11  24  45  71 101 137 180 228 289 335 411
#     4  10  23  43  66  92 136 181 217 281 340 400
#     4  10  23  46  69  92 137 186 226 273 345 406
#     4  11  23  42  73 104 136 179 229 279 349 405
#     4  12  24  41  69 103 139 172 232 290 338 398
#     4  11  22  42  70 101 137 178 225 282 342 411
#
# _framework density 22.789407000000001
#
# number of rings (size 3 to 8) (size 9 to 14) (size 15 to 20)
#    0.000    1.143    2.857    4.286    2.000    2.286 
#    7.714    0.000    0.000    0.000    0.000    0.000 
#    0.000    0.000    0.000    0.000    0.000    0.000 
#
# Total GULP energy -347164.323508 kJ/mol
# GULP energy per Si atom -12398.725840 kJ/mol
# Density = 2.273754 g / cm^3
# Si number density = 22.789407 Si / 1000 Ang^3
#
#
#
# Elastic Constant Matrix: (Units=GPa)
#
#
# Indices 1 2 3 4 5 6 
#
# 1 138.0316 29.5197 36.4648 0.0000 5.8554 0.0000
# 2 29.5197 120.3867 30.8328 0.0000 2.4539 0.0000
# 3 36.4648 30.8328 70.9323 0.0000 3.8924 0.0000
# 4 0.0000 0.0000 0.0000 28.4289 0.0000 -11.5931
# 5 5.8554 2.4539 3.8924 0.0000 39.6885 0.0000
# 6 0.0000 0.0000 0.0000 -11.5931 0.0000 21.9189
#
#
#
# Elastic Compliance Matrix: (Units=1/GPa)
#
#
# Indices 1 2 3 4 5 6 
#
# 1 0.008534 -0.001085 -0.003871 0.000000 -0.000812 0.000000
# 2 -0.001085 0.009486 -0.003562 0.000000 -0.000077 0.000000
# 3 -0.003871 -0.003562 0.017688 0.000000 -0.000943 0.000000
# 4 0.000000 0.000000 0.000000 0.044849 0.000000 0.023721
# 5 -0.000812 -0.000077 -0.000943 0.000000 0.025413 0.000000
# 6 0.000000 0.000000 0.000000 0.023721 0.000000 0.058169
#
#
# Mechanical properties :
#
#
# Convention : Reuss Voigt Hill
#
# Bulk Modulus (GPa) = 53.55209 58.10949 55.83079
# Shear Modulus (GPa) = 26.68118 33.50948 30.09533
#
# Velocity S-wave (km/s) = 3.42537 3.83874 3.63793
# Velocity P-wave (km/s) = 6.26050 6.72322 6.49598
#
# Compressibility (1/GPa) = 0.01867341
#
# Stress axis : x y z
#
# Youngs Moduli (GPa) = 117.18167 105.41534 56.53569
#
# Poissons Ratio (x) = 0.11433 0.21885
# Poissons Ratio (y) = 0.12709 0.20136
# Poissons Ratio (z) = 0.45361 0.37546
#
# Static dielectric constant tensor:
#      x y z
#    x 3.963920 0.000000 0.027410 
#    y 0.000000 3.971080 0.000000 
#    z 0.027410 0.000000 4.193880 
# 
# 
# High freq. dielectric constant tensor:
#      x y z
#    x 1.896870 0.000000 0.001600 
#    y 0.000000 1.889300 0.000000 
#    z 0.001600 0.000000 1.896910 
# 
# From -- ./inp_files/50260.got.cif
#   From: 2010.03.12/outbox.cif.g09.slc.cpg/sg14_26_cif.got.tgz:50260.got - 2010.03.31 13:35:05.
