data_PCOD8127987
_publ_section_title
;
Structure prediction by ZEFSAII (Michael W. Deem and Ramdas Pophale) SiO2 
 PCOD8127987
Probable space group: P 21/C
;
_chemical_formula_sum "Si O2"
_cell_formula_units_Z 32
_cell_length_a 14.153878
_cell_length_b 8.457211
_cell_length_c 23.897718
_cell_angle_alpha 90.000000
_cell_angle_beta 149.915168
_cell_angle_gamma 90.000000
_cell_volume 1433.972705
_symmetry_space_group_name_H-M "P 21/C"
_symmetry_group_IT_number 14
_symmetry_cell_setting 'monoclinic'
loop_
_space_group_symop_operation_xyz
x,y,z
-x,1/2+y,1/2-z
-x,-y,-z
x,1/2-y,1/2+z
loop_
_atom_site_type_symbol
_atom_site_label
_atom_site_fract_x
_atom_site_fract_y
_atom_site_fract_z
Si Si1 0.981864 0.572552 0.660623
Si Si2 0.664576 0.410621 0.441110
Si Si3 0.595957 0.448532 0.607395
Si Si4 0.207609 0.027854 0.579659
Si Si5 0.004664 0.406382 0.780873
Si Si6 0.729763 0.434546 0.005395
Si Si7 0.619031 0.131994 0.679812
Si Si8 0.548583 0.280688 0.269882
O O1 0.985485 0.423040 0.704440
O O2 0.169139 0.578624 0.720940
O O3 0.809068 0.552371 0.528971
O O4 0.946385 0.726430 0.680039
O O5 0.471368 0.440261 0.376208
O O6 0.756110 0.249842 0.509848
O O7 0.631515 0.405828 0.357634
O O8 0.500000 0.500000 0.500000
O O9 0.550659 0.266835 0.601155
O O10 0.818691 0.466787 0.717168
O O11 0.317461 0.190794 0.654383
O O12 0.170767 0.032877 0.494177
O O13 0.368334 0.891243 0.671635
O O14 0.000000 0.000000 0.500000
O O15 0.173938 0.519082 0.887225
O O16 0.509448 0.478717 0.895317
O O17 0.616279 0.188831 0.742177
#
# Coordination Sequence:
#
# PCOD8127987 Si02
#       8
#     4   4   4   4   4   4   4   4
#     4  11  24  42  66  95 133 174 222 278 344 412
#     4  11  23  43  66  98 134 175 224 279 342 413
#     4  11  23  42  68  96 133 179 226 279 343 402
#     4  10  23  44  68 101 137 185 230 285 350 413
#     4  11  24  40  65  96 131 177 224 275 344 414
#     4  10  24  41  63  98 131 171 224 274 340 413
#     4  10  24  45  66  99 133 176 226 284 346 401
#     4  10  23  46  70 101 139 180 235 287 345 425
#
# _framework density 22.315626999999999
#
# number of rings (size 3 to 8) (size 9 to 14) (size 15 to 20)
#    0.000    1.500    1.250    2.250    7.000    4.000 
#   11.250    0.000    0.000    0.000    0.000    0.000 
#    0.000    0.000    0.000    0.000    0.000    0.000 
#
# Total GULP energy -396624.227206 kJ/mol
# GULP energy per Si atom -12394.507100 kJ/mol
# Density = 2.226484 g / cm^3
# Si number density = 22.315627 Si / 1000 Ang^3
#
#
#
# Elastic Constant Matrix: (Units=GPa)
#
#
# Indices 1 2 3 4 5 6 
#
# 1 105.7610 20.9210 30.5037 0.0000 -4.2067 0.0000
# 2 20.9210 54.9980 30.4792 0.0000 -2.0447 0.0000
# 3 30.5037 30.4792 85.4943 0.0000 -14.0834 0.0000
# 4 0.0000 0.0000 0.0000 39.9296 0.0000 -0.8817
# 5 -4.2067 -2.0447 -14.0834 0.0000 28.7238 0.0000
# 6 0.0000 0.0000 0.0000 -0.8817 0.0000 29.6969
#
#
#
# Elastic Compliance Matrix: (Units=1/GPa)
#
#
# Indices 1 2 3 4 5 6 
#
# 1 0.010800 -0.002455 -0.002988 0.000000 -0.000058 0.000000
# 2 -0.002455 0.023391 -0.007885 0.000000 -0.002560 0.000000
# 3 -0.002988 -0.007885 0.016763 0.000000 0.007220 0.000000
# 4 0.000000 0.000000 0.000000 0.025061 0.000000 0.000744
# 5 -0.000058 -0.002560 0.007220 0.000000 0.038164 0.000000
# 6 0.000000 0.000000 0.000000 0.000744 0.000000 0.033696
#
#
# Mechanical properties :
#
#
# Convention : Reuss Voigt Hill
#
# Bulk Modulus (GPa) = 41.15362 45.56235 43.35799
# Shear Modulus (GPa) = 27.37794 30.62667 29.00231
#
# Velocity S-wave (km/s) = 3.50644 3.70865 3.60896
# Velocity P-wave (km/s) = 5.90552 6.22900 6.06941
#
# Compressibility (1/GPa) = 0.02429920
#
# Stress axis : x y z
#
# Youngs Moduli (GPa) = 92.58973 42.75198 59.65470
#
# Poissons Ratio (x) = 0.10494 0.17824
# Poissons Ratio (y) = 0.22728 0.47037
# Poissons Ratio (z) = 0.27665 0.33709
#
# Static dielectric constant tensor:
#      x y z
#    x 4.118020 0.000000 -0.118190 
#    y 0.000000 4.056000 0.000000 
#    z -0.118190 0.000000 4.158430 
# 
# 
# High freq. dielectric constant tensor:
#      x y z
#    x 1.879250 0.000000 -0.008730 
#    y 0.000000 1.873630 0.000000 
#    z -0.008730 0.000000 1.889520 
# 
# From -- ./inp_files/73867.got.cif
#   From: 2010.03.12/outbox.cif.g09.slc.cpg/sg14_37_cif.got.tgz:73867.got - 2010.03.31 13:35:05.
