data_PCOD8127637
_publ_section_title
;
Structure prediction by ZEFSAII (Michael W. Deem and Ramdas Pophale) SiO2 
 PCOD8127637
Probable space group: P 21/C
;
_chemical_formula_sum "Si O2"
_cell_formula_units_Z 28
_cell_length_a 5.118897
_cell_length_b 21.963132
_cell_length_c 9.796631
_cell_angle_alpha 90.000000
_cell_angle_beta 82.445517
_cell_angle_gamma 90.000000
_cell_volume 1091.846058
_symmetry_space_group_name_H-M "P 21/C"
_symmetry_group_IT_number 14
_symmetry_cell_setting 'monoclinic'
loop_
_space_group_symop_operation_xyz
x,y,z
-x,1/2+y,1/2-z
-x,-y,-z
x,1/2-y,1/2+z
loop_
_atom_site_type_symbol
_atom_site_label
_atom_site_fract_x
_atom_site_fract_y
_atom_site_fract_z
Si Si1 0.654363 0.931915 0.855702
Si Si2 0.207303 0.969666 0.705099
Si Si3 0.908106 0.896875 0.312798
Si Si4 0.543592 0.122511 0.865278
Si Si5 0.185760 0.852547 0.547506
Si Si6 0.436112 0.251816 0.470762
Si Si7 0.798185 0.804421 0.768353
O O1 0.955218 0.952876 0.815744
O O2 0.621932 0.865120 0.790900
O O3 0.455119 0.976171 0.789874
O O4 0.424735 0.072439 0.979088
O O5 0.275156 0.921096 0.579872
O O6 0.168550 0.034753 0.636252
O O7 0.671503 0.868321 0.240610
O O8 0.955719 0.857249 0.447881
O O9 0.179817 0.901071 0.210271
O O10 0.606367 0.186304 0.938925
O O11 0.087954 0.821643 0.695491
O O12 0.410758 0.806910 0.477624
O O13 0.193468 0.268145 0.589318
O O14 0.329095 0.240232 0.329910
#
# Coordination Sequence:
#
# PCOD8127637 Si02
#       7
#     4   4   4   4   4   4   4
#     4  10  22  45  70 105 144 189 244 297 372 427
#     4  11  23  45  74 102 144 197 243 305 363 436
#     4  12  27  45  71 108 147 191 249 302 359 440
#     4  11  27  44  69 110 145 193 247 304 365 438
#     4  11  26  45  72 105 144 192 244 303 375 432
#     4  11  24  46  72 101 143 189 242 300 371 438
#     4  10  24  42  71 101 140 184 237 302 363 439
#
# _framework density 25.644641
#
# number of rings (size 3 to 8) (size 9 to 14) (size 15 to 20)
#    0.000    1.143    1.429    3.000    6.000    4.571 
#    0.000    3.571    0.000    0.000    0.000    0.000 
#    0.000    0.000    0.000    0.000    0.000    0.000 
#
# Total GULP energy -347125.811925 kJ/mol
# GULP energy per Si atom -12397.350426 kJ/mol
# Density = 2.558627 g / cm^3
# Si number density = 25.644641 Si / 1000 Ang^3
#
#
#
# Elastic Constant Matrix: (Units=GPa)
#
#
# Indices 1 2 3 4 5 6 
#
# 1 86.8543 14.4240 2.5498 0.0000 0.4351 0.0000
# 2 14.4240 105.0732 24.8226 0.0000 -0.4244 0.0000
# 3 2.5498 24.8226 87.8114 0.0000 -4.3768 0.0000
# 4 0.0000 0.0000 0.0000 28.1240 0.0000 3.6450
# 5 0.4351 -0.4244 -4.3768 0.0000 39.8905 0.0000
# 6 0.0000 0.0000 0.0000 3.6450 0.0000 35.2005
#
#
#
# Elastic Compliance Matrix: (Units=1/GPa)
#
#
# Indices 1 2 3 4 5 6 
#
# 1 0.011784 -0.001646 0.000116 0.000000 -0.000133 0.000000
# 2 -0.001646 0.010430 -0.002910 0.000000 -0.000190 0.000000
# 3 0.000116 -0.002910 0.012273 0.000000 0.001314 0.000000
# 4 0.000000 0.000000 0.000000 0.036041 0.000000 -0.003732
# 5 -0.000133 -0.000190 0.001314 0.000000 0.025212 0.000000
# 6 0.000000 0.000000 0.000000 -0.003732 0.000000 0.028795
#
#
# Mechanical properties :
#
#
# Convention : Reuss Voigt Hill
#
# Bulk Modulus (GPa) = 39.05029 40.37021 39.71025
# Shear Modulus (GPa) = 35.22385 36.50581 35.86483
#
# Velocity S-wave (km/s) = 3.71015 3.77706 3.74375
# Velocity P-wave (km/s) = 5.79777 5.89897 5.84859
#
# Compressibility (1/GPa) = 0.02560800
#
# Stress axis : x y z
#
# Youngs Moduli (GPa) = 84.86014 95.87920 81.48111
#
# Poissons Ratio (x) = 0.15779 -0.00948
# Poissons Ratio (y) = 0.13966 0.23711
# Poissons Ratio (z) = -0.00988 0.27901
#
# Static dielectric constant tensor:
#      x y z
#    x 4.246150 0.000000 -0.109810 
#    y 0.000000 4.809150 0.000000 
#    z -0.109810 0.000000 4.660100 
# 
# 
# High freq. dielectric constant tensor:
#      x y z
#    x 2.001070 0.000000 -0.005530 
#    y 0.000000 2.044350 0.000000 
#    z -0.005530 0.000000 2.028850 
# 
# From -- ./inp_files/21732.got.cif
#   From: 2010.03.12/outbox.cif.g09.slc.cpg/sg14_11_cif.got.tgz:21732.got - 2010.03.31 13:35:05.
