data_PCOD8127389
_publ_section_title
;
Structure prediction by ZEFSAII (Michael W. Deem and Ramdas Pophale) SiO2 
 PCOD8127389
Probable space group: P 21/C
;
_chemical_formula_sum "Si O2"
_cell_formula_units_Z 20
_cell_length_a 7.677680
_cell_length_b 10.089701
_cell_length_c 12.448801
_cell_angle_alpha 90.000000
_cell_angle_beta 72.125394
_cell_angle_gamma 90.000000
_cell_volume 917.803756
_symmetry_space_group_name_H-M "P 21/C"
_symmetry_group_IT_number 14
_symmetry_cell_setting 'monoclinic'
loop_
_space_group_symop_operation_xyz
x,y,z
-x,1/2+y,1/2-z
-x,-y,-z
x,1/2-y,1/2+z
loop_
_atom_site_type_symbol
_atom_site_label
_atom_site_fract_x
_atom_site_fract_y
_atom_site_fract_z
Si Si1 0.876481 0.894544 0.387034
Si Si2 0.639008 0.560660 0.730307
Si Si3 0.292111 0.358291 0.507510
Si Si4 0.249517 0.915231 0.413075
Si Si5 0.332781 0.638205 0.448238
O O1 0.805464 0.924506 0.281785
O O2 0.865080 0.737792 0.417849
O O3 0.086775 0.941967 0.358233
O O4 0.749476 0.973794 0.495379
O O5 0.671650 0.665647 0.626848
O O6 0.444062 0.589765 0.819528
O O7 0.639259 0.412044 0.680415
O O8 0.240827 0.515702 0.533463
O O9 0.472651 0.322898 0.539390
O O10 0.210704 0.770510 0.474007
#
# Coordination Sequence:
#
# PCOD8127389 Si02
#       5
#     4   4   4   4   4
#     4  11  24  43  64  98 129 166 209 264 314 382
#     4  10  22  42  65  89 128 170 210 254 312 374
#     4   9  21  42  65  93 127 165 212 262 311 374
#     4  11  24  41  66  94 129 166 211 261 322 370
#     4   9  21  42  64  92 124 170 206 264 315 364
#
# _framework density 21.791152
#
# number of rings (size 3 to 8) (size 9 to 14) (size 15 to 20)
#    1.200    0.800    2.000    0.600    2.800    0.800 
#   14.400    0.000    0.000    0.000    0.000    0.000 
#    0.000    0.000    0.000    0.000    0.000    0.000 
#
# Total GULP energy -247832.755424 kJ/mol
# GULP energy per Si atom -12391.637771 kJ/mol
# Density = 2.174155 g / cm^3
# Si number density = 21.791152 Si / 1000 Ang^3
#
#
#
# Elastic Constant Matrix: (Units=GPa)
#
#
# Indices 1 2 3 4 5 6 
#
# 1 93.0623 10.2905 25.4102 0.0000 30.0605 0.0000
# 2 10.2905 91.3222 1.3495 0.0000 8.9654 0.0000
# 3 25.4102 1.3495 38.4786 0.0000 28.3488 0.0000
# 4 0.0000 0.0000 0.0000 14.6437 0.0000 1.3089
# 5 30.0605 8.9654 28.3488 0.0000 30.1261 0.0000
# 6 0.0000 0.0000 0.0000 1.3089 0.0000 23.3062
#
#
#
# Elastic Compliance Matrix: (Units=1/GPa)
#
#
# Indices 1 2 3 4 5 6 
#
# 1 0.016035 0.000073 0.003952 0.000000 -0.019741 0.000000
# 2 0.000073 0.011849 0.007133 0.000000 -0.010311 0.000000
# 3 0.003952 0.007133 0.089976 0.000000 -0.090734 0.000000
# 4 0.000000 0.000000 0.000000 0.068633 0.000000 -0.003855
# 5 -0.019741 -0.010311 -0.090734 0.000000 0.141341 0.000000
# 6 0.000000 0.000000 0.000000 -0.003855 0.000000 0.043124
#
#
# Mechanical properties :
#
#
# Convention : Reuss Voigt Hill
#
# Bulk Modulus (GPa) = 7.13393 32.99595 20.06494
# Shear Modulus (GPa) = 12.64646 26.00272 19.32459
#
# Velocity S-wave (km/s) = 2.41166 3.45812 2.98116
# Velocity P-wave (km/s) = 3.32200 5.57849 4.59104
#
# Compressibility (1/GPa) = 0.14017521
#
# Stress axis : x y z
#
# Youngs Moduli (GPa) = 62.36416 84.39630 11.11406
#
# Poissons Ratio (x) = -0.00614 -0.04393
# Poissons Ratio (y) = -0.00454 -0.07927
# Poissons Ratio (z) = -0.24648 -0.60197
#
# Static dielectric constant tensor:
#      x y z
#    x 3.835350 0.000000 0.309960 
#    y 0.000000 4.017760 0.000000 
#    z 0.309960 0.000000 3.549850 
# 
# 
# High freq. dielectric constant tensor:
#      x y z
#    x 1.861740 0.000000 0.026310 
#    y 0.000000 1.859820 0.000000 
#    z 0.026310 0.000000 1.823180 
# 
# From -- ./inp_files/23755.got.cif
#   From: 2010.03.12/outbox.cif.g09.slc.cpg/sg14_12_cif.got.tgz:23755.got - 2010.03.31 13:35:05.
