data_PCOD8127003
_publ_section_title
;
Structure prediction by ZEFSAII (Michael W. Deem and Ramdas Pophale) SiO2 
 PCOD8127003
Probable space group: P 21/C
;
_chemical_formula_sum "Si O2"
_cell_formula_units_Z 28
_cell_length_a 13.851594
_cell_length_b 13.524482
_cell_length_c 20.165327
_cell_angle_alpha 90.000000
_cell_angle_beta 20.393156
_cell_angle_gamma 90.000000
_cell_volume 1316.372201
_symmetry_space_group_name_H-M "P 21/C"
_symmetry_group_IT_number 14
_symmetry_cell_setting 'monoclinic'
loop_
_space_group_symop_operation_xyz
x,y,z
-x,1/2+y,1/2-z
-x,-y,-z
x,1/2-y,1/2+z
loop_
_atom_site_type_symbol
_atom_site_label
_atom_site_fract_x
_atom_site_fract_y
_atom_site_fract_z
Si Si1 0.616441 0.955146 0.195985
Si Si2 0.678037 0.643661 0.893567
Si Si3 0.088815 0.941643 0.791538
Si Si4 0.274161 0.209618 0.780534
Si Si5 0.269456 0.276416 0.522674
Si Si6 0.675878 0.850491 0.640872
Si Si7 0.805142 0.341291 0.124790
O O1 0.660888 0.903802 0.238680
O O2 0.363340 0.905697 0.319286
O O3 0.539886 0.070965 0.250093
O O4 0.915713 0.942112 0.970602
O O5 0.890828 0.553808 0.746723
O O6 0.634868 0.709858 0.854859
O O7 0.390727 0.603849 0.108132
O O8 0.819211 0.710177 0.858535
O O9 0.919621 0.874241 0.848540
O O10 0.449677 0.283490 0.716971
O O11 0.951305 0.245232 0.995080
O O12 0.221878 0.223491 0.482393
O O13 0.593783 0.304134 0.317603
O O14 0.954195 0.903023 0.491628
#
# Coordination Sequence:
#
# PCOD8127003 Si02
#       7
#     4   4   4   4   4   4   4
#     4  11  21  39  67  91 128 163 221 264 309 393
#     4  11  25  41  64  94 134 163 211 267 309 386
#     4  10  24  42  61  97 126 173 212 247 331 373
#     4  10  23  40  64  98 119 163 215 266 315 371
#     4  11  21  44  65  89 133 170 204 263 324 380
#     4  10  22  37  67  96 118 169 214 261 324 374
#     4   9  19  42  62  93 121 167 208 264 320 367
#
# _framework density 21.270581
#
# number of rings (size 3 to 8) (size 9 to 14) (size 15 to 20)
#    0.857    0.857    2.857    2.143    6.000    2.857 
#    0.000    0.000    0.000    4.286    0.000    0.000 
#    0.000    0.000    0.000    0.000    0.000    0.000 
#
# Total GULP energy -346873.661559 kJ/mol
# GULP energy per Si atom -12388.345056 kJ/mol
# Density = 2.122217 g / cm^3
# Si number density = 21.270581 Si / 1000 Ang^3
#
#
#
# Elastic Constant Matrix: (Units=GPa)
#
#
# Indices 1 2 3 4 5 6 
#
# 1 79.2774 27.6727 20.7474 0.0000 19.9732 0.0000
# 2 27.6727 84.1777 20.2910 0.0000 4.2959 0.0000
# 3 20.7474 20.2910 62.2214 0.0000 -5.8147 0.0000
# 4 0.0000 0.0000 0.0000 38.5901 0.0000 -8.6537
# 5 19.9732 4.2959 -5.8147 0.0000 24.1798 0.0000
# 6 0.0000 0.0000 0.0000 -8.6537 0.0000 34.9443
#
#
#
# Elastic Compliance Matrix: (Units=1/GPa)
#
#
# Indices 1 2 3 4 5 6 
#
# 1 0.020401 -0.004075 -0.007142 0.000000 -0.017846 0.000000
# 2 -0.004075 0.013982 -0.003190 0.000000 0.000114 0.000000
# 3 -0.007142 -0.003190 0.020560 0.000000 0.011410 0.000000
# 4 0.000000 0.000000 0.000000 0.027437 0.000000 0.006795
# 5 -0.017846 0.000114 0.011410 0.000000 0.058821 0.000000
# 6 0.000000 0.000000 0.000000 0.006795 0.000000 0.030300
#
#
# Mechanical properties :
#
#
# Convention : Reuss Voigt Hill
#
# Bulk Modulus (GPa) = 38.27014 40.34429 39.30722
# Shear Modulus (GPa) = 23.92065 30.00720 26.96393
#
# Velocity S-wave (km/s) = 3.35713 3.76005 3.56429
# Velocity P-wave (km/s) = 5.74962 6.15297 5.95471
#
# Compressibility (1/GPa) = 0.02613003
#
# Stress axis : x y z
#
# Youngs Moduli (GPa) = 49.01671 71.51888 48.63882
#
# Poissons Ratio (x) = 0.29140 0.34736
# Poissons Ratio (y) = 0.19972 0.15518
# Poissons Ratio (z) = 0.35006 0.22818
#
# Static dielectric constant tensor:
#      x y z
#    x 3.559440 0.000000 -0.095290 
#    y 0.000000 3.960400 0.000000 
#    z -0.095290 0.000000 3.758770 
# 
# 
# High freq. dielectric constant tensor:
#      x y z
#    x 1.824390 0.000000 -0.011050 
#    y 0.000000 1.836410 0.000000 
#    z -0.011050 0.000000 1.823110 
# 
# From -- ./inp_files/68586.got.cif
#   From: 2010.03.12/outbox.cif.g09.slc.cpg/sg14_35_cif.got.tgz:68586.got - 2010.03.31 13:35:05.
