data_PCOD8127912
_publ_section_title
;
Structure prediction by ZEFSAII (Michael W. Deem and Ramdas Pophale) SiO2 
 PCOD8127912
Probable space group: P 21/C
;
_chemical_formula_sum "Si O2"
_cell_formula_units_Z 32
_cell_length_a 8.570717
_cell_length_b 34.462527
_cell_length_c 4.890688
_cell_angle_alpha 90.000000
_cell_angle_beta 86.815966
_cell_angle_gamma 90.000000
_cell_volume 1442.325513
_symmetry_space_group_name_H-M "P 21/C"
_symmetry_group_IT_number 14
_symmetry_cell_setting 'monoclinic'
loop_
_space_group_symop_operation_xyz
x,y,z
-x,1/2+y,1/2-z
-x,-y,-z
x,1/2-y,1/2+z
loop_
_atom_site_type_symbol
_atom_site_label
_atom_site_fract_x
_atom_site_fract_y
_atom_site_fract_z
Si Si1 0.916524 0.578787 0.824921
Si Si2 0.017241 0.275191 0.530758
Si Si3 0.562720 0.427836 0.839550
Si Si4 0.751025 0.451655 0.324271
Si Si5 0.235950 0.041804 0.165770
Si Si6 0.442257 0.344831 0.765421
Si Si7 0.766977 0.842749 0.209806
Si Si8 0.339836 0.724112 0.454022
O O1 0.799933 0.554695 0.640176
O O2 0.881942 0.624379 0.809798
O O3 0.098530 0.573860 0.755940
O O4 0.884998 0.565047 0.135083
O O5 0.047294 0.262723 0.840015
O O6 0.135700 0.307878 0.427216
O O7 0.839349 0.290256 0.532890
O O8 0.705504 0.439584 0.633544
O O9 0.411240 0.449820 0.743054
O O10 0.541162 0.381558 0.858463
O O11 0.606336 0.442129 0.138461
O O12 0.797507 0.496407 0.306152
O O13 0.335163 0.360171 0.527771
O O14 0.552560 0.311694 0.634646
O O15 0.341579 0.328261 0.029064
O O16 0.375011 0.760772 0.254703
#
# Coordination Sequence:
#
# PCOD8127912 Si02
#       8
#     4   4   4   4   4   4   4   4
#     4  12  24  44  65  98 131 172 220 275 330 391
#     4  10  23  43  66  96 129 164 209 262 319 383
#     4  12  24  44  63 100 132 170 223 273 329 389
#     4  12  26  41  69  98 126 178 227 273 331 393
#     4  12  23  46  68  91 137 172 220 278 335 389
#     4  12  25  43  67  94 135 174 213 269 322 387
#     4  12  24  43  65  95 130 174 212 265 323 385
#     4  10  23  44  67  98 130 167 210 263 323 383
#
# _framework density 22.186392999999999
#
# number of rings (size 3 to 8) (size 9 to 14) (size 15 to 20)
#    0.000    0.500    2.500    6.000    1.750    3.000 
#    4.500    0.000    0.000    0.000    0.000    0.000 
#    0.000    0.000    0.000    0.000    0.000    0.000 
#
# Total GULP energy -397012.287595 kJ/mol
# GULP energy per Si atom -12406.633987 kJ/mol
# Density = 2.213590 g / cm^3
# Si number density = 22.186393 Si / 1000 Ang^3
#
#
#
# Elastic Constant Matrix: (Units=GPa)
#
#
# Indices 1 2 3 4 5 6 
#
# 1 82.6841 21.5349 11.2647 0.0000 -12.7106 0.0000
# 2 21.5349 86.4911 2.1427 0.0000 -10.7731 0.0000
# 3 11.2647 2.1427 80.4881 0.0000 -10.5818 0.0000
# 4 0.0000 0.0000 0.0000 30.2128 0.0000 -8.7780
# 5 -12.7106 -10.7731 -10.5818 0.0000 39.3169 0.0000
# 6 0.0000 0.0000 0.0000 -8.7780 0.0000 24.8612
#
#
#
# Elastic Compliance Matrix: (Units=1/GPa)
#
#
# Indices 1 2 3 4 5 6 
#
# 1 0.013541 -0.002939 -0.001397 0.000000 0.003197 0.000000
# 2 -0.002939 0.012609 0.000420 0.000000 0.002618 0.000000
# 3 -0.001397 0.000420 0.013025 0.000000 0.003169 0.000000
# 4 0.000000 0.000000 0.000000 0.036882 0.000000 0.013022
# 5 0.003197 0.002618 0.003169 0.000000 0.028038 0.000000
# 6 0.000000 0.000000 0.000000 0.013022 0.000000 0.044821
#
#
# Mechanical properties :
#
#
# Convention : Reuss Voigt Hill
#
# Bulk Modulus (GPa) = 31.90367 35.50531 33.70449
# Shear Modulus (GPa) = 29.90493 33.19293 31.54893
#
# Velocity S-wave (km/s) = 3.67535 3.87213 3.77503
# Velocity P-wave (km/s) = 5.69403 6.00243 5.85026
#
# Compressibility (1/GPa) = 0.03134436
#
# Stress axis : x y z
#
# Youngs Moduli (GPa) = 73.84812 79.30663 76.77463
#
# Poissons Ratio (x) = 0.23307 0.10723
# Poissons Ratio (y) = 0.21703 -0.03223
# Poissons Ratio (z) = 0.10314 -0.03329
#
# Static dielectric constant tensor:
#      x y z
#    x 4.849800 0.000000 -1.076550 
#    y 0.000000 3.805700 0.000000 
#    z -1.076550 0.000000 5.458440 
# 
# 
# High freq. dielectric constant tensor:
#      x y z
#    x 1.877400 0.000000 -0.007920 
#    y 0.000000 1.871190 0.000000 
#    z -0.007920 0.000000 1.895220 
# 
# From -- ./inp_files/2239.got.cif
#   From: 2010.03.12/outbox.cif.g09.slc.cpg/sg14_2_cif.got.tgz:2239.got - 2010.03.31 13:35:05.
