data_PCOD8127624
_publ_section_title
;
Structure prediction by ZEFSAII (Michael W. Deem and Ramdas Pophale) SiO2 
 PCOD8127624
Probable space group: P 21/C
;
_chemical_formula_sum "Si O2"
_cell_formula_units_Z 32
_cell_length_a 6.971276
_cell_length_b 12.950301
_cell_length_c 17.642159
_cell_angle_alpha 90.000000
_cell_angle_beta 117.317877
_cell_angle_gamma 90.000000
_cell_volume 1415.104906
_symmetry_space_group_name_H-M "P 21/C"
_symmetry_group_IT_number 14
_symmetry_cell_setting 'monoclinic'
loop_
_space_group_symop_operation_xyz
x,y,z
-x,1/2+y,1/2-z
-x,-y,-z
x,1/2-y,1/2+z
loop_
_atom_site_type_symbol
_atom_site_label
_atom_site_fract_x
_atom_site_fract_y
_atom_site_fract_z
Si Si1 0.797192 0.751081 0.677221
Si Si2 0.401199 0.636677 0.533683
Si Si3 0.285593 0.135127 0.472134
Si Si4 0.606729 0.059378 0.131741
Si Si5 0.056116 0.552159 0.741553
Si Si6 0.283618 0.115365 0.193124
Si Si7 0.767065 0.085886 0.565967
Si Si8 0.985054 0.742395 0.462879
O O1 0.618144 0.694337 0.594502
O O2 0.841403 0.849707 0.631451
O O3 0.002132 0.673973 0.719354
O O4 0.711928 0.795190 0.741618
O O5 0.359683 0.635068 0.434407
O O6 0.424360 0.522070 0.571802
O O7 0.203201 0.695821 0.539260
O O8 0.545400 0.150609 0.515855
O O9 0.193747 0.222480 0.510426
O O10 0.242732 0.016538 0.489328
O O11 0.512493 0.114622 0.190261
O O12 0.832743 0.011612 0.200714
O O13 0.217416 0.499389 0.709854
O O14 0.193922 0.546517 0.842588
O O15 0.101638 0.148022 0.101431
O O16 0.965468 0.156575 0.577848
#
# Coordination Sequence:
#
# PCOD8127624 Si02
#       8
#     4   4   4   4   4   4   4   4
#     4  11  23  45  65 101 137 175 230 281 338 414
#     4  10  22  45  67  98 139 178 229 294 339 408
#     4  11  25  43  69  97 136 181 233 283 337 418
#     4  10  24  44  68  99 140 177 232 294 341 413
#     4  11  24  45  69 100 141 175 225 290 346 405
#     4  12  25  42  69 102 136 182 228 280 356 410
#     4  11  24  46  66  97 140 179 224 289 339 411
#     4  12  24  42  69  99 131 184 227 275 350 412
#
# _framework density 22.613164000000001
#
# number of rings (size 3 to 8) (size 9 to 14) (size 15 to 20)
#    0.000    1.000    5.000    1.125    1.750    2.500 
#    0.000    0.000    0.000    0.000    0.000    0.000 
#    0.000    0.000    0.000    0.000    0.000    0.000 
#
# Total GULP energy -396577.185564 kJ/mol
# GULP energy per Si atom -12393.037049 kJ/mol
# Density = 2.256170 g / cm^3
# Si number density = 22.613164 Si / 1000 Ang^3
#
#
#
# Elastic Constant Matrix: (Units=GPa)
#
#
# Indices 1 2 3 4 5 6 
#
# 1 80.1276 21.3452 24.2778 0.0000 -8.1050 0.0000
# 2 21.3452 78.4907 18.4186 0.0000 -5.6636 0.0000
# 3 24.2778 18.4186 80.6851 0.0000 -6.3627 0.0000
# 4 0.0000 0.0000 0.0000 37.9625 0.0000 -1.1839
# 5 -8.1050 -5.6636 -6.3627 0.0000 29.4234 0.0000
# 6 0.0000 0.0000 0.0000 -1.1839 0.0000 44.7442
#
#
#
# Elastic Compliance Matrix: (Units=1/GPa)
#
#
# Indices 1 2 3 4 5 6 
#
# 1 0.014602 -0.002954 -0.003507 0.000000 0.002695 0.000000
# 2 -0.002954 0.014171 -0.002233 0.000000 0.001431 0.000000
# 3 -0.003507 -0.002233 0.014089 0.000000 0.001651 0.000000
# 4 0.000000 0.000000 0.000000 0.026364 0.000000 0.000698
# 5 0.002695 0.001431 0.001651 0.000000 0.035361 0.000000
# 6 0.000000 0.000000 0.000000 0.000698 0.000000 0.022368
#
#
# Mechanical properties :
#
#
# Convention : Reuss Voigt Hill
#
# Bulk Modulus (GPa) = 39.25496 40.82073 40.03784
# Shear Modulus (GPa) = 32.71526 34.11015 33.41270
#
# Velocity S-wave (km/s) = 3.80772 3.88805 3.84810
# Velocity P-wave (km/s) = 6.06042 6.18441 6.12273
#
# Compressibility (1/GPa) = 0.02547449
#
# Stress axis : x y z
#
# Youngs Moduli (GPa) = 68.48337 70.56714 70.97697
#
# Poissons Ratio (x) = 0.20842 0.24891
# Poissons Ratio (y) = 0.20227 0.15851
# Poissons Ratio (z) = 0.24017 0.15760
#
# Static dielectric constant tensor:
#      x y z
#    x 3.796530 0.000000 0.017760 
#    y 0.000000 4.425800 0.000000 
#    z 0.017760 0.000000 4.097680 
# 
# 
# High freq. dielectric constant tensor:
#      x y z
#    x 1.872610 0.000000 0.007580 
#    y 0.000000 1.913720 0.000000 
#    z 0.007580 0.000000 1.888690 
# 
# From -- ./inp_files/53499.got.cif
#   From: 2010.03.12/outbox.cif.g09.slc.cpg/sg14_27_cif.got.tgz:53499.got - 2010.03.31 13:35:05.
