data_PCOD8127575
_publ_section_title
;
Structure prediction by ZEFSAII (Michael W. Deem and Ramdas Pophale) SiO2 
 PCOD8127575
Probable space group: P 21/C
;
_chemical_formula_sum "Si O2"
_cell_formula_units_Z 20
_cell_length_a 11.934967
_cell_length_b 9.148974
_cell_length_c 9.751367
_cell_angle_alpha 90.000000
_cell_angle_beta 47.768645
_cell_angle_gamma 90.000000
_cell_volume 788.400996
_symmetry_space_group_name_H-M "P 21/C"
_symmetry_group_IT_number 14
_symmetry_cell_setting 'monoclinic'
loop_
_space_group_symop_operation_xyz
x,y,z
-x,1/2+y,1/2-z
-x,-y,-z
x,1/2-y,1/2+z
loop_
_atom_site_type_symbol
_atom_site_label
_atom_site_fract_x
_atom_site_fract_y
_atom_site_fract_z
Si Si1 0.085903 0.923034 0.305764
Si Si2 0.597231 0.718428 0.150992
Si Si3 0.335663 0.075041 0.663936
Si Si4 0.666964 0.414475 0.201480
Si Si5 0.906640 0.102170 0.263709
O O1 0.264040 0.922301 0.200613
O O2 0.028101 0.756899 0.338363
O O3 0.000000 0.000000 0.500000
O O4 0.051667 0.004905 0.190229
O O5 0.670015 0.840972 0.187968
O O6 0.576006 0.565233 0.249541
O O7 0.437568 0.772601 0.223442
O O8 0.699625 0.688141 0.932349
O O9 0.500000 0.000000 0.500000
O O10 0.193106 0.964306 0.779911
O O11 0.797732 0.386549 0.984171
#
# Coordination Sequence:
#
# PCOD8127575 Si02
#       5
#     4   4   4   4   4
#     4  10  23  44  67  94 133 179 234 276 338 414
#     4  11  22  41  69 100 139 181 225 285 349 408
#     4  11  22  43  67  99 141 176 233 284 350 404
#     4  10  23  41  64  99 139 174 230 276 345 407
#     4  10  22  44  67  91 139 178 223 288 339 407
#
# _framework density 25.367799999999999
#
# number of rings (size 3 to 8) (size 9 to 14) (size 15 to 20)
#    0.000    1.600    4.000    1.200    2.800    0.800 
#    0.000    4.000    0.000    0.000    0.000    0.000 
#    0.000    0.000    0.000    0.000    0.000    0.000 
#
# Total GULP energy -247891.660199 kJ/mol
# GULP energy per Si atom -12394.583010 kJ/mol
# Density = 2.531006 g / cm^3
# Si number density = 25.367800 Si / 1000 Ang^3
#
#
#
# Elastic Constant Matrix: (Units=GPa)
#
#
# Indices 1 2 3 4 5 6 
#
# 1 202.8908 99.4621 15.5126 0.0000 -3.6849 0.0000
# 2 99.4621 176.3566 29.3494 0.0000 0.2740 0.0000
# 3 15.5126 29.3494 28.4194 0.0000 9.0696 0.0000
# 4 0.0000 0.0000 0.0000 36.0778 0.0000 1.1190
# 5 -3.6849 0.2740 9.0696 0.0000 20.2546 0.0000
# 6 0.0000 0.0000 0.0000 1.1190 0.0000 64.5034
#
#
#
# Elastic Compliance Matrix: (Units=1/GPa)
#
#
# Indices 1 2 3 4 5 6 
#
# 1 0.006847 -0.003825 -0.000235 0.000000 0.001403 0.000000
# 2 -0.003825 0.009214 -0.008361 0.000000 0.002923 0.000000
# 3 -0.000235 -0.008361 0.051252 0.000000 -0.022879 0.000000
# 4 0.000000 0.000000 0.000000 0.027733 0.000000 -0.000481
# 5 0.001403 0.002923 -0.022879 0.000000 0.059832 0.000000
# 6 0.000000 0.000000 0.000000 -0.000481 0.000000 0.015511
#
#
# Mechanical properties :
#
#
# Convention : Reuss Voigt Hill
#
# Bulk Modulus (GPa) = 23.54540 77.36835 50.45687
# Shear Modulus (GPa) = 23.87899 41.72335 32.80117
#
# Velocity S-wave (km/s) = 3.07141 4.05993 3.59977
# Velocity P-wave (km/s) = 4.67759 7.24861 6.10009
#
# Compressibility (1/GPa) = 0.04247115
#
# Stress axis : x y z
#
# Youngs Moduli (GPa) = 146.04501 108.52649 19.51145
#
# Poissons Ratio (x) = 0.41508 0.00459
# Poissons Ratio (y) = 0.55858 0.16314
# Poissons Ratio (z) = 0.03436 0.90741
#
# Static dielectric constant tensor:
#      x y z
#    x 5.808770 0.000000 -0.000590 
#    y 0.000000 4.801390 0.000000 
#    z -0.000590 0.000000 3.915000 
# 
# 
# High freq. dielectric constant tensor:
#      x y z
#    x 2.046770 0.000000 0.007020 
#    y 0.000000 2.020840 0.000000 
#    z 0.007020 0.000000 1.957570 
# 
# From -- ./inp_files/27960.got.cif
#   From: 2010.03.12/outbox.cif.g09.slc.cpg/sg14_14_cif.got.tgz:27960.got - 2010.03.31 13:35:05.
