data_PCOD8127908
_publ_section_title
;
Structure prediction by ZEFSAII (Michael W. Deem and Ramdas Pophale) SiO2 
 PCOD8127908
Probable space group: P 21/C
;
_chemical_formula_sum "Si O2"
_cell_formula_units_Z 32
_cell_length_a 14.840666
_cell_length_b 22.216162
_cell_length_c 9.321676
_cell_angle_alpha 90.000000
_cell_angle_beta 149.856373
_cell_angle_gamma 90.000000
_cell_volume 1543.357827
_symmetry_space_group_name_H-M "P 21/C"
_symmetry_group_IT_number 14
_symmetry_cell_setting 'monoclinic'
loop_
_space_group_symop_operation_xyz
x,y,z
-x,1/2+y,1/2-z
-x,-y,-z
x,1/2-y,1/2+z
loop_
_atom_site_type_symbol
_atom_site_label
_atom_site_fract_x
_atom_site_fract_y
_atom_site_fract_z
Si Si1 0.291740 0.170524 0.719083
Si Si2 0.410689 0.821970 0.393763
Si Si3 0.423587 0.256381 0.143784
Si Si4 0.817195 0.022560 0.178118
Si Si5 0.054095 0.621422 0.347626
Si Si6 0.483432 0.444101 0.375876
Si Si7 0.852971 0.552116 0.288479
Si Si8 0.387426 0.056428 0.288948
O O1 0.288701 0.211108 0.569200
O O2 0.091007 0.145731 0.466180
O O3 0.435428 0.116902 0.894963
O O4 0.330045 0.205501 0.918904
O O5 0.492581 0.804194 0.351783
O O6 0.430842 0.773380 0.548191
O O7 0.491257 0.884950 0.559746
O O8 0.200203 0.827986 0.078435
O O9 0.862655 0.059173 0.096431
O O10 0.683707 0.065752 0.085404
O O11 0.000000 0.000000 0.500000
O O12 0.699369 0.962779 0.982232
O O13 0.951077 0.609201 0.354330
O O14 0.500000 0.500000 0.500000
O O15 0.327690 0.463213 0.049712
O O16 0.785169 0.571255 0.350851
O O17 0.000000 0.500000 0.500000
O O18 0.500000 0.000000 0.500000
#
# Coordination Sequence:
#
# PCOD8127908 Si02
#       8
#     4   4   4   4   4   4   4   4
#     4  10  23  43  66  92 126 171 214 271 322 380
#     4  11  23  43  67  93 125 172 219 266 327 383
#     4  10  24  45  66  86 123 176 222 264 320 379
#     4  12  24  39  59  99 138 168 207 256 335 393
#     4  11  22  38  65  94 129 161 210 272 314 391
#     4  11  24  39  63  92 133 165 201 267 326 384
#     4  11  20  36  57  93 132 162 204 245 318 389
#     4  12  22  40  67  94 131 171 203 266 327 395
#
# _framework density 20.734013000000001
#
# number of rings (size 3 to 8) (size 9 to 14) (size 15 to 20)
#    0.000    1.000    3.750    3.750    3.500    1.000 
#    0.000    0.000    0.000    0.000    0.000    0.000 
#    0.000    0.000    0.000    0.000    0.000    0.000 
#
# Total GULP energy -396618.959213 kJ/mol
# GULP energy per Si atom -12394.342475 kJ/mol
# Density = 2.068682 g / cm^3
# Si number density = 20.734013 Si / 1000 Ang^3
#
#
#
# Elastic Constant Matrix: (Units=GPa)
#
#
# Indices 1 2 3 4 5 6 
#
# 1 75.2583 15.7830 19.4337 0.0000 2.9935 0.0000
# 2 15.7830 87.5612 28.4781 0.0000 -0.9016 0.0000
# 3 19.4337 28.4781 101.7491 0.0000 13.1068 0.0000
# 4 0.0000 0.0000 0.0000 41.1047 0.0000 -4.5694
# 5 2.9935 -0.9016 13.1068 0.0000 38.9843 0.0000
# 6 0.0000 0.0000 0.0000 -4.5694 0.0000 26.0235
#
#
#
# Elastic Compliance Matrix: (Units=1/GPa)
#
#
# Indices 1 2 3 4 5 6 
#
# 1 0.014251 -0.001876 -0.002143 0.000000 -0.000417 0.000000
# 2 -0.001876 0.012900 -0.003459 0.000000 0.001605 0.000000
# 3 -0.002143 -0.003459 0.011701 0.000000 -0.003850 0.000000
# 4 0.000000 0.000000 0.000000 0.024812 0.000000 0.004357
# 5 -0.000417 0.001605 -0.003850 0.000000 0.027015 0.000000
# 6 0.000000 0.000000 0.000000 0.004357 0.000000 0.039192
#
#
# Mechanical properties :
#
#
# Convention : Reuss Voigt Hill
#
# Bulk Modulus (GPa) = 41.84742 43.55090 42.69916
# Shear Modulus (GPa) = 32.72390 34.61410 33.66900
#
# Velocity S-wave (km/s) = 3.97706 4.09031 4.03408
# Velocity P-wave (km/s) = 6.42776 6.58465 6.50668
#
# Compressibility (1/GPa) = 0.02389633
#
# Stress axis : x y z
#
# Youngs Moduli (GPa) = 70.17048 77.51760 85.45948
#
# Poissons Ratio (x) = 0.14543 0.18315
# Poissons Ratio (y) = 0.13164 0.29561
# Poissons Ratio (z) = 0.15038 0.26814
#
# Static dielectric constant tensor:
#      x y z
#    x 3.821070 0.000000 -0.112080 
#    y 0.000000 4.159480 0.000000 
#    z -0.112080 0.000000 3.731810 
# 
# 
# High freq. dielectric constant tensor:
#      x y z
#    x 1.817820 0.000000 0.002870 
#    y 0.000000 1.806590 0.000000 
#    z 0.002870 0.000000 1.813020 
# 
# From -- ./inp_files/17040.got.cif
#   From: 2010.03.12/outbox.cif.g09.slc.cpg/sg14_9_cif.got.tgz:17040.got - 2010.03.31 13:35:05.
