data_PCOD8127202
_publ_section_title
;
Structure prediction by ZEFSAII (Michael W. Deem and Ramdas Pophale) SiO2 
 PCOD8127202
Probable space group: P 21/C
;
_chemical_formula_sum "Si O2"
_cell_formula_units_Z 20
_cell_length_a 15.581707
_cell_length_b 4.845722
_cell_length_c 10.211378
_cell_angle_alpha 90.000000
_cell_angle_beta 90.182242
_cell_angle_gamma 90.000000
_cell_volume 771.002320
_symmetry_space_group_name_H-M "P 21/C"
_symmetry_group_IT_number 14
_symmetry_cell_setting 'monoclinic'
loop_
_space_group_symop_operation_xyz
x,y,z
-x,1/2+y,1/2-z
-x,-y,-z
x,1/2-y,1/2+z
loop_
_atom_site_type_symbol
_atom_site_label
_atom_site_fract_x
_atom_site_fract_y
_atom_site_fract_z
Si Si1 0.070541 0.217666 0.624709
Si Si2 0.107592 0.710092 0.786168
Si Si3 0.334364 0.882105 0.001275
Si Si4 0.441851 0.682889 0.753326
Si Si5 0.224192 0.413343 0.959216
O O1 0.077557 0.539310 0.660059
O O2 0.130169 0.186754 0.499527
O O3 0.968444 0.163545 0.603434
O O4 0.111830 0.029411 0.742162
O O5 0.201188 0.590378 0.827835
O O6 0.385204 0.749581 0.879855
O O7 0.267391 0.647600 0.051394
O O8 0.288476 0.157031 0.945396
O O9 0.391376 0.948574 0.128756
O O10 0.510315 0.454264 0.798388
#
# Coordination Sequence:
#
# PCOD8127202 Si02
#       5
#     4   4   4   4   4
#     4  10  22  40  64  93 136 192 239 283 343 408
#     4  10  22  40  64  93 136 192 239 283 343 408
#     4  12  28  43  77 110 139 183 226 290 356 416
#     4  12  26  52  76 104 142 182 230 276 354 444
#     4  12  25  41  66 102 147 173 236 296 352 399
#
# _framework density 25.940262000000001
#
# number of rings (size 3 to 8) (size 9 to 14) (size 15 to 20)
#    0.000    0.800    0.000    6.600    8.400    0.000 
#    0.000    8.000    0.000    0.000    0.000    0.000 
#    0.000    0.000    0.000    0.000    0.000    0.000 
#
# Total GULP energy -247831.201110 kJ/mol
# GULP energy per Si atom -12391.560055 kJ/mol
# Density = 2.588122 g / cm^3
# Si number density = 25.940262 Si / 1000 Ang^3
#
#
#
# Elastic Constant Matrix: (Units=GPa)
#
#
# Indices 1 2 3 4 5 6 
#
# 1 53.3781 -0.0240 26.0014 0.0000 8.4934 0.0000
# 2 -0.0240 98.6117 -0.4826 0.0000 2.7804 0.0000
# 3 26.0014 -0.4826 77.2114 0.0000 9.4009 0.0000
# 4 0.0000 0.0000 0.0000 27.1801 0.0000 2.7532
# 5 8.4934 2.7804 9.4009 0.0000 20.3290 0.0000
# 6 0.0000 0.0000 0.0000 2.7532 0.0000 46.3073
#
#
#
# Elastic Compliance Matrix: (Units=1/GPa)
#
#
# Indices 1 2 3 4 5 6 
#
# 1 0.023181 0.000153 -0.007019 0.000000 -0.006460 0.000000
# 2 0.000153 0.010186 0.000201 0.000000 -0.001550 0.000000
# 3 -0.007019 0.000201 0.015855 0.000000 -0.004427 0.000000
# 4 0.000000 0.000000 0.000000 0.037015 0.000000 -0.002201
# 5 -0.006460 -0.001550 -0.004427 0.000000 0.054149 0.000000
# 6 0.000000 0.000000 0.000000 -0.002201 0.000000 0.021726
#
#
# Mechanical properties :
#
#
# Convention : Reuss Voigt Hill
#
# Bulk Modulus (GPa) = 27.86082 31.13230 29.49656
# Shear Modulus (GPa) = 26.68013 32.34371 29.51192
#
# Velocity S-wave (km/s) = 3.21054 3.53491 3.37662
# Velocity P-wave (km/s) = 4.95046 5.35615 5.15730
#
# Compressibility (1/GPa) = 0.03589270
#
# Stress axis : x y z
#
# Youngs Moduli (GPa) = 43.13816 98.17871 63.07000
#
# Poissons Ratio (x) = -0.01507 0.44268
# Poissons Ratio (y) = -0.00662 -0.01266
# Poissons Ratio (z) = 0.30278 -0.01971
#
# Static dielectric constant tensor:
#      x y z
#    x 5.034300 0.000000 -0.011240 
#    y 0.000000 4.859280 0.000000 
#    z -0.011240 0.000000 4.064230 
# 
# 
# High freq. dielectric constant tensor:
#      x y z
#    x 2.049420 0.000000 0.004110 
#    y 0.000000 2.061080 0.000000 
#    z 0.004110 0.000000 2.010750 
# 
# From -- ./inp_files/31108.got.cif
#   From: 2010.03.12/outbox.cif.g09.slc.cpg/sg14_16_cif.got.tgz:31108.got - 2010.03.31 13:35:05.
