data_PCOD8127775
_publ_section_title
;
Structure prediction by ZEFSAII (Michael W. Deem and Ramdas Pophale) SiO2 
 PCOD8127775
Probable space group: P 21/C
;
_chemical_formula_sum "Si O2"
_cell_formula_units_Z 32
_cell_length_a 14.183527
_cell_length_b 15.265236
_cell_length_c 13.206809
_cell_angle_alpha 90.000000
_cell_angle_beta 30.472003
_cell_angle_gamma 90.000000
_cell_volume 1450.087022
_symmetry_space_group_name_H-M "P 21/C"
_symmetry_group_IT_number 14
_symmetry_cell_setting 'monoclinic'
loop_
_space_group_symop_operation_xyz
x,y,z
-x,1/2+y,1/2-z
-x,-y,-z
x,1/2-y,1/2+z
loop_
_atom_site_type_symbol
_atom_site_label
_atom_site_fract_x
_atom_site_fract_y
_atom_site_fract_z
Si Si1 0.988702 0.695010 0.969721
Si Si2 0.489318 0.452369 0.403823
Si Si3 0.279458 0.014970 0.703223
Si Si4 0.355394 0.179483 0.517902
Si Si5 0.872133 0.644862 0.289970
Si Si6 0.969839 0.886175 0.925077
Si Si7 0.598951 0.295327 0.407302
Si Si8 0.643727 0.620574 0.195314
O O1 0.996836 0.646681 0.072171
O O2 0.865062 0.636184 0.007298
O O3 0.921730 0.796504 0.031249
O O4 0.197740 0.703167 0.732126
O O5 0.500000 0.500000 0.500000
O O6 0.274161 0.435385 0.575352
O O7 0.595449 0.359587 0.312265
O O8 0.593880 0.517489 0.229925
O O9 0.242088 0.093821 0.658535
O O10 0.500000 0.000000 0.500000
O O11 0.196373 0.046596 0.889310
O O12 0.169215 0.927873 0.770608
O O13 0.222175 0.261357 0.630826
O O14 0.529581 0.200236 0.432128
O O15 0.435964 0.163116 0.331971
O O16 0.982028 0.633968 0.293491
O O17 0.449695 0.330698 0.624435
#
# Coordination Sequence:
#
# PCOD8127775 Si02
#       8
#     4   4   4   4   4   4   4   4
#     4  12  22  42  68  93 135 175 217 275 335 401
#     4   9  19  41  60  90 133 168 211 276 330 383
#     4  11  25  47  70  97 136 177 226 279 345 399
#     4  11  22  44  68  92 134 181 221 281 334 402
#     4  11  22  42  67  95 137 177 224 278 340 402
#     4  11  25  44  67 100 136 175 223 283 329 408
#     4  10  23  41  65  95 127 177 221 270 337 401
#     4  11  22  42  65  94 134 171 221 278 332 399
#
# _framework density 22.067641999999999
#
# number of rings (size 3 to 8) (size 9 to 14) (size 15 to 20)
#    0.000    1.250    6.250    0.750    1.750    2.500 
#    6.750    0.000    0.000    0.000    0.000    0.000 
#    0.000    0.000    0.000    0.000    0.000    0.000 
#
# Total GULP energy -396498.155329 kJ/mol
# GULP energy per Si atom -12390.567354 kJ/mol
# Density = 2.201741 g / cm^3
# Si number density = 22.067642 Si / 1000 Ang^3
#
#
#
# Elastic Constant Matrix: (Units=GPa)
#
#
# Indices 1 2 3 4 5 6 
#
# 1 77.9643 25.3390 17.7296 0.0000 7.3795 0.0000
# 2 25.3390 76.3139 16.1597 0.0000 0.4667 0.0000
# 3 17.7296 16.1597 59.0639 0.0000 -18.2766 0.0000
# 4 0.0000 0.0000 0.0000 37.4060 0.0000 0.0730
# 5 7.3795 0.4667 -18.2766 0.0000 30.8032 0.0000
# 6 0.0000 0.0000 0.0000 0.0730 0.0000 30.0967
#
#
#
# Elastic Compliance Matrix: (Units=1/GPa)
#
#
# Indices 1 2 3 4 5 6 
#
# 1 0.016225 -0.004060 -0.006055 0.000000 -0.007418 0.000000
# 2 -0.004060 0.015159 -0.003306 0.000000 -0.001219 0.000000
# 3 -0.006055 -0.003306 0.024641 0.000000 0.016121 0.000000
# 4 0.000000 0.000000 0.000000 0.026734 0.000000 -0.000065
# 5 -0.007418 -0.001219 0.016121 0.000000 0.043825 0.000000
# 6 0.000000 0.000000 0.000000 -0.000065 0.000000 0.033226
#
#
# Mechanical properties :
#
#
# Convention : Reuss Voigt Hill
#
# Bulk Modulus (GPa) = 34.26527 36.86653 35.56590
# Shear Modulus (GPa) = 25.46078 29.93545 27.69812
#
# Velocity S-wave (km/s) = 3.40039 3.68711 3.54665
# Velocity P-wave (km/s) = 5.56579 5.90498 5.73789
#
# Compressibility (1/GPa) = 0.02918407
#
# Stress axis : x y z
#
# Youngs Moduli (GPa) = 61.63356 65.96633 40.58203
#
# Poissons Ratio (x) = 0.26780 0.24573
# Poissons Ratio (y) = 0.25022 0.13416
# Poissons Ratio (z) = 0.37320 0.21808
#
# Static dielectric constant tensor:
#      x y z
#    x 4.088940 0.000000 0.217290 
#    y 0.000000 4.927650 0.000000 
#    z 0.217290 0.000000 3.985350 
# 
# 
# High freq. dielectric constant tensor:
#      x y z
#    x 1.854060 0.000000 -0.000520 
#    y 0.000000 1.881320 0.000000 
#    z -0.000520 0.000000 1.852770 
# 
# From -- ./inp_files/47381.got.cif
#   From: 2010.03.12/outbox.cif.g09.slc.cpg/sg14_24_cif.got.tgz:47381.got - 2010.03.31 13:35:05.
