data_PCOD8127702
_publ_section_title
;
Structure prediction by ZEFSAII (Michael W. Deem and Ramdas Pophale) SiO2 
 PCOD8127702
Probable space group: P 21/C
;
_chemical_formula_sum "Si O2"
_cell_formula_units_Z 32
_cell_length_a 24.192312
_cell_length_b 8.913858
_cell_length_c 23.333435
_cell_angle_alpha 90.000000
_cell_angle_beta 18.558926
_cell_angle_gamma 90.000000
_cell_volume 1601.514344
_symmetry_space_group_name_H-M "P 21/C"
_symmetry_group_IT_number 14
_symmetry_cell_setting 'monoclinic'
loop_
_space_group_symop_operation_xyz
x,y,z
-x,1/2+y,1/2-z
-x,-y,-z
x,1/2-y,1/2+z
loop_
_atom_site_type_symbol
_atom_site_label
_atom_site_fract_x
_atom_site_fract_y
_atom_site_fract_z
Si Si1 0.971084 0.056136 0.142677
Si Si2 0.423750 0.005781 0.305331
Si Si3 0.675524 0.577260 0.757556
Si Si4 0.652852 0.877313 0.407384
Si Si5 0.694323 0.644916 0.463094
Si Si6 0.093481 0.107459 0.678717
Si Si7 0.138201 0.669158 0.697109
Si Si8 0.495847 0.693879 0.830048
O O1 0.983301 0.239403 0.138493
O O2 0.796426 0.000195 0.283508
O O3 0.991118 0.981256 0.185524
O O4 0.134936 0.009483 0.942550
O O5 0.513457 0.962671 0.277948
O O6 0.214803 0.996232 0.520158
O O7 0.461422 0.177908 0.257076
O O8 0.505614 0.904353 0.173945
O O9 0.676094 0.662986 0.817718
O O10 0.622227 0.695277 0.760400
O O11 0.537979 0.442221 0.893332
O O12 0.668832 0.725124 0.427483
O O13 0.793666 0.751532 0.409984
O O14 0.810480 0.498198 0.334727
O O15 0.939017 0.167045 0.790901
O O16 0.298512 0.784615 0.542437
#
# Coordination Sequence:
#
# PCOD8127702 Si02
#       8
#     4   4   4   4   4   4   4   4
#     4  11  22  39  67  92 122 165 214 258 315 374
#     4  11  21  36  59  89 127 158 202 247 313 376
#     4  11  23  42  72  89 119 168 219 258 317 360
#     4  10  23  47  65  91 122 163 221 269 297 378
#     4  10  23  39  61  89 129 167 207 260 318 371
#     4  11  21  37  56  93 128 166 204 249 318 390
#     4  11  22  37  57  92 133 159 200 259 315 384
#     4  11  22  37  61  90 124 162 199 254 306 379
#
# _framework density 19.981089999999998
#
# number of rings (size 3 to 8) (size 9 to 14) (size 15 to 20)
#    0.000    1.250    3.750    2.625    3.500    0.000 
#    2.250    3.125    0.000    0.000    0.000    0.000 
#    0.000    0.000    0.000    0.000    0.000    0.000 
#
# Total GULP energy -396602.723108 kJ/mol
# GULP energy per Si atom -12393.835097 kJ/mol
# Density = 1.993561 g / cm^3
# Si number density = 19.981090 Si / 1000 Ang^3
#
#
#
# Elastic Constant Matrix: (Units=GPa)
#
#
# Indices 1 2 3 4 5 6 
#
# 1 124.6867 55.8871 33.5428 0.0000 2.0806 0.0000
# 2 55.8871 109.0167 33.8981 0.0000 9.8027 0.0000
# 3 33.5428 33.8981 113.3713 0.0000 14.7681 0.0000
# 4 0.0000 0.0000 0.0000 23.5187 0.0000 1.6717
# 5 2.0806 9.8027 14.7681 0.0000 22.3298 0.0000
# 6 0.0000 0.0000 0.0000 1.6717 0.0000 19.2888
#
#
#
# Elastic Compliance Matrix: (Units=1/GPa)
#
#
# Indices 1 2 3 4 5 6 
#
# 1 0.010828 -0.005162 -0.001996 0.000000 0.002577 0.000000
# 2 -0.005162 0.012722 -0.001764 0.000000 -0.003937 0.000000
# 3 -0.001996 -0.001764 0.010738 0.000000 -0.006142 0.000000
# 4 0.000000 0.000000 0.000000 0.042783 0.000000 -0.003708
# 5 0.002577 -0.003937 -0.006142 0.000000 0.050333 0.000000
# 6 0.000000 0.000000 0.000000 -0.003708 0.000000 0.052165
#
#
# Mechanical properties :
#
#
# Convention : Reuss Voigt Hill
#
# Bulk Modulus (GPa) = 60.80900 65.97008 63.38954
# Shear Modulus (GPa) = 24.64348 27.94391 26.29370
#
# Velocity S-wave (km/s) = 3.51570 3.74373 3.63151
# Velocity P-wave (km/s) = 6.85416 7.19551 7.02691
#
# Compressibility (1/GPa) = 0.01644493
#
# Stress axis : x y z
#
# Youngs Moduli (GPa) = 92.35583 78.60652 93.12325
#
# Poissons Ratio (x) = 0.40576 0.18586
# Poissons Ratio (y) = 0.47673 0.16424
# Poissons Ratio (z) = 0.18433 0.13863
#
# Static dielectric constant tensor:
#      x y z
#    x 3.589040 0.000000 0.054130 
#    y 0.000000 3.581570 0.000000 
#    z 0.054130 0.000000 3.918700 
# 
# 
# High freq. dielectric constant tensor:
#      x y z
#    x 1.765780 0.000000 0.001350 
#    y 0.000000 1.770240 0.000000 
#    z 0.001350 0.000000 1.790550 
# 
# From -- ./inp_files/74899.got.cif
#   From: 2010.03.12/outbox.cif.g09.slc.cpg/sg14_38_cif.got.tgz:74899.got - 2010.03.31 13:35:05.
