data_PCOD8127539
_publ_section_title
;
Structure prediction by ZEFSAII (Michael W. Deem and Ramdas Pophale) SiO2 
 PCOD8127539
Probable space group: P 21/C
;
_chemical_formula_sum "Si O2"
_cell_formula_units_Z 20
_cell_length_a 9.099270
_cell_length_b 15.351862
_cell_length_c 12.815678
_cell_angle_alpha 90.000000
_cell_angle_beta 29.390774
_cell_angle_gamma 90.000000
_cell_volume 878.580211
_symmetry_space_group_name_H-M "P 21/C"
_symmetry_group_IT_number 14
_symmetry_cell_setting 'monoclinic'
loop_
_space_group_symop_operation_xyz
x,y,z
-x,1/2+y,1/2-z
-x,-y,-z
x,1/2-y,1/2+z
loop_
_atom_site_type_symbol
_atom_site_label
_atom_site_fract_x
_atom_site_fract_y
_atom_site_fract_z
Si Si1 0.440162 0.654810 0.288045
Si Si2 0.587951 0.401405 0.925269
Si Si3 0.305105 0.499208 0.749864
Si Si4 0.226966 0.114623 0.107898
Si Si5 0.784833 0.730352 0.724520
O O1 0.525131 0.633024 0.116572
O O2 0.457696 0.566989 0.344959
O O3 0.684621 0.723853 0.178941
O O4 0.115538 0.695417 0.503972
O O5 0.944614 0.387310 0.705921
O O6 0.500000 0.500000 0.000000
O O7 0.437506 0.348443 0.112513
O O8 0.465238 0.595082 0.648026
O O9 0.206793 0.469117 0.695817
O O10 0.000000 0.500000 0.000000
O O11 0.240335 0.204094 0.162322
#
# Coordination Sequence:
#
# PCOD8127539 Si02
#       5
#     4   4   4   4   4
#     4  11  26  44  73 106 144 193 244 299 372 436
#     4  12  26  45  73 107 145 188 243 309 361 433
#     4  10  22  43  72 103 144 190 238 295 370 435
#     4  10  23  43  68 102 143 187 236 298 357 436
#     4  11  25  47  70 106 149 192 243 300 367 442
#
# _framework density 22.763999999999999
#
# number of rings (size 3 to 8) (size 9 to 14) (size 15 to 20)
#    0.000    1.200    2.000    2.400    2.800   11.200 
#    0.000    0.000    0.000    0.000    0.000    0.000 
#    0.000    0.000    0.000    0.000    0.000    0.000 
#
# Total GULP energy -248028.461455 kJ/mol
# GULP energy per Si atom -12401.423073 kJ/mol
# Density = 2.271219 g / cm^3
# Si number density = 22.764000 Si / 1000 Ang^3
#
#
#
# Elastic Constant Matrix: (Units=GPa)
#
#
# Indices 1 2 3 4 5 6 
#
# 1 137.8502 47.2666 40.3532 0.0000 -2.6297 0.0000
# 2 47.2666 129.6244 55.4568 0.0000 -4.3530 0.0000
# 3 40.3532 55.4568 133.8343 0.0000 -19.0866 0.0000
# 4 0.0000 0.0000 0.0000 48.5991 0.0000 -1.8956
# 5 -2.6297 -4.3530 -19.0866 0.0000 38.8452 0.0000
# 6 0.0000 0.0000 0.0000 -1.8956 0.0000 30.1783
#
#
#
# Elastic Compliance Matrix: (Units=1/GPa)
#
#
# Indices 1 2 3 4 5 6 
#
# 1 0.008561 -0.002435 -0.001644 0.000000 -0.000501 0.000000
# 2 -0.002435 0.010101 -0.003563 0.000000 -0.000784 0.000000
# 3 -0.001644 -0.003563 0.010077 0.000000 0.004441 0.000000
# 4 0.000000 0.000000 0.000000 0.020627 0.000000 0.001296
# 5 -0.000501 -0.000784 0.004441 0.000000 0.027803 0.000000
# 6 0.000000 0.000000 0.000000 0.001296 0.000000 0.033218
#
#
# Mechanical properties :
#
#
# Convention : Reuss Voigt Hill
#
# Bulk Modulus (GPa) = 74.32088 76.38467 75.35278
# Shear Modulus (GPa) = 38.41562 40.74000 39.57781
#
# Velocity S-wave (km/s) = 4.11245 4.23504 4.17419
# Velocity P-wave (km/s) = 7.43431 7.58564 7.51036
#
# Compressibility (1/GPa) = 0.01345517
#
# Stress axis : x y z
#
# Youngs Moduli (GPa) = 116.81083 99.00426 99.23451
#
# Poissons Ratio (x) = 0.24111 0.16310
# Poissons Ratio (y) = 0.28447 0.35356
# Poissons Ratio (z) = 0.19198 0.35274
#
# Static dielectric constant tensor:
#      x y z
#    x -0.095780 0.000000 -11.626670 
#    y 0.000000 4.738460 0.000000 
#    z -11.626670 0.000000 -26.280940 
# 
# 
# High freq. dielectric constant tensor:
#      x y z
#    x 1.908230 0.000000 -0.005000 
#    y 0.000000 1.905480 0.000000 
#    z -0.005000 0.000000 1.899090 
# 
# From -- ./inp_files/26221.got.cif
#   From: 2010.03.12/outbox.cif.g09.slc.cpg/sg14_14_cif.got.tgz:26221.got - 2010.03.31 13:35:05.
