data_PCOD8127364
_publ_section_title
;
Structure prediction by ZEFSAII (Michael W. Deem and Ramdas Pophale) SiO2 
 PCOD8127364
Probable space group: P 21/C
;
_chemical_formula_sum "Si O2"
_cell_formula_units_Z 20
_cell_length_a 7.306522
_cell_length_b 14.920667
_cell_length_c 13.037807
_cell_angle_alpha 90.000000
_cell_angle_beta 41.987849
_cell_angle_gamma 90.000000
_cell_volume 950.850118
_symmetry_space_group_name_H-M "P 21/C"
_symmetry_group_IT_number 14
_symmetry_cell_setting 'monoclinic'
loop_
_space_group_symop_operation_xyz
x,y,z
-x,1/2+y,1/2-z
-x,-y,-z
x,1/2-y,1/2+z
loop_
_atom_site_type_symbol
_atom_site_label
_atom_site_fract_x
_atom_site_fract_y
_atom_site_fract_z
Si Si1 0.145686 0.830105 0.105527
Si Si2 0.476881 0.886125 0.769028
Si Si3 0.071490 0.853000 0.538804
Si Si4 0.379050 0.698714 0.725106
Si Si5 0.625508 0.572872 0.772327
O O1 0.043497 0.728906 0.129981
O O2 0.884203 0.894726 0.231038
O O3 0.328252 0.832005 0.130997
O O4 0.332164 0.864678 0.935837
O O5 0.794514 0.911240 0.660263
O O6 0.471188 0.802097 0.694003
O O7 0.331607 0.969656 0.775162
O O8 0.106844 0.814294 0.408187
O O9 0.340343 0.913149 0.454553
O O10 0.618144 0.634802 0.672259
#
# Coordination Sequence:
#
# PCOD8127364 Si02
#       5
#     4   4   4   4   4
#     4  11  20  42  63  88 123 167 200 251 305 360
#     4  11  21  41  67  89 125 161 204 256 300 358
#     4   9  20  41  60  86 125 160 197 255 299 359
#     4   9  23  39  63  86 126 161 201 247 312 355
#     4  10  22  42  62  91 126 155 210 253 299 364
#
# _framework density 21.033808000000001
#
# number of rings (size 3 to 8) (size 9 to 14) (size 15 to 20)
#    1.200    0.800    2.000    1.200    0.000    4.000 
#    3.600    2.000    0.000    0.000    0.000    0.000 
#    0.000    0.000    0.000    0.000    0.000    0.000 
#
# Total GULP energy -247920.640575 kJ/mol
# GULP energy per Si atom -12396.032029 kJ/mol
# Density = 2.098593 g / cm^3
# Si number density = 21.033808 Si / 1000 Ang^3
#
#
#
# Elastic Constant Matrix: (Units=GPa)
#
#
# Indices 1 2 3 4 5 6 
#
# 1 75.3410 18.3407 19.8409 0.0000 -12.3218 0.0000
# 2 18.3407 112.0760 1.5187 0.0000 -0.1548 0.0000
# 3 19.8409 1.5187 57.4723 0.0000 -26.1653 0.0000
# 4 0.0000 0.0000 0.0000 20.8004 0.0000 -11.8341
# 5 -12.3218 -0.1548 -26.1653 0.0000 22.8049 0.0000
# 6 0.0000 0.0000 0.0000 -11.8341 0.0000 19.2137
#
#
#
# Elastic Compliance Matrix: (Units=1/GPa)
#
#
# Indices 1 2 3 4 5 6 
#
# 1 0.015477 -0.002484 -0.003094 0.000000 0.004795 0.000000
# 2 -0.002484 0.009327 0.000061 0.000000 -0.001210 0.000000
# 3 -0.003094 0.000061 0.037068 0.000000 0.040858 0.000000
# 4 0.000000 0.000000 0.000000 0.074011 0.000000 0.045584
# 5 0.004795 -0.001210 0.040858 0.000000 0.093312 0.000000
# 6 0.000000 0.000000 0.000000 0.045584 0.000000 0.080122
#
#
# Mechanical properties :
#
#
# Convention : Reuss Voigt Hill
#
# Bulk Modulus (GPa) = 19.67129 36.03219 27.85174
# Shear Modulus (GPa) = 14.82374 26.24306 20.53340
#
# Velocity S-wave (km/s) = 2.65761 3.53606 3.12782
# Velocity P-wave (km/s) = 4.33471 5.81716 5.12977
#
# Compressibility (1/GPa) = 0.05083549
#
# Stress axis : x y z
#
# Youngs Moduli (GPa) = 64.61263 107.22076 26.97761
#
# Poissons Ratio (x) = 0.26635 0.08347
# Poissons Ratio (y) = 0.16051 -0.00163
# Poissons Ratio (z) = 0.19992 -0.00649
#
# Static dielectric constant tensor:
#      x y z
#    x 3.469290 0.000000 -0.162280 
#    y 0.000000 3.698260 0.000000 
#    z -0.162280 0.000000 3.549750 
# 
# 
# High freq. dielectric constant tensor:
#      x y z
#    x 1.804120 0.000000 -0.018100 
#    y 0.000000 1.821270 0.000000 
#    z -0.018100 0.000000 1.810320 
# 
# From -- ./inp_files/20946.got.cif
#   From: 2010.03.12/outbox.cif.g09.slc.cpg/sg14_11_cif.got.tgz:20946.got - 2010.03.31 13:35:05.
