data_PCOD8127510
_publ_section_title
;
Structure prediction by ZEFSAII (Michael W. Deem and Ramdas Pophale) SiO2 
 PCOD8127510
Probable space group: P 21/C
;
_chemical_formula_sum "Si O2"
_cell_formula_units_Z 32
_cell_length_a 14.745367
_cell_length_b 16.982070
_cell_length_c 11.682237
_cell_angle_alpha 90.000000
_cell_angle_beta 149.811519
_cell_angle_gamma 90.000000
_cell_volume 1470.982072
_symmetry_space_group_name_H-M "P 21/C"
_symmetry_group_IT_number 14
_symmetry_cell_setting 'monoclinic'
loop_
_space_group_symop_operation_xyz
x,y,z
-x,1/2+y,1/2-z
-x,-y,-z
x,1/2-y,1/2+z
loop_
_atom_site_type_symbol
_atom_site_label
_atom_site_fract_x
_atom_site_fract_y
_atom_site_fract_z
Si Si1 0.409800 0.167208 0.351356
Si Si2 0.039981 0.946349 0.310974
Si Si3 0.394341 0.925898 0.833650
Si Si4 0.600925 0.391501 0.269898
Si Si5 0.019584 0.311267 0.437315
Si Si6 0.312054 0.792083 0.924827
Si Si7 0.965100 0.433954 0.554234
Si Si8 0.632590 0.553691 0.393285
O O1 0.438840 0.140826 0.514645
O O2 0.573238 0.215147 0.476782
O O3 0.388938 0.087837 0.256580
O O4 0.223764 0.216506 0.133615
O O5 0.191995 0.945239 0.573170
O O6 0.057834 0.872466 0.242389
O O7 0.062553 0.031924 0.273922
O O8 0.843930 0.945149 0.158761
O O9 0.374082 0.857639 0.903415
O O10 0.515966 0.897384 0.858732
O O11 0.500000 0.000000 0.000000
O O12 0.662151 0.319696 0.417116
O O13 0.549615 0.465150 0.295578
O O14 0.755133 0.421160 0.351885
O O15 0.037062 0.352091 0.581872
O O16 0.896996 0.233573 0.313735
O O17 0.000000 0.500000 0.500000
#
# Coordination Sequence:
#
# PCOD8127510 Si02
#       8
#     4   4   4   4   4   4   4   4
#     4  11  25  43  75 102 134 180 240 291 351 419
#     4   9  22  41  70  98 133 172 230 293 346 416
#     4  12  26  45  68  96 141 195 229 283 355 430
#     4  11  23  45  70 102 143 179 231 302 346 417
#     4  10  22  43  68 101 136 179 223 292 357 412
#     4  12  27  46  62 105 148 186 228 288 365 427
#     4   9  19  39  70 104 127 172 232 288 351 399
#     4  10  23  45  70 104 131 176 240 291 350 409
#
# _framework density 21.754173000000002
#
# number of rings (size 3 to 8) (size 9 to 14) (size 15 to 20)
#    0.000    1.500    2.500    1.875    7.000    1.500 
#    9.000    0.000    0.000    0.000    0.000    0.000 
#    0.000    0.000    0.000    0.000    0.000    0.000 
#
# Total GULP energy -396639.836769 kJ/mol
# GULP energy per Si atom -12394.994899 kJ/mol
# Density = 2.170466 g / cm^3
# Si number density = 21.754173 Si / 1000 Ang^3
#
#
#
# Elastic Constant Matrix: (Units=GPa)
#
#
# Indices 1 2 3 4 5 6 
#
# 1 93.3883 26.6215 48.6815 0.0000 2.1898 0.0000
# 2 26.6215 74.0183 39.7582 0.0000 2.4492 0.0000
# 3 48.6815 39.7582 137.1255 0.0000 5.8182 0.0000
# 4 0.0000 0.0000 0.0000 31.6614 0.0000 0.8868
# 5 2.1898 2.4492 5.8182 0.0000 25.1519 0.0000
# 6 0.0000 0.0000 0.0000 0.8868 0.0000 28.0179
#
#
#
# Elastic Compliance Matrix: (Units=1/GPa)
#
#
# Indices 1 2 3 4 5 6 
#
# 1 0.013586 -0.002719 -0.004036 0.000000 0.000015 0.000000
# 2 -0.002719 0.016553 -0.003813 0.000000 -0.000493 0.000000
# 3 -0.004036 -0.003813 0.009897 0.000000 -0.001567 0.000000
# 4 0.000000 0.000000 0.000000 0.031612 0.000000 -0.001001
# 5 0.000015 -0.000493 -0.001567 0.000000 0.040167 0.000000
# 6 0.000000 0.000000 0.000000 -0.001001 0.000000 0.035723
#
#
# Mechanical properties :
#
#
# Convention : Reuss Voigt Hill
#
# Bulk Modulus (GPa) = 52.90839 59.40606 56.15722
# Shear Modulus (GPa) = 28.57549 29.59765 29.08657
#
# Velocity S-wave (km/s) = 3.62824 3.69257 3.66055
# Velocity P-wave (km/s) = 6.47503 6.74887 6.61337
#
# Compressibility (1/GPa) = 0.01890059
#
# Stress axis : x y z
#
# Youngs Moduli (GPa) = 73.60262 60.41341 101.03779
#
# Poissons Ratio (x) = 0.16429 0.40775
# Poissons Ratio (y) = 0.20015 0.38525
# Poissons Ratio (z) = 0.29703 0.23035
#
# Static dielectric constant tensor:
#      x y z
#    x 4.371600 0.000000 0.081070 
#    y 0.000000 4.076150 0.000000 
#    z 0.081070 0.000000 3.880680 
# 
# 
# High freq. dielectric constant tensor:
#      x y z
#    x 1.863720 0.000000 0.006900 
#    y 0.000000 1.840200 0.000000 
#    z 0.006900 0.000000 1.850410 
# 
# From -- ./inp_files/33077.got.cif
#   From: 2010.03.12/outbox.cif.g09.slc.cpg/sg14_17_cif.got.tgz:33077.got - 2010.03.31 13:35:05.
