data_PCOD8127267
_publ_section_title
;
Structure prediction by ZEFSAII (Michael W. Deem and Ramdas Pophale) SiO2 
 PCOD8127267
Probable space group: P 21/C
;
_chemical_formula_sum "Si O2"
_cell_formula_units_Z 28
_cell_length_a 5.090731
_cell_length_b 13.502607
_cell_length_c 20.519346
_cell_angle_alpha 90.000000
_cell_angle_beta 102.909206
_cell_angle_gamma 90.000000
_cell_volume 1374.812698
_symmetry_space_group_name_H-M "P 21/C"
_symmetry_group_IT_number 14
_symmetry_cell_setting 'monoclinic'
loop_
_space_group_symop_operation_xyz
x,y,z
-x,1/2+y,1/2-z
-x,-y,-z
x,1/2-y,1/2+z
loop_
_atom_site_type_symbol
_atom_site_label
_atom_site_fract_x
_atom_site_fract_y
_atom_site_fract_z
Si Si1 0.348239 0.213113 0.033910
Si Si2 0.113807 0.486695 0.851858
Si Si3 0.586092 0.666602 0.608708
Si Si4 0.356990 0.030283 0.127970
Si Si5 0.346172 0.872718 0.608995
Si Si6 0.154116 0.840399 0.456738
Si Si7 0.905776 0.979218 0.200350
O O1 0.311733 0.113135 0.071701
O O2 0.645261 0.258062 0.061786
O O3 0.133438 0.293167 0.044921
O O4 0.294076 0.190750 0.955289
O O5 0.415075 0.447472 0.859688
O O6 0.103138 0.572213 0.904103
O O7 0.018329 0.533054 0.778690
O O8 0.917022 0.397685 0.862923
O O9 0.369779 0.576282 0.591616
O O10 0.435296 0.760997 0.631024
O O11 0.832004 0.631183 0.669195
O O12 0.116995 0.034270 0.165935
O O13 0.635812 0.046955 0.183422
O O14 0.282895 0.885560 0.529195
#
# Coordination Sequence:
#
# PCOD8127267 Si02
#       7
#     4   4   4   4   4   4   4
#     4  11  22  40  68  97 127 164 208 273 316 369
#     4  12  24  45  62  93 129 172 211 267 310 372
#     4   9  24  40  66  94 129 158 217 253 326 377
#     4  10  22  41  62  93 130 166 207 257 315 385
#     4  11  23  41  70  92 122 169 216 265 316 372
#     4  11  24  41  66  98 125 163 222 263 317 362
#     4  10  24  41  60  89 134 166 211 251 317 388
#
# _framework density 20.366412
#
# number of rings (size 3 to 8) (size 9 to 14) (size 15 to 20)
#    0.857    0.571    0.000    5.571    6.000    0.571 
#    7.714    0.000    0.000    0.000    0.000    0.000 
#    0.000    0.000    0.000    0.000    0.000    0.000 
#
# Total GULP energy -347213.129400 kJ/mol
# GULP energy per Si atom -12400.468907 kJ/mol
# Density = 2.032006 g / cm^3
# Si number density = 20.366412 Si / 1000 Ang^3
#
#
#
# Elastic Constant Matrix: (Units=GPa)
#
#
# Indices 1 2 3 4 5 6 
#
# 1 92.9036 12.3996 9.8659 0.0000 -4.7665 0.0000
# 2 12.3996 81.8539 35.6448 0.0000 -1.8856 0.0000
# 3 9.8659 35.6448 59.4955 0.0000 5.8201 0.0000
# 4 0.0000 0.0000 0.0000 15.4668 0.0000 9.9543
# 5 -4.7665 -1.8856 5.8201 0.0000 23.4281 0.0000
# 6 0.0000 0.0000 0.0000 9.9543 0.0000 20.2575
#
#
#
# Elastic Compliance Matrix: (Units=1/GPa)
#
#
# Indices 1 2 3 4 5 6 
#
# 1 0.011188 -0.000971 -0.001526 0.000000 0.002577 0.000000
# 2 -0.000971 0.016966 -0.010370 0.000000 0.003744 0.000000
# 3 -0.001526 -0.010370 0.023968 0.000000 -0.007099 0.000000
# 4 0.000000 0.000000 0.000000 0.094559 0.000000 -0.046465
# 5 0.002577 0.003744 -0.007099 0.000000 0.045273 0.000000
# 6 0.000000 0.000000 0.000000 -0.046465 0.000000 0.072197
#
#
# Mechanical properties :
#
#
# Convention : Reuss Voigt Hill
#
# Bulk Modulus (GPa) = 37.89460 38.89706 38.39583
# Shear Modulus (GPa) = 16.74031 23.58666 20.16349
#
# Velocity S-wave (km/s) = 2.87009 3.40680 3.14990
# Velocity P-wave (km/s) = 5.44335 5.88346 5.66768
#
# Compressibility (1/GPa) = 0.02638899
#
# Stress axis : x y z
#
# Youngs Moduli (GPa) = 89.38415 58.94153 41.72198
#
# Poissons Ratio (x) = 0.05724 0.06365
# Poissons Ratio (y) = 0.08680 0.43265
# Poissons Ratio (z) = 0.13636 0.61121
#
# Static dielectric constant tensor:
#      x y z
#    x 3.897100 0.000000 0.043750 
#    y 0.000000 3.618910 0.000000 
#    z 0.043750 0.000000 3.550980 
# 
# 
# High freq. dielectric constant tensor:
#      x y z
#    x 1.813720 0.000000 0.001090 
#    y 0.000000 1.792220 0.000000 
#    z 0.001090 0.000000 1.783570 
# 
# From -- ./inp_files/63365.got.cif
#   From: 2010.03.12/outbox.cif.g09.slc.cpg/sg14_32_cif.got.tgz:63365.got - 2010.03.31 13:35:05.
