data_PCOD8127261
_publ_section_title
;
Structure prediction by ZEFSAII (Michael W. Deem and Ramdas Pophale) SiO2 
 PCOD8127261
Probable space group: P 21/C
;
_chemical_formula_sum "Si O2"
_cell_formula_units_Z 24
_cell_length_a 16.184038
_cell_length_b 14.603529
_cell_length_c 9.127555
_cell_angle_alpha 90.000000
_cell_angle_beta 149.101335
_cell_angle_gamma 90.000000
_cell_volume 1107.790389
_symmetry_space_group_name_H-M "P 21/C"
_symmetry_group_IT_number 14
_symmetry_cell_setting 'monoclinic'
loop_
_space_group_symop_operation_xyz
x,y,z
-x,1/2+y,1/2-z
-x,-y,-z
x,1/2-y,1/2+z
loop_
_atom_site_type_symbol
_atom_site_label
_atom_site_fract_x
_atom_site_fract_y
_atom_site_fract_z
Si Si1 0.852004 0.188468 0.571432
Si Si2 0.168704 0.191654 0.592842
Si Si3 0.680435 0.491696 0.327181
Si Si4 0.324604 0.314095 0.623950
Si Si5 0.152151 0.987478 0.629622
Si Si6 0.307170 0.668685 0.856624
O O1 0.879677 0.090951 0.537021
O O2 0.789199 0.170770 0.639065
O O3 0.716316 0.238902 0.270720
O O4 0.006552 0.255065 0.802141
O O5 0.320019 0.231500 0.731763
O O6 0.171864 0.082413 0.570123
O O7 0.201237 0.214462 0.810280
O O8 0.751149 0.594202 0.415571
O O9 0.700864 0.464983 0.532397
O O10 0.762422 0.416502 0.346067
O O11 0.500000 0.500000 0.000000
O O12 0.500730 0.336765 0.826666
O O13 0.000000 0.000000 0.500000
#
# Coordination Sequence:
#
# PCOD8127261 Si02
#       6
#     4   4   4   4   4   4
#     4  12  24  40  66  94 124 165 210 258 312 371
#     4  11  23  41  63  88 121 164 206 253 315 370
#     4   9  20  40  64  88 124 165 203 254 314 367
#     4  10  22  41  62  88 125 164 204 255 310 372
#     4  11  23  42  63  90 128 165 206 262 313 369
#     4  11  22  40  63  94 125 163 209 258 311 371
#
# _framework density 21.664749
#
# number of rings (size 3 to 8) (size 9 to 14) (size 15 to 20)
#    0.000    1.333    0.000    7.000    0.000    2.667 
#    0.000   18.333    0.000    0.000    0.000    0.000 
#    0.000    0.000    0.000    0.000    0.000    0.000 
#
# Total GULP energy -297388.026784 kJ/mol
# GULP energy per Si atom -12391.167783 kJ/mol
# Density = 2.161544 g / cm^3
# Si number density = 21.664749 Si / 1000 Ang^3
#
#
#
# Elastic Constant Matrix: (Units=GPa)
#
#
# Indices 1 2 3 4 5 6 
#
# 1 88.8080 53.5288 39.0020 0.0000 -17.1632 0.0000
# 2 53.5288 141.0416 63.9493 0.0000 -29.1818 0.0000
# 3 39.0020 63.9493 103.7822 0.0000 -13.7916 0.0000
# 4 0.0000 0.0000 0.0000 40.4017 0.0000 -14.7542
# 5 -17.1632 -29.1818 -13.7916 0.0000 30.5701 0.0000
# 6 0.0000 0.0000 0.0000 -14.7542 0.0000 42.0209
#
#
#
# Elastic Compliance Matrix: (Units=1/GPa)
#
#
# Indices 1 2 3 4 5 6 
#
# 1 0.015592 -0.003752 -0.003043 0.000000 0.003800 0.000000
# 2 -0.003752 0.012430 -0.005268 0.000000 0.007382 0.000000
# 3 -0.003043 -0.005268 0.013967 0.000000 -0.000436 0.000000
# 4 0.000000 0.000000 0.000000 0.028392 0.000000 0.009969
# 5 0.003800 0.007382 -0.000436 0.000000 0.041696 0.000000
# 6 0.000000 0.000000 0.000000 0.009969 0.000000 0.027298
#
#
# Mechanical properties :
#
#
# Convention : Reuss Voigt Hill
#
# Bulk Modulus (GPa) = 55.97879 71.84353 63.91116
# Shear Modulus (GPa) = 29.50617 34.40866 31.95742
#
# Velocity S-wave (km/s) = 3.69446 3.98959 3.84485
# Velocity P-wave (km/s) = 6.64029 7.37942 7.01959
#
# Compressibility (1/GPa) = 0.01786391
#
# Stress axis : x y z
#
# Youngs Moduli (GPa) = 64.13388 80.44964 71.59524
#
# Poissons Ratio (x) = 0.30183 0.21786
# Poissons Ratio (y) = 0.24062 0.37718
# Poissons Ratio (z) = 0.19515 0.42383
#
# Static dielectric constant tensor:
#      x y z
#    x 3.844970 0.000000 -0.448330 
#    y 0.000000 4.560460 0.000000 
#    z -0.448330 0.000000 4.584690 
# 
# 
# High freq. dielectric constant tensor:
#      x y z
#    x 1.823690 0.000000 -0.006900 
#    y 0.000000 1.868750 0.000000 
#    z -0.006900 0.000000 1.870580 
# 
# From -- ./inp_files/18041.got.cif
#   From: 2010.03.12/outbox.cif.g09.slc.cpg/sg14_10_cif.got.tgz:18041.got - 2010.03.31 13:35:05.
