data_PCOD8127576
_publ_section_title
;
Structure prediction by ZEFSAII (Michael W. Deem and Ramdas Pophale) SiO2 
 PCOD8127576
Probable space group: P 21/C
;
_chemical_formula_sum "Si O2"
_cell_formula_units_Z 32
_cell_length_a 16.147103
_cell_length_b 18.011612
_cell_length_c 13.236298
_cell_angle_alpha 90.000000
_cell_angle_beta 22.706425
_cell_angle_gamma 90.000000
_cell_volume 1485.975735
_symmetry_space_group_name_H-M "P 21/C"
_symmetry_group_IT_number 14
_symmetry_cell_setting 'monoclinic'
loop_
_space_group_symop_operation_xyz
x,y,z
-x,1/2+y,1/2-z
-x,-y,-z
x,1/2-y,1/2+z
loop_
_atom_site_type_symbol
_atom_site_label
_atom_site_fract_x
_atom_site_fract_y
_atom_site_fract_z
Si Si1 0.121366 0.809575 0.157681
Si Si2 0.022457 0.308986 0.400061
Si Si3 0.726296 0.967635 0.761753
Si Si4 0.411880 0.063760 0.731046
Si Si5 0.120546 0.975553 0.202247
Si Si6 0.380259 0.715188 0.013224
Si Si7 0.728326 0.701992 0.246577
Si Si8 0.217524 0.042336 0.733099
O O1 0.081084 0.783546 0.088789
O O2 0.192104 0.895698 0.079356
O O3 0.904172 0.794297 0.461452
O O4 0.315555 0.762953 0.987940
O O5 0.193673 0.248567 0.244587
O O6 0.152339 0.386143 0.240277
O O7 0.829852 0.318725 0.696574
O O8 0.703834 0.881213 0.814697
O O9 0.861629 0.980028 0.505132
O O10 0.811760 0.015840 0.758368
O O11 0.500000 0.000000 0.000000
O O12 0.477667 0.146933 0.687397
O O13 0.331436 0.068161 0.707235
O O14 0.614072 0.008359 0.518000
O O15 0.215526 0.038701 0.023031
O O16 0.506745 0.766603 0.950768
O O17 0.000000 0.000000 0.000000
#
# Coordination Sequence:
#
# PCOD8127576 Si02
#       8
#     4   4   4   4   4   4   4   4
#     4  10  24  42  66  92 130 178 218 272 337 400
#     4  11  23  42  65  94 134 177 216 274 336 398
#     4  10  22  44  67  92 124 173 225 284 327 384
#     4  11  24  39  67  98 133 173 216 276 327 403
#     4  10  23  42  64  96 128 168 227 271 330 397
#     4  11  23  43  64  98 133 169 226 273 329 403
#     4  10  23  43  64  92 131 170 223 280 331 399
#     4  11  22  40  63  95 136 170 216 263 331 402
#
# _framework density 21.534672
#
# number of rings (size 3 to 8) (size 9 to 14) (size 15 to 20)
#    0.000    1.500    2.500    1.500    1.750    8.000 
#    0.000    0.000    0.000    0.000    0.000    0.000 
#    0.000    0.000    0.000    0.000    0.000    0.000 
#
# Total GULP energy -396842.238596 kJ/mol
# GULP energy per Si atom -12401.319956 kJ/mol
# Density = 2.148566 g / cm^3
# Si number density = 21.534672 Si / 1000 Ang^3
#
#
#
# Elastic Constant Matrix: (Units=GPa)
#
#
# Indices 1 2 3 4 5 6 
#
# 1 123.9533 49.7977 26.8599 0.0000 -11.4179 0.0000
# 2 49.7977 105.8336 55.2800 0.0000 -12.6155 0.0000
# 3 26.8599 55.2800 81.5394 0.0000 -15.3631 0.0000
# 4 0.0000 0.0000 0.0000 39.2789 0.0000 -5.4685
# 5 -11.4179 -12.6155 -15.3631 0.0000 32.8598 0.0000
# 6 0.0000 0.0000 0.0000 -5.4685 0.0000 37.7186
#
#
#
# Elastic Compliance Matrix: (Units=1/GPa)
#
#
# Indices 1 2 3 4 5 6 
#
# 1 0.010045 -0.004584 0.000137 0.000000 0.001794 0.000000
# 2 -0.004584 0.016756 -0.009801 0.000000 0.000258 0.000000
# 3 0.000137 -0.009801 0.019918 0.000000 0.005597 0.000000
# 4 0.000000 0.000000 0.000000 0.025983 0.000000 0.003767
# 5 0.001794 0.000258 0.005597 0.000000 0.033772 0.000000
# 6 0.000000 0.000000 0.000000 0.003767 0.000000 0.027058
#
#
# Mechanical properties :
#
#
# Convention : Reuss Voigt Hill
#
# Bulk Modulus (GPa) = 54.87714 63.91127 59.39421
# Shear Modulus (GPa) = 29.74374 33.93071 31.83723
#
# Velocity S-wave (km/s) = 3.72049 3.97373 3.84919
# Velocity P-wave (km/s) = 6.63283 7.12719 6.88445
#
# Compressibility (1/GPa) = 0.01822252
#
# Stress axis : x y z
#
# Youngs Moduli (GPa) = 99.55438 59.68069 50.20538
#
# Poissons Ratio (x) = 0.27358 -0.00688
# Poissons Ratio (y) = 0.45636 0.49207
# Poissons Ratio (z) = -0.01364 0.58494
#
# Static dielectric constant tensor:
#      x y z
#    x 3.816760 0.000000 -0.257340 
#    y 0.000000 3.901400 0.000000 
#    z -0.257340 0.000000 4.006250 
# 
# 
# High freq. dielectric constant tensor:
#      x y z
#    x 1.839260 0.000000 -0.014250 
#    y 0.000000 1.853300 0.000000 
#    z -0.014250 0.000000 1.848890 
# 
# From -- ./inp_files/49265.got.cif
#   From: 2010.03.12/outbox.cif.g09.slc.cpg/sg14_25_cif.got.tgz:49265.got - 2010.03.31 13:35:05.
