data_PCOD8127422
_publ_section_title
;
Structure prediction by ZEFSAII (Michael W. Deem and Ramdas Pophale) SiO2 
 PCOD8127422
Probable space group: P 21/C
;
_chemical_formula_sum "Si O2"
_cell_formula_units_Z 24
_cell_length_a 7.250008
_cell_length_b 8.373169
_cell_length_c 21.053512
_cell_angle_alpha 90.000000
_cell_angle_beta 60.151806
_cell_angle_gamma 90.000000
_cell_volume 1108.525877
_symmetry_space_group_name_H-M "P 21/C"
_symmetry_group_IT_number 14
_symmetry_cell_setting 'monoclinic'
loop_
_space_group_symop_operation_xyz
x,y,z
-x,1/2+y,1/2-z
-x,-y,-z
x,1/2-y,1/2+z
loop_
_atom_site_type_symbol
_atom_site_label
_atom_site_fract_x
_atom_site_fract_y
_atom_site_fract_z
Si Si1 0.004012 0.466913 0.073609
Si Si2 0.236842 0.621021 0.664736
Si Si3 0.617649 0.505445 0.229722
Si Si4 0.623301 0.336971 0.961588
Si Si5 0.281447 0.222373 0.097987
Si Si6 0.250357 0.166916 0.738869
O O1 0.128030 0.624528 0.076432
O O2 0.123216 0.299685 0.071767
O O3 0.770439 0.467177 0.144005
O O4 0.000000 0.500000 0.000000
O O5 0.319473 0.607770 0.722060
O O6 0.393787 0.750135 0.604285
O O7 0.220970 0.454685 0.629298
O O8 0.996245 0.681872 0.703991
O O9 0.627112 0.683997 0.252526
O O10 0.373209 0.482782 0.248995
O O11 0.500000 0.500000 0.000000
O O12 0.523101 0.212693 0.029311
O O13 0.277257 0.342720 0.158394
#
# Coordination Sequence:
#
# PCOD8127422 Si02
#       6
#     4   4   4   4   4   4
#     4  11  22  40  63  96 133 176 226 277 338 407
#     4  11  23  45  69  98 141 178 230 286 344 404
#     4  11  25  41  68 100 135 178 229 279 343 401
#     4  10  22  42  67  94 133 179 223 273 343 407
#     4  10  23  41  67  96 137 181 222 286 342 401
#     4  11  24  41  67 101 136 179 229 283 338 409
#
# _framework density 21.650376000000001
#
# number of rings (size 3 to 8) (size 9 to 14) (size 15 to 20)
#    0.000    1.333    3.333    1.500    2.333    5.333 
#    0.000    0.833    0.000    0.000    0.000    0.000 
#    0.000    0.000    0.000    0.000    0.000    0.000 
#
# Total GULP energy -297343.312639 kJ/mol
# GULP energy per Si atom -12389.304693 kJ/mol
# Density = 2.160110 g / cm^3
# Si number density = 21.650376 Si / 1000 Ang^3
#
#
#
# Elastic Constant Matrix: (Units=GPa)
#
#
# Indices 1 2 3 4 5 6 
#
# 1 65.4632 15.0386 30.6342 0.0000 10.5988 0.0000
# 2 15.0386 40.7780 29.5135 0.0000 19.5566 0.0000
# 3 30.6342 29.5135 155.5448 0.0000 11.9227 0.0000
# 4 0.0000 0.0000 0.0000 38.9514 0.0000 2.7067
# 5 10.5988 19.5566 11.9227 0.0000 39.7518 0.0000
# 6 0.0000 0.0000 0.0000 2.7067 0.0000 38.6858
#
#
#
# Elastic Compliance Matrix: (Units=1/GPa)
#
#
# Indices 1 2 3 4 5 6 
#
# 1 0.017682 -0.003573 -0.002639 0.000000 -0.002165 0.000000
# 2 -0.003573 0.037116 -0.005130 0.000000 -0.015769 0.000000
# 3 -0.002639 -0.005130 0.007855 0.000000 0.000871 0.000000
# 4 0.000000 0.000000 0.000000 0.025798 0.000000 -0.001805
# 5 -0.002165 -0.015769 0.000871 0.000000 0.033230 0.000000
# 6 0.000000 0.000000 0.000000 -0.001805 0.000000 0.025976
#
#
# Mechanical properties :
#
#
# Convention : Reuss Voigt Hill
#
# Bulk Modulus (GPa) = 25.01863 45.79542 35.40702
# Shear Modulus (GPa) = 27.22374 35.91779 31.57076
#
# Velocity S-wave (km/s) = 3.54987 4.07749 3.82279
# Velocity P-wave (km/s) = 5.32756 6.58529 5.98953
#
# Compressibility (1/GPa) = 0.03997022
#
# Stress axis : x y z
#
# Youngs Moduli (GPa) = 56.55530 26.94250 127.30279
#
# Poissons Ratio (x) = 0.09626 0.33589
# Poissons Ratio (y) = 0.20206 0.65309
# Poissons Ratio (z) = 0.14922 0.13822
#
# Static dielectric constant tensor:
#      x y z
#    x 3.895050 0.000000 -0.078230 
#    y 0.000000 3.959080 0.000000 
#    z -0.078230 0.000000 4.302990 
# 
# 
# High freq. dielectric constant tensor:
#      x y z
#    x 1.834870 0.000000 -0.003570 
#    y 0.000000 1.847510 0.000000 
#    z -0.003570 0.000000 1.873780 
# 
# From -- ./inp_files/64742.got.cif
#   From: 2010.03.12/outbox.cif.g09.slc.cpg/sg14_33_cif.got.tgz:64742.got - 2010.03.31 13:35:05.
