data_PCOD8127731
_publ_section_title
;
Structure prediction by ZEFSAII (Michael W. Deem and Ramdas Pophale) SiO2 
 PCOD8127731
Probable space group: P 21/C
;
_chemical_formula_sum "Si O2"
_cell_formula_units_Z 32
_cell_length_a 8.601212
_cell_length_b 23.635608
_cell_length_c 11.818684
_cell_angle_alpha 90.000000
_cell_angle_beta 38.574661
_cell_angle_gamma 90.000000
_cell_volume 1498.151136
_symmetry_space_group_name_H-M "P 21/C"
_symmetry_group_IT_number 14
_symmetry_cell_setting 'monoclinic'
loop_
_space_group_symop_operation_xyz
x,y,z
-x,1/2+y,1/2-z
-x,-y,-z
x,1/2-y,1/2+z
loop_
_atom_site_type_symbol
_atom_site_label
_atom_site_fract_x
_atom_site_fract_y
_atom_site_fract_z
Si Si1 0.519063 0.134282 0.754620
Si Si2 0.909519 0.149317 0.723554
Si Si3 0.957115 0.241443 0.327334
Si Si4 0.392685 0.929364 0.949853
Si Si5 0.221719 0.050531 0.076335
Si Si6 0.571388 0.866007 0.636348
Si Si7 0.779636 0.374989 0.872759
Si Si8 0.592163 0.749309 0.256096
O O1 0.764744 0.143484 0.688959
O O2 0.602204 0.115395 0.581783
O O3 0.367343 0.193412 0.839530
O O4 0.343662 0.086075 0.905351
O O5 0.966413 0.215133 0.717208
O O6 0.164238 0.113945 0.564467
O O7 0.760413 0.123149 0.913389
O O8 0.974633 0.176517 0.277497
O O9 0.690963 0.249757 0.538723
O O10 0.200084 0.251925 0.264837
O O11 0.634495 0.941250 0.887756
O O12 0.476143 0.913273 0.776888
O O13 0.221327 0.985012 0.040803
O O14 0.936736 0.068444 0.259260
O O15 0.380415 0.858366 0.644262
O O16 0.627890 0.805969 0.661722
#
# Coordination Sequence:
#
# PCOD8127731 Si02
#       8
#     4   4   4   4   4   4   4   4
#     4  10  23  40  63  95 128 168 216 266 324 387
#     4  11  22  40  67  93 129 168 214 272 324 391
#     4  11  23  40  65  96 135 169 218 272 328 398
#     4  10  23  45  66  97 123 171 226 268 330 383
#     4  10  23  43  71  89 128 173 219 275 321 394
#     4  12  24  40  65  93 133 171 213 270 327 390
#     4  11  25  40  61  95 130 170 214 266 325 390
#     4  11  23  40  64  96 136 170 216 272 328 400
#
# _framework density 21.359660999999999
#
# number of rings (size 3 to 8) (size 9 to 14) (size 15 to 20)
#    0.000    1.250    1.250    5.250    5.250    2.500 
#    0.000    5.000    0.000    0.000    0.000    0.000 
#    0.000    0.000    0.000    0.000    0.000    0.000 
#
# Total GULP energy -396897.609949 kJ/mol
# GULP energy per Si atom -12403.050311 kJ/mol
# Density = 2.131105 g / cm^3
# Si number density = 21.359661 Si / 1000 Ang^3
#
#
#
# Elastic Constant Matrix: (Units=GPa)
#
#
# Indices 1 2 3 4 5 6 
#
# 1 76.3554 22.2471 20.6330 0.0000 -1.5566 0.0000
# 2 22.2471 69.0926 -4.3091 0.0000 14.6079 0.0000
# 3 20.6330 -4.3091 44.1390 0.0000 6.9368 0.0000
# 4 0.0000 0.0000 0.0000 26.2277 0.0000 1.6956
# 5 -1.5566 14.6079 6.9368 0.0000 32.7570 0.0000
# 6 0.0000 0.0000 0.0000 1.6956 0.0000 30.8407
#
#
#
# Elastic Compliance Matrix: (Units=1/GPa)
#
#
# Indices 1 2 3 4 5 6 
#
# 1 0.018363 -0.007962 -0.010402 0.000000 0.006626 0.000000
# 2 -0.007962 0.019767 0.007341 0.000000 -0.010748 0.000000
# 3 -0.010402 0.007341 0.029820 0.000000 -0.010083 0.000000
# 4 0.000000 0.000000 0.000000 0.038264 0.000000 -0.002104
# 5 0.006626 -0.010748 -0.010083 0.000000 0.037771 0.000000
# 6 0.000000 0.000000 0.000000 -0.002104 0.000000 0.032540
#
#
# Mechanical properties :
#
#
# Convention : Reuss Voigt Hill
#
# Bulk Modulus (GPa) = 21.78544 29.63656 25.71100
# Shear Modulus (GPa) = 23.37840 28.03281 25.70560
#
# Velocity S-wave (km/s) = 3.31193 3.62666 3.47286
# Velocity P-wave (km/s) = 4.98464 5.60732 5.30512
#
# Compressibility (1/GPa) = 0.04590221
#
# Stress axis : x y z
#
# Youngs Moduli (GPa) = 54.45850 50.58842 33.53495
#
# Poissons Ratio (x) = 0.40280 0.34884
# Poissons Ratio (y) = 0.43361 -0.24618
# Poissons Ratio (z) = 0.56650 -0.37137
#
# Static dielectric constant tensor:
#      x y z
#    x 3.810860 0.000000 0.012150 
#    y 0.000000 3.969930 0.000000 
#    z 0.012150 0.000000 3.879260 
# 
# 
# High freq. dielectric constant tensor:
#      x y z
#    x 1.841920 0.000000 -0.000440 
#    y 0.000000 1.834600 0.000000 
#    z -0.000440 0.000000 1.845580 
# 
# From -- ./inp_files/27004.got.cif
#   From: 2010.03.12/outbox.cif.g09.slc.cpg/sg14_14_cif.got.tgz:27004.got - 2010.03.31 13:35:05.
