data_PCOD8127210
_publ_section_title
;
Structure prediction by ZEFSAII (Michael W. Deem and Ramdas Pophale) SiO2 
 PCOD8127210
Probable space group: P 21/C
;
_chemical_formula_sum "Si O2"
_cell_formula_units_Z 20
_cell_length_a 12.628224
_cell_length_b 13.324147
_cell_length_c 10.092456
_cell_angle_alpha 90.000000
_cell_angle_beta 35.320440
_cell_angle_gamma 90.000000
_cell_volume 981.788953
_symmetry_space_group_name_H-M "P 21/C"
_symmetry_group_IT_number 14
_symmetry_cell_setting 'monoclinic'
loop_
_space_group_symop_operation_xyz
x,y,z
-x,1/2+y,1/2-z
-x,-y,-z
x,1/2-y,1/2+z
loop_
_atom_site_type_symbol
_atom_site_label
_atom_site_fract_x
_atom_site_fract_y
_atom_site_fract_z
Si Si1 0.606074 0.564548 0.998776
Si Si2 0.916486 0.391678 0.097457
Si Si3 0.728214 0.170353 0.037652
Si Si4 0.969001 0.676183 0.539220
Si Si5 0.789588 0.384520 0.935419
O O1 0.771696 0.631103 0.774215
O O2 0.673093 0.484683 0.038417
O O3 0.500000 0.500000 0.000000
O O4 0.466345 0.640650 0.206727
O O5 0.782613 0.401439 0.360083
O O6 0.819735 0.371379 0.059057
O O7 0.000000 0.500000 0.000000
O O8 0.051944 0.294746 0.979350
O O9 0.691897 0.278444 0.004403
O O10 0.888086 0.163467 0.985447
O O11 0.036154 0.611977 0.342337
#
# Coordination Sequence:
#
# PCOD8127210 Si02
#       5
#     4   4   4   4   4
#     4  12  24  39  70  95 124 173 218 257 313 388
#     4  10  22  40  65  92 128 166 205 267 326 370
#     4  10  23  43  62  94 130 160 213 269 311 379
#     4  10  22  44  65  89 126 170 214 256 316 389
#     4  10  22  43  63  92 129 163 213 264 314 383
#
# _framework density 20.370975999999999
#
# number of rings (size 3 to 8) (size 9 to 14) (size 15 to 20)
#    0.000    1.600    2.000    1.800    2.800    2.400 
#   10.800    0.000    0.000    0.000    0.000    0.000 
#    0.000    0.000    0.000    0.000    0.000    0.000 
#
# Total GULP energy -247774.796606 kJ/mol
# GULP energy per Si atom -12388.739830 kJ/mol
# Density = 2.032461 g / cm^3
# Si number density = 20.370976 Si / 1000 Ang^3
#
#
#
# Elastic Constant Matrix: (Units=GPa)
#
#
# Indices 1 2 3 4 5 6 
#
# 1 62.9260 14.5017 51.4318 0.0000 12.6405 0.0000
# 2 14.5017 104.3465 61.0612 0.0000 -15.2891 0.0000
# 3 51.4318 61.0612 176.9526 0.0000 -0.4056 0.0000
# 4 0.0000 0.0000 0.0000 27.3799 0.0000 3.1150
# 5 12.6405 -15.2891 -0.4056 0.0000 35.8564 0.0000
# 6 0.0000 0.0000 0.0000 3.1150 0.0000 24.9428
#
#
#
# Elastic Compliance Matrix: (Units=1/GPa)
#
#
# Indices 1 2 3 4 5 6 
#
# 1 0.023053 -0.000643 -0.006498 0.000000 -0.008475 0.000000
# 2 -0.000643 0.013026 -0.004295 0.000000 0.005732 0.000000
# 3 -0.006498 -0.004295 0.009023 0.000000 0.000562 0.000000
# 4 0.000000 0.000000 0.000000 0.037050 0.000000 -0.004627
# 5 -0.008475 0.005732 0.000562 0.000000 0.033327 0.000000
# 6 0.000000 0.000000 0.000000 -0.004627 0.000000 0.040670
#
#
# Mechanical properties :
#
#
# Convention : Reuss Voigt Hill
#
# Bulk Modulus (GPa) = 44.98298 66.46828 55.72563
# Shear Modulus (GPa) = 26.81953 32.11784 29.46869
#
# Velocity S-wave (km/s) = 3.63237 3.97501 3.80755
# Velocity P-wave (km/s) = 6.30254 7.33262 6.83701
#
# Compressibility (1/GPa) = 0.02223063
#
# Stress axis : x y z
#
# Youngs Moduli (GPa) = 43.37749 76.76964 110.82528
#
# Poissons Ratio (x) = 0.04937 0.72015
# Poissons Ratio (y) = 0.02790 0.47597
# Poissons Ratio (z) = 0.28187 0.32971
#
# Static dielectric constant tensor:
#      x y z
#    x 3.533250 0.000000 -0.007980 
#    y 0.000000 3.160780 0.000000 
#    z -0.007980 0.000000 2.849570 
# 
# 
# High freq. dielectric constant tensor:
#      x y z
#    x 1.786080 0.000000 0.031480 
#    y 0.000000 1.823030 0.000000 
#    z 0.031480 0.000000 1.789390 
# 
# From -- ./inp_files/20710.got.cif
#   From: 2010.03.12/outbox.cif.g09.slc.cpg/sg14_11_cif.got.tgz:20710.got - 2010.03.31 13:35:05.
