data_PCOD8127302
_publ_section_title
;
Structure prediction by ZEFSAII (Michael W. Deem and Ramdas Pophale) SiO2 
 PCOD8127302
Probable space group: P 21/C
;
_chemical_formula_sum "Si O2"
_cell_formula_units_Z 20
_cell_length_a 5.305338
_cell_length_b 7.165805
_cell_length_c 25.418186
_cell_angle_alpha 90.000000
_cell_angle_beta 120.682454
_cell_angle_gamma 90.000000
_cell_volume 831.046605
_symmetry_space_group_name_H-M "P 21/C"
_symmetry_group_IT_number 14
_symmetry_cell_setting 'monoclinic'
loop_
_space_group_symop_operation_xyz
x,y,z
-x,1/2+y,1/2-z
-x,-y,-z
x,1/2-y,1/2+z
loop_
_atom_site_type_symbol
_atom_site_label
_atom_site_fract_x
_atom_site_fract_y
_atom_site_fract_z
Si Si1 0.570899 0.713729 0.020225
Si Si2 0.620989 0.882821 0.218128
Si Si3 0.054503 0.201336 0.530996
Si Si4 0.025692 0.163805 0.845588
Si Si5 0.766401 0.710561 0.337462
O O1 0.779683 0.722770 0.092643
O O2 0.500000 0.500000 0.000000
O O3 0.729498 0.809238 0.986497
O O4 0.256510 0.811880 0.997934
O O5 0.838075 0.799178 0.197469
O O6 0.779433 0.860773 0.291616
O O7 0.312605 0.766126 0.186700
O O8 0.545218 0.099565 0.198317
O O9 0.203742 0.183105 0.604029
O O10 0.000000 0.000000 0.500000
O O11 0.029201 0.940929 0.858699
#
# Coordination Sequence:
#
# PCOD8127302 Si02
#       5
#     4   4   4   4   4
#     4  10  22  41  65  95 131 173 216 268 330 397
#     4  10  25  43  68  96 130 179 219 281 334 389
#     4  10  23  41  65  99 127 177 218 270 331 395
#     4  10  24  42  65  98 132 169 226 272 330 397
#     4  10  26  43  69  94 139 168 232 272 336 398
#
# _framework density 24.066040000000001
#
# number of rings (size 3 to 8) (size 9 to 14) (size 15 to 20)
#    1.200    0.800    0.000    1.200    5.600    8.000 
#    0.000    0.000    0.000    0.000    0.000    0.000 
#    0.000    0.000    0.000    0.000    0.000    0.000 
#
# Total GULP energy -247781.494798 kJ/mol
# GULP energy per Si atom -12389.074740 kJ/mol
# Density = 2.401126 g / cm^3
# Si number density = 24.066040 Si / 1000 Ang^3
#
#
#
# Elastic Constant Matrix: (Units=GPa)
#
#
# Indices 1 2 3 4 5 6 
#
# 1 198.0941 -0.4973 53.3496 0.0000 -35.4138 0.0000
# 2 -0.4973 52.1453 33.5188 0.0000 4.0138 0.0000
# 3 53.3496 33.5188 207.0274 0.0000 -25.6020 0.0000
# 4 0.0000 0.0000 0.0000 44.6240 0.0000 7.8286
# 5 -35.4138 4.0138 -25.6020 0.0000 43.7728 0.0000
# 6 0.0000 0.0000 0.0000 7.8286 0.0000 7.7825
#
#
#
# Elastic Compliance Matrix: (Units=1/GPa)
#
#
# Indices 1 2 3 4 5 6 
#
# 1 0.006111 0.000453 -0.001123 0.000000 0.004245 0.000000
# 2 0.000453 0.022217 -0.004226 0.000000 -0.004142 0.000000
# 3 -0.001123 -0.004226 0.006187 0.000000 0.003098 0.000000
# 4 0.000000 0.000000 0.000000 0.027212 0.000000 -0.027373
# 5 0.004245 -0.004142 0.003098 0.000000 0.028471 0.000000
# 6 0.000000 0.000000 0.000000 -0.027373 0.000000 0.156029
#
#
# Mechanical properties :
#
#
# Convention : Reuss Voigt Hill
#
# Bulk Modulus (GPa) = 40.44827 70.00100 55.22464
# Shear Modulus (GPa) = 18.92086 43.96225 31.44156
#
# Velocity S-wave (km/s) = 2.80698 4.27867 3.61843
# Velocity P-wave (km/s) = 5.22965 7.31844 6.36037
#
# Compressibility (1/GPa) = 0.02472294
#
# Stress axis : x y z
#
# Youngs Moduli (GPa) = 163.64880 45.01083 161.62974
#
# Poissons Ratio (x) = -0.02041 0.18153
# Poissons Ratio (y) = -0.07420 0.68307
# Poissons Ratio (z) = 0.18379 0.19022
#
# Static dielectric constant tensor:
#      x y z
#    x 3.678670 0.000000 0.002050 
#    y 0.000000 3.719330 0.000000 
#    z 0.002050 0.000000 4.086450 
# 
# 
# High freq. dielectric constant tensor:
#      x y z
#    x 1.967460 0.000000 -0.008400 
#    y 0.000000 1.918650 0.000000 
#    z -0.008400 0.000000 1.958920 
# 
# From -- ./inp_files/63108.got.cif
#   From: 2010.03.12/outbox.cif.g09.slc.cpg/sg14_32_cif.got.tgz:63108.got - 2010.03.31 13:35:05.
