data_PCOD8127553
_publ_section_title
;
Structure prediction by ZEFSAII (Michael W. Deem and Ramdas Pophale) SiO2 
 PCOD8127553
Probable space group: P 21/C
;
_chemical_formula_sum "Si O2"
_cell_formula_units_Z 16
_cell_length_a 7.672369
_cell_length_b 16.800343
_cell_length_c 7.265179
_cell_angle_alpha 90.000000
_cell_angle_beta 62.516364
_cell_angle_gamma 90.000000
_cell_volume 830.782654
_symmetry_space_group_name_H-M "P 21/C"
_symmetry_group_IT_number 14
_symmetry_cell_setting 'monoclinic'
loop_
_space_group_symop_operation_xyz
x,y,z
-x,1/2+y,1/2-z
-x,-y,-z
x,1/2-y,1/2+z
loop_
_atom_site_type_symbol
_atom_site_label
_atom_site_fract_x
_atom_site_fract_y
_atom_site_fract_z
Si Si1 0.481172 0.585488 0.418834
Si Si2 0.193686 0.361919 0.978250
Si Si3 0.031363 0.915619 0.080458
Si Si4 0.798332 0.814337 0.912984
O O1 0.500000 0.500000 0.500000
O O2 0.257990 0.607519 0.485929
O O3 0.578275 0.647498 0.517119
O O4 0.601978 0.591578 0.166380
O O5 0.233233 0.279842 0.066498
O O6 0.058060 0.418663 0.169523
O O7 0.091505 0.340297 0.831377
O O8 0.924679 0.846249 0.020450
O O9 0.000000 0.000000 0.000000
#
# Coordination Sequence:
#
# PCOD8127553 Si02
#       4
#     4   4   4   4
#     4  10  23  41  63  96 123 162 212 251 309 373
#     4  10  23  44  63  91 129 160 207 262 300 377
#     4  12  22  41  67  92 125 168 202 258 317 357
#     4  10  22  44  62  92 129 157 212 257 303 375
#
# _framework density 19.258946000000002
#
# number of rings (size 3 to 8) (size 9 to 14) (size 15 to 20)
#    1.500    0.000    5.000    0.000    0.000    7.000 
#    4.500    0.000    0.000    0.000    0.000    0.000 
#    0.000    0.000    0.000    0.000    0.000    0.000 
#
# Total GULP energy -198239.540277 kJ/mol
# GULP energy per Si atom -12389.971267 kJ/mol
# Density = 1.921511 g / cm^3
# Si number density = 19.258946 Si / 1000 Ang^3
#
#
#
# Elastic Constant Matrix: (Units=GPa)
#
#
# Indices 1 2 3 4 5 6 
#
# 1 123.6348 18.8792 48.1563 0.0000 -15.3084 0.0000
# 2 18.8792 95.8612 43.6846 0.0000 -0.8094 0.0000
# 3 48.1563 43.6846 165.3521 0.0000 -5.3877 0.0000
# 4 0.0000 0.0000 0.0000 41.7932 0.0000 6.6589
# 5 -15.3084 -0.8094 -5.3877 0.0000 32.2328 0.0000
# 6 0.0000 0.0000 0.0000 6.6589 0.0000 11.2178
#
#
#
# Elastic Compliance Matrix: (Units=1/GPa)
#
#
# Indices 1 2 3 4 5 6 
#
# 1 0.009687 -0.000738 -0.002491 0.000000 0.004166 0.000000
# 2 -0.000738 0.011917 -0.002951 0.000000 -0.000544 0.000000
# 3 -0.002491 -0.002951 0.007553 0.000000 0.000006 0.000000
# 4 0.000000 0.000000 0.000000 0.026427 0.000000 -0.015687
# 5 0.004166 -0.000544 0.000006 0.000000 0.032990 0.000000
# 6 0.000000 0.000000 0.000000 -0.015687 0.000000 0.098456
#
#
# Mechanical properties :
#
#
# Convention : Reuss Voigt Hill
#
# Bulk Modulus (GPa) = 59.53063 67.36537 63.44800
# Shear Modulus (GPa) = 24.39165 35.32397 29.85781
#
# Velocity S-wave (km/s) = 3.56267 4.28735 3.94170
# Velocity P-wave (km/s) = 6.92107 7.71772 7.33023
#
# Compressibility (1/GPa) = 0.01679807
#
# Stress axis : x y z
#
# Youngs Moduli (GPa) = 103.23271 83.91100 132.39877
#
# Poissons Ratio (x) = 0.06190 0.32974
# Poissons Ratio (y) = 0.07615 0.39076
# Poissons Ratio (z) = 0.25710 0.24765
#
# Static dielectric constant tensor:
#      x y z
#    x 3.494700 0.000000 0.038310 
#    y 0.000000 3.432460 0.000000 
#    z 0.038310 0.000000 3.646210 
# 
# 
# High freq. dielectric constant tensor:
#      x y z
#    x 1.736200 0.000000 0.012720 
#    y 0.000000 1.754880 0.000000 
#    z 0.012720 0.000000 1.747930 
# 
# From -- ./inp_files/8128.got.cif
#   From: 2010.03.12/outbox.cif.g09.slc.cpg/sg14_5_cif.got.tgz:8128.got - 2010.03.31 13:35:05.
