data_PCOD8127189
_publ_section_title
;
Structure prediction by ZEFSAII (Michael W. Deem and Ramdas Pophale) SiO2 
 PCOD8127189
Probable space group: P 21/C
;
_chemical_formula_sum "Si O2"
_cell_formula_units_Z 32
_cell_length_a 10.796754
_cell_length_b 21.063901
_cell_length_c 11.131304
_cell_angle_alpha 90.000000
_cell_angle_beta 144.807096
_cell_angle_gamma 90.000000
_cell_volume 1458.982617
_symmetry_space_group_name_H-M "P 21/C"
_symmetry_group_IT_number 14
_symmetry_cell_setting 'monoclinic'
loop_
_space_group_symop_operation_xyz
x,y,z
-x,1/2+y,1/2-z
-x,-y,-z
x,1/2-y,1/2+z
loop_
_atom_site_type_symbol
_atom_site_label
_atom_site_fract_x
_atom_site_fract_y
_atom_site_fract_z
Si Si1 0.766428 0.861922 0.662924
Si Si2 0.142692 0.660953 0.019815
Si Si3 0.389753 0.681249 0.448046
Si Si4 0.054354 0.522605 0.911559
Si Si5 0.228482 0.220666 0.897918
Si Si6 0.458874 0.308608 0.804359
Si Si7 0.460901 0.477112 0.105779
Si Si8 0.803118 0.073570 0.046029
O O1 0.714842 0.793597 0.570746
O O2 0.641707 0.862565 0.690466
O O3 0.654857 0.909489 0.483956
O O4 0.016564 0.881343 0.871735
O O5 0.005894 0.597492 0.884784
O O6 0.009264 0.714969 0.844887
O O7 0.182901 0.679787 0.192345
O O8 0.374048 0.653922 0.143860
O O9 0.610028 0.674552 0.547737
O O10 0.415982 0.748127 0.538947
O O11 0.359402 0.620186 0.510559
O O12 0.898997 0.483122 0.701910
O O13 0.302112 0.519650 0.061818
O O14 0.000000 0.500000 0.000000
O O15 0.253035 0.210693 0.059806
O O16 0.687725 0.466087 0.349767
O O17 0.500000 0.500000 0.000000
#
# Coordination Sequence:
#
# PCOD8127189 Si02
#       8
#     4   4   4   4   4   4   4   4
#     4  10  23  41  63  96 129 166 223 263 325 405
#     4  11  23  41  65  93 132 167 217 278 334 390
#     4  10  22  40  63  95 128 167 218 263 330 395
#     4  11  25  44  67 101 128 172 234 278 329 401
#     4  10  23  39  66  98 129 169 215 272 329 396
#     4  10  22  40  63  95 132 171 214 268 330 400
#     4  11  26  45  67  95 135 177 225 275 331 400
#     4  11  24  42  70  91 132 175 216 274 339 383
#
# _framework density 21.933091000000001
#
# number of rings (size 3 to 8) (size 9 to 14) (size 15 to 20)
#    0.000    1.500    1.250    2.250    1.750   13.500 
#    0.000    0.000    0.000    0.000    0.000    0.000 
#    0.000    0.000    0.000    0.000    0.000    0.000 
#
# Total GULP energy -396428.367921 kJ/mol
# GULP energy per Si atom -12388.386498 kJ/mol
# Density = 2.188317 g / cm^3
# Si number density = 21.933091 Si / 1000 Ang^3
#
#
#
# Elastic Constant Matrix: (Units=GPa)
#
#
# Indices 1 2 3 4 5 6 
#
# 1 93.8008 18.9461 35.9622 0.0000 -8.2670 0.0000
# 2 18.9461 70.9686 38.5302 0.0000 -13.5767 0.0000
# 3 35.9622 38.5302 137.2770 0.0000 -15.6182 0.0000
# 4 0.0000 0.0000 0.0000 27.0593 0.0000 3.2368
# 5 -8.2670 -13.5767 -15.6182 0.0000 28.9043 0.0000
# 6 0.0000 0.0000 0.0000 3.2368 0.0000 30.6136
#
#
#
# Elastic Compliance Matrix: (Units=1/GPa)
#
#
# Indices 1 2 3 4 5 6 
#
# 1 0.012082 -0.001575 -0.002572 0.000000 0.001326 0.000000
# 2 -0.001575 0.017737 -0.003909 0.000000 0.005768 0.000000
# 3 -0.002572 -0.003909 0.009337 0.000000 0.002473 0.000000
# 4 0.000000 0.000000 0.000000 0.037429 0.000000 -0.003957
# 5 0.001326 0.005768 0.002473 0.000000 0.039022 0.000000
# 6 0.000000 0.000000 0.000000 -0.003957 0.000000 0.033084
#
#
# Mechanical properties :
#
#
# Convention : Reuss Voigt Hill
#
# Bulk Modulus (GPa) = 43.39795 54.32483 48.86139
# Shear Modulus (GPa) = 28.98783 31.22262 30.10522
#
# Velocity S-wave (km/s) = 3.63939 3.77708 3.70887
# Velocity P-wave (km/s) = 6.12288 6.62147 6.37705
#
# Compressibility (1/GPa) = 0.02304256
#
# Stress axis : x y z
#
# Youngs Moduli (GPa) = 82.76733 56.37811 107.10063
#
# Poissons Ratio (x) = 0.08882 0.27547
# Poissons Ratio (y) = 0.13039 0.41870
# Poissons Ratio (z) = 0.21289 0.22041
#
# Static dielectric constant tensor:
#      x y z
#    x 4.176400 0.000000 -0.001430 
#    y 0.000000 4.188370 0.000000 
#    z -0.001430 0.000000 3.782620 
# 
# 
# High freq. dielectric constant tensor:
#      x y z
#    x 1.869400 0.000000 -0.003540 
#    y 0.000000 1.868160 0.000000 
#    z -0.003540 0.000000 1.859200 
# 
# From -- ./inp_files/30765.got.cif
#   From: 2010.03.12/outbox.cif.g09.slc.cpg/sg14_16_cif.got.tgz:30765.got - 2010.03.31 13:35:05.
