data_PCOD8127669
_publ_section_title
;
Structure prediction by ZEFSAII (Michael W. Deem and Ramdas Pophale) SiO2 
 PCOD8127669
Probable space group: P 21/C
;
_chemical_formula_sum "Si O2"
_cell_formula_units_Z 28
_cell_length_a 11.478975
_cell_length_b 8.917042
_cell_length_c 13.395972
_cell_angle_alpha 90.000000
_cell_angle_beta 65.495751
_cell_angle_gamma 90.000000
_cell_volume 1247.689106
_symmetry_space_group_name_H-M "P 21/C"
_symmetry_group_IT_number 14
_symmetry_cell_setting 'monoclinic'
loop_
_space_group_symop_operation_xyz
x,y,z
-x,1/2+y,1/2-z
-x,-y,-z
x,1/2-y,1/2+z
loop_
_atom_site_type_symbol
_atom_site_label
_atom_site_fract_x
_atom_site_fract_y
_atom_site_fract_z
Si Si1 0.314484 0.240376 0.999394
Si Si2 0.903859 0.427870 0.831095
Si Si3 0.206628 0.794636 0.433773
Si Si4 0.289034 0.364884 0.212550
Si Si5 0.680345 0.584279 0.190579
Si Si6 0.983095 0.772107 0.374463
Si Si7 0.593634 0.029894 0.148498
O O1 0.364389 0.362267 0.902767
O O2 0.373412 0.077866 0.956079
O O3 0.362292 0.302881 0.088566
O O4 0.160497 0.226032 0.046411
O O5 0.821194 0.521142 0.780213
O O6 0.983942 0.306581 0.741939
O O7 0.993866 0.547588 0.855852
O O8 0.816123 0.344676 0.944273
O O9 0.077692 0.724243 0.430961
O O10 0.321372 0.677574 0.391715
O O11 0.242718 0.930620 0.346744
O O12 0.233107 0.216499 0.289651
O O13 0.385458 0.448188 0.252624
O O14 0.555537 0.568396 0.304694
#
# Coordination Sequence:
#
# PCOD8127669 Si02
#       7
#     4   4   4   4   4   4   4
#     4  10  24  45  67  99 135 180 219 278 344 395
#     4  11  25  43  67 100 134 180 219 279 345 407
#     4  12  24  43  70 104 137 174 230 281 339 395
#     4  10  22  47  66  94 137 175 223 273 336 395
#     4  11  24  45  69  95 138 177 229 279 331 397
#     4  11  25  42  69 101 137 176 222 282 337 406
#     4  11  25  45  69 102 134 179 230 277 330 405
#
# _framework density 22.441488
#
# number of rings (size 3 to 8) (size 9 to 14) (size 15 to 20)
#    0.000    1.143    4.286    2.143    6.000    4.000 
#    2.571    0.000    0.000    0.000    0.000    0.000 
#    0.000    0.000    0.000    0.000    0.000    0.000 
#
# Total GULP energy -347158.849178 kJ/mol
# GULP energy per Si atom -12398.530328 kJ/mol
# Density = 2.239041 g / cm^3
# Si number density = 22.441488 Si / 1000 Ang^3
#
#
#
# Elastic Constant Matrix: (Units=GPa)
#
#
# Indices 1 2 3 4 5 6 
#
# 1 43.8786 16.1253 11.9755 0.0000 -10.3181 0.0000
# 2 16.1253 96.0031 67.9812 0.0000 -5.0992 0.0000
# 3 11.9755 67.9812 112.1150 0.0000 -11.5687 0.0000
# 4 0.0000 0.0000 0.0000 58.3053 0.0000 -0.2272
# 5 -10.3181 -5.0992 -11.5687 0.0000 38.4422 0.0000
# 6 0.0000 0.0000 0.0000 -0.2272 0.0000 29.3608
#
#
#
# Elastic Compliance Matrix: (Units=1/GPa)
#
#
# Indices 1 2 3 4 5 6 
#
# 1 0.025778 -0.004399 0.000586 0.000000 0.006512 0.000000
# 2 -0.004399 0.019037 -0.011285 0.000000 -0.002052 0.000000
# 3 0.000586 -0.011285 0.016060 0.000000 0.003493 0.000000
# 4 0.000000 0.000000 0.000000 0.017152 0.000000 0.000133
# 5 0.006512 -0.002052 0.003493 0.000000 0.028540 0.000000
# 6 0.000000 0.000000 0.000000 0.000133 0.000000 0.034060
#
#
# Mechanical properties :
#
#
# Convention : Reuss Voigt Hill
#
# Bulk Modulus (GPa) = 32.59550 49.35117 40.97333
# Shear Modulus (GPa) = 27.61663 35.61598 31.61630
#
# Velocity S-wave (km/s) = 3.51180 3.98811 3.75751
# Velocity P-wave (km/s) = 5.56775 6.57613 6.09284
#
# Compressibility (1/GPa) = 0.03067909
#
# Stress axis : x y z
#
# Youngs Moduli (GPa) = 38.79261 52.52810 62.26591
#
# Poissons Ratio (x) = 0.23105 -0.03646
# Poissons Ratio (y) = 0.17064 0.70269
# Poissons Ratio (z) = -0.02272 0.59279
#
# Static dielectric constant tensor:
#      x y z
#    x 3.702600 0.000000 0.133750 
#    y 0.000000 4.239840 0.000000 
#    z 0.133750 0.000000 4.121770 
# 
# 
# High freq. dielectric constant tensor:
#      x y z
#    x 1.866030 0.000000 0.009400 
#    y 0.000000 1.896690 0.000000 
#    z 0.009400 0.000000 1.891390 
# 
# From -- ./inp_files/43599.got.cif
#   From: 2010.03.12/outbox.cif.g09.slc.cpg/sg14_22_cif.got.tgz:43599.got - 2010.03.31 13:35:05.
