data_PCOD8127018
_publ_section_title
;
Structure prediction by ZEFSAII (Michael W. Deem and Ramdas Pophale) SiO2 
 PCOD8127018
Probable space group: P 21/C
;
_chemical_formula_sum "Si O2"
_cell_formula_units_Z 28
_cell_length_a 16.799351
_cell_length_b 7.942676
_cell_length_c 13.649429
_cell_angle_alpha 90.000000
_cell_angle_beta 138.203787
_cell_angle_gamma 90.000000
_cell_volume 1213.844456
_symmetry_space_group_name_H-M "P 21/C"
_symmetry_group_IT_number 14
_symmetry_cell_setting 'monoclinic'
loop_
_space_group_symop_operation_xyz
x,y,z
-x,1/2+y,1/2-z
-x,-y,-z
x,1/2-y,1/2+z
loop_
_atom_site_type_symbol
_atom_site_label
_atom_site_fract_x
_atom_site_fract_y
_atom_site_fract_z
Si Si1 0.282182 0.972536 0.602832
Si Si2 0.190013 0.288200 0.176951
Si Si3 0.285443 0.593631 0.560331
Si Si4 0.518735 0.433979 0.405981
Si Si5 0.420207 0.084432 0.345638
Si Si6 0.949369 0.890721 0.103545
Si Si7 0.873556 0.665083 0.187127
O O1 0.242514 0.786028 0.535864
O O2 0.221435 0.036844 0.650016
O O3 0.424674 0.972427 0.748300
O O4 0.242227 0.102394 0.480624
O O5 0.300093 0.159989 0.280519
O O6 0.159617 0.309142 0.263698
O O7 0.074907 0.197854 0.022402
O O8 0.345844 0.546277 0.510193
O O9 0.386841 0.553625 0.734035
O O10 0.170765 0.478787 0.467801
O O11 0.500000 0.500000 0.500000
O O12 0.496951 0.235978 0.372202
O O13 0.500000 0.000000 0.500000
O O14 0.972273 0.744369 0.204929
O O15 0.064818 0.007523 0.201318
#
# Coordination Sequence:
#
# PCOD8127018 Si02
#       7
#     4   4   4   4   4   4   4
#     4  10  23  42  64 100 128 171 225 260 337 382
#     4   9  22  40  66  92 129 170 214 272 315 393
#     4  11  23  41  64  93 135 169 214 274 317 392
#     4  11  24  40  65  94 132 171 218 262 322 390
#     4  10  22  38  60  95 127 169 215 258 323 382
#     4  10  23  42  63  97 125 171 218 261 337 379
#     4  11  22  43  69  90 134 168 218 273 321 391
#
# _framework density 23.067204
#
# number of rings (size 3 to 8) (size 9 to 14) (size 15 to 20)
#    0.000    1.714    0.000    3.857    8.000    0.000 
#    0.000    7.857    0.000    0.000    0.000    0.000 
#    0.000    0.000    0.000    0.000    0.000    0.000 
#
# Total GULP energy -347041.313344 kJ/mol
# GULP energy per Si atom -12394.332619 kJ/mol
# Density = 2.301470 g / cm^3
# Si number density = 23.067204 Si / 1000 Ang^3
#
#
#
# Elastic Constant Matrix: (Units=GPa)
#
#
# Indices 1 2 3 4 5 6 
#
# 1 74.3177 3.3117 22.3255 0.0000 -23.3404 0.0000
# 2 3.3117 73.1299 3.7241 0.0000 -12.1880 0.0000
# 3 22.3255 3.7241 84.6465 0.0000 -7.8745 0.0000
# 4 0.0000 0.0000 0.0000 35.8567 0.0000 4.0505
# 5 -23.3404 -12.1880 -7.8745 0.0000 30.9432 0.0000
# 6 0.0000 0.0000 0.0000 4.0505 0.0000 21.4130
#
#
#
# Elastic Compliance Matrix: (Units=1/GPa)
#
#
# Indices 1 2 3 4 5 6 
#
# 1 0.018891 0.001660 -0.003758 0.000000 0.013947 0.000000
# 2 0.001660 0.014782 -0.000441 0.000000 0.006963 0.000000
# 3 -0.003758 -0.000441 0.012849 0.000000 0.000262 0.000000
# 4 0.000000 0.000000 0.000000 0.028498 0.000000 -0.005391
# 5 0.013947 0.006963 0.000262 0.000000 0.045646 0.000000
# 6 0.000000 0.000000 0.000000 -0.005391 0.000000 0.047720
#
#
# Mechanical properties :
#
#
# Convention : Reuss Voigt Hill
#
# Bulk Modulus (GPa) = 24.12835 32.31298 28.22067
# Shear Modulus (GPa) = 26.69833 31.15811 28.92822
#
# Velocity S-wave (km/s) = 3.40577 3.67925 3.54515
# Velocity P-wave (km/s) = 5.09396 5.66461 5.38684
#
# Compressibility (1/GPa) = 0.04144502
#
# Stress axis : x y z
#
# Youngs Moduli (GPa) = 52.93550 67.65015 77.82866
#
# Poissons Ratio (x) = -0.11232 0.29249
# Poissons Ratio (y) = -0.08789 0.03429
# Poissons Ratio (z) = 0.19894 0.02980
#
# Static dielectric constant tensor:
#      x y z
#    x 3.897480 0.000000 -0.126830 
#    y 0.000000 3.648360 0.000000 
#    z -0.126830 0.000000 4.175140 
# 
# 
# High freq. dielectric constant tensor:
#      x y z
#    x 1.894200 0.000000 -0.009400 
#    y 0.000000 1.908340 0.000000 
#    z -0.009400 0.000000 1.921640 
# 
# From -- ./inp_files/48597.got.cif
#   From: 2010.03.12/outbox.cif.g09.slc.cpg/sg14_25_cif.got.tgz:48597.got - 2010.03.31 13:35:05.
