data_PCOD8127412
_publ_section_title
;
Structure prediction by ZEFSAII (Michael W. Deem and Ramdas Pophale) SiO2 
 PCOD8127412
Probable space group: P 21/C
;
_chemical_formula_sum "Si O2"
_cell_formula_units_Z 24
_cell_length_a 17.346309
_cell_length_b 10.517375
_cell_length_c 12.722645
_cell_angle_alpha 90.000000
_cell_angle_beta 28.316656
_cell_angle_gamma 90.000000
_cell_volume 1100.995114
_symmetry_space_group_name_H-M "P 21/C"
_symmetry_group_IT_number 14
_symmetry_cell_setting 'monoclinic'
loop_
_space_group_symop_operation_xyz
x,y,z
-x,1/2+y,1/2-z
-x,-y,-z
x,1/2-y,1/2+z
loop_
_atom_site_type_symbol
_atom_site_label
_atom_site_fract_x
_atom_site_fract_y
_atom_site_fract_z
Si Si1 0.573512 0.361601 0.410714
Si Si2 0.399509 0.172661 0.473490
Si Si3 0.303598 0.493958 0.247674
Si Si4 0.204562 0.145559 0.072671
Si Si5 0.702756 0.116067 0.978736
Si Si6 0.147400 0.743618 0.522585
O O1 0.500000 0.500000 0.500000
O O2 0.443523 0.263241 0.520142
O O3 0.632009 0.323162 0.458022
O O4 0.732071 0.361708 0.145051
O O5 0.264740 0.073352 0.680838
O O6 0.333740 0.249477 0.453256
O O7 0.562542 0.100658 0.237133
O O8 0.241495 0.396932 0.410890
O O9 0.209265 0.627449 0.372690
O O10 0.500000 0.500000 0.000000
O O11 0.030810 0.211732 0.292368
O O12 0.219682 0.023653 0.132730
O O13 0.839361 0.205984 0.869510
#
# Coordination Sequence:
#
# PCOD8127412 Si02
#       6
#     4   4   4   4   4   4
#     4  11  21  41  68 102 131 180 229 275 339 409
#     4  11  22  40  73  99 127 180 234 274 333 409
#     4  11  21  46  70  91 134 183 229 269 330 415
#     4  11  23  43  65 101 138 169 225 287 341 388
#     4  10  22  42  66  96 136 178 224 278 325 416
#     4  10  25  43  64 100 138 178 220 283 348 392
#
# _framework density 21.798461
#
# number of rings (size 3 to 8) (size 9 to 14) (size 15 to 20)
#    0.000    1.333    6.667    1.000    0.000    2.667 
#   12.000    0.000    0.000    1.000    0.000    0.000 
#    0.000    0.000    0.000    0.000    0.000    0.000 
#
# Total GULP energy -297364.696403 kJ/mol
# GULP energy per Si atom -12390.195683 kJ/mol
# Density = 2.174885 g / cm^3
# Si number density = 21.798461 Si / 1000 Ang^3
#
#
#
# Elastic Constant Matrix: (Units=GPa)
#
#
# Indices 1 2 3 4 5 6 
#
# 1 76.2438 40.1455 25.1473 0.0000 -7.4790 0.0000
# 2 40.1455 113.4435 59.7900 0.0000 -11.1633 0.0000
# 3 25.1473 59.7900 100.2206 0.0000 -15.8492 0.0000
# 4 0.0000 0.0000 0.0000 42.8009 0.0000 3.9846
# 5 -7.4790 -11.1633 -15.8492 0.0000 27.7258 0.0000
# 6 0.0000 0.0000 0.0000 3.9846 0.0000 27.3808
#
#
#
# Elastic Compliance Matrix: (Units=1/GPa)
#
#
# Indices 1 2 3 4 5 6 
#
# 1 0.016271 -0.005218 -0.000668 0.000000 0.001906 0.000000
# 2 -0.005218 0.014551 -0.007330 0.000000 0.000261 0.000000
# 3 -0.000668 -0.007330 0.015417 0.000000 0.005681 0.000000
# 4 0.000000 0.000000 0.000000 0.023685 0.000000 -0.003447
# 5 0.001906 0.000261 0.005681 0.000000 0.039934 0.000000
# 6 0.000000 0.000000 0.000000 -0.003447 0.000000 0.037024
#
#
# Mechanical properties :
#
#
# Convention : Reuss Voigt Hill
#
# Bulk Modulus (GPa) = 50.49057 60.00818 55.24937
# Shear Modulus (GPa) = 27.79077 30.56982 29.18030
#
# Velocity S-wave (km/s) = 3.57444 3.74891 3.66271
# Velocity P-wave (km/s) = 6.34415 6.80643 6.57935
#
# Compressibility (1/GPa) = 0.01980568
#
# Stress axis : x y z
#
# Youngs Moduli (GPa) = 61.45987 68.72609 64.86310
#
# Poissons Ratio (x) = 0.35863 0.04334
# Poissons Ratio (y) = 0.32071 0.47545
# Poissons Ratio (z) = 0.04106 0.50376
#
# Static dielectric constant tensor:
#      x y z
#    x 4.092380 0.000000 0.189460 
#    y 0.000000 4.247680 0.000000 
#    z 0.189460 0.000000 3.763370 
# 
# 
# High freq. dielectric constant tensor:
#      x y z
#    x 1.854850 0.000000 0.010160 
#    y 0.000000 1.862660 0.000000 
#    z 0.010160 0.000000 1.838000 
# 
# From -- ./inp_files/50412.got.cif
#   From: 2010.03.12/outbox.cif.g09.slc.cpg/sg14_26_cif.got.tgz:50412.got - 2010.03.31 13:35:05.
