data_PCOD8127390
_publ_section_title
;
Structure prediction by ZEFSAII (Michael W. Deem and Ramdas Pophale) SiO2 
 PCOD8127390
Probable space group: P 21/C
;
_chemical_formula_sum "Si O2"
_cell_formula_units_Z 28
_cell_length_a 8.444437
_cell_length_b 11.523421
_cell_length_c 22.400515
_cell_angle_alpha 90.000000
_cell_angle_beta 141.575738
_cell_angle_gamma 90.000000
_cell_volume 1354.680864
_symmetry_space_group_name_H-M "P 21/C"
_symmetry_group_IT_number 14
_symmetry_cell_setting 'monoclinic'
loop_
_space_group_symop_operation_xyz
x,y,z
-x,1/2+y,1/2-z
-x,-y,-z
x,1/2-y,1/2+z
loop_
_atom_site_type_symbol
_atom_site_label
_atom_site_fract_x
_atom_site_fract_y
_atom_site_fract_z
Si Si1 0.588199 0.222416 0.794265
Si Si2 0.186015 0.482049 0.608688
Si Si3 0.630934 0.759934 0.883993
Si Si4 0.078105 0.329116 0.686254
Si Si5 0.361519 0.082284 0.381915
Si Si6 0.127014 0.624368 0.036858
Si Si7 0.583812 0.324170 0.060805
O O1 0.582062 0.199493 0.720874
O O2 0.302280 0.243470 0.732887
O O3 0.767833 0.330241 0.867943
O O4 0.679364 0.103713 0.847697
O O5 0.394127 0.391580 0.646116
O O6 0.058972 0.436743 0.633410
O O7 0.000000 0.500000 0.500000
O O8 0.572431 0.746203 0.935716
O O9 0.915916 0.715426 0.951753
O O10 0.138249 0.377423 0.770981
O O11 0.818043 0.255615 0.609117
O O12 0.639389 0.111700 0.438597
O O13 0.370964 0.154327 0.446643
O O14 0.320104 0.946243 0.383518
O O15 0.000000 0.500000 0.000000
#
# Coordination Sequence:
#
# PCOD8127390 Si02
#       7
#     4   4   4   4   4   4   4
#     4  10  23  40  67  91 126 166 216 269 316 368
#     4  11  22  42  65  92 125 163 216 267 311 365
#     4  11  23  39  64  98 126 166 213 262 317 379
#     4  10  24  42  64  93 131 168 210 267 320 384
#     4  10  22  42  65  89 130 171 208 264 316 376
#     4  11  21  40  68  95 118 162 224 270 305 367
#     4  11  23  41  61  95 133 168 208 252 326 392
#
# _framework density 20.669073999999998
#
# number of rings (size 3 to 8) (size 9 to 14) (size 15 to 20)
#    0.000    1.429    2.857    2.571    6.000    2.286 
#    2.571    0.714    0.000    0.000    0.000    0.000 
#    0.000    0.000    0.000    0.000    0.000    0.000 
#
# Total GULP energy -346938.727887 kJ/mol
# GULP energy per Si atom -12390.668853 kJ/mol
# Density = 2.062203 g / cm^3
# Si number density = 20.669074 Si / 1000 Ang^3
#
#
#
# Elastic Constant Matrix: (Units=GPa)
#
#
# Indices 1 2 3 4 5 6 
#
# 1 69.5137 35.7670 33.1828 0.0000 -15.9979 0.0000
# 2 35.7670 79.0299 33.5320 0.0000 -1.3442 0.0000
# 3 33.1828 33.5320 135.1336 0.0000 -26.1757 0.0000
# 4 0.0000 0.0000 0.0000 38.2044 0.0000 -3.2573
# 5 -15.9979 -1.3442 -26.1757 0.0000 38.3422 0.0000
# 6 0.0000 0.0000 0.0000 -3.2573 0.0000 26.2828
#
#
#
# Elastic Compliance Matrix: (Units=1/GPa)
#
#
# Indices 1 2 3 4 5 6 
#
# 1 0.021473 -0.008912 -0.001598 0.000000 0.007556 0.000000
# 2 -0.008912 0.018002 -0.003315 0.000000 -0.005350 0.000000
# 3 -0.001598 -0.003315 0.009753 0.000000 0.005875 0.000000
# 4 0.000000 0.000000 0.000000 0.026455 0.000000 0.003279
# 5 0.007556 -0.005350 0.005875 0.000000 0.033057 0.000000
# 6 0.000000 0.000000 0.000000 0.003279 0.000000 0.038454
#
#
# Mechanical properties :
#
#
# Convention : Reuss Voigt Hill
#
# Bulk Modulus (GPa) = 46.34141 54.29341 50.31741
# Shear Modulus (GPa) = 27.46718 32.64557 30.05638
#
# Velocity S-wave (km/s) = 3.64937 3.97853 3.81750
# Velocity P-wave (km/s) = 6.34244 6.88694 6.62029
#
# Compressibility (1/GPa) = 0.02157897
#
# Stress axis : x y z
#
# Youngs Moduli (GPa) = 46.57104 55.54887 102.53116
#
# Poissons Ratio (x) = 0.49502 0.16382
# Poissons Ratio (y) = 0.41502 0.33991
# Poissons Ratio (z) = 0.07441 0.18415
#
# Static dielectric constant tensor:
#      x y z
#    x 2.600500 0.000000 2.696290 
#    y 0.000000 3.857960 0.000000 
#    z 2.696290 0.000000 2.233900 
# 
# 
# High freq. dielectric constant tensor:
#      x y z
#    x 1.786360 0.000000 -0.018970 
#    y 0.000000 1.814180 0.000000 
#    z -0.018970 0.000000 1.830780 
# 
# From -- ./inp_files/65537.got.cif
#   From: 2010.03.12/outbox.cif.g09.slc.cpg/sg14_33_cif.got.tgz:65537.got - 2010.03.31 13:35:05.
