data_PCOD8127807
_publ_section_title
;
Structure prediction by ZEFSAII (Michael W. Deem and Ramdas Pophale) SiO2 
 PCOD8127807
Probable space group: P 21/C
;
_chemical_formula_sum "Si O2"
_cell_formula_units_Z 20
_cell_length_a 15.800094
_cell_length_b 5.198025
_cell_length_c 24.492885
_cell_angle_alpha 90.000000
_cell_angle_beta 24.742919
_cell_angle_gamma 90.000000
_cell_volume 841.943077
_symmetry_space_group_name_H-M "P 21/C"
_symmetry_group_IT_number 14
_symmetry_cell_setting 'monoclinic'
loop_
_space_group_symop_operation_xyz
x,y,z
-x,1/2+y,1/2-z
-x,-y,-z
x,1/2-y,1/2+z
loop_
_atom_site_type_symbol
_atom_site_label
_atom_site_fract_x
_atom_site_fract_y
_atom_site_fract_z
Si Si1 0.990862 0.254227 0.041803
Si Si2 0.401517 0.356447 0.292896
Si Si3 0.815533 0.859246 0.411936
Si Si4 0.643916 0.011415 0.298054
Si Si5 0.943095 0.641745 0.712817
O O1 0.211824 0.243087 0.941212
O O2 0.797620 0.249351 0.194660
O O3 0.000000 0.500000 0.000000
O O4 0.000000 0.000000 0.000000
O O5 0.422895 0.661634 0.292051
O O6 0.371458 0.322791 0.245259
O O7 0.852916 0.861581 0.325730
O O8 0.908518 0.601046 0.383673
O O9 0.573647 0.870437 0.560459
O O10 0.925010 0.102937 0.375955
O O11 0.748832 0.858011 0.286368
#
# Coordination Sequence:
#
# PCOD8127807 Si02
#       5
#     4   4   4   4   4
#     4  10  23  42  61  93 132 168 223 279 325 393
#     4  11  25  42  64  95 135 175 227 281 330 401
#     4  10  24  44  70 104 138 175 229 287 346 413
#     4  11  25  43  75  95 139 186 227 275 359 401
#     4  10  24  45  68 104 140 173 231 289 339 419
#
# _framework density 23.754574999999999
#
# number of rings (size 3 to 8) (size 9 to 14) (size 15 to 20)
#    0.000    1.600    0.000    3.000    5.600    9.600 
#    0.000    6.000    0.000    0.000    0.000    0.000 
#    0.000    0.000    0.000    0.000    0.000    0.000 
#
# Total GULP energy -247793.261766 kJ/mol
# GULP energy per Si atom -12389.663088 kJ/mol
# Density = 2.370051 g / cm^3
# Si number density = 23.754575 Si / 1000 Ang^3
#
#
#
# Elastic Constant Matrix: (Units=GPa)
#
#
# Indices 1 2 3 4 5 6 
#
# 1 101.5692 21.4703 7.9702 0.0000 -18.8724 0.0000
# 2 21.4703 146.3531 34.9739 0.0000 -7.0698 0.0000
# 3 7.9702 34.9739 171.7714 0.0000 -22.6679 0.0000
# 4 0.0000 0.0000 0.0000 24.7010 0.0000 -11.7929
# 5 -18.8724 -7.0698 -22.6679 0.0000 29.1486 0.0000
# 6 0.0000 0.0000 0.0000 -11.7929 0.0000 20.2913
#
#
#
# Elastic Compliance Matrix: (Units=1/GPa)
#
#
# Indices 1 2 3 4 5 6 
#
# 1 0.011536 -0.001508 0.000790 0.000000 0.007718 0.000000
# 2 -0.001508 0.007391 -0.001479 0.000000 -0.000334 0.000000
# 3 0.000790 -0.001479 0.006805 0.000000 0.005445 0.000000
# 4 0.000000 0.000000 0.000000 0.056031 0.000000 0.032564
# 5 0.007718 -0.000334 0.005445 0.000000 0.043457 0.000000
# 6 0.000000 0.000000 0.000000 0.032564 0.000000 0.068208
#
#
# Mechanical properties :
#
#
# Convention : Reuss Voigt Hill
#
# Bulk Modulus (GPa) = 46.86427 60.94697 53.90562
# Shear Modulus (GPa) = 24.39794 38.51349 31.45571
#
# Velocity S-wave (km/s) = 3.20829 4.03092 3.64290
# Velocity P-wave (km/s) = 5.78753 6.88310 6.35895
#
# Compressibility (1/GPa) = 0.02133822
#
# Stress axis : x y z
#
# Youngs Moduli (GPa) = 86.68191 135.29260 146.95770
#
# Poissons Ratio (x) = 0.20408 -0.11615
# Poissons Ratio (y) = 0.13076 0.21736
# Poissons Ratio (z) = -0.06851 0.20010
#
# Static dielectric constant tensor:
#      x y z
#    x 4.430970 0.000000 -0.408050 
#    y 0.000000 1.595900 0.000000 
#    z -0.408050 0.000000 5.207120 
# 
# 
# High freq. dielectric constant tensor:
#      x y z
#    x 1.947640 0.000000 -0.012790 
#    y 0.000000 1.938770 0.000000 
#    z -0.012790 0.000000 1.957960 
# 
# From -- ./inp_files/73449.got.cif
#   From: 2010.03.12/outbox.cif.g09.slc.cpg/sg14_37_cif.got.tgz:73449.got - 2010.03.31 13:35:05.
