data_PCOD8127515
_publ_section_title
;
Structure prediction by ZEFSAII (Michael W. Deem and Ramdas Pophale) SiO2 
 PCOD8127515
Probable space group: P 21/C
;
_chemical_formula_sum "Si O2"
_cell_formula_units_Z 28
_cell_length_a 16.183999
_cell_length_b 16.716851
_cell_length_c 5.293612
_cell_angle_alpha 90.000000
_cell_angle_beta 122.018131
_cell_angle_gamma 90.000000
_cell_volume 1214.302804
_symmetry_space_group_name_H-M "P 21/C"
_symmetry_group_IT_number 14
_symmetry_cell_setting 'monoclinic'
loop_
_space_group_symop_operation_xyz
x,y,z
-x,1/2+y,1/2-z
-x,-y,-z
x,1/2-y,1/2+z
loop_
_atom_site_type_symbol
_atom_site_label
_atom_site_fract_x
_atom_site_fract_y
_atom_site_fract_z
Si Si1 0.656088 0.201236 0.018574
Si Si2 0.882361 0.970409 0.525105
Si Si3 0.952858 0.390377 0.476950
Si Si4 0.889341 0.699624 0.518090
Si Si5 0.267710 0.425094 0.867284
Si Si6 0.569179 0.799594 0.360138
Si Si7 0.785646 0.075248 0.991234
O O1 0.680334 0.262614 0.831250
O O2 0.543590 0.175960 0.821422
O O3 0.720326 0.121605 0.089081
O O4 0.774840 0.935641 0.418075
O O5 0.917629 0.025015 0.813425
O O6 0.872333 0.021127 0.255500
O O7 0.963770 0.899659 0.663763
O O8 0.849973 0.359768 0.433277
O O9 0.998675 0.332920 0.334476
O O10 0.869377 0.746517 0.741402
O O11 0.813884 0.625955 0.417341
O O12 0.371250 0.381866 0.044965
O O13 0.283421 0.513760 0.773545
O O14 0.596847 0.749471 0.156112
#
# Coordination Sequence:
#
# PCOD8127515 Si02
#       7
#     4   4   4   4   4   4   4
#     4  10  25  46  66  93 128 166 213 262 317 385
#     4   9  20  38  58  88 121 163 204 263 309 373
#     4   9  21  38  57  84 121 167 212 246 320 367
#     4  11  25  39  59  91 128 165 213 265 305 372
#     4  10  23  38  63  97 123 165 213 259 323 378
#     4  10  22  43  68  92 130 173 205 256 321 378
#     4  11  23  38  69  89 128 167 211 268 315 372
#
# _framework density 23.058496000000002
#
# number of rings (size 3 to 8) (size 9 to 14) (size 15 to 20)
#    0.000    2.000    0.000    2.143   12.000    1.714 
#    0.000    0.714    0.000    0.000    0.000    0.000 
#    0.000    0.000    0.000    0.000    0.000    0.000 
#
# Total GULP energy -346893.962372 kJ/mol
# GULP energy per Si atom -12389.070085 kJ/mol
# Density = 2.300601 g / cm^3
# Si number density = 23.058496 Si / 1000 Ang^3
#
#
#
# Elastic Constant Matrix: (Units=GPa)
#
#
# Indices 1 2 3 4 5 6 
#
# 1 74.0027 19.0999 16.8016 0.0000 -9.2557 0.0000
# 2 19.0999 51.5594 4.7620 0.0000 -1.9905 0.0000
# 3 16.8016 4.7620 54.6264 0.0000 -12.0952 0.0000
# 4 0.0000 0.0000 0.0000 12.5670 0.0000 -4.1325
# 5 -9.2557 -1.9905 -12.0952 0.0000 28.2468 0.0000
# 6 0.0000 0.0000 0.0000 -4.1325 0.0000 50.4805
#
#
#
# Elastic Compliance Matrix: (Units=1/GPa)
#
#
# Indices 1 2 3 4 5 6 
#
# 1 0.016210 -0.005529 -0.003772 0.000000 0.003307 0.000000
# 2 -0.005529 0.021451 -0.000261 0.000000 -0.000412 0.000000
# 3 -0.003772 -0.000261 0.021223 0.000000 0.007834 0.000000
# 4 0.000000 0.000000 0.000000 0.081774 0.000000 0.006694
# 5 0.003307 -0.000412 0.007834 0.000000 0.039811 0.000000
# 6 0.000000 0.000000 0.000000 0.006694 0.000000 0.020358
#
#
# Mechanical properties :
#
#
# Convention : Reuss Voigt Hill
#
# Bulk Modulus (GPa) = 25.14917 29.05726 27.10322
# Shear Modulus (GPa) = 21.44043 27.56054 24.50048
#
# Velocity S-wave (km/s) = 3.05262 3.46098 3.26319
# Velocity P-wave (km/s) = 4.83270 5.34791 5.09682
#
# Compressibility (1/GPa) = 0.03976274
#
# Stress axis : x y z
#
# Youngs Moduli (GPa) = 61.69066 46.61695 47.11779
#
# Poissons Ratio (x) = 0.25774 0.17771
# Poissons Ratio (y) = 0.34108 0.01228
# Poissons Ratio (z) = 0.23267 0.01215
#
# Static dielectric constant tensor:
#      x y z
#    x 4.298850 0.000000 -0.060180 
#    y 0.000000 4.037290 0.000000 
#    z -0.060180 0.000000 3.900250 
# 
# 
# High freq. dielectric constant tensor:
#      x y z
#    x 1.921330 0.000000 -0.013870 
#    y 0.000000 1.898100 0.000000 
#    z -0.013870 0.000000 1.896110 
# 
# From -- ./inp_files/4200.got.cif
#   From: 2010.03.12/outbox.cif.g09.slc.cpg/sg14_3_cif.got.tgz:4200.got - 2010.03.31 13:35:05.
