data_PCOD8127428
_publ_section_title
;
Structure prediction by ZEFSAII (Michael W. Deem and Ramdas Pophale) SiO2 
 PCOD8127428
Probable space group: P 21/C
;
_chemical_formula_sum "Si O2"
_cell_formula_units_Z 32
_cell_length_a 8.879490
_cell_length_b 14.650660
_cell_length_c 11.694785
_cell_angle_alpha 90.000000
_cell_angle_beta 111.813498
_cell_angle_gamma 90.000000
_cell_volume 1412.445817
_symmetry_space_group_name_H-M "P 21/C"
_symmetry_group_IT_number 14
_symmetry_cell_setting 'monoclinic'
loop_
_space_group_symop_operation_xyz
x,y,z
-x,1/2+y,1/2-z
-x,-y,-z
x,1/2-y,1/2+z
loop_
_atom_site_type_symbol
_atom_site_label
_atom_site_fract_x
_atom_site_fract_y
_atom_site_fract_z
Si Si1 0.983388 0.901952 0.934317
Si Si2 0.898644 0.722357 0.037768
Si Si3 0.407928 0.310225 0.900618
Si Si4 0.565585 0.000251 0.146905
Si Si5 0.174162 0.847867 0.771641
Si Si6 0.661123 0.668580 0.793946
Si Si7 0.647614 0.168602 0.643623
Si Si8 0.310092 0.019969 0.268436
O O1 0.128415 0.872935 0.889563
O O2 0.966978 0.823110 0.025759
O O3 0.834520 0.912310 0.806644
O O4 0.000000 0.000000 0.000000
O O5 0.839587 0.675191 0.902168
O O6 0.737544 0.735503 0.067903
O O7 0.025365 0.654696 0.138239
O O8 0.398350 0.264638 0.773785
O O9 0.403259 0.419982 0.888505
O O10 0.589333 0.294863 0.002926
O O11 0.681357 0.083186 0.218512
O O12 0.407644 0.999077 0.180859
O O13 0.668487 0.907983 0.197094
O O14 0.500000 0.000000 0.000000
O O15 0.239764 0.745757 0.773367
O O16 0.525303 0.643704 0.848086
O O17 0.747066 0.073490 0.684218
#
# Coordination Sequence:
#
# PCOD8127428 Si02
#       8
#     4   4   4   4   4   4   4   4
#     4  12  26  44  69  99 143 182 231 281 344 415
#     4  11  24  44  65  95 142 181 227 282 350 413
#     4  11  21  41  70  96 134 183 229 279 349 409
#     4  11  25  41  70 104 136 175 238 285 342 412
#     4  12  25  44  66 105 135 180 232 282 345 402
#     4  10  22  42  68 101 136 184 225 284 348 413
#     4  10  24  41  69  98 139 172 234 289 336 405
#     4  11  22  45  66 102 130 182 227 278 346 412
#
# _framework density 22.655736000000001
#
# number of rings (size 3 to 8) (size 9 to 14) (size 15 to 20)
#    0.000    1.000    2.500    3.375    5.250    4.500 
#    2.250    0.000    0.000    0.000    0.000    0.000 
#    0.000    0.000    0.000    0.000    0.000    0.000 
#
# Total GULP energy -396548.120091 kJ/mol
# GULP energy per Si atom -12392.128753 kJ/mol
# Density = 2.260417 g / cm^3
# Si number density = 22.655736 Si / 1000 Ang^3
#
#
#
# Elastic Constant Matrix: (Units=GPa)
#
#
# Indices 1 2 3 4 5 6 
#
# 1 36.3746 15.6159 14.4246 0.0000 4.9862 0.0000
# 2 15.6159 141.9534 43.2881 0.0000 0.5117 0.0000
# 3 14.4246 43.2881 128.5949 0.0000 16.0671 0.0000
# 4 0.0000 0.0000 0.0000 49.2005 0.0000 2.8295
# 5 4.9862 0.5117 16.0671 0.0000 29.4585 0.0000
# 6 0.0000 0.0000 0.0000 2.8295 0.0000 31.3739
#
#
#
# Elastic Compliance Matrix: (Units=1/GPa)
#
#
# Indices 1 2 3 4 5 6 
#
# 1 0.029964 -0.002683 -0.001964 0.000000 -0.003954 0.000000
# 2 -0.002683 0.008145 -0.002661 0.000000 0.001764 0.000000
# 3 -0.001964 -0.002661 0.009492 0.000000 -0.004798 0.000000
# 4 0.000000 0.000000 0.000000 0.020431 0.000000 -0.001843
# 5 -0.003954 0.001764 -0.004798 0.000000 0.037202 0.000000
# 6 0.000000 0.000000 0.000000 -0.001843 0.000000 0.032040
#
#
# Mechanical properties :
#
#
# Convention : Reuss Voigt Hill
#
# Bulk Modulus (GPa) = 30.31700 50.39781 40.35740
# Shear Modulus (GPa) = 30.69642 37.57953 34.13798
#
# Velocity S-wave (km/s) = 3.68490 4.07716 3.88598
# Velocity P-wave (km/s) = 5.61385 6.66766 6.16332
#
# Compressibility (1/GPa) = 0.03298480
#
# Stress axis : x y z
#
# Youngs Moduli (GPa) = 33.37290 122.77619 105.35176
#
# Poissons Ratio (x) = 0.32943 0.20690
# Poissons Ratio (y) = 0.08955 0.28036
# Poissons Ratio (z) = 0.06554 0.32673
#
# Static dielectric constant tensor:
#      x y z
#    x 3.882850 0.000000 0.154700 
#    y 0.000000 4.171280 0.000000 
#    z 0.154700 0.000000 4.274910 
# 
# 
# High freq. dielectric constant tensor:
#      x y z
#    x 1.871980 0.000000 0.011610 
#    y 0.000000 1.903290 0.000000 
#    z 0.011610 0.000000 1.907780 
# 
# From -- ./inp_files/25566.got.cif
#   From: 2010.03.12/outbox.cif.g09.slc.cpg/sg14_13_cif.got.tgz:25566.got - 2010.03.31 13:35:05.
