data_PCOD8127741
_publ_section_title
;
Structure prediction by ZEFSAII (Michael W. Deem and Ramdas Pophale) SiO2 
 PCOD8127741
Probable space group: P 21/C
;
_chemical_formula_sum "Si O2"
_cell_formula_units_Z 24
_cell_length_a 14.133331
_cell_length_b 8.743294
_cell_length_c 14.898763
_cell_angle_alpha 90.000000
_cell_angle_beta 37.962784
_cell_angle_gamma 90.000000
_cell_volume 1132.532045
_symmetry_space_group_name_H-M "P 21/C"
_symmetry_group_IT_number 14
_symmetry_cell_setting 'monoclinic'
loop_
_space_group_symop_operation_xyz
x,y,z
-x,1/2+y,1/2-z
-x,-y,-z
x,1/2-y,1/2+z
loop_
_atom_site_type_symbol
_atom_site_label
_atom_site_fract_x
_atom_site_fract_y
_atom_site_fract_z
Si Si1 0.786077 0.945398 0.115433
Si Si2 0.891551 0.101679 0.201559
Si Si3 0.853460 0.041785 0.740185
Si Si4 0.173378 0.922974 0.550221
Si Si5 0.335780 0.605181 0.449760
Si Si6 0.312831 0.388418 0.796315
O O1 0.773188 0.770571 0.153648
O O2 0.770494 0.050604 0.215720
O O3 0.654092 0.992369 0.143458
O O4 0.946618 0.975712 0.944022
O O5 0.909009 0.283679 0.192532
O O6 0.833951 0.033076 0.339219
O O7 0.754175 0.004805 0.726754
O O8 0.748490 0.018421 0.906021
O O9 0.002063 0.931449 0.635520
O O10 0.243155 0.754704 0.487037
O O11 0.282551 0.044015 0.418065
O O12 0.507302 0.642733 0.353213
#
# Coordination Sequence:
#
# PCOD8127741 Si02
#       6
#     4   4   4   4   4   4
#     4  11  23  39  65  95 128 163 214 263 318 371
#     4  10  23  40  65  97 121 164 219 270 303 371
#     4  11  23  43  67  94 126 173 217 262 313 385
#     4  11  23  43  68  95 126 170 221 260 316 383
#     4  11  25  44  64  95 135 168 210 268 324 381
#     4  12  25  41  66  98 132 170 207 266 332 378
#
# _framework density 21.191452000000002
#
# number of rings (size 3 to 8) (size 9 to 14) (size 15 to 20)
#    0.000    1.000    3.333    3.000    4.667    1.333 
#    0.000    9.167    0.000    0.000    0.000    0.000 
#    0.000    0.000    0.000    0.000    0.000    0.000 
#
# Total GULP energy -297714.363528 kJ/mol
# GULP energy per Si atom -12404.765147 kJ/mol
# Density = 2.114322 g / cm^3
# Si number density = 21.191452 Si / 1000 Ang^3
#
#
#
# Elastic Constant Matrix: (Units=GPa)
#
#
# Indices 1 2 3 4 5 6 
#
# 1 119.9975 38.3180 55.9901 0.0000 13.5079 0.0000
# 2 38.3180 69.6799 34.6647 0.0000 6.0327 0.0000
# 3 55.9901 34.6647 94.1723 0.0000 -3.0617 0.0000
# 4 0.0000 0.0000 0.0000 23.3134 0.0000 8.7205
# 5 13.5079 6.0327 -3.0617 0.0000 38.5904 0.0000
# 6 0.0000 0.0000 0.0000 8.7205 0.0000 30.7088
#
#
#
# Elastic Compliance Matrix: (Units=1/GPa)
#
#
# Indices 1 2 3 4 5 6 
#
# 1 0.013049 -0.003488 -0.006622 0.000000 -0.004548 0.000000
# 2 -0.003488 0.018922 -0.004961 0.000000 -0.002131 0.000000
# 3 -0.006622 -0.004961 0.016525 0.000000 0.004405 0.000000
# 4 0.000000 0.000000 0.000000 0.047991 0.000000 -0.013628
# 5 -0.004548 -0.002131 0.004405 0.000000 0.028188 0.000000
# 6 0.000000 0.000000 0.000000 -0.013628 0.000000 0.036434
#
#
# Mechanical properties :
#
#
# Convention : Reuss Voigt Hill
#
# Bulk Modulus (GPa) = 54.48216 60.19945 57.34081
# Shear Modulus (GPa) = 25.33326 28.84764 27.09045
#
# Velocity S-wave (km/s) = 3.46127 3.69356 3.57930
# Velocity P-wave (km/s) = 6.46059 6.83074 6.64824
#
# Compressibility (1/GPa) = 0.01835463
#
# Stress axis : x y z
#
# Youngs Moduli (GPa) = 76.63365 52.84965 60.51277
#
# Poissons Ratio (x) = 0.18432 0.40074
# Poissons Ratio (y) = 0.26727 0.30019
# Poissons Ratio (z) = 0.50750 0.26217
#
# Static dielectric constant tensor:
#      x y z
#    x 3.805860 0.000000 0.175370 
#    y 0.000000 3.610010 0.000000 
#    z 0.175370 0.000000 3.911640 
# 
# 
# High freq. dielectric constant tensor:
#      x y z
#    x 1.834550 0.000000 0.012530 
#    y 0.000000 1.826000 0.000000 
#    z 0.012530 0.000000 1.833360 
# 
# From -- ./inp_files/46344.got.cif
#   From: 2010.03.12/outbox.cif.g09.slc.cpg/sg14_24_cif.got.tgz:46344.got - 2010.03.31 13:35:05.
