data_PCOD8127847
_publ_section_title
;
Structure prediction by ZEFSAII (Michael W. Deem and Ramdas Pophale) SiO2 
 PCOD8127847
Probable space group: P 21/C
;
_chemical_formula_sum "Si O2"
_cell_formula_units_Z 32
_cell_length_a 23.658371
_cell_length_b 14.182017
_cell_length_c 9.047792
_cell_angle_alpha 90.000000
_cell_angle_beta 150.841729
_cell_angle_gamma 90.000000
_cell_volume 1479.087676
_symmetry_space_group_name_H-M "P 21/C"
_symmetry_group_IT_number 14
_symmetry_cell_setting 'monoclinic'
loop_
_space_group_symop_operation_xyz
x,y,z
-x,1/2+y,1/2-z
-x,-y,-z
x,1/2-y,1/2+z
loop_
_atom_site_type_symbol
_atom_site_label
_atom_site_fract_x
_atom_site_fract_y
_atom_site_fract_z
Si Si1 0.764314 0.627069 0.780282
Si Si2 0.982634 0.629355 0.140344
Si Si3 0.585792 0.963700 0.316257
Si Si4 0.417390 0.967841 0.182994
Si Si5 0.761693 0.181908 0.111096
Si Si6 0.230631 0.321095 0.871520
Si Si7 0.981373 0.677914 0.798666
Si Si8 0.238335 0.629501 0.718659
O O1 0.654821 0.558224 0.538694
O O2 0.746149 0.713036 0.623038
O O3 0.875198 0.568148 0.962544
O O4 0.789110 0.670578 0.998148
O O5 0.983933 0.712888 0.262793
O O6 0.109268 0.580965 0.432995
O O7 0.952344 0.664095 0.905539
O O8 0.504911 0.927049 0.262346
O O9 0.669572 0.047446 0.558309
O O10 0.655038 0.875984 0.412951
O O11 0.500000 0.000000 0.000000
O O12 0.500000 0.000000 0.500000
O O13 0.333535 0.882946 0.031545
O O14 0.744891 0.290802 0.118977
O O15 0.889297 0.140047 0.443511
O O16 0.746359 0.182998 0.900581
O O17 0.119498 0.368067 0.533178
#
# Coordination Sequence:
#
# PCOD8127847 Si02
#       8
#     4   4   4   4   4   4   4   4
#     4  11  24  42  66  97 123 166 208 257 319 370
#     4   9  18  36  63  96 125 155 204 255 312 380
#     4  12  27  47  59  92 129 167 216 262 305 367
#     4  12  27  45  63  90 129 167 218 260 302 373
#     4  10  23  42  67  97 125 166 207 257 318 371
#     4  11  24  42  67  93 128 164 206 260 317 371
#     4   9  18  36  63  95 126 157 201 255 315 376
#     4  10  23  42  68  95 127 165 206 259 318 369
#
# _framework density 21.634958999999998
#
# number of rings (size 3 to 8) (size 9 to 14) (size 15 to 20)
#    0.000    1.500    2.500    3.000    5.250    4.000 
#    0.000    3.750    0.000    0.000    0.000    0.000 
#    0.000    0.000    0.000    0.000    0.000    0.000 
#
# Total GULP energy -396524.862040 kJ/mol
# GULP energy per Si atom -12391.401939 kJ/mol
# Density = 2.158572 g / cm^3
# Si number density = 21.634959 Si / 1000 Ang^3
#
#
#
# Elastic Constant Matrix: (Units=GPa)
#
#
# Indices 1 2 3 4 5 6 
#
# 1 139.6663 12.6108 29.9003 0.0000 17.8860 0.0000
# 2 12.6108 44.0163 8.4103 0.0000 13.6439 0.0000
# 3 29.9003 8.4103 98.4768 0.0000 16.1985 0.0000
# 4 0.0000 0.0000 0.0000 27.9151 0.0000 17.0792
# 5 17.8860 13.6439 16.1985 0.0000 42.4863 0.0000
# 6 0.0000 0.0000 0.0000 17.0792 0.0000 57.5674
#
#
#
# Elastic Compliance Matrix: (Units=1/GPa)
#
#
# Indices 1 2 3 4 5 6 
#
# 1 0.007972 -0.001223 -0.001951 0.000000 -0.002219 0.000000
# 2 -0.001223 0.025489 -0.000580 0.000000 -0.007449 0.000000
# 3 -0.001951 -0.000580 0.011342 0.000000 -0.003317 0.000000
# 4 0.000000 0.000000 0.000000 0.043767 0.000000 -0.012985
# 5 -0.002219 -0.007449 -0.003317 0.000000 0.028128 0.000000
# 6 0.000000 0.000000 0.000000 -0.012985 0.000000 0.021223
#
#
# Mechanical properties :
#
#
# Convention : Reuss Voigt Hill
#
# Bulk Modulus (GPa) = 26.81338 42.66692 34.74015
# Shear Modulus (GPa) = 31.67298 41.00966 36.34132
#
# Velocity S-wave (km/s) = 3.83034 4.35849 4.10292
# Velocity P-wave (km/s) = 5.65530 6.71511 6.20786
#
# Compressibility (1/GPa) = 0.03729481
#
# Stress axis : x y z
#
# Youngs Moduli (GPa) = 125.43439 39.23216 88.16649
#
# Poissons Ratio (x) = 0.04799 0.17202
# Poissons Ratio (y) = 0.15345 0.05115
# Poissons Ratio (z) = 0.24473 0.02276
#
# Static dielectric constant tensor:
#      x y z
#    x 2.567030 0.000000 0.367140 
#    y 0.000000 3.561840 0.000000 
#    z 0.367140 0.000000 4.396970 
# 
# 
# High freq. dielectric constant tensor:
#      x y z
#    x 1.875290 0.000000 0.009820 
#    y 0.000000 1.820210 0.000000 
#    z 0.009820 0.000000 1.866050 
# 
# From -- ./inp_files/19558.got.cif
#   From: 2010.03.12/outbox.cif.g09.slc.cpg/sg14_10_cif.got.tgz:19558.got - 2010.03.31 13:35:05.
