data_PCOD8127198
_publ_section_title
;
Structure prediction by ZEFSAII (Michael W. Deem and Ramdas Pophale) SiO2 
 PCOD8127198
Probable space group: P 21/C
;
_chemical_formula_sum "Si O2"
_cell_formula_units_Z 24
_cell_length_a 10.684383
_cell_length_b 7.262265
_cell_length_c 26.378992
_cell_angle_alpha 90.000000
_cell_angle_beta 31.665752
_cell_angle_gamma 90.000000
_cell_volume 1074.504962
_symmetry_space_group_name_H-M "P 21/C"
_symmetry_group_IT_number 14
_symmetry_cell_setting 'monoclinic'
loop_
_space_group_symop_operation_xyz
x,y,z
-x,1/2+y,1/2-z
-x,-y,-z
x,1/2-y,1/2+z
loop_
_atom_site_type_symbol
_atom_site_label
_atom_site_fract_x
_atom_site_fract_y
_atom_site_fract_z
Si Si1 0.620342 0.409033 0.190213
Si Si2 0.503161 0.966212 0.578105
Si Si3 0.894348 0.493035 0.864447
Si Si4 0.682945 0.191879 0.072500
Si Si5 0.131728 0.269641 0.357277
Si Si6 0.371077 0.665510 0.700541
O O1 0.751194 0.293142 0.101372
O O2 0.336503 0.418646 0.273301
O O3 0.747353 0.604491 0.152137
O O4 0.636485 0.295138 0.237076
O O5 0.259391 0.940162 0.631365
O O6 0.535319 0.174646 0.585845
O O7 0.726975 0.912858 0.465125
O O8 0.496507 0.834012 0.628955
O O9 0.019604 0.309682 0.843973
O O10 0.098577 0.635230 0.776151
O O11 0.525498 0.015717 0.137376
O O12 0.930813 0.133464 0.960697
#
# Coordination Sequence:
#
# PCOD8127198 Si02
#       6
#     4   4   4   4   4   4
#     4  11  20  41  59  91 129 165 208 263 321 373
#     4  10  23  43  68  92 129 177 205 268 329 365
#     4   9  21  45  64  93 135 161 219 269 310 384
#     4  11  23  43  64  95 130 166 215 266 319 381
#     4  10  22  40  64  89 129 166 211 269 315 385
#     4  11  24  40  65  99 123 169 224 256 321 390
#
# _framework density 22.335865999999999
#
# number of rings (size 3 to 8) (size 9 to 14) (size 15 to 20)
#    0.000    1.667    3.333    1.500    2.333    3.333 
#   12.000    7.500    0.000    0.000    0.000    0.000 
#    0.000    0.000    0.000    0.000    0.000    0.000 
#
# Total GULP energy -297559.891132 kJ/mol
# GULP energy per Si atom -12398.328797 kJ/mol
# Density = 2.228503 g / cm^3
# Si number density = 22.335866 Si / 1000 Ang^3
#
#
#
# Elastic Constant Matrix: (Units=GPa)
#
#
# Indices 1 2 3 4 5 6 
#
# 1 88.0097 4.7792 10.0411 0.0000 -9.2501 0.0000
# 2 4.7792 35.6317 -3.4971 0.0000 -5.5540 0.0000
# 3 10.0411 -3.4971 69.9563 0.0000 0.4464 0.0000
# 4 0.0000 0.0000 0.0000 30.0902 0.0000 -3.2435
# 5 -9.2501 -5.5540 0.4464 0.0000 34.9828 0.0000
# 6 0.0000 0.0000 0.0000 -3.2435 0.0000 11.4672
#
#
#
# Elastic Compliance Matrix: (Units=1/GPa)
#
#
# Indices 1 2 3 4 5 6 
#
# 1 0.011952 -0.001316 -0.001800 0.000000 0.002974 0.000000
# 2 -0.001316 0.029062 0.001615 0.000000 0.004245 0.000000
# 3 -0.001800 0.001615 0.014636 0.000000 -0.000406 0.000000
# 4 0.000000 0.000000 0.000000 0.034279 0.000000 0.009696
# 5 0.002974 0.004245 -0.000406 0.000000 0.030051 0.000000
# 6 0.000000 0.000000 0.000000 0.009696 0.000000 0.089948
#
#
# Mechanical properties :
#
#
# Convention : Reuss Voigt Hill
#
# Bulk Modulus (GPa) = 18.99473 24.02712 21.51092
# Shear Modulus (GPa) = 21.69387 27.45965 24.57676
#
# Velocity S-wave (km/s) = 3.11988 3.51008 3.32072
# Velocity P-wave (km/s) = 4.63690 5.21614 4.93502
#
# Compressibility (1/GPa) = 0.05264619
#
# Stress axis : x y z
#
# Youngs Moduli (GPa) = 83.66894 34.40967 68.32309
#
# Poissons Ratio (x) = 0.04529 0.12300
# Poissons Ratio (y) = 0.11012 -0.11031
# Poissons Ratio (z) = 0.15063 -0.05556
#
# Static dielectric constant tensor:
#      x y z
#    x 4.150480 0.000000 -0.111240 
#    y 0.000000 3.736370 0.000000 
#    z -0.111240 0.000000 4.427260 
# 
# 
# High freq. dielectric constant tensor:
#      x y z
#    x 1.881130 0.000000 -0.002590 
#    y 0.000000 1.851980 0.000000 
#    z -0.002590 0.000000 1.900520 
# 
# From -- ./inp_files/76991.got.cif
#   From: 2010.03.12/outbox.cif.g09.slc.cpg/sg14_39_cif.got.tgz:76991.got - 2010.03.31 13:35:05.
