data_PCOD8127220
_publ_section_title
;
Structure prediction by ZEFSAII (Michael W. Deem and Ramdas Pophale) SiO2 
 PCOD8127220
Probable space group: P 21/C
;
_chemical_formula_sum "Si O2"
_cell_formula_units_Z 32
_cell_length_a 22.265282
_cell_length_b 8.880088
_cell_length_c 13.878193
_cell_angle_alpha 90.000000
_cell_angle_beta 147.535130
_cell_angle_gamma 90.000000
_cell_volume 1472.911511
_symmetry_space_group_name_H-M "P 21/C"
_symmetry_group_IT_number 14
_symmetry_cell_setting 'monoclinic'
loop_
_space_group_symop_operation_xyz
x,y,z
-x,1/2+y,1/2-z
-x,-y,-z
x,1/2-y,1/2+z
loop_
_atom_site_type_symbol
_atom_site_label
_atom_site_fract_x
_atom_site_fract_y
_atom_site_fract_z
Si Si1 0.242021 0.875661 0.367960
Si Si2 0.620953 0.068364 0.632031
Si Si3 0.878053 0.550148 0.931489
Si Si4 0.149581 0.110215 0.381935
Si Si5 0.674435 0.445787 0.527691
Si Si6 0.313043 0.357082 0.631077
Si Si7 0.488377 0.854921 0.046152
Si Si8 0.985721 0.245686 0.016887
O O1 0.332844 0.947122 0.415381
O O2 0.276495 0.708717 0.450527
O O3 0.233443 0.988168 0.447063
O O4 0.119325 0.854410 0.156820
O O5 0.607056 0.247221 0.630928
O O6 0.500000 0.000000 0.500000
O O7 0.711366 0.986481 0.822097
O O8 0.757557 0.521544 0.718630
O O9 0.932770 0.703791 0.961514
O O10 0.871115 0.565154 0.036634
O O11 0.954504 0.404150 0.022566
O O12 0.199017 0.278261 0.448533
O O13 0.040715 0.132099 0.168674
O O14 0.639766 0.562925 0.399201
O O15 0.554059 0.408870 0.408216
O O16 0.395773 0.231608 0.785322
O O17 0.500000 0.000000 0.000000
#
# Coordination Sequence:
#
# PCOD8127220 Si02
#       8
#     4   4   4   4   4   4   4   4
#     4  10  24  42  66  96 133 176 236 284 342 411
#     4   9  22  44  65  95 133 177 221 288 346 405
#     4  10  23  43  64  92 139 175 222 277 347 408
#     4  12  25  39  70 103 128 184 229 283 345 409
#     4  10  22  44  61  88 135 175 217 284 341 415
#     4  11  24  38  64  95 128 179 218 276 349 400
#     4  10  22  40  66  94 127 171 228 281 340 409
#     4  10  23  44  64  97 136 177 224 286 336 408
#
# _framework density 21.725677000000001
#
# number of rings (size 3 to 8) (size 9 to 14) (size 15 to 20)
#    0.000    1.750    1.250    1.125    3.500   11.000 
#    0.000    0.000    0.000    0.000    0.000    0.000 
#    0.000    0.000    0.000    0.000    0.000    0.000 
#
# Total GULP energy -396486.916495 kJ/mol
# GULP energy per Si atom -12390.216140 kJ/mol
# Density = 2.167623 g / cm^3
# Si number density = 21.725677 Si / 1000 Ang^3
#
#
#
# Elastic Constant Matrix: (Units=GPa)
#
#
# Indices 1 2 3 4 5 6 
#
# 1 131.5780 55.8287 25.8657 0.0000 -19.5836 0.0000
# 2 55.8287 101.5507 26.2034 0.0000 -20.4798 0.0000
# 3 25.8657 26.2034 46.0164 0.0000 -10.8397 0.0000
# 4 0.0000 0.0000 0.0000 39.8170 0.0000 -7.2527
# 5 -19.5836 -20.4798 -10.8397 0.0000 29.5347 0.0000
# 6 0.0000 0.0000 0.0000 -7.2527 0.0000 44.8709
#
#
#
# Elastic Compliance Matrix: (Units=1/GPa)
#
#
# Indices 1 2 3 4 5 6 
#
# 1 0.010448 -0.004487 -0.002648 0.000000 0.002845 0.000000
# 2 -0.004487 0.014578 -0.004487 0.000000 0.005487 0.000000
# 3 -0.002648 -0.004487 0.026959 0.000000 0.005028 0.000000
# 4 0.000000 0.000000 0.000000 0.025877 0.000000 0.004183
# 5 0.002845 0.005487 0.005028 0.000000 0.041395 0.000000
# 6 0.000000 0.000000 0.000000 0.004183 0.000000 0.022962
#
#
# Mechanical properties :
#
#
# Convention : Reuss Voigt Hill
#
# Bulk Modulus (GPa) = 34.79195 54.99343 44.89269
# Shear Modulus (GPa) = 28.56459 34.26098 31.41279
#
# Velocity S-wave (km/s) = 3.62993 3.97543 3.80660
# Velocity P-wave (km/s) = 5.79806 6.81466 6.32681
#
# Compressibility (1/GPa) = 0.02874228
#
# Stress axis : x y z
#
# Youngs Moduli (GPa) = 95.71485 68.59492 37.09356
#
# Poissons Ratio (x) = 0.30778 0.09821
# Poissons Ratio (y) = 0.42947 0.16643
# Poissons Ratio (z) = 0.25341 0.30777
#
# Static dielectric constant tensor:
#      x y z
#    x 3.966540 0.000000 0.076560 
#    y 0.000000 4.253350 0.000000 
#    z 0.076560 0.000000 3.853330 
# 
# 
# High freq. dielectric constant tensor:
#      x y z
#    x 1.853030 0.000000 0.004490 
#    y 0.000000 1.870130 0.000000 
#    z 0.004490 0.000000 1.841970 
# 
# From -- ./inp_files/51376.got.cif
#   From: 2010.03.12/outbox.cif.g09.slc.cpg/sg14_26_cif.got.tgz:51376.got - 2010.03.31 13:35:05.
