data_PCOD8127868
_publ_section_title
;
Structure prediction by ZEFSAII (Michael W. Deem and Ramdas Pophale) SiO2 
 PCOD8127868
Probable space group: P 21/C
;
_chemical_formula_sum "Si O2"
_cell_formula_units_Z 24
_cell_length_a 13.708860
_cell_length_b 13.623638
_cell_length_c 10.803186
_cell_angle_alpha 90.000000
_cell_angle_beta 148.153605
_cell_angle_gamma 90.000000
_cell_volume 1064.601676
_symmetry_space_group_name_H-M "P 21/C"
_symmetry_group_IT_number 14
_symmetry_cell_setting 'monoclinic'
loop_
_space_group_symop_operation_xyz
x,y,z
-x,1/2+y,1/2-z
-x,-y,-z
x,1/2-y,1/2+z
loop_
_atom_site_type_symbol
_atom_site_label
_atom_site_fract_x
_atom_site_fract_y
_atom_site_fract_z
Si Si1 0.916909 0.745636 0.635640
Si Si2 0.030424 0.119866 0.599263
Si Si3 0.826179 0.544618 0.984891
Si Si4 0.591688 0.643247 0.158986
Si Si5 0.729808 0.288179 0.599621
Si Si6 0.509611 0.446776 0.207579
O O1 0.909529 0.862360 0.644867
O O2 0.776142 0.706837 0.379474
O O3 0.126729 0.719663 0.821834
O O4 0.866070 0.705942 0.716260
O O5 0.845724 0.157061 0.331478
O O6 0.182751 0.071688 0.672482
O O7 0.968580 0.045767 0.642837
O O8 0.632312 0.519021 0.838333
O O9 0.602119 0.547142 0.258430
O O10 0.421063 0.715146 0.005974
O O11 0.586218 0.609293 0.010718
O O12 0.649438 0.371310 0.422137
#
# Coordination Sequence:
#
# PCOD8127868 Si02
#       6
#     4   4   4   4   4   4
#     4  11  24  43  71  99 137 178 221 281 343 405
#     4  10  24  44  67 106 134 176 238 276 338 410
#     4  10  23  42  70  99 134 181 223 279 341 393
#     4  11  26  46  68 102 140 182 228 280 347 410
#     4  11  24  45  70 103 136 182 227 287 337 410
#     4  11  25  46  67 104 139 179 232 283 345 404
#
# _framework density 22.543642999999999
#
# number of rings (size 3 to 8) (size 9 to 14) (size 15 to 20)
#    0.000    1.333    1.667    2.000   11.667    0.667 
#    3.000    2.500    0.000    0.000    0.000    0.000 
#    0.000    0.000    0.000    0.000    0.000    0.000 
#
# Total GULP energy -297397.393871 kJ/mol
# GULP energy per Si atom -12391.558078 kJ/mol
# Density = 2.249233 g / cm^3
# Si number density = 22.543643 Si / 1000 Ang^3
#
#
#
# Elastic Constant Matrix: (Units=GPa)
#
#
# Indices 1 2 3 4 5 6 
#
# 1 102.6268 26.0760 26.6786 0.0000 8.6699 0.0000
# 2 26.0760 92.3391 14.7078 0.0000 -17.0691 0.0000
# 3 26.6786 14.7078 69.2329 0.0000 -10.2661 0.0000
# 4 0.0000 0.0000 0.0000 25.0317 0.0000 -7.7341
# 5 8.6699 -17.0691 -10.2661 0.0000 33.9451 0.0000
# 6 0.0000 0.0000 0.0000 -7.7341 0.0000 39.0394
#
#
#
# Elastic Compliance Matrix: (Units=1/GPa)
#
#
# Indices 1 2 3 4 5 6 
#
# 1 0.012643 -0.004022 -0.005022 0.000000 -0.006770 0.000000
# 2 -0.004022 0.013419 -0.000155 0.000000 0.007728 0.000000
# 3 -0.005022 -0.000155 0.017370 0.000000 0.006458 0.000000
# 4 0.000000 0.000000 0.000000 0.042554 0.000000 0.008430
# 5 -0.006770 0.007728 0.006458 0.000000 0.037027 0.000000
# 6 0.000000 0.000000 0.000000 0.008430 0.000000 0.027285
#
#
# Mechanical properties :
#
#
# Convention : Reuss Voigt Hill
#
# Bulk Modulus (GPa) = 39.94475 44.34705 42.14590
# Shear Modulus (GPa) = 28.24216 32.71899 30.48058
#
# Velocity S-wave (km/s) = 3.54330 3.81381 3.68104
# Velocity P-wave (km/s) = 5.87344 6.25363 6.06651
#
# Compressibility (1/GPa) = 0.02503458
#
# Stress axis : x y z
#
# Youngs Moduli (GPa) = 79.09299 74.52321 57.57210
#
# Poissons Ratio (x) = 0.29974 0.28910
# Poissons Ratio (y) = 0.31812 0.00891
# Poissons Ratio (z) = 0.39717 0.01154
#
# Static dielectric constant tensor:
#      x y z
#    x 4.388160 0.000000 0.012820 
#    y 0.000000 4.432910 0.000000 
#    z 0.012820 0.000000 3.791650 
# 
# 
# High freq. dielectric constant tensor:
#      x y z
#    x 1.898520 0.000000 -0.001400 
#    y 0.000000 1.911620 0.000000 
#    z -0.001400 0.000000 1.868450 
# 
# From -- ./inp_files/32654.got.cif
#   From: 2010.03.12/outbox.cif.g09.slc.cpg/sg14_17_cif.got.tgz:32654.got - 2010.03.31 13:35:05.
