data_PCOD8127777
_publ_section_title
;
Structure prediction by ZEFSAII (Michael W. Deem and Ramdas Pophale) SiO2 
 PCOD8127777
Probable space group: P 21/C
;
_chemical_formula_sum "Si O2"
_cell_formula_units_Z 28
_cell_length_a 29.580780
_cell_length_b 8.555472
_cell_length_c 29.534363
_cell_angle_alpha 90.000000
_cell_angle_beta 9.988982
_cell_angle_gamma 90.000000
_cell_volume 1296.514955
_symmetry_space_group_name_H-M "P 21/C"
_symmetry_group_IT_number 14
_symmetry_cell_setting 'monoclinic'
loop_
_space_group_symop_operation_xyz
x,y,z
-x,1/2+y,1/2-z
-x,-y,-z
x,1/2-y,1/2+z
loop_
_atom_site_type_symbol
_atom_site_label
_atom_site_fract_x
_atom_site_fract_y
_atom_site_fract_z
Si Si1 0.197182 0.673041 0.578646
Si Si2 0.984908 0.974302 0.821441
Si Si3 0.779830 0.573325 0.820516
Si Si4 0.732801 0.675824 0.095301
Si Si5 0.216272 0.730169 0.242779
Si Si6 0.259579 0.723299 0.300725
Si Si7 0.706155 0.588063 0.224804
O O1 0.158046 0.861632 0.617909
O O2 0.483697 0.625883 0.311785
O O3 0.154895 0.608101 0.569926
O O4 0.986620 0.597627 0.821327
O O5 0.168220 0.058179 0.677316
O O6 0.768181 0.865588 0.060654
O O7 0.804136 0.403993 0.774252
O O8 0.988267 0.689765 0.593015
O O9 0.491730 0.642444 0.099356
O O10 0.700646 0.610053 0.176733
O O11 0.257263 0.654543 0.251987
O O12 0.953267 0.829768 0.503371
O O13 0.450726 0.843052 0.999330
O O14 0.295457 0.907088 0.261960
#
# Coordination Sequence:
#
# PCOD8127777 Si02
#       7
#     4   4   4   4   4   4   4
#     4  10  24  40  69  92 127 163 226 263 339 398
#     4  10  25  43  68  93 130 172 220 271 343 397
#     4  12  25  44  67  97 143 176 225 280 344 401
#     4  10  23  41  65  96 127 172 218 260 347 388
#     4  12  23  45  72  96 138 188 227 277 336 406
#     4  12  27  41  66 107 137 178 234 282 331 388
#     4  12  23  44  71  98 138 180 228 279 332 407
#
# _framework density 21.596357000000001
#
# number of rings (size 3 to 8) (size 9 to 14) (size 15 to 20)
#    0.857    0.000    1.429    6.000    4.000    2.286 
#    0.000    0.000    0.000    0.000    0.000    0.000 
#    0.000    0.000    0.000    0.000    0.000    0.000 
#
# Total GULP energy -347271.607864 kJ/mol
# GULP energy per Si atom -12402.557424 kJ/mol
# Density = 2.154720 g / cm^3
# Si number density = 21.596357 Si / 1000 Ang^3
#
#
#
# Elastic Constant Matrix: (Units=GPa)
#
#
# Indices 1 2 3 4 5 6 
#
# 1 141.1634 -2.8458 31.0374 0.0000 -26.8396 0.0000
# 2 -2.8458 85.0241 16.2131 0.0000 -5.5992 0.0000
# 3 31.0374 16.2131 108.9118 0.0000 -18.0333 0.0000
# 4 0.0000 0.0000 0.0000 34.2308 0.0000 1.5209
# 5 -26.8396 -5.5992 -18.0333 0.0000 34.3482 0.0000
# 6 0.0000 0.0000 0.0000 1.5209 0.0000 37.0183
#
#
#
# Elastic Compliance Matrix: (Units=1/GPa)
#
#
# Indices 1 2 3 4 5 6 
#
# 1 0.008605 0.000991 -0.001599 0.000000 0.006046 0.000000
# 2 0.000991 0.012259 -0.001805 0.000000 0.001825 0.000000
# 3 -0.001599 -0.001805 0.010569 0.000000 0.004006 0.000000
# 4 0.000000 0.000000 0.000000 0.029267 0.000000 -0.001202
# 5 0.006046 0.001825 0.004006 0.000000 0.036239 0.000000
# 6 0.000000 0.000000 0.000000 -0.001202 0.000000 0.027063
#
#
# Mechanical properties :
#
#
# Convention : Reuss Voigt Hill
#
# Bulk Modulus (GPa) = 37.58310 47.10097 42.34203
# Shear Modulus (GPa) = 36.31169 40.49909 38.40539
#
# Velocity S-wave (km/s) = 4.10491 4.33514 4.22160
# Velocity P-wave (km/s) = 6.31723 6.84945 6.58872
#
# Compressibility (1/GPa) = 0.02660771
#
# Stress axis : x y z
#
# Youngs Moduli (GPa) = 116.21097 81.57309 94.61383
#
# Poissons Ratio (x) = -0.08084 0.15125
# Poissons Ratio (y) = -0.11517 0.17079
# Poissons Ratio (z) = 0.18578 0.14725
#
# Static dielectric constant tensor:
#      x y z
#    x 4.022500 0.000000 -0.168000 
#    y 0.000000 3.757750 0.000000 
#    z -0.168000 0.000000 3.969760 
# 
# 
# High freq. dielectric constant tensor:
#      x y z
#    x 1.857950 0.000000 -0.008630 
#    y 0.000000 1.838300 0.000000 
#    z -0.008630 0.000000 1.858710 
# 
# From -- ./inp_files/80873.got.cif
#   From: 2010.03.12/outbox.cif.g09.slc.cpg/sg14_41_cif.got.tgz:80873.got - 2010.03.31 13:35:05.
