data_PCOD8127635
_publ_section_title
;
Structure prediction by ZEFSAII (Michael W. Deem and Ramdas Pophale) SiO2 
 PCOD8127635
Probable space group: P 21/C
;
_chemical_formula_sum "Si O2"
_cell_formula_units_Z 24
_cell_length_a 11.468966
_cell_length_b 11.361256
_cell_length_c 13.908845
_cell_angle_alpha 90.000000
_cell_angle_beta 38.192346
_cell_angle_gamma 90.000000
_cell_volume 1120.581168
_symmetry_space_group_name_H-M "P 21/C"
_symmetry_group_IT_number 14
_symmetry_cell_setting 'monoclinic'
loop_
_space_group_symop_operation_xyz
x,y,z
-x,1/2+y,1/2-z
-x,-y,-z
x,1/2-y,1/2+z
loop_
_atom_site_type_symbol
_atom_site_label
_atom_site_fract_x
_atom_site_fract_y
_atom_site_fract_z
Si Si1 0.295299 0.407469 0.876651
Si Si2 0.958081 0.738029 0.095866
Si Si3 0.008735 0.521751 0.193145
Si Si4 0.648027 0.190257 0.249697
Si Si5 0.646224 0.068843 0.839936
Si Si6 0.873889 0.988480 0.175395
O O1 0.477608 0.332664 0.787180
O O2 0.349081 0.508932 0.767183
O O3 0.140396 0.321116 0.931684
O O4 0.207586 0.471140 0.026626
O O5 0.965366 0.651047 0.181146
O O6 0.831238 0.849177 0.213042
O O7 0.169152 0.773869 0.930186
O O8 0.010334 0.532063 0.306847
O O9 0.846623 0.433022 0.263198
O O10 0.590209 0.294596 0.360746
O O11 0.688534 0.069838 0.283245
O O12 0.500000 0.000000 0.000000
O O13 0.000000 0.000000 0.000000
#
# Coordination Sequence:
#
# PCOD8127635 Si02
#       6
#     4   4   4   4   4   4
#     4  11  24  43  74  97 140 191 226 290 362 413
#     4  10  22  45  70 101 142 185 229 288 357 421
#     4  11  23  46  71  94 145 187 228 291 355 419
#     4  11  24  43  70 104 147 174 241 295 337 431
#     4  11  25  43  70 105 136 188 241 280 358 424
#     4  10  26  39  68 105 134 180 233 287 354 396
#
# _framework density 21.417456999999999
#
# number of rings (size 3 to 8) (size 9 to 14) (size 15 to 20)
#    0.000    1.333    3.333    1.000    9.333    4.667 
#    0.000    0.000    0.000    0.000    0.000    0.000 
#    0.000    0.000    0.000    0.000    0.000    0.000 
#
# Total GULP energy -297630.203807 kJ/mol
# GULP energy per Si atom -12401.258492 kJ/mol
# Density = 2.136871 g / cm^3
# Si number density = 21.417457 Si / 1000 Ang^3
#
#
#
# Elastic Constant Matrix: (Units=GPa)
#
#
# Indices 1 2 3 4 5 6 
#
# 1 141.9437 55.5032 55.3984 0.0000 12.7697 0.0000
# 2 55.5032 140.4208 43.6167 0.0000 2.3039 0.0000
# 3 55.3984 43.6167 89.5922 0.0000 2.9973 0.0000
# 4 0.0000 0.0000 0.0000 34.7657 0.0000 -6.8069
# 5 12.7697 2.3039 2.9973 0.0000 36.4779 0.0000
# 6 0.0000 0.0000 0.0000 -6.8069 0.0000 19.4482
#
#
#
# Elastic Compliance Matrix: (Units=1/GPa)
#
#
# Indices 1 2 3 4 5 6 
#
# 1 0.010235 -0.002429 -0.005045 0.000000 -0.003015 0.000000
# 2 -0.002429 0.008968 -0.002881 0.000000 0.000521 0.000000
# 3 -0.005045 -0.002881 0.015662 0.000000 0.000661 0.000000
# 4 0.000000 0.000000 0.000000 0.030880 0.000000 0.010808
# 5 -0.003015 0.000521 0.000661 0.000000 0.028382 0.000000
# 6 0.000000 0.000000 0.000000 0.010808 0.000000 0.055202
#
#
# Mechanical properties :
#
#
# Convention : Reuss Voigt Hill
#
# Bulk Modulus (GPa) = 70.65314 75.66593 73.15954
# Shear Modulus (GPa) = 28.61085 32.63426 30.62255
#
# Velocity S-wave (km/s) = 3.65891 3.90772 3.78536
# Velocity P-wave (km/s) = 7.13515 7.46768 7.30331
#
# Compressibility (1/GPa) = 0.01415365
#
# Stress axis : x y z
#
# Youngs Moduli (GPa) = 97.70181 111.50755 63.84804
#
# Poissons Ratio (x) = 0.27085 0.32214
# Poissons Ratio (y) = 0.23731 0.18398
# Poissons Ratio (z) = 0.49295 0.32130
#
# Static dielectric constant tensor:
#      x y z
#    x 3.809890 0.000000 -0.010110 
#    y 0.000000 4.546770 0.000000 
#    z -0.010110 0.000000 3.768050 
# 
# 
# High freq. dielectric constant tensor:
#      x y z
#    x 1.841120 0.000000 0.002600 
#    y 0.000000 1.858490 0.000000 
#    z 0.002600 0.000000 1.825750 
# 
# From -- ./inp_files/44268.got.cif
#   From: 2010.03.12/outbox.cif.g09.slc.cpg/sg14_23_cif.got.tgz:44268.got - 2010.03.31 13:35:05.
