data_PCOD8127896
_publ_section_title
;
Structure prediction by ZEFSAII (Michael W. Deem and Ramdas Pophale) SiO2 
 PCOD8127896
Probable space group: P 21/C
;
_chemical_formula_sum "Si O2"
_cell_formula_units_Z 32
_cell_length_a 10.328779
_cell_length_b 11.949342
_cell_length_c 14.234492
_cell_angle_alpha 90.000000
_cell_angle_beta 55.913432
_cell_angle_gamma 90.000000
_cell_volume 1455.009557
_symmetry_space_group_name_H-M "P 21/C"
_symmetry_group_IT_number 14
_symmetry_cell_setting 'monoclinic'
loop_
_space_group_symop_operation_xyz
x,y,z
-x,1/2+y,1/2-z
-x,-y,-z
x,1/2-y,1/2+z
loop_
_atom_site_type_symbol
_atom_site_label
_atom_site_fract_x
_atom_site_fract_y
_atom_site_fract_z
Si Si1 0.533437 0.046878 0.087664
Si Si2 0.197716 0.724854 0.537780
Si Si3 0.958444 0.646659 0.782516
Si Si4 0.653176 0.749068 0.346724
Si Si5 0.967977 0.734600 0.457384
Si Si6 0.161838 0.554088 0.279733
Si Si7 0.687110 0.884065 0.156404
Si Si8 0.583863 0.381240 0.954429
O O1 0.381008 0.122266 0.172295
O O2 0.551911 0.940664 0.148729
O O3 0.683932 0.126300 0.038400
O O4 0.500000 0.000000 0.000000
O O5 0.075255 0.747658 0.504783
O O6 0.285201 0.843003 0.521890
O O7 0.117436 0.679585 0.665475
O O8 0.833924 0.739265 0.797296
O O9 0.900269 0.521864 0.781508
O O10 0.973015 0.653771 0.890268
O O11 0.603226 0.829512 0.280463
O O12 0.550519 0.785915 0.480682
O O13 0.028178 0.639747 0.361571
O O14 0.789298 0.707144 0.558033
O O15 0.190507 0.477905 0.359053
O O16 0.324501 0.615447 0.182642
O O17 0.500000 0.500000 0.000000
#
# Coordination Sequence:
#
# PCOD8127896 Si02
#       8
#     4   4   4   4   4   4   4   4
#     4  11  24  44  63  97 133 176 224 279 329 411
#     4  11  23  42  67  98 130 169 237 268 333 416
#     4  11  22  40  67 100 127 174 222 277 338 393
#     4  10  23  43  64  97 137 169 232 273 333 414
#     4  12  22  42  70  99 131 173 221 292 327 396
#     4  11  21  40  69  92 126 178 219 272 337 406
#     4  11  21  41  70  95 131 177 224 278 342 389
#     4  11  21  43  66  91 137 177 211 274 341 406
#
# _framework density 21.992982000000001
#
# number of rings (size 3 to 8) (size 9 to 14) (size 15 to 20)
#    0.000    1.000    7.500    1.875    0.000    0.000 
#   13.500    0.625    0.000    0.000    0.000    0.000 
#    0.000    0.000    0.000    0.000    0.000    0.000 
#
# Total GULP energy -396589.600616 kJ/mol
# GULP energy per Si atom -12393.425019 kJ/mol
# Density = 2.194293 g / cm^3
# Si number density = 21.992982 Si / 1000 Ang^3
#
#
#
# Elastic Constant Matrix: (Units=GPa)
#
#
# Indices 1 2 3 4 5 6 
#
# 1 55.6619 25.1404 0.1826 0.0000 12.0579 0.0000
# 2 25.1404 61.3620 9.4848 0.0000 7.1911 0.0000
# 3 0.1826 9.4848 81.3189 0.0000 -1.4262 0.0000
# 4 0.0000 0.0000 0.0000 29.8612 0.0000 6.5455
# 5 12.0579 7.1911 -1.4262 0.0000 39.5657 0.0000
# 6 0.0000 0.0000 0.0000 6.5455 0.0000 43.7715
#
#
#
# Elastic Compliance Matrix: (Units=1/GPa)
#
#
# Indices 1 2 3 4 5 6 
#
# 1 0.023204 -0.009014 0.000904 0.000000 -0.005401 0.000000
# 2 -0.009014 0.020483 -0.002387 0.000000 -0.001062 0.000000
# 3 0.000904 -0.002387 0.012584 0.000000 0.000612 0.000000
# 4 0.000000 0.000000 0.000000 0.034623 0.000000 -0.005178
# 5 -0.005401 -0.001062 0.000612 0.000000 0.027135 0.000000
# 6 0.000000 0.000000 0.000000 -0.005178 0.000000 0.023620
#
#
# Mechanical properties :
#
#
# Convention : Reuss Voigt Hill
#
# Bulk Modulus (GPa) = 28.34620 29.77316 29.05968
# Shear Modulus (GPa) = 28.66935 33.54201 31.10568
#
# Velocity S-wave (km/s) = 3.61441 3.90952 3.76486
# Velocity P-wave (km/s) = 5.50776 5.82633 5.66928
#
# Compressibility (1/GPa) = 0.03527809
#
# Stress axis : x y z
#
# Youngs Moduli (GPa) = 43.09672 48.82071 79.46329
#
# Poissons Ratio (x) = 0.44005 -0.07187
# Poissons Ratio (y) = 0.38845 0.18972
# Poissons Ratio (z) = -0.03898 0.11656
#
# Static dielectric constant tensor:
#      x y z
#    x 4.019380 0.000000 -0.038010 
#    y 0.000000 4.728630 0.000000 
#    z -0.038010 0.000000 4.203090 
# 
# 
# High freq. dielectric constant tensor:
#      x y z
#    x 1.855630 0.000000 -0.005350 
#    y 0.000000 1.853440 0.000000 
#    z -0.005350 0.000000 1.867490 
# 
# From -- ./inp_files/44618.got.cif
#   From: 2010.03.12/outbox.cif.g09.slc.cpg/sg14_23_cif.got.tgz:44618.got - 2010.03.31 13:35:05.
