data_PCOD8127951
_publ_section_title
;
Structure prediction by ZEFSAII (Michael W. Deem and Ramdas Pophale) SiO2 
 PCOD8127951
Probable space group: P 21/C
;
_chemical_formula_sum "Si O2"
_cell_formula_units_Z 32
_cell_length_a 15.856419
_cell_length_b 8.479273
_cell_length_c 26.012685
_cell_angle_alpha 90.000000
_cell_angle_beta 24.672962
_cell_angle_gamma 90.000000
_cell_volume 1459.960839
_symmetry_space_group_name_H-M "P 21/C"
_symmetry_group_IT_number 14
_symmetry_cell_setting 'monoclinic'
loop_
_space_group_symop_operation_xyz
x,y,z
-x,1/2+y,1/2-z
-x,-y,-z
x,1/2-y,1/2+z
loop_
_atom_site_type_symbol
_atom_site_label
_atom_site_fract_x
_atom_site_fract_y
_atom_site_fract_z
Si Si1 0.196302 0.966425 0.499277
Si Si2 0.981743 0.654251 0.628451
Si Si3 0.071365 0.860648 0.278744
Si Si4 0.076218 0.034918 0.170474
Si Si5 0.481339 0.513774 0.570696
Si Si6 0.603518 0.661167 0.195887
Si Si7 0.570489 0.738479 0.824821
Si Si8 0.206275 0.500571 0.418353
O O1 0.386267 0.879533 0.419043
O O2 0.017578 0.838464 0.595732
O O3 0.250086 0.034895 0.413083
O O4 0.116555 0.108582 0.579076
O O5 0.759730 0.621447 0.728785
O O6 0.998824 0.612840 0.679131
O O7 0.147017 0.545835 0.509016
O O8 0.283944 0.880178 0.191967
O O9 0.067071 0.683311 0.260385
O O10 0.057955 0.985162 0.239723
O O11 0.305700 0.085772 0.028107
O O12 0.500000 0.500000 0.500000
O O13 0.459966 0.340915 0.607334
O O14 0.608376 0.645102 0.255113
O O15 0.370769 0.628868 0.306317
O O16 0.676322 0.836275 0.142213
O O17 0.000000 0.500000 0.500000
#
# Coordination Sequence:
#
# PCOD8127951 Si02
#       8
#     4   4   4   4   4   4   4   4
#     4  12  24  44  68 102 142 183 239 286 356 421
#     4  12  23  44  68  99 138 188 232 291 359 415
#     4  11  25  44  71 105 135 187 232 288 360 422
#     4  11  24  45  71 101 144 178 233 300 345 430
#     4  10  23  43  72 100 137 182 232 284 355 420
#     4  12  24  44  69 106 141 187 239 296 349 428
#     4  12  24  44  73 101 140 187 229 295 353 424
#     4  12  23  45  68 102 146 188 243 293 358 421
#
# _framework density 21.918396000000001
#
# number of rings (size 3 to 8) (size 9 to 14) (size 15 to 20)
#    0.000    0.500    6.250    1.500    3.500    1.500 
#    2.250    3.750    0.000    0.000    0.000    0.000 
#    0.000    0.000    0.000    0.000    0.000    0.000 
#
# Total GULP energy -396694.278992 kJ/mol
# GULP energy per Si atom -12396.696218 kJ/mol
# Density = 2.186851 g / cm^3
# Si number density = 21.918396 Si / 1000 Ang^3
#
#
#
# Elastic Constant Matrix: (Units=GPa)
#
#
# Indices 1 2 3 4 5 6 
#
# 1 83.6486 24.7864 42.9398 0.0000 1.1956 0.0000
# 2 24.7864 89.6950 36.2190 0.0000 -5.6749 0.0000
# 3 42.9398 36.2190 114.3836 0.0000 -7.2751 0.0000
# 4 0.0000 0.0000 0.0000 44.0776 0.0000 6.1744
# 5 1.1956 -5.6749 -7.2751 0.0000 44.9481 0.0000
# 6 0.0000 0.0000 0.0000 6.1744 0.0000 38.5724
#
#
#
# Elastic Compliance Matrix: (Units=1/GPa)
#
#
# Indices 1 2 3 4 5 6 
#
# 1 0.015270 -0.002250 -0.005116 0.000000 -0.001518 0.000000
# 2 -0.002250 0.013157 -0.003245 0.000000 0.001196 0.000000
# 3 -0.005116 -0.003245 0.011795 0.000000 0.001635 0.000000
# 4 0.000000 0.000000 0.000000 0.023208 0.000000 -0.003715
# 5 -0.001518 0.001196 0.001635 0.000000 0.022704 0.000000
# 6 0.000000 0.000000 0.000000 -0.003715 0.000000 0.026520
#
#
# Mechanical properties :
#
#
# Convention : Reuss Voigt Hill
#
# Bulk Modulus (GPa) = 52.63681 55.06861 53.85271
# Shear Modulus (GPa) = 35.66121 37.77176 36.71649
#
# Velocity S-wave (km/s) = 4.03798 4.15576 4.09729
# Velocity P-wave (km/s) = 6.76812 6.94305 6.85615
#
# Compressibility (1/GPa) = 0.01899811
#
# Stress axis : x y z
#
# Youngs Moduli (GPa) = 65.48989 76.00675 84.78239
#
# Poissons Ratio (x) = 0.17099 0.43378
# Poissons Ratio (y) = 0.14733 0.27516
# Poissons Ratio (z) = 0.33507 0.24668
#
# Static dielectric constant tensor:
#      x y z
#    x 4.014200 0.000000 -0.078790 
#    y 0.000000 3.765850 0.000000 
#    z -0.078790 0.000000 4.476430 
# 
# 
# High freq. dielectric constant tensor:
#      x y z
#    x 1.858330 0.000000 -0.001560 
#    y 0.000000 1.844600 0.000000 
#    z -0.001560 0.000000 1.885440 
# 
# From -- ./inp_files/80390.got.cif
#   From: 2010.03.12/outbox.cif.g09.slc.cpg/sg14_41_cif.got.tgz:80390.got - 2010.03.31 13:35:05.
