data_PCOD8127043
_publ_section_title
;
Structure prediction by ZEFSAII (Michael W. Deem and Ramdas Pophale) SiO2 
 PCOD8127043
Probable space group: P 21/C
;
_chemical_formula_sum "Si O2"
_cell_formula_units_Z 28
_cell_length_a 6.968698
_cell_length_b 19.280885
_cell_length_c 11.101179
_cell_angle_alpha 90.000000
_cell_angle_beta 62.999926
_cell_angle_gamma 90.000000
_cell_volume 1329.010194
_symmetry_space_group_name_H-M "P 21/C"
_symmetry_group_IT_number 14
_symmetry_cell_setting 'monoclinic'
loop_
_space_group_symop_operation_xyz
x,y,z
-x,1/2+y,1/2-z
-x,-y,-z
x,1/2-y,1/2+z
loop_
_atom_site_type_symbol
_atom_site_label
_atom_site_fract_x
_atom_site_fract_y
_atom_site_fract_z
Si Si1 0.751314 0.985394 0.716899
Si Si2 0.033089 0.279360 0.286854
Si Si3 0.330227 0.675499 0.134068
Si Si4 0.183024 0.289311 0.992181
Si Si5 0.888725 0.096786 0.495558
Si Si6 0.971162 0.436045 0.354700
Si Si7 0.732614 0.443305 0.668996
O O1 0.774159 0.032687 0.591956
O O2 0.784272 0.030695 0.826491
O O3 0.518335 0.951104 0.789637
O O4 0.936224 0.926859 0.655056
O O5 0.793287 0.249037 0.335544
O O6 0.038932 0.362086 0.283931
O O7 0.128682 0.255282 0.388318
O O8 0.165720 0.252571 0.129524
O O9 0.575929 0.686103 0.096095
O O10 0.303720 0.639171 0.011915
O O11 0.228114 0.623732 0.260562
O O12 0.018798 0.354070 0.050326
O O13 0.873265 0.426320 0.513288
O O14 0.181304 0.485743 0.294441
#
# Coordination Sequence:
#
# PCOD8127043 Si02
#       7
#     4   4   4   4   4   4   4
#     4  11  21  39  67  97 132 166 220 273 337 398
#     4  11  26  45  67 101 137 178 232 280 334 414
#     4  11  24  44  68  95 135 177 224 278 337 400
#     4  11  24  45  70  95 132 181 226 275 344 397
#     4  10  22  38  66 100 128 165 218 280 327 403
#     4  11  24  43  63  99 139 172 225 280 338 407
#     4  11  24  40  68  99 135 178 218 281 346 394
#
# _framework density 21.06831
#
# number of rings (size 3 to 8) (size 9 to 14) (size 15 to 20)
#    0.000    1.143    4.286    1.286    2.000    5.143 
#    0.000    0.000    0.000    0.000    0.000    0.000 
#    0.000    0.000    0.000    0.000    0.000    0.000 
#
# Total GULP energy -347121.597420 kJ/mol
# GULP energy per Si atom -12397.199908 kJ/mol
# Density = 2.102036 g / cm^3
# Si number density = 21.068310 Si / 1000 Ang^3
#
#
#
# Elastic Constant Matrix: (Units=GPa)
#
#
# Indices 1 2 3 4 5 6 
#
# 1 106.3385 27.2520 28.6767 0.0000 10.2128 0.0000
# 2 27.2520 73.8975 19.3744 0.0000 14.7752 0.0000
# 3 28.6767 19.3744 94.4172 0.0000 18.6583 0.0000
# 4 0.0000 0.0000 0.0000 29.2371 0.0000 3.1519
# 5 10.2128 14.7752 18.6583 0.0000 28.0432 0.0000
# 6 0.0000 0.0000 0.0000 3.1519 0.0000 23.3502
#
#
#
# Elastic Compliance Matrix: (Units=1/GPa)
#
#
# Indices 1 2 3 4 5 6 
#
# 1 0.010985 -0.003266 -0.002551 0.000000 -0.000582 0.000000
# 2 -0.003266 0.016355 -0.001032 0.000000 -0.006741 0.000000
# 3 -0.002551 -0.001032 0.012996 0.000000 -0.007174 0.000000
# 4 0.000000 0.000000 0.000000 0.034708 0.000000 -0.004685
# 5 -0.000582 -0.006741 -0.007174 0.000000 0.044196 0.000000
# 6 0.000000 0.000000 0.000000 -0.004685 0.000000 0.043459
#
#
# Mechanical properties :
#
#
# Convention : Reuss Voigt Hill
#
# Bulk Modulus (GPa) = 37.54086 47.25106 42.39596
# Shear Modulus (GPa) = 26.98692 29.41610 28.20151
#
# Velocity S-wave (km/s) = 3.58288 3.74066 3.66262
# Velocity P-wave (km/s) = 5.91383 6.41350 6.16873
#
# Compressibility (1/GPa) = 0.02663764
#
# Stress axis : x y z
#
# Youngs Moduli (GPa) = 91.03527 61.14348 76.94961
#
# Poissons Ratio (x) = 0.19967 0.19631
# Poissons Ratio (y) = 0.29729 0.07941
# Poissons Ratio (z) = 0.23224 0.06310
#
# Static dielectric constant tensor:
#      x y z
#    x 3.730570 0.000000 0.227620 
#    y 0.000000 3.857760 0.000000 
#    z 0.227620 0.000000 3.784130 
# 
# 
# High freq. dielectric constant tensor:
#      x y z
#    x 1.827800 0.000000 0.016580 
#    y 0.000000 1.825540 0.000000 
#    z 0.016580 0.000000 1.829950 
# 
# From -- ./inp_files/21523.got.cif
#   From: 2010.03.12/outbox.cif.g09.slc.cpg/sg14_11_cif.got.tgz:21523.got - 2010.03.31 13:35:05.
