data_PCOD8127061
_publ_section_title
;
Structure prediction by ZEFSAII (Michael W. Deem and Ramdas Pophale) SiO2 
 PCOD8127061
Probable space group: P 21/C
;
_chemical_formula_sum "Si O2"
_cell_formula_units_Z 24
_cell_length_a 8.855792
_cell_length_b 25.757105
_cell_length_c 9.139835
_cell_angle_alpha 90.000000
_cell_angle_beta 31.589621
_cell_angle_gamma 90.000000
_cell_volume 1092.080148
_symmetry_space_group_name_H-M "P 21/C"
_symmetry_group_IT_number 14
_symmetry_cell_setting 'monoclinic'
loop_
_space_group_symop_operation_xyz
x,y,z
-x,1/2+y,1/2-z
-x,-y,-z
x,1/2-y,1/2+z
loop_
_atom_site_type_symbol
_atom_site_label
_atom_site_fract_x
_atom_site_fract_y
_atom_site_fract_z
Si Si1 0.536553 0.746798 0.381483
Si Si2 0.087749 0.284343 0.664768
Si Si3 0.531807 0.130486 0.077694
Si Si4 0.063941 0.615297 0.029309
Si Si5 0.659529 0.043861 0.181181
Si Si6 0.870338 0.477071 0.817396
O O1 0.194167 0.757454 0.674523
O O2 0.555663 0.688378 0.300458
O O3 0.727285 0.749829 0.371771
O O4 0.682678 0.789643 0.155937
O O5 0.993648 0.339099 0.807028
O O6 0.684215 0.100065 0.083771
O O7 0.239384 0.098562 0.289810
O O8 0.716902 0.133983 0.776186
O O9 0.183494 0.565072 0.012971
O O10 0.822915 0.050141 0.199839
O O11 0.337087 0.025692 0.481190
O O12 0.809225 0.001200 0.951423
#
# Coordination Sequence:
#
# PCOD8127061 Si02
#       6
#     4   4   4   4   4   4
#     4  11  23  41  62  89 122 158 202 251 302 360
#     4  11  23  41  62  89 122 158 202 251 302 360
#     4  11  23  40  61  88 120 155 200 248 296 356
#     4  11  23  40  61  88 120 155 200 248 296 356
#     4  10  22  39  59  87 121 155 196 244 294 354
#     4  10  22  39  59  87 121 155 196 244 294 354
#
# _framework density 21.976409
#
# number of rings (size 3 to 8) (size 9 to 14) (size 15 to 20)
#    0.000    1.333    0.000    7.000    0.000    6.667 
#    0.000    3.333    0.000    0.000    0.000    0.000 
#    0.000    0.000    0.000    0.000    0.000    0.000 
#
# Total GULP energy -297498.609079 kJ/mol
# GULP energy per Si atom -12395.775378 kJ/mol
# Density = 2.192639 g / cm^3
# Si number density = 21.976409 Si / 1000 Ang^3
#
#
#
# Elastic Constant Matrix: (Units=GPa)
#
#
# Indices 1 2 3 4 5 6 
#
# 1 49.7816 2.1520 12.8874 0.0000 -21.9493 0.0000
# 2 2.1520 46.4343 4.8826 0.0000 -0.4671 0.0000
# 3 12.8874 4.8826 87.8188 0.0000 -8.4083 0.0000
# 4 0.0000 0.0000 0.0000 23.9441 0.0000 2.8630
# 5 -21.9493 -0.4671 -8.4083 0.0000 35.9553 0.0000
# 6 0.0000 0.0000 0.0000 2.8630 0.0000 30.5363
#
#
#
# Elastic Compliance Matrix: (Units=1/GPa)
#
#
# Indices 1 2 3 4 5 6 
#
# 1 0.028060 -0.000873 -0.002486 0.000000 0.016537 0.000000
# 2 -0.000873 0.021690 -0.001127 0.000000 -0.000515 0.000000
# 3 -0.002486 -0.001127 0.011935 0.000000 0.001259 0.000000
# 4 0.000000 0.000000 0.000000 0.042237 0.000000 -0.003960
# 5 0.016537 -0.000515 0.001259 0.000000 0.038195 0.000000
# 6 0.000000 0.000000 0.000000 -0.003960 0.000000 0.033119
#
#
# Mechanical properties :
#
#
# Convention : Reuss Voigt Hill
#
# Bulk Modulus (GPa) = 18.97046 24.87542 21.92294
# Shear Modulus (GPa) = 24.77947 29.02797 26.90372
#
# Velocity S-wave (km/s) = 3.36154 3.63832 3.50267
# Velocity P-wave (km/s) = 4.87007 5.38457 5.13377
#
# Compressibility (1/GPa) = 0.05271353
#
# Stress axis : x y z
#
# Youngs Moduli (GPa) = 35.63734 46.10503 83.78646
#
# Poissons Ratio (x) = 0.04024 0.20829
# Poissons Ratio (y) = 0.03110 0.09444
# Poissons Ratio (z) = 0.08859 0.05197
#
# Static dielectric constant tensor:
#      x y z
#    x 4.134880 0.000000 -0.133070 
#    y 0.000000 3.604970 0.000000 
#    z -0.133070 0.000000 4.051530 
# 
# 
# High freq. dielectric constant tensor:
#      x y z
#    x 1.865910 0.000000 -0.007620 
#    y 0.000000 1.846030 0.000000 
#    z -0.007620 0.000000 1.880760 
# 
# From -- ./inp_files/11288.got.cif
#   From: 2010.03.12/outbox.cif.g09.slc.cpg/sg14_6_cif.got.tgz:11288.got - 2010.03.31 13:35:05.
