data_PCOD8127535
_publ_section_title
;
Structure prediction by ZEFSAII (Michael W. Deem and Ramdas Pophale) SiO2 
 PCOD8127535
Probable space group: P 21/C
;
_chemical_formula_sum "Si O2"
_cell_formula_units_Z 24
_cell_length_a 17.441012
_cell_length_b 5.318833
_cell_length_c 13.767687
_cell_angle_alpha 90.000000
_cell_angle_beta 50.798210
_cell_angle_gamma 90.000000
_cell_volume 989.711342
_symmetry_space_group_name_H-M "P 21/C"
_symmetry_group_IT_number 14
_symmetry_cell_setting 'monoclinic'
loop_
_space_group_symop_operation_xyz
x,y,z
-x,1/2+y,1/2-z
-x,-y,-z
x,1/2-y,1/2+z
loop_
_atom_site_type_symbol
_atom_site_label
_atom_site_fract_x
_atom_site_fract_y
_atom_site_fract_z
Si Si1 0.269625 0.141073 0.372814
Si Si2 0.631257 0.203353 0.561108
Si Si3 0.107961 0.936609 0.730261
Si Si4 0.112996 0.433503 0.604106
Si Si5 0.274620 0.783250 0.205648
Si Si6 0.430150 0.998153 0.708704
O O1 0.198068 0.377709 0.455332
O O2 0.378670 0.230271 0.254957
O O3 0.281948 0.957549 0.455958
O O4 0.227929 0.001429 0.310044
O O5 0.683873 0.366137 0.433868
O O6 0.544975 0.022881 0.585482
O O7 0.575201 0.386875 0.678745
O O8 0.128112 0.708933 0.637362
O O9 0.184366 0.911211 0.758941
O O10 0.995183 0.912598 0.858837
O O11 0.123220 0.213051 0.675000
O O12 0.369769 0.669346 0.182046
#
# Coordination Sequence:
#
# PCOD8127535 Si02
#       6
#     4   4   4   4   4   4
#     4  11  24  40  65  95 130 176 219 277 336 399
#     4  11  22  44  63  88 136 172 222 274 333 402
#     4  10  22  43  70  99 134 179 224 273 339 394
#     4  10  22  43  71  97 133 184 221 270 339 406
#     4  11  25  39  65  99 129 172 225 279 333 398
#     4  11  24  41  64  95 125 178 224 271 343 394
#
# _framework density 24.249495
#
# number of rings (size 3 to 8) (size 9 to 14) (size 15 to 20)
#    0.000    1.333    3.333    1.500    4.667    2.667 
#    0.000    0.833    0.000    0.000    0.000    0.000 
#    0.000    0.000    0.000    0.000    0.000    0.000 
#
# Total GULP energy -297462.570777 kJ/mol
# GULP energy per Si atom -12394.273782 kJ/mol
# Density = 2.419430 g / cm^3
# Si number density = 24.249495 Si / 1000 Ang^3
#
#
#
# Elastic Constant Matrix: (Units=GPa)
#
#
# Indices 1 2 3 4 5 6 
#
# 1 72.0448 -17.7199 20.3822 0.0000 -8.4993 0.0000
# 2 -17.7199 53.1866 -4.5727 0.0000 6.4886 0.0000
# 3 20.3822 -4.5727 82.2139 0.0000 -3.7337 0.0000
# 4 0.0000 0.0000 0.0000 32.1067 0.0000 -11.4110
# 5 -8.4993 6.4886 -3.7337 0.0000 40.0509 0.0000
# 6 0.0000 0.0000 0.0000 -11.4110 0.0000 25.1956
#
#
#
# Elastic Compliance Matrix: (Units=1/GPa)
#
#
# Indices 1 2 3 4 5 6 
#
# 1 0.016396 0.004859 -0.003688 0.000000 0.002348 0.000000
# 2 0.004859 0.020692 -0.000160 0.000000 -0.002336 0.000000
# 3 -0.003688 -0.000160 0.013090 0.000000 0.000464 0.000000
# 4 0.000000 0.000000 0.000000 0.037121 0.000000 0.016812
# 5 0.002348 -0.002336 0.000464 0.000000 0.025888 0.000000
# 6 0.000000 0.000000 0.000000 0.016812 0.000000 0.047304
#
#
# Mechanical properties :
#
#
# Convention : Reuss Voigt Hill
#
# Bulk Modulus (GPa) = 19.15716 22.62493 20.89104
# Shear Modulus (GPa) = 28.43041 33.42770 30.92906
#
# Velocity S-wave (km/s) = 3.42777 3.71683 3.57522
# Velocity P-wave (km/s) = 4.85626 5.26973 5.06722
#
# Compressibility (1/GPa) = 0.05219981
#
# Stress axis : x y z
#
# Youngs Moduli (GPa) = 60.99158 48.32835 76.39519
#
# Poissons Ratio (x) = -0.23482 0.28173
# Poissons Ratio (y) = -0.29635 0.01221
# Poissons Ratio (z) = 0.22493 0.00772
#
# Static dielectric constant tensor:
#      x y z
#    x 4.702840 0.000000 -0.298270 
#    y 0.000000 4.189480 0.000000 
#    z -0.298270 0.000000 4.283870 
# 
# 
# High freq. dielectric constant tensor:
#      x y z
#    x 1.973840 0.000000 -0.019760 
#    y 0.000000 1.953010 0.000000 
#    z -0.019760 0.000000 1.953050 
# 
# From -- ./inp_files/45735.got.cif
#   From: 2010.03.12/outbox.cif.g09.slc.cpg/sg14_23_cif.got.tgz:45735.got - 2010.03.31 13:35:05.
