data_PCOD8127971
_publ_section_title
;
Structure prediction by ZEFSAII (Michael W. Deem and Ramdas Pophale) SiO2 
 PCOD8127971
Probable space group: P 21/C
;
_chemical_formula_sum "Si O2"
_cell_formula_units_Z 20
_cell_length_a 11.041822
_cell_length_b 7.192608
_cell_length_c 26.279868
_cell_angle_alpha 90.000000
_cell_angle_beta 26.999379
_cell_angle_gamma 90.000000
_cell_volume 947.518808
_symmetry_space_group_name_H-M "P 21/C"
_symmetry_group_IT_number 14
_symmetry_cell_setting 'monoclinic'
loop_
_space_group_symop_operation_xyz
x,y,z
-x,1/2+y,1/2-z
-x,-y,-z
x,1/2-y,1/2+z
loop_
_atom_site_type_symbol
_atom_site_label
_atom_site_fract_x
_atom_site_fract_y
_atom_site_fract_z
Si Si1 0.998636 0.028058 0.807486
Si Si2 0.770264 0.930232 0.177266
Si Si3 0.835631 0.960889 0.612243
Si Si4 0.644785 0.361704 0.906905
Si Si5 0.120502 0.251515 0.567109
O O1 0.210852 0.110625 0.769005
O O2 0.764503 0.179763 0.889486
O O3 0.128062 0.984840 0.704786
O O4 0.896730 0.828219 0.868043
O O5 0.860804 0.757083 0.110594
O O6 0.472163 0.987692 0.276365
O O7 0.987672 0.090602 0.080498
O O8 0.000000 0.000000 0.500000
O O9 0.958036 0.063514 0.615915
O O10 0.500000 0.500000 0.000000
O O11 0.434971 0.291067 0.941961
#
# Coordination Sequence:
#
# PCOD8127971 Si02
#       5
#     4   4   4   4   4
#     4  10  24  43  64 101 134 179 220 285 333 403
#     4  10  23  44  64  99 137 176 222 277 331 406
#     4  12  23  45  68 101 135 177 226 276 339 395
#     4  12  23  44  70  99 136 181 229 279 341 402
#     4  10  24  43  66  98 136 176 226 271 339 398
#
# _framework density 21.107762000000001
#
# number of rings (size 3 to 8) (size 9 to 14) (size 15 to 20)
#    1.200    0.000    2.000    4.200    0.000    0.800 
#    7.200    0.000    0.000    0.000    0.000    0.000 
#    0.000    0.000    0.000    0.000    0.000    0.000 
#
# Total GULP energy -247777.960603 kJ/mol
# GULP energy per Si atom -12388.898030 kJ/mol
# Density = 2.105972 g / cm^3
# Si number density = 21.107762 Si / 1000 Ang^3
#
#
#
# Elastic Constant Matrix: (Units=GPa)
#
#
# Indices 1 2 3 4 5 6 
#
# 1 81.9303 31.8631 24.3624 0.0000 -31.8565 0.0000
# 2 31.8631 123.7307 56.4474 0.0000 -13.3723 0.0000
# 3 24.3624 56.4474 76.6211 0.0000 -6.7866 0.0000
# 4 0.0000 0.0000 0.0000 39.0428 0.0000 -5.7550
# 5 -31.8565 -13.3723 -6.7866 0.0000 44.5241 0.0000
# 6 0.0000 0.0000 0.0000 -5.7550 0.0000 52.9298
#
#
#
# Elastic Compliance Matrix: (Units=1/GPa)
#
#
# Indices 1 2 3 4 5 6 
#
# 1 0.018777 -0.001924 -0.003461 0.000000 0.012329 0.000000
# 2 -0.001924 0.012612 -0.008582 0.000000 0.001103 0.000000
# 3 -0.003461 -0.008582 0.020300 0.000000 -0.001959 0.000000
# 4 0.000000 0.000000 0.000000 0.026030 0.000000 0.002830
# 5 0.012329 0.001103 -0.001959 0.000000 0.031314 0.000000
# 6 0.000000 0.000000 0.000000 0.002830 0.000000 0.019201
#
#
# Mechanical properties :
#
#
# Convention : Reuss Voigt Hill
#
# Bulk Modulus (GPa) = 42.09501 56.40311 49.24906
# Shear Modulus (GPa) = 30.47193 38.60661 34.53927
#
# Velocity S-wave (km/s) = 3.80364 4.28135 4.04955
# Velocity P-wave (km/s) = 6.26709 7.15678 6.72666
#
# Compressibility (1/GPa) = 0.02375578
#
# Stress axis : x y z
#
# Youngs Moduli (GPa) = 53.25738 79.29017 49.26025
#
# Poissons Ratio (x) = 0.15256 0.17048
# Poissons Ratio (y) = 0.10247 0.42274
# Poissons Ratio (z) = 0.18431 0.68045
#
# Static dielectric constant tensor:
#      x y z
#    x 3.883660 0.000000 -0.295380 
#    y 0.000000 3.972810 0.000000 
#    z -0.295380 0.000000 3.556400 
# 
# 
# High freq. dielectric constant tensor:
#      x y z
#    x 1.834360 0.000000 -0.023090 
#    y 0.000000 1.841140 0.000000 
#    z -0.023090 0.000000 1.806030 
# 
# From -- ./inp_files/76889.got.cif
#   From: 2010.03.12/outbox.cif.g09.slc.cpg/sg14_39_cif.got.tgz:76889.got - 2010.03.31 13:35:05.
