data_PCOD8127416
_publ_section_title
;
Structure prediction by ZEFSAII (Michael W. Deem and Ramdas Pophale) SiO2 
 PCOD8127416
Probable space group: P 21/C
;
_chemical_formula_sum "Si O2"
_cell_formula_units_Z 28
_cell_length_a 16.872949
_cell_length_b 8.762266
_cell_length_c 22.313397
_cell_angle_alpha 90.000000
_cell_angle_beta 157.278075
_cell_angle_gamma 90.000000
_cell_volume 1274.241576
_symmetry_space_group_name_H-M "P 21/C"
_symmetry_group_IT_number 14
_symmetry_cell_setting 'monoclinic'
loop_
_space_group_symop_operation_xyz
x,y,z
-x,1/2+y,1/2-z
-x,-y,-z
x,1/2-y,1/2+z
loop_
_atom_site_type_symbol
_atom_site_label
_atom_site_fract_x
_atom_site_fract_y
_atom_site_fract_z
Si Si1 0.536163 0.358301 0.567337
Si Si2 0.909717 0.489464 0.871354
Si Si3 0.800226 0.697635 0.578435
Si Si4 0.036218 0.881549 0.843171
Si Si5 0.528326 0.211370 0.344298
Si Si6 0.679138 0.918609 0.392944
Si Si7 0.313359 0.208839 0.316261
O O1 0.500000 0.500000 0.500000
O O2 0.765469 0.341597 0.755789
O O3 0.378094 0.385932 0.510244
O O4 0.478145 0.210015 0.486302
O O5 0.753982 0.623632 0.749890
O O6 0.000000 0.500000 0.000000
O O7 0.094179 0.489222 0.953336
O O8 0.928273 0.811515 0.709560
O O9 0.681260 0.792630 0.445485
O O10 0.937815 0.562655 0.647111
O O11 0.894528 0.873113 0.804791
O O12 0.247491 0.787417 0.995986
O O13 0.383507 0.338683 0.213057
O O14 0.430897 0.148061 0.339044
O O15 0.530140 0.059023 0.304850
#
# Coordination Sequence:
#
# PCOD8127416 Si02
#       7
#     4   4   4   4   4   4   4
#     4   9  21  39  68  96 132 176 227 272 334 407
#     4  11  21  41  67  98 132 185 229 269 334 424
#     4  11  25  44  68 104 132 179 227 282 344 411
#     4  11  23  44  70  98 141 174 225 282 341 409
#     4  12  25  45  69  98 142 179 226 286 336 412
#     4  12  27  44  68 100 135 184 229 279 350 402
#     4  10  22  42  67 103 134 177 226 283 342 400
#
# _framework density 21.973856000000001
#
# number of rings (size 3 to 8) (size 9 to 14) (size 15 to 20)
#    0.000    1.143    2.857    3.429    8.000    0.000 
#    2.571    3.571    0.000    0.000    0.000    0.000 
#    0.000    0.000    0.000    0.000    0.000    0.000 
#
# Total GULP energy -346956.786041 kJ/mol
# GULP energy per Si atom -12391.313787 kJ/mol
# Density = 2.192384 g / cm^3
# Si number density = 21.973856 Si / 1000 Ang^3
#
#
#
# Elastic Constant Matrix: (Units=GPa)
#
#
# Indices 1 2 3 4 5 6 
#
# 1 121.7536 24.0008 40.6596 0.0000 10.6651 0.0000
# 2 24.0008 73.9063 15.6186 0.0000 2.1947 0.0000
# 3 40.6596 15.6186 117.4929 0.0000 -4.5715 0.0000
# 4 0.0000 0.0000 0.0000 22.8904 0.0000 -2.2602
# 5 10.6651 2.1947 -4.5715 0.0000 37.3479 0.0000
# 6 0.0000 0.0000 0.0000 -2.2602 0.0000 27.5820
#
#
#
# Elastic Compliance Matrix: (Units=1/GPa)
#
#
# Indices 1 2 3 4 5 6 
#
# 1 0.010072 -0.002485 -0.003277 0.000000 -0.003131 0.000000
# 2 -0.002485 0.014576 -0.001088 0.000000 -0.000280 0.000000
# 3 -0.003277 -0.001088 0.009876 0.000000 0.002209 0.000000
# 4 0.000000 0.000000 0.000000 0.044043 0.000000 0.003609
# 5 -0.003131 -0.000280 0.002209 0.000000 0.027956 0.000000
# 6 0.000000 0.000000 0.000000 0.003609 0.000000 0.036551
#
#
# Mechanical properties :
#
#
# Convention : Reuss Voigt Hill
#
# Bulk Modulus (GPa) = 48.02533 52.63453 50.32993
# Shear Modulus (GPa) = 30.54067 33.08897 31.81482
#
# Velocity S-wave (km/s) = 3.73213 3.88472 3.80919
# Velocity P-wave (km/s) = 6.36199 6.64279 6.50390
#
# Compressibility (1/GPa) = 0.02082234
#
# Stress axis : x y z
#
# Youngs Moduli (GPa) = 99.28691 68.60559 101.25779
#
# Poissons Ratio (x) = 0.17050 0.33181
# Poissons Ratio (y) = 0.24676 0.11022
# Poissons Ratio (z) = 0.32535 0.07468
#
# Static dielectric constant tensor:
#      x y z
#    x 4.548920 0.000000 -0.659680 
#    y 0.000000 3.919200 0.000000 
#    z -0.659680 0.000000 5.008890 
# 
# 
# High freq. dielectric constant tensor:
#      x y z
#    x 1.878190 0.000000 0.002320 
#    y 0.000000 1.843920 0.000000 
#    z 0.002320 0.000000 1.873630 
# 
# From -- ./inp_files/68367.got.cif
#   From: 2010.03.12/outbox.cif.g09.slc.cpg/sg14_35_cif.got.tgz:68367.got - 2010.03.31 13:35:05.
