data_PCOD8127300
_publ_section_title
;
Structure prediction by ZEFSAII (Michael W. Deem and Ramdas Pophale) SiO2 
 PCOD8127300
Probable space group: P 21/C
;
_chemical_formula_sum "Si O2"
_cell_formula_units_Z 16
_cell_length_a 4.736616
_cell_length_b 15.364947
_cell_length_c 8.764840
_cell_angle_alpha 90.000000
_cell_angle_beta 61.992032
_cell_angle_gamma 90.000000
_cell_volume 563.178472
_symmetry_space_group_name_H-M "P 21/C"
_symmetry_group_IT_number 14
_symmetry_cell_setting 'monoclinic'
loop_
_space_group_symop_operation_xyz
x,y,z
-x,1/2+y,1/2-z
-x,-y,-z
x,1/2-y,1/2+z
loop_
_atom_site_type_symbol
_atom_site_label
_atom_site_fract_x
_atom_site_fract_y
_atom_site_fract_z
Si Si1 0.678271 0.910995 0.511508
Si Si2 0.282322 0.801564 0.407609
Si Si3 0.509538 0.143860 0.956241
Si Si4 0.866838 0.524647 0.275645
O O1 0.356061 0.869751 0.525327
O O2 0.640547 0.949126 0.689943
O O3 0.928790 0.828979 0.441017
O O4 0.783967 0.993385 0.374894
O O5 0.318301 0.705277 0.463093
O O6 0.523551 0.811185 0.201529
O O7 0.730947 0.059217 0.895133
O O8 0.158356 0.108963 0.104680
#
# Coordination Sequence:
#
# PCOD8127300 Si02
#       4
#     4   4   4   4
#     4  10  23  44  66  92 126 165 208 258 312 370
#     4  11  24  42  65  92 127 166 208 257 311 371
#     4  10  22  41  65  94 127 166 209 257 311 371
#     4   9  21  41  66  94 126 164 209 258 312 370
#
# _framework density 28.410177000000001
#
# number of rings (size 3 to 8) (size 9 to 14) (size 15 to 20)
#    0.000    2.000    0.000    1.500    0.000   18.000 
#    0.000   10.000    0.000    0.000    0.000    0.000 
#    0.000    0.000    0.000    0.000    0.000    0.000 
#
# Total GULP energy -198283.790794 kJ/mol
# GULP energy per Si atom -12392.736925 kJ/mol
# Density = 2.834551 g / cm^3
# Si number density = 28.410177 Si / 1000 Ang^3
#
#
#
# Elastic Constant Matrix: (Units=GPa)
#
#
# Indices 1 2 3 4 5 6 
#
# 1 46.8430 3.3300 3.8165 0.0000 11.1253 0.0000
# 2 3.3300 157.4999 67.0332 0.0000 6.8836 0.0000
# 3 3.8165 67.0332 136.3830 0.0000 9.5764 0.0000
# 4 0.0000 0.0000 0.0000 75.4720 0.0000 12.5126
# 5 11.1253 6.8836 9.5764 0.0000 34.2609 0.0000
# 6 0.0000 0.0000 0.0000 12.5126 0.0000 39.9375
#
#
#
# Elastic Compliance Matrix: (Units=1/GPa)
#
#
# Indices 1 2 3 4 5 6 
#
# 1 0.023136 -0.000140 -0.000054 0.000000 -0.007470 0.000000
# 2 -0.000140 0.008039 -0.003914 0.000000 -0.000476 0.000000
# 3 -0.000054 -0.003914 0.009385 0.000000 -0.001819 0.000000
# 4 0.000000 0.000000 0.000000 0.013976 0.000000 -0.004379
# 5 -0.007470 -0.000476 -0.001819 0.000000 0.032217 0.000000
# 6 0.000000 0.000000 0.000000 -0.004379 0.000000 0.026411
#
#
# Mechanical properties :
#
#
# Convention : Reuss Voigt Hill
#
# Bulk Modulus (GPa) = 30.91683 54.34283 42.62983
# Shear Modulus (GPa) = 37.83252 47.70384 42.76818
#
# Velocity S-wave (km/s) = 3.65314 4.10214 3.88413
# Velocity P-wave (km/s) = 5.35723 6.45029 5.92900
#
# Compressibility (1/GPa) = 0.03234484
#
# Stress axis : x y z
#
# Youngs Moduli (GPa) = 43.22214 124.39855 106.55083
#
# Poissons Ratio (x) = 0.01736 0.00579
# Poissons Ratio (y) = 0.00603 0.41701
# Poissons Ratio (z) = 0.00235 0.48686
#
# Static dielectric constant tensor:
#      x y z
#    x 4.610520 0.000000 -0.255770 
#    y 0.000000 5.468960 0.000000 
#    z -0.255770 0.000000 5.883410 
# 
# 
# High freq. dielectric constant tensor:
#      x y z
#    x 2.117010 0.000000 -0.001800 
#    y 0.000000 2.184560 0.000000 
#    z -0.001800 0.000000 2.166140 
# 
# From -- ./inp_files/5103.got.cif
#   From: 2010.03.12/outbox.cif.g09.slc.cpg/sg14_3_cif.got.tgz:5103.got - 2010.03.31 13:35:05.
