data_PCOD8127516
_publ_section_title
;
Structure prediction by ZEFSAII (Michael W. Deem and Ramdas Pophale) SiO2 
 PCOD8127516
Probable space group: P 21/C
;
_chemical_formula_sum "Si O2"
_cell_formula_units_Z 16
_cell_length_a 8.692952
_cell_length_b 5.069307
_cell_length_c 13.467129
_cell_angle_alpha 90.000000
_cell_angle_beta 73.160077
_cell_angle_gamma 90.000000
_cell_volume 568.010443
_symmetry_space_group_name_H-M "P 21/C"
_symmetry_group_IT_number 14
_symmetry_cell_setting 'monoclinic'
loop_
_space_group_symop_operation_xyz
x,y,z
-x,1/2+y,1/2-z
-x,-y,-z
x,1/2-y,1/2+z
loop_
_atom_site_type_symbol
_atom_site_label
_atom_site_fract_x
_atom_site_fract_y
_atom_site_fract_z
Si Si1 0.325372 0.057943 0.738663
Si Si2 0.147289 0.190069 0.949558
Si Si3 0.388812 0.934150 0.112058
Si Si4 0.883350 0.412048 0.882902
O O1 0.298112 0.050186 0.864014
O O2 0.396432 0.335000 0.690938
O O3 0.435783 0.820582 0.672966
O O4 0.144026 0.020696 0.723852
O O5 0.068724 0.391355 0.880702
O O6 0.207246 0.368474 0.029696
O O7 0.000000 0.000000 0.000000
O O8 0.216044 0.868310 0.090383
O O9 0.500000 0.000000 0.000000
#
# Coordination Sequence:
#
# PCOD8127516 Si02
#       4
#     4   4   4   4
#     4  10  24  39  70  94 131 175 220 272 347 397
#     4  11  23  40  64 102 141 169 219 286 342 418
#     4  10  22  43  68  93 129 177 229 274 328 403
#     4   9  24  35  69  95 139 173 223 272 347 404
#
# _framework density 28.168496999999999
#
# number of rings (size 3 to 8) (size 9 to 14) (size 15 to 20)
#    1.500    0.500    0.000    2.250   14.000    0.000 
#    0.000    0.000   11.000    0.000    0.000    0.000 
#    0.000    0.000    0.000    0.000    0.000    0.000 
#
# Total GULP energy -198215.271242 kJ/mol
# GULP energy per Si atom -12388.454453 kJ/mol
# Density = 2.810438 g / cm^3
# Si number density = 28.168497 Si / 1000 Ang^3
#
#
#
# Elastic Constant Matrix: (Units=GPa)
#
#
# Indices 1 2 3 4 5 6 
#
# 1 25.9704 -3.9114 13.7805 0.0000 -9.6281 0.0000
# 2 -3.9114 176.6851 43.7499 0.0000 -31.5852 0.0000
# 3 13.7805 43.7499 157.0029 0.0000 -24.1875 0.0000
# 4 0.0000 0.0000 0.0000 12.5602 0.0000 -26.7123
# 5 -9.6281 -31.5852 -24.1875 0.0000 47.0454 0.0000
# 6 0.0000 0.0000 0.0000 -26.7123 0.0000 12.5582
#
#
#
# Elastic Compliance Matrix: (Units=1/GPa)
#
#
# Indices 1 2 3 4 5 6 
#
# 1 0.044458 0.003567 -0.003394 0.000000 0.009749 0.000000
# 2 0.003567 0.006942 -0.001539 0.000000 0.004600 0.000000
# 3 -0.003394 -0.001539 0.007417 0.000000 0.002086 0.000000
# 4 0.000000 0.000000 0.000000 -0.022594 0.000000 -0.048060
# 5 0.009749 0.004600 0.002086 0.000000 0.027412 0.000000
# 6 0.000000 0.000000 0.000000 -0.048060 0.000000 -0.022598
#
#
# Mechanical properties :
#
#
# Convention : Reuss Voigt Hill
#
# Bulk Modulus (GPa) = 17.82993 51.87737 34.85365
# Shear Modulus (GPa) = 80.04588 34.83538 57.44063
#
# Velocity S-wave (km/s) = 5.33652 3.52046 4.52063
# Velocity P-wave (km/s) = 6.65694 5.91453 6.29668
#
# Compressibility (1/GPa) = 0.05608547
#
# Stress axis : x y z
#
# Youngs Moduli (GPa) = 22.49314 144.04893 134.81827
#
# Poissons Ratio (x) = -0.51388 0.45763
# Poissons Ratio (y) = -0.08024 0.20748
# Poissons Ratio (z) = 0.07635 0.22169
#
# Static dielectric constant tensor:
#      x y z
#    x 3.914820 0.000000 1.092470 
#    y 0.000000 5.423440 0.000000 
#    z 1.092470 0.000000 5.025630 
# 
# 
# High freq. dielectric constant tensor:
#      x y z
#    x 2.130290 0.000000 0.036960 
#    y 0.000000 2.148400 0.000000 
#    z 0.036960 0.000000 2.151830 
# 
# From -- ./inp_files/27289.got.cif
#   From: 2010.03.12/outbox.cif.g09.slc.cpg/sg14_14_cif.got.tgz:27289.got - 2010.03.31 13:35:05.
