data_PCOD8127396
_publ_section_title
;
Structure prediction by ZEFSAII (Michael W. Deem and Ramdas Pophale) SiO2 
 PCOD8127396
Probable space group: P 21/C
;
_chemical_formula_sum "Si O2"
_cell_formula_units_Z 16
_cell_length_a 9.641589
_cell_length_b 8.414734
_cell_length_c 17.688397
_cell_angle_alpha 90.000000
_cell_angle_beta 150.559406
_cell_angle_gamma 90.000000
_cell_volume 705.374018
_symmetry_space_group_name_H-M "P 21/C"
_symmetry_group_IT_number 14
_symmetry_cell_setting 'monoclinic'
loop_
_space_group_symop_operation_xyz
x,y,z
-x,1/2+y,1/2-z
-x,-y,-z
x,1/2-y,1/2+z
loop_
_atom_site_type_symbol
_atom_site_label
_atom_site_fract_x
_atom_site_fract_y
_atom_site_fract_z
Si Si1 0.101404 0.822010 0.535239
Si Si2 0.630506 0.783606 0.206923
Si Si3 0.316164 0.346452 0.928082
Si Si4 0.722603 0.140911 0.224411
O O1 0.344506 0.810940 0.587583
O O2 0.204267 0.754334 0.665384
O O3 0.840802 0.727797 0.374154
O O4 0.000000 0.000000 0.500000
O O5 0.750935 0.738138 0.182582
O O6 0.587155 0.973953 0.185990
O O7 0.013337 0.391268 0.818291
O O8 0.500000 0.500000 0.000000
O O9 0.489803 0.231012 0.065387
#
# Coordination Sequence:
#
# PCOD8127396 Si02
#       4
#     4   4   4   4
#     4  10  22  42  65  95 129 168 215 267 322 386
#     4  11  23  43  67  94 130 171 213 265 324 384
#     4  12  24  42  66  97 133 171 217 269 318 382
#     4  11  24  43  65  96 130 172 217 265 324 384
#
# _framework density 22.683002999999999
#
# number of rings (size 3 to 8) (size 9 to 14) (size 15 to 20)
#    0.000    1.000    0.000    8.250    0.000    4.000 
#    0.000    7.500    0.000    0.000    0.000    0.000 
#    0.000    0.000    0.000    0.000    0.000    0.000 
#
# Total GULP energy -198370.958498 kJ/mol
# GULP energy per Si atom -12398.184906 kJ/mol
# Density = 2.263138 g / cm^3
# Si number density = 22.683003 Si / 1000 Ang^3
#
#
#
# Elastic Constant Matrix: (Units=GPa)
#
#
# Indices 1 2 3 4 5 6 
#
# 1 109.0654 40.2259 42.2055 0.0000 -4.9100 0.0000
# 2 40.2259 62.9813 44.8567 0.0000 -6.4822 0.0000
# 3 42.2055 44.8567 111.6901 0.0000 -7.2299 0.0000
# 4 0.0000 0.0000 0.0000 20.8899 0.0000 7.4865
# 5 -4.9100 -6.4822 -7.2299 0.0000 63.1714 0.0000
# 6 0.0000 0.0000 0.0000 7.4865 0.0000 32.8382
#
#
#
# Elastic Compliance Matrix: (Units=1/GPa)
#
#
# Indices 1 2 3 4 5 6 
#
# 1 0.012335 -0.006380 -0.002095 0.000000 0.000064 0.000000
# 2 -0.006380 0.025640 -0.007806 0.000000 0.001242 0.000000
# 3 -0.002095 -0.007806 0.012913 0.000000 0.000514 0.000000
# 4 0.000000 0.000000 0.000000 0.052129 0.000000 -0.011885
# 5 0.000064 0.001242 0.000514 0.000000 0.016021 0.000000
# 6 0.000000 0.000000 0.000000 -0.011885 0.000000 0.033162
#
#
# Mechanical properties :
#
#
# Convention : Reuss Voigt Hill
#
# Bulk Modulus (GPa) = 54.56498 59.81254 57.18876
# Shear Modulus (GPa) = 26.19549 33.80981 30.00265
#
# Velocity S-wave (km/s) = 3.40200 3.86493 3.64083
# Velocity P-wave (km/s) = 6.28801 6.80757 6.55295
#
# Compressibility (1/GPa) = 0.01832677
#
# Stress axis : x y z
#
# Youngs Moduli (GPa) = 81.06719 39.00120 77.43916
#
# Poissons Ratio (x) = 0.24883 0.16222
# Poissons Ratio (y) = 0.51721 0.60451
# Poissons Ratio (z) = 0.16982 0.30446
#
# Static dielectric constant tensor:
#      x y z
#    x 4.711640 0.000000 -0.679490 
#    y 0.000000 3.823780 0.000000 
#    z -0.679490 0.000000 4.896990 
# 
# 
# High freq. dielectric constant tensor:
#      x y z
#    x 1.914280 0.000000 -0.013680 
#    y 0.000000 1.871540 0.000000 
#    z -0.013680 0.000000 1.917000 
# 
# From -- ./inp_files/7211.got.cif
#   From: 2010.03.12/outbox.cif.g09.slc.cpg/sg14_4_cif.got.tgz:7211.got - 2010.03.31 13:35:05.
