data_PCOD8127686
_publ_section_title
;
Structure prediction by ZEFSAII (Michael W. Deem and Ramdas Pophale) SiO2 
 PCOD8127686
Probable space group: P 21/C
;
_chemical_formula_sum "Si O2"
_cell_formula_units_Z 28
_cell_length_a 9.211893
_cell_length_b 8.058348
_cell_length_c 18.230343
_cell_angle_alpha 90.000000
_cell_angle_beta 100.350456
_cell_angle_gamma 90.000000
_cell_volume 1331.264719
_symmetry_space_group_name_H-M "P 21/C"
_symmetry_group_IT_number 14
_symmetry_cell_setting 'monoclinic'
loop_
_space_group_symop_operation_xyz
x,y,z
-x,1/2+y,1/2-z
-x,-y,-z
x,1/2-y,1/2+z
loop_
_atom_site_type_symbol
_atom_site_label
_atom_site_fract_x
_atom_site_fract_y
_atom_site_fract_z
Si Si1 0.360292 0.262425 0.854364
Si Si2 0.011139 0.716120 0.427848
Si Si3 0.286896 0.865814 0.492747
Si Si4 0.815925 0.889177 0.039680
Si Si5 0.726008 0.700443 0.317948
Si Si6 0.361932 0.931778 0.091496
Si Si7 0.529241 0.597606 0.906979
O O1 0.229528 0.240039 0.901116
O O2 0.287023 0.264839 0.768386
O O3 0.466646 0.103280 0.876242
O O4 0.449725 0.431547 0.871638
O O5 0.936446 0.698952 0.500144
O O6 0.889933 0.759354 0.355321
O O7 0.125389 0.871439 0.441168
O O8 0.108952 0.552848 0.417857
O O9 0.279412 0.736980 0.560373
O O10 0.410185 0.801866 0.445054
O O11 0.333009 0.046799 0.527532
O O12 0.670709 0.933207 0.976239
O O13 0.709675 0.506550 0.340030
O O14 0.590974 0.796437 0.345604
#
# Coordination Sequence:
#
# PCOD8127686 Si02
#       7
#     4   4   4   4   4   4   4
#     4  11  22  39  58  90 125 160 191 255 309 360
#     4   9  20  38  60  88 113 156 203 246 292 356
#     4   9  20  39  62  87 114 154 206 256 294 342
#     4   9  19  37  63  86 112 157 214 245 277 358
#     4  11  23  38  59  91 125 155 194 247 314 374
#     4   9  20  35  66  85 110 158 208 244 284 353
#     4  10  23  37  58  93 119 148 204 258 303 351
#
# _framework density 21.032630000000001
#
# number of rings (size 3 to 8) (size 9 to 14) (size 15 to 20)
#    0.000    2.286    0.000    2.143   16.000    0.571 
#    2.571    0.000    0.000    0.000    0.000    0.000 
#    0.000    0.000    0.000    0.000    0.000    0.000 
#
# Total GULP energy -347040.622105 kJ/mol
# GULP energy per Si atom -12394.307932 kJ/mol
# Density = 2.098476 g / cm^3
# Si number density = 21.032630 Si / 1000 Ang^3
#
#
#
# Elastic Constant Matrix: (Units=GPa)
#
#
# Indices 1 2 3 4 5 6 
#
# 1 115.2287 39.1536 52.7443 0.0000 17.7970 0.0000
# 2 39.1536 48.2895 28.7039 0.0000 0.4975 0.0000
# 3 52.7443 28.7039 125.4141 0.0000 6.2928 0.0000
# 4 0.0000 0.0000 0.0000 26.6558 0.0000 -0.3531
# 5 17.7970 0.4975 6.2928 0.0000 24.3181 0.0000
# 6 0.0000 0.0000 0.0000 -0.3531 0.0000 32.0388
#
#
#
# Elastic Compliance Matrix: (Units=1/GPa)
#
#
# Indices 1 2 3 4 5 6 
#
# 1 0.015360 -0.010199 -0.003619 0.000000 -0.010096 0.000000
# 2 -0.010199 0.030762 -0.003135 0.000000 0.007646 0.000000
# 3 -0.003619 -0.003135 0.010210 0.000000 0.000071 0.000000
# 4 0.000000 0.000000 0.000000 0.037521 0.000000 0.000413
# 5 -0.010096 0.007646 0.000071 0.000000 0.048335 0.000000
# 6 0.000000 0.000000 0.000000 0.000413 0.000000 0.031217
#
#
# Mechanical properties :
#
#
# Convention : Reuss Voigt Hill
#
# Bulk Modulus (GPa) = 44.59071 58.90398 51.74734
# Shear Modulus (GPa) = 23.27910 27.82456 25.55183
#
# Velocity S-wave (km/s) = 3.33048 3.64115 3.48927
# Velocity P-wave (km/s) = 6.00302 6.76344 6.39454
#
# Compressibility (1/GPa) = 0.02242619
#
# Stress axis : x y z
#
# Youngs Moduli (GPa) = 65.10627 32.50731 97.94739
#
# Poissons Ratio (x) = 0.33153 0.35446
# Poissons Ratio (y) = 0.66399 0.30708
# Poissons Ratio (z) = 0.23561 0.10192
#
# Static dielectric constant tensor:
#      x y z
#    x 3.960640 0.000000 0.166590 
#    y 0.000000 3.769220 0.000000 
#    z 0.166590 0.000000 3.632790 
# 
# 
# High freq. dielectric constant tensor:
#      x y z
#    x 1.825940 0.000000 0.010920 
#    y 0.000000 1.816210 0.000000 
#    z 0.010920 0.000000 1.797360 
# 
# From -- ./inp_files/54931.got.cif
#   From: 2010.03.12/outbox.cif.g09.slc.cpg/sg14_28_cif.got.tgz:54931.got - 2010.03.31 13:35:05.
