data_PCOD8127861
_publ_section_title
;
Structure prediction by ZEFSAII (Michael W. Deem and Ramdas Pophale) SiO2 
 PCOD8127861
Probable space group: P 21/C
;
_chemical_formula_sum "Si O2"
_cell_formula_units_Z 20
_cell_length_a 11.977199
_cell_length_b 7.694988
_cell_length_c 28.027305
_cell_angle_alpha 90.000000
_cell_angle_beta 17.920558
_cell_angle_gamma 90.000000
_cell_volume 794.820892
_symmetry_space_group_name_H-M "P 21/C"
_symmetry_group_IT_number 14
_symmetry_cell_setting 'monoclinic'
loop_
_space_group_symop_operation_xyz
x,y,z
-x,1/2+y,1/2-z
-x,-y,-z
x,1/2-y,1/2+z
loop_
_atom_site_type_symbol
_atom_site_label
_atom_site_fract_x
_atom_site_fract_y
_atom_site_fract_z
Si Si1 0.443509 0.606646 0.316654
Si Si2 0.735335 0.094553 0.538020
Si Si3 0.177397 0.272787 0.106612
Si Si4 0.188680 0.979681 0.685722
Si Si5 0.465138 0.770271 0.703716
O O1 0.287280 0.741322 0.418139
O O2 0.299707 0.409227 0.386417
O O3 0.333947 0.660519 0.308045
O O4 0.879397 0.600662 0.144402
O O5 0.429066 0.106510 0.621448
O O6 0.707089 0.915712 0.579471
O O7 0.066305 0.429744 0.187187
O O8 0.158294 0.091453 0.143801
O O9 0.899396 0.270062 0.176451
O O10 0.576417 0.306034 0.923312
#
# Coordination Sequence:
#
# PCOD8127861 Si02
#       5
#     4   4   4   4   4
#     4  12  25  44  72  99 142 186 232 286 344 412
#     4  11  26  45  68 104 139 184 236 282 350 412
#     4  10  23  42  69  97 134 176 222 285 341 406
#     4  10  23  45  68  98 136 176 229 285 344 409
#     4  11  24  44  69 102 141 182 231 287 340 412
#
# _framework density 25.162904000000001
#
# number of rings (size 3 to 8) (size 9 to 14) (size 15 to 20)
#    0.000    1.200    4.000    0.600    2.800    3.200 
#    3.600    0.000    0.000    0.000    0.000    0.000 
#    0.000    0.000    0.000    0.000    0.000    0.000 
#
# Total GULP energy -248054.860070 kJ/mol
# GULP energy per Si atom -12402.743004 kJ/mol
# Density = 2.510563 g / cm^3
# Si number density = 25.162904 Si / 1000 Ang^3
#
#
#
# Elastic Constant Matrix: (Units=GPa)
#
#
# Indices 1 2 3 4 5 6 
#
# 1 -130.2988 -55.3474 133.3337 -0.0204 45.4353 -0.0026
# 2 -55.3474 103.7984 70.2574 -0.0075 19.9667 -0.0014
# 3 133.3337 70.2574 -35.5899 0.0182 -23.6160 0.0019
# 4 -0.0204 -0.0075 0.0182 37.0810 0.0059 3.4178
# 5 45.4353 19.9667 -23.6160 0.0059 19.9398 0.0004
# 6 -0.0026 -0.0014 0.0019 3.4178 0.0004 53.8167
#
#
#
# Elastic Compliance Matrix: (Units=1/GPa)
#
#
# Indices 1 2 3 4 5 6 
#
# 1 0.005600 -0.004420 0.009959 -0.000003 0.003460 0.000000
# 2 -0.004420 0.007982 -0.001222 0.000000 0.000632 0.000000
# 3 0.009959 -0.001222 0.011785 0.000001 -0.007512 0.000000
# 4 -0.000003 0.000000 0.000001 0.027127 0.000000 -0.001723
# 5 0.003460 0.000632 -0.007512 0.000000 0.032737 0.000000
# 6 0.000000 0.000000 0.000000 -0.001723 0.000000 0.018691
#
#
# Mechanical properties :
#
#
# Convention : Reuss Voigt Hill
#
# Bulk Modulus (GPa) = 29.41046 26.04414 27.72730
# Shear Modulus (GPa) = 46.89479 8.14523 27.52001
#
# Velocity S-wave (km/s) = 4.32168 1.80112 3.31066
# Velocity P-wave (km/s) = 6.05111 3.83380 5.06528
#
# Compressibility (1/GPa) = 0.03400151
#
# Stress axis : x y z
#
# Youngs Moduli (GPa) = 178.56388 125.27687 84.85520
#
# Poissons Ratio (x) = 0.55375 -0.84506
# Poissons Ratio (y) = 0.78929 0.10365
# Poissons Ratio (z) = -1.77828 0.15303
#
# Static dielectric constant tensor:
#      x y z
#    x 4.744750 0.000000 0.089700 
#    y 0.000000 4.935920 -0.000020 
#    z 0.089700 -0.000020 4.429420 
# 
# 
# High freq. dielectric constant tensor:
#      x y z
#    x 2.019480 0.000000 0.004550 
#    y 0.000000 2.007550 0.000000 
#    z 0.004550 0.000000 2.003870 
# 
# From -- ./inp_files/79928.got.cif
#   From: 2010.03.12/outbox.cif.g09.slc.cpg/sg14_40_cif.got.tgz:79928.got - 2010.03.31 13:35:05.
