data_PCOD8127224
_publ_section_title
;
Structure prediction by ZEFSAII (Michael W. Deem and Ramdas Pophale) SiO2 
 PCOD8127224
Probable space group: P 21/C
;
_chemical_formula_sum "Si O2"
_cell_formula_units_Z 20
_cell_length_a 11.210406
_cell_length_b 5.098704
_cell_length_c 13.116918
_cell_angle_alpha 90.000000
_cell_angle_beta 90.860589
_cell_angle_gamma 90.000000
_cell_volume 749.659336
_symmetry_space_group_name_H-M "P 21/C"
_symmetry_group_IT_number 14
_symmetry_cell_setting 'monoclinic'
loop_
_space_group_symop_operation_xyz
x,y,z
-x,1/2+y,1/2-z
-x,-y,-z
x,1/2-y,1/2+z
loop_
_atom_site_type_symbol
_atom_site_label
_atom_site_fract_x
_atom_site_fract_y
_atom_site_fract_z
Si Si1 0.636240 0.132967 0.620754
Si Si2 0.031645 0.756615 0.635037
Si Si3 0.099710 0.757554 0.901318
Si Si4 0.613404 0.743051 0.950735
Si Si5 0.701598 0.276558 0.340291
O O1 0.758070 0.276614 0.592987
O O2 0.527005 0.301865 0.571125
O O3 0.634001 0.841199 0.569330
O O4 0.624862 0.120118 0.742847
O O5 0.055101 0.755068 0.515259
O O6 0.160565 0.759282 0.692911
O O7 0.954738 0.500821 0.661992
O O8 0.950998 0.008001 0.661942
O O9 0.692561 0.996151 0.925970
O O10 0.650787 0.496175 0.880623
#
# Coordination Sequence:
#
# PCOD8127224 Si02
#       5
#     4   4   4   4   4
#     4  11  26  45  73 100 137 185 231 279 348 413
#     4  10  22  40  66  96 135 172 220 280 335 396
#     4  10  22  40  66  97 131 178 218 275 340 399
#     4  11  27  46  68 103 140 178 230 289 340 406
#     4  12  25  46  71 101 139 180 228 288 342 408
#
# _framework density 26.678787
#
# number of rings (size 3 to 8) (size 9 to 14) (size 15 to 20)
#    0.000    1.200    2.000    2.400    5.600    9.600 
#    0.000    0.000    0.000    0.000    0.000    0.000 
#    0.000    0.000    0.000    0.000    0.000    0.000 
#
# Total GULP energy -248092.539385 kJ/mol
# GULP energy per Si atom -12404.626969 kJ/mol
# Density = 2.661806 g / cm^3
# Si number density = 26.678787 Si / 1000 Ang^3
#
#
#
# Elastic Constant Matrix: (Units=GPa)
#
#
# Indices 1 2 3 4 5 6 
#
# 1 179.7779 64.0145 12.2344 0.0000 11.2067 0.0000
# 2 64.0145 146.6428 6.6068 0.0000 -0.0252 0.0000
# 3 12.2344 6.6068 79.4814 0.0000 28.1484 0.0000
# 4 0.0000 0.0000 0.0000 -10.1213 0.0000 7.6270
# 5 11.2067 -0.0252 28.1484 0.0000 48.7734 0.0000
# 6 0.0000 0.0000 0.0000 7.6270 0.0000 33.0137
#
#
#
# Elastic Compliance Matrix: (Units=1/GPa)
#
#
# Indices 1 2 3 4 5 6 
#
# 1 0.006706 -0.002914 -0.000306 0.000000 -0.001365 0.000000
# 2 -0.002914 0.008118 -0.000584 0.000000 0.001011 0.000000
# 3 -0.000306 -0.000584 0.015903 0.000000 -0.009108 0.000000
# 4 0.000000 0.000000 0.000000 -0.084151 0.000000 0.019441
# 5 -0.001365 0.001011 -0.009108 0.000000 0.026074 0.000000
# 6 0.000000 0.000000 0.000000 0.019441 0.000000 0.025799
#
#
# Mechanical properties :
#
#
# Convention : Reuss Voigt Hill
#
# Bulk Modulus (GPa) = 43.25721 63.51261 53.38491
# Shear Modulus (GPa) = 363.30339 35.86958 199.58648
#
# Velocity S-wave (km/s) = 11.68214 3.67072 8.65871
# Velocity P-wave (km/s) = 14.07880 6.46712 10.95528
#
# Compressibility (1/GPa) = 0.02311753
#
# Stress axis : x y z
#
# Youngs Moduli (GPa) = 149.12197 123.18679 62.88179
#
# Poissons Ratio (x) = 0.35894 0.01927
# Poissons Ratio (y) = 0.43451 0.03674
# Poissons Ratio (z) = 0.04570 0.07197
#
# Static dielectric constant tensor:
#      x y z
#    x 4.905430 0.000000 0.071100 
#    y 0.000000 4.761850 0.000000 
#    z 0.071100 0.000000 4.995070 
# 
# 
# High freq. dielectric constant tensor:
#      x y z
#    x 2.080680 0.000000 0.000540 
#    y 0.000000 2.063350 0.000000 
#    z 0.000540 0.000000 2.098080 
# 
# From -- ./inp_files/42482.got.cif
#   From: 2010.03.12/outbox.cif.g09.slc.cpg/sg14_22_cif.got.tgz:42482.got - 2010.03.31 13:35:05.
