data_PCOD8127215
_publ_section_title
;
Structure prediction by ZEFSAII (Michael W. Deem and Ramdas Pophale) SiO2 
 PCOD8127215
Probable space group: P 21/C
;
_chemical_formula_sum "Si O2"
_cell_formula_units_Z 32
_cell_length_a 12.431290
_cell_length_b 13.702840
_cell_length_c 12.041207
_cell_angle_alpha 90.000000
_cell_angle_beta 133.648851
_cell_angle_gamma 90.000000
_cell_volume 1484.176445
_symmetry_space_group_name_H-M "P 21/C"
_symmetry_group_IT_number 14
_symmetry_cell_setting 'monoclinic'
loop_
_space_group_symop_operation_xyz
x,y,z
-x,1/2+y,1/2-z
-x,-y,-z
x,1/2-y,1/2+z
loop_
_atom_site_type_symbol
_atom_site_label
_atom_site_fract_x
_atom_site_fract_y
_atom_site_fract_z
Si Si1 0.422804 0.148645 0.905393
Si Si2 0.961767 0.887937 0.937494
Si Si3 0.433991 0.180678 0.563742
Si Si4 0.199524 0.282084 0.065974
Si Si5 0.228283 0.481965 0.861102
Si Si6 0.694595 0.481308 0.533091
Si Si7 0.726723 0.399292 0.327981
Si Si8 0.993743 0.958809 0.619525
O O1 0.286806 0.155950 0.722268
O O2 0.371452 0.083507 0.973400
O O3 0.458919 0.258964 0.969083
O O4 0.574242 0.104745 0.964471
O O5 0.861296 0.824654 0.947983
O O6 0.873213 0.893114 0.759383
O O7 0.123165 0.836808 0.040524
O O8 0.000000 0.000000 0.000000
O O9 0.315122 0.239898 0.550838
O O10 0.381929 0.068430 0.508167
O O11 0.589451 0.174102 0.740094
O O12 0.062428 0.347489 0.927144
O O13 0.266326 0.560204 0.793632
O O14 0.129420 0.521277 0.895149
O O15 0.720656 0.484687 0.417959
O O16 0.846130 0.458956 0.707525
O O17 0.000000 0.000000 0.500000
#
# Coordination Sequence:
#
# PCOD8127215 Si02
#       8
#     4   4   4   4   4   4   4   4
#     4  11  24  40  66  95 131 182 224 268 352 405
#     4  10  22  40  65  96 130 173 224 287 341 393
#     4  11  24  41  66  97 133 178 224 280 335 413
#     4  11  23  43  63  97 133 177 230 281 341 417
#     4  10  22  40  67  97 129 175 223 280 334 404
#     4  11  24  43  65  97 137 179 219 281 341 421
#     4  11  23  42  67  99 135 170 230 282 342 398
#     4  11  23  42  68  97 139 175 223 277 348 413
#
# _framework density 21.560779
#
# number of rings (size 3 to 8) (size 9 to 14) (size 15 to 20)
#    0.000    1.250    5.000    0.375    5.250    0.000 
#    0.000    2.500    0.000    0.000    0.000    0.000 
#    0.000    0.000    0.000    0.000    0.000    0.000 
#
# Total GULP energy -396485.124722 kJ/mol
# GULP energy per Si atom -12390.160148 kJ/mol
# Density = 2.151171 g / cm^3
# Si number density = 21.560779 Si / 1000 Ang^3
#
#
#
# Elastic Constant Matrix: (Units=GPa)
#
#
# Indices 1 2 3 4 5 6 
#
# 1 112.7940 35.7854 31.4529 0.0000 -2.7659 0.0000
# 2 35.7854 58.6267 17.6869 0.0000 3.4211 0.0000
# 3 31.4529 17.6869 89.8018 0.0000 11.1920 0.0000
# 4 0.0000 0.0000 0.0000 26.7445 0.0000 -5.0641
# 5 -2.7659 3.4211 11.1920 0.0000 52.2239 0.0000
# 6 0.0000 0.0000 0.0000 -5.0641 0.0000 28.2296
#
#
#
# Elastic Compliance Matrix: (Units=1/GPa)
#
#
# Indices 1 2 3 4 5 6 
#
# 1 0.011787 -0.006363 -0.003087 0.000000 0.001703 0.000000
# 2 -0.006363 0.021579 -0.001853 0.000000 -0.001354 0.000000
# 3 -0.003087 -0.001853 0.012933 0.000000 -0.002814 0.000000
# 4 0.000000 0.000000 0.000000 0.038706 0.000000 0.006943
# 5 0.001703 -0.001354 -0.002814 0.000000 0.019930 0.000000
# 6 0.000000 0.000000 0.000000 0.006943 0.000000 0.036669
#
#
# Mechanical properties :
#
#
# Convention : Reuss Voigt Hill
#
# Bulk Modulus (GPa) = 42.20744 47.89700 45.05222
# Shear Modulus (GPa) = 29.05167 33.19273 31.12220
#
# Velocity S-wave (km/s) = 3.67472 3.92790 3.80342
# Velocity P-wave (km/s) = 6.13378 6.54479 6.34262
#
# Compressibility (1/GPa) = 0.02369250
#
# Stress axis : x y z
#
# Youngs Moduli (GPa) = 84.83875 46.34178 77.32391
#
# Poissons Ratio (x) = 0.29486 0.23873
# Poissons Ratio (y) = 0.53980 0.14327
# Poissons Ratio (z) = 0.26194 0.08586
#
# Static dielectric constant tensor:
#      x y z
#    x 4.300460 0.000000 0.267280 
#    y 0.000000 3.401020 0.000000 
#    z 0.267280 0.000000 4.287670 
# 
# 
# High freq. dielectric constant tensor:
#      x y z
#    x 1.867810 0.000000 0.007880 
#    y 0.000000 1.806020 0.000000 
#    z 0.007880 0.000000 1.861460 
# 
# From -- ./inp_files/30046.got.cif
#   From: 2010.03.12/outbox.cif.g09.slc.cpg/sg14_16_cif.got.tgz:30046.got - 2010.03.31 13:35:05.
