data_PCOD8127387
_publ_section_title
;
Structure prediction by ZEFSAII (Michael W. Deem and Ramdas Pophale) SiO2 
 PCOD8127387
Probable space group: P 21/C
;
_chemical_formula_sum "Si O2"
_cell_formula_units_Z 32
_cell_length_a 11.831977
_cell_length_b 6.700389
_cell_length_c 18.784128
_cell_angle_alpha 90.000000
_cell_angle_beta 88.763332
_cell_angle_gamma 90.000000
_cell_volume 1488.837172
_symmetry_space_group_name_H-M "P 21/C"
_symmetry_group_IT_number 14
_symmetry_cell_setting 'monoclinic'
loop_
_space_group_symop_operation_xyz
x,y,z
-x,1/2+y,1/2-z
-x,-y,-z
x,1/2-y,1/2+z
loop_
_atom_site_type_symbol
_atom_site_label
_atom_site_fract_x
_atom_site_fract_y
_atom_site_fract_z
Si Si1 0.618713 0.282411 0.180195
Si Si2 0.832188 0.112425 0.236662
Si Si3 0.060261 0.277205 0.182743
Si Si4 0.183691 0.891751 0.135412
Si Si5 0.105966 0.546016 0.046205
Si Si6 0.579458 0.487338 0.327979
Si Si7 0.669414 0.024773 0.531183
Si Si8 0.509505 0.297038 0.458462
O O1 0.716679 0.114004 0.191341
O O2 0.606933 0.430123 0.247129
O O3 0.658641 0.413090 0.113345
O O4 0.494803 0.189130 0.168840
O O5 0.795933 0.209318 0.311453
O O6 0.926578 0.255159 0.199133
O O7 0.877886 0.886053 0.250337
O O8 0.087725 0.412559 0.115466
O O9 0.098918 0.052041 0.169370
O O10 0.129062 0.781363 0.066321
O O11 0.304548 0.007694 0.126492
O O12 0.205500 0.467730 0.994150
O O13 0.000000 0.500000 0.000000
O O14 0.507557 0.322214 0.372591
O O15 0.627888 0.199163 0.479490
O O16 0.596294 0.831072 0.516182
O O17 0.500000 0.500000 0.500000
#
# Coordination Sequence:
#
# PCOD8127387 Si02
#       8
#     4   4   4   4   4   4   4   4
#     4  11  24  41  65 101 135 171 222 292 332 407
#     4  10  22  42  64  97 132 170 225 271 335 406
#     4  11  22  42  71  92 130 181 218 276 342 397
#     4  10  23  41  66  93 131 177 218 277 332 413
#     4  11  25  43  65  97 133 175 230 280 332 403
#     4  11  23  42  66  97 138 168 226 275 346 400
#     4  11  24  43  67  94 136 174 225 279 336 401
#     4  11  23  43  68  94 129 183 220 268 337 417
#
# _framework density 21.493283999999999
#
# number of rings (size 3 to 8) (size 9 to 14) (size 15 to 20)
#    0.000    1.250    3.750    1.500    3.500    0.500 
#    2.250    0.000    0.000    0.000    0.000    0.000 
#    0.000    0.000    0.000    0.000    0.000    0.000 
#
# Total GULP energy -396547.055790 kJ/mol
# GULP energy per Si atom -12392.095493 kJ/mol
# Density = 2.144436 g / cm^3
# Si number density = 21.493284 Si / 1000 Ang^3
#
#
#
# Elastic Constant Matrix: (Units=GPa)
#
#
# Indices 1 2 3 4 5 6 
#
# 1 144.0055 34.3969 32.3557 0.0000 5.6484 0.0000
# 2 34.3969 80.6189 28.8063 0.0000 10.7625 0.0000
# 3 32.3557 28.8063 104.9445 0.0000 -3.1618 0.0000
# 4 0.0000 0.0000 0.0000 32.5500 0.0000 1.0114
# 5 5.6484 10.7625 -3.1618 0.0000 34.8352 0.0000
# 6 0.0000 0.0000 0.0000 1.0114 0.0000 26.6728
#
#
#
# Elastic Compliance Matrix: (Units=1/GPa)
#
#
# Indices 1 2 3 4 5 6 
#
# 1 0.008008 -0.002711 -0.001743 0.000000 -0.000619 0.000000
# 2 -0.002711 0.015449 -0.003545 0.000000 -0.004655 0.000000
# 3 -0.001743 -0.003545 0.011111 0.000000 0.002386 0.000000
# 4 0.000000 0.000000 0.000000 0.030758 0.000000 -0.001166
# 5 -0.000619 -0.004655 0.002386 0.000000 0.030462 0.000000
# 6 0.000000 0.000000 0.000000 -0.001166 0.000000 0.037536
#
#
# Mechanical properties :
#
#
# Convention : Reuss Voigt Hill
#
# Bulk Modulus (GPa) = 53.85275 57.85406 55.85340
# Shear Modulus (GPa) = 32.15186 34.41226 33.28206
#
# Velocity S-wave (km/s) = 3.87189 4.00568 3.93935
# Velocity P-wave (km/s) = 6.71555 6.95483 6.83624
#
# Compressibility (1/GPa) = 0.01856915
#
# Stress axis : x y z
#
# Youngs Moduli (GPa) = 124.87951 64.72974 89.99834
#
# Poissons Ratio (x) = 0.17548 0.15690
# Poissons Ratio (y) = 0.33855 0.31904
# Poissons Ratio (z) = 0.21771 0.22947
#
# Static dielectric constant tensor:
#      x y z
#    x 4.147520 0.000000 0.027060 
#    y 0.000000 3.747130 0.000000 
#    z 0.027060 0.000000 4.175890 
# 
# 
# High freq. dielectric constant tensor:
#      x y z
#    x 1.855010 0.000000 -0.013730 
#    y 0.000000 1.830810 0.000000 
#    z -0.013730 0.000000 1.844950 
# 
# From -- ./inp_files/66498.got.cif
#   From: 2010.03.12/outbox.cif.g09.slc.cpg/sg14_34_cif.got.tgz:66498.got - 2010.03.31 13:35:05.
