data_PCOD8127712
_publ_section_title
;
Structure prediction by ZEFSAII (Michael W. Deem and Ramdas Pophale) SiO2 
 PCOD8127712
Probable space group: P 21/C
;
_chemical_formula_sum "Si O2"
_cell_formula_units_Z 28
_cell_length_a 8.828890
_cell_length_b 14.640824
_cell_length_c 19.065631
_cell_angle_alpha 90.000000
_cell_angle_beta 148.342294
_cell_angle_gamma 90.000000
_cell_volume 1293.458810
_symmetry_space_group_name_H-M "P 21/C"
_symmetry_group_IT_number 14
_symmetry_cell_setting 'monoclinic'
loop_
_space_group_symop_operation_xyz
x,y,z
-x,1/2+y,1/2-z
-x,-y,-z
x,1/2-y,1/2+z
loop_
_atom_site_type_symbol
_atom_site_label
_atom_site_fract_x
_atom_site_fract_y
_atom_site_fract_z
Si Si1 0.184577 0.500000 0.142029
Si Si2 0.662169 0.500000 0.492250
Si Si3 0.760478 0.141298 0.222677
Si Si4 0.341010 1.000000 0.273983
Si Si5 0.760478 0.858702 0.222677
Si Si6 0.314072 0.336633 0.856782
Si Si7 0.314073 0.663367 0.856782
O O1 0.113691 0.593153 0.157534
O O2 0.517074 0.500000 0.246963
O O3 0.113691 0.406847 0.157534
O O4 0.000000 0.500000 0.000000
O O5 0.500000 0.500000 0.500000
O O6 0.545748 0.591606 0.409261
O O7 0.545748 0.408393 0.409261
O O8 0.002258 0.500000 0.627447
O O9 0.704452 0.249597 0.202811
O O10 0.995159 0.127739 0.252866
O O11 0.453672 0.085644 0.363972
O O12 0.453672 0.914356 0.363972
O O13 0.704453 0.750403 0.202812
O O14 0.995159 0.872261 0.252866
O O15 0.500000 0.314592 1.000000
#
# Coordination Sequence:
#
# PCOD8127712 Si02
#       7
#     4   4   4   4   4   4   4
#     4  11  24  46  64  95 137 177 207 273 324 402
#     4  11  19  41  64  96 130 170 214 280 313 389
#     4  10  23  39  65  92 132 170 216 268 330 364
#     4  12  24  38  70  97 133 176 219 253 342 384
#     4  10  23  39  65  92 132 170 216 268 330 364
#     4  11  22  39  67 100 121 170 224 274 312 385
#     4  11  22  39  67 100 121 170 224 274 312 385
#
# _framework density 21.647383999999999
#
# number of rings (size 3 to 8) (size 9 to 14) (size 15 to 20)
#    0.000    1.143    2.857    3.857    4.000    3.429 
#    0.000    0.000    0.000    0.000    0.000    0.000 
#    0.000    0.000    0.000    0.000    0.000    0.000 
#
# Total GULP energy -346964.536908 kJ/mol
# GULP energy per Si atom -12391.590604 kJ/mol
# Density = 2.159811 g / cm^3
# Si number density = 21.647384 Si / 1000 Ang^3
#
#
#
# Elastic Constant Matrix: (Units=GPa)
#
#
# Indices 1 2 3 4 5 6 
#
# 1 97.5777 75.6490 23.6996 0.0000 -4.3896 0.0000
# 2 75.6490 188.1628 35.5068 0.0000 -19.3266 0.0000
# 3 23.6996 35.5068 106.5588 0.0000 -4.2056 0.0000
# 4 0.0000 0.0000 0.0000 15.9053 0.0000 -8.3947
# 5 -4.3896 -19.3266 -4.2056 0.0000 40.3096 0.0000
# 6 0.0000 0.0000 0.0000 -8.3947 0.0000 31.0749
#
#
#
# Elastic Compliance Matrix: (Units=1/GPa)
#
#
# Indices 1 2 3 4 5 6 
#
# 1 0.015159 -0.005963 -0.001438 0.000000 -0.001358 0.000000
# 2 -0.005963 0.008286 -0.001309 0.000000 0.003187 0.000000
# 3 -0.001438 -0.001309 0.010151 0.000000 0.000275 0.000000
# 4 0.000000 0.000000 0.000000 0.073327 0.000000 0.019809
# 5 -0.001358 0.003187 0.000275 0.000000 0.026217 0.000000
# 6 0.000000 0.000000 0.000000 0.019809 0.000000 0.037532
#
#
# Mechanical properties :
#
#
# Convention : Reuss Voigt Hill
#
# Bulk Modulus (GPa) = 61.81778 73.55667 67.68723
# Shear Modulus (GPa) = 25.84192 34.62090 30.23141
#
# Velocity S-wave (km/s) = 3.45884 4.00348 3.74108
# Velocity P-wave (km/s) = 6.67609 7.44471 7.07085
#
# Compressibility (1/GPa) = 0.01617657
#
# Stress axis : x y z
#
# Youngs Moduli (GPa) = 65.96679 120.68340 98.50818
#
# Poissons Ratio (x) = 0.71959 0.14168
# Poissons Ratio (y) = 0.39334 0.12896
# Poissons Ratio (z) = 0.09488 0.15799
#
# Static dielectric constant tensor:
#      x y z
#    x 3.930290 0.000000 -0.190680 
#    y 0.000000 3.964700 0.000000 
#    z -0.190680 0.000000 3.555690 
# 
# 
# High freq. dielectric constant tensor:
#      x y z
#    x 1.833440 0.000000 0.003070 
#    y 0.000000 1.854700 0.000000 
#    z 0.003070 0.000000 1.856710 
# 
# From -- ./inp_files/65931.got.cif
#   From: 2010.03.12/outbox.cif.g09.slc.cpg/sg14_33_cif.got.tgz:65931.got - 2010.03.31 13:35:05.
