data_PCOD8127567
_publ_section_title
;
Structure prediction by ZEFSAII (Michael W. Deem and Ramdas Pophale) SiO2 
 PCOD8127567
Probable space group: P 21/C
;
_chemical_formula_sum "Si O2"
_cell_formula_units_Z 20
_cell_length_a 19.256058
_cell_length_b 8.114852
_cell_length_c 12.633924
_cell_angle_alpha 90.000000
_cell_angle_beta 154.439721
_cell_angle_gamma 90.000000
_cell_volume 851.779590
_symmetry_space_group_name_H-M "P 21/C"
_symmetry_group_IT_number 14
_symmetry_cell_setting 'monoclinic'
loop_
_space_group_symop_operation_xyz
x,y,z
-x,1/2+y,1/2-z
-x,-y,-z
x,1/2-y,1/2+z
loop_
_atom_site_type_symbol
_atom_site_label
_atom_site_fract_x
_atom_site_fract_y
_atom_site_fract_z
Si Si1 0.391699 0.066261 0.556328
Si Si2 0.901721 0.483067 0.470794
Si Si3 0.341588 0.445699 0.220816
Si Si4 0.029722 0.871954 0.343950
Si Si5 0.691768 0.870436 0.944554
O O1 0.286235 0.994184 0.315630
O O2 0.344420 0.980802 0.604368
O O3 0.359918 0.263029 0.522869
O O4 0.577626 0.030229 0.782627
O O5 0.928990 0.313726 0.569830
O O6 0.000000 0.500000 0.500000
O O7 0.963911 0.626811 0.633233
O O8 0.500000 0.500000 0.500000
O O9 0.331505 0.246175 0.192576
O O10 0.186358 0.512519 0.071832
O O11 0.877786 0.930379 0.208503
#
# Coordination Sequence:
#
# PCOD8127567 Si02
#       5
#     4   4   4   4   4
#     4  10  23  46  69 103 151 191 237 306 369 429
#     4  12  23  49  73 105 149 185 245 305 363 433
#     4  10  22  44  66 104 143 187 247 289 361 438
#     4  12  23  45  77 106 141 194 244 304 365 437
#     4  10  23  44  66 108 136 194 242 293 366 430
#
# _framework density 23.480253000000001
#
# number of rings (size 3 to 8) (size 9 to 14) (size 15 to 20)
#    1.200    0.000    6.000    1.200    0.000    4.000 
#    0.000    2.000    0.000    0.000    0.000    0.000 
#    0.000    0.000    0.000    0.000    0.000    0.000 
#
# Total GULP energy -247781.333009 kJ/mol
# GULP energy per Si atom -12389.066650 kJ/mol
# Density = 2.342681 g / cm^3
# Si number density = 23.480253 Si / 1000 Ang^3
#
#
#
# Elastic Constant Matrix: (Units=GPa)
#
#
# Indices 1 2 3 4 5 6 
#
# 1 84.4206 49.6732 51.5366 0.0000 21.3398 0.0000
# 2 49.6732 55.1204 33.1881 0.0000 9.1985 0.0000
# 3 51.5366 33.1881 184.2568 0.0000 26.2085 0.0000
# 4 0.0000 0.0000 0.0000 38.4133 0.0000 8.2719
# 5 21.3398 9.1985 26.2085 0.0000 53.3342 0.0000
# 6 0.0000 0.0000 0.0000 8.2719 0.0000 43.6607
#
#
#
# Elastic Compliance Matrix: (Units=1/GPa)
#
#
# Indices 1 2 3 4 5 6 
#
# 1 0.028868 -0.023175 -0.003038 0.000000 -0.006061 0.000000
# 2 -0.023175 0.039122 -0.000993 0.000000 0.003013 0.000000
# 3 -0.003038 -0.000993 0.006729 0.000000 -0.001920 0.000000
# 4 0.000000 0.000000 0.000000 0.027140 0.000000 -0.005142
# 5 -0.006061 0.003013 -0.001920 0.000000 0.021598 0.000000
# 6 0.000000 0.000000 0.000000 -0.005142 0.000000 0.023878
#
#
# Mechanical properties :
#
#
# Convention : Reuss Voigt Hill
#
# Bulk Modulus (GPa) = 49.24464 65.84374 57.54419
# Shear Modulus (GPa) = 23.97896 39.70830 31.84363
#
# Velocity S-wave (km/s) = 3.19915 4.11680 3.68664
# Velocity P-wave (km/s) = 5.88765 7.12043 6.53318
#
# Compressibility (1/GPa) = 0.02030678
#
# Stress axis : x y z
#
# Youngs Moduli (GPa) = 34.64019 25.56126 148.61192
#
# Poissons Ratio (x) = 0.59237 0.45151
# Poissons Ratio (y) = 0.80277 0.14761
# Poissons Ratio (z) = 0.10524 0.02539
#
# Static dielectric constant tensor:
#      x y z
#    x 4.245290 0.000000 0.013110 
#    y 0.000000 3.985630 0.000000 
#    z 0.013110 0.000000 4.566240 
# 
# 
# High freq. dielectric constant tensor:
#      x y z
#    x 1.923060 0.000000 0.015200 
#    y 0.000000 1.899830 0.000000 
#    z 0.015200 0.000000 1.941390 
# 
# From -- ./inp_files/51300.got.cif
#   From: 2010.03.12/outbox.cif.g09.slc.cpg/sg14_26_cif.got.tgz:51300.got - 2010.03.31 13:35:05.
