data_PCOD8127265
_publ_section_title
;
Structure prediction by ZEFSAII (Michael W. Deem and Ramdas Pophale) SiO2 
 PCOD8127265
Probable space group: P 21/C
;
_chemical_formula_sum "Si O2"
_cell_formula_units_Z 28
_cell_length_a 6.187955
_cell_length_b 10.642319
_cell_length_c 22.177828
_cell_angle_alpha 90.000000
_cell_angle_beta 118.631179
_cell_angle_gamma 90.000000
_cell_volume 1281.916061
_symmetry_space_group_name_H-M "P 21/C"
_symmetry_group_IT_number 14
_symmetry_cell_setting 'monoclinic'
loop_
_space_group_symop_operation_xyz
x,y,z
-x,1/2+y,1/2-z
-x,-y,-z
x,1/2-y,1/2+z
loop_
_atom_site_type_symbol
_atom_site_label
_atom_site_fract_x
_atom_site_fract_y
_atom_site_fract_z
Si Si1 0.184535 0.085947 0.603402
Si Si2 0.115839 0.171826 0.167279
Si Si3 0.727263 0.994891 0.162841
Si Si4 0.727855 0.911442 0.517190
Si Si5 0.385659 0.915350 0.723490
Si Si6 0.017946 0.226155 0.868982
Si Si7 0.804696 0.027146 0.923436
O O1 0.079071 0.190196 0.635021
O O2 0.292968 0.140003 0.554823
O O3 0.394887 0.007081 0.666708
O O4 0.971145 0.991481 0.557870
O O5 0.357973 0.161998 0.242231
O O6 0.867948 0.126013 0.167688
O O7 0.163659 0.083009 0.118570
O O8 0.652765 0.995970 0.223073
O O9 0.894541 0.875043 0.168910
O O10 0.476540 0.979892 0.089912
O O11 0.749324 0.795631 0.567406
O O12 0.500000 0.000000 0.500000
O O13 0.155765 0.821070 0.690269
O O14 0.857752 0.161805 0.900334
O O15 0.000000 0.000000 0.000000
#
# Coordination Sequence:
#
# PCOD8127265 Si02
#       7
#     4   4   4   4   4   4   4
#     4  10  23  41  63  92 130 168 212 273 325 387
#     4  10  23  39  63  93 128 170 213 270 322 394
#     4  10  24  40  63  99 124 174 222 265 330 396
#     4  10  23  43  65  97 124 170 221 265 330 386
#     4  10  24  40  61  94 130 174 214 266 336 386
#     4  10  23  41  65  93 130 171 217 276 323 393
#     4  10  22  41  62  92 127 165 216 271 332 381
#
# _framework density 21.842303000000001
#
# number of rings (size 3 to 8) (size 9 to 14) (size 15 to 20)
#    0.000    2.000    0.000    0.857    8.000   12.571 
#    0.000    0.000    0.000    0.000    0.000    0.000 
#    0.000    0.000    0.000    0.000    0.000    0.000 
#
# Total GULP energy -347096.817020 kJ/mol
# GULP energy per Si atom -12396.314894 kJ/mol
# Density = 2.179259 g / cm^3
# Si number density = 21.842303 Si / 1000 Ang^3
#
#
#
# Elastic Constant Matrix: (Units=GPa)
#
#
# Indices 1 2 3 4 5 6 
#
# 1 83.1329 6.8627 41.1843 0.0000 10.6911 0.0000
# 2 6.8627 78.1687 39.6725 0.0000 -2.7239 0.0000
# 3 41.1843 39.6725 126.4064 0.0000 13.5990 0.0000
# 4 0.0000 0.0000 0.0000 36.1907 0.0000 -1.7876
# 5 10.6911 -2.7239 13.5990 0.0000 25.0989 0.0000
# 6 0.0000 0.0000 0.0000 -1.7876 0.0000 24.6455
#
#
#
# Elastic Compliance Matrix: (Units=1/GPa)
#
#
# Indices 1 2 3 4 5 6 
#
# 1 0.014754 0.000976 -0.004724 0.000000 -0.003619 0.000000
# 2 0.000976 0.015776 -0.005743 0.000000 0.004408 0.000000
# 3 -0.004724 -0.005743 0.011791 0.000000 -0.004999 0.000000
# 4 0.000000 0.000000 0.000000 0.027731 0.000000 0.002011
# 5 -0.003619 0.004408 -0.004999 0.000000 0.044571 0.000000
# 6 0.000000 0.000000 0.000000 0.002011 0.000000 0.040721
#
#
# Mechanical properties :
#
#
# Convention : Reuss Voigt Hill
#
# Bulk Modulus (GPa) = 42.84929 51.46080 47.15505
# Shear Modulus (GPa) = 27.45665 30.51960 28.98812
#
# Velocity S-wave (km/s) = 3.54932 3.74206 3.64697
# Velocity P-wave (km/s) = 6.03797 6.50246 6.27452
#
# Compressibility (1/GPa) = 0.02333761
#
# Stress axis : x y z
#
# Youngs Moduli (GPa) = 67.77795 63.38862 84.81375
#
# Poissons Ratio (x) = -0.06188 0.40066
# Poissons Ratio (y) = -0.06616 0.48712
# Poissons Ratio (z) = 0.32018 0.36407
#
# Static dielectric constant tensor:
#      x y z
#    x 4.245640 0.000000 0.126470 
#    y 0.000000 4.086230 0.000000 
#    z 0.126470 0.000000 4.216450 
# 
# 
# High freq. dielectric constant tensor:
#      x y z
#    x 1.841990 0.000000 0.006710 
#    y 0.000000 1.860840 0.000000 
#    z 0.006710 0.000000 1.872080 
# 
# From -- ./inp_files/63552.got.cif
#   From: 2010.03.12/outbox.cif.g09.slc.cpg/sg14_32_cif.got.tgz:63552.got - 2010.03.31 13:35:05.
