data_PCOD8127237
_publ_section_title
;
Structure prediction by ZEFSAII (Michael W. Deem and Ramdas Pophale) SiO2 
 PCOD8127237
Probable space group: P 21/C
;
_chemical_formula_sum "Si O2"
_cell_formula_units_Z 32
_cell_length_a 19.155399
_cell_length_b 11.544785
_cell_length_c 15.115994
_cell_angle_alpha 90.000000
_cell_angle_beta 153.302504
_cell_angle_gamma 90.000000
_cell_volume 1501.864686
_symmetry_space_group_name_H-M "P 21/C"
_symmetry_group_IT_number 14
_symmetry_cell_setting 'monoclinic'
loop_
_space_group_symop_operation_xyz
x,y,z
-x,1/2+y,1/2-z
-x,-y,-z
x,1/2-y,1/2+z
loop_
_atom_site_type_symbol
_atom_site_label
_atom_site_fract_x
_atom_site_fract_y
_atom_site_fract_z
Si Si1 0.156821 0.720870 0.463121
Si Si2 0.363813 0.001035 0.953004
Si Si3 0.636893 0.828047 0.898151
Si Si4 0.828634 0.607138 0.115405
Si Si5 0.723615 0.042951 0.334471
Si Si6 0.685476 0.252483 0.027666
Si Si7 0.300979 0.976223 0.368775
Si Si8 0.663204 0.000780 0.784272
O O1 0.205726 0.828230 0.580350
O O2 0.165023 0.753276 0.367964
O O3 0.281471 0.619199 0.610295
O O4 0.989058 0.675821 0.300845
O O5 0.255598 0.004689 0.742694
O O6 0.364262 0.872789 0.994447
O O7 0.298106 0.095766 0.946755
O O8 0.539510 0.042007 0.138105
O O9 0.449980 0.819620 0.681318
O O10 0.710266 0.888260 0.894048
O O11 0.690597 0.697499 0.963973
O O12 0.810756 0.528974 0.182647
O O13 0.814745 0.534910 0.008955
O O14 0.718545 0.336266 0.148687
O O15 0.253614 0.015975 0.216714
O O16 0.478531 0.015638 0.578056
#
# Coordination Sequence:
#
# PCOD8127237 Si02
#       8
#     4   4   4   4   4   4   4   4
#     4  12  24  40  68  90 136 178 215 260 334 406
#     4  11  22  41  74  98 128 164 228 289 328 384
#     4  11  22  39  65  96 128 169 218 269 332 388
#     4  12  26  42  63  95 140 177 210 264 335 404
#     4  11  24  43  65 103 130 172 221 279 336 392
#     4  11  20  41  68  97 127 171 221 275 330 388
#     4  10  22  42  68  97 131 162 226 281 323 387
#     4  10  22  40  69  98 122 168 224 275 328 390
#
# _framework density 21.306846
#
# number of rings (size 3 to 8) (size 9 to 14) (size 15 to 20)
#    0.000    1.000    5.000    2.250    1.750    1.500 
#    0.000    5.000    0.000    0.000    0.000    0.000 
#    0.000    0.000    0.000    0.000    0.000    0.000 
#
# Total GULP energy -396675.875999 kJ/mol
# GULP energy per Si atom -12396.121125 kJ/mol
# Density = 2.125835 g / cm^3
# Si number density = 21.306846 Si / 1000 Ang^3
#
#
#
# Elastic Constant Matrix: (Units=GPa)
#
#
# Indices 1 2 3 4 5 6 
#
# 1 125.7431 26.9489 36.5615 0.0000 -16.3784 0.0000
# 2 26.9489 96.8469 16.5392 0.0000 -2.8656 0.0000
# 3 36.5615 16.5392 46.2146 0.0000 1.7321 0.0000
# 4 0.0000 0.0000 0.0000 22.7304 0.0000 1.8997
# 5 -16.3784 -2.8656 1.7321 0.0000 32.1597 0.0000
# 6 0.0000 0.0000 0.0000 1.8997 0.0000 31.7704
#
#
#
# Elastic Compliance Matrix: (Units=1/GPa)
#
#
# Indices 1 2 3 4 5 6 
#
# 1 0.011706 -0.001543 -0.008945 0.000000 0.006306 0.000000
# 2 -0.001543 0.011247 -0.002818 0.000000 0.000368 0.000000
# 3 -0.008945 -0.002818 0.029964 0.000000 -0.006420 0.000000
# 4 0.000000 0.000000 0.000000 0.044215 0.000000 -0.002644
# 5 0.006306 0.000368 -0.006420 0.000000 0.034685 0.000000
# 6 0.000000 0.000000 0.000000 -0.002644 0.000000 0.031634
#
#
# Mechanical properties :
#
#
# Convention : Reuss Voigt Hill
#
# Bulk Modulus (GPa) = 38.01607 47.65595 42.83601
# Shear Modulus (GPa) = 25.14712 29.91578 27.53145
#
# Velocity S-wave (km/s) = 3.43918 3.75112 3.59854
# Velocity P-wave (km/s) = 5.80100 6.41688 6.11669
#
# Compressibility (1/GPa) = 0.02630467
#
# Stress axis : x y z
#
# Youngs Moduli (GPa) = 85.42958 88.91162 33.37372
#
# Poissons Ratio (x) = 0.13720 0.29852
# Poissons Ratio (y) = 0.13183 0.09405
# Poissons Ratio (z) = 0.76414 0.25056
#
# Static dielectric constant tensor:
#      x y z
#    x 4.105180 0.000000 -0.323930 
#    y 0.000000 3.916580 0.000000 
#    z -0.323930 0.000000 3.575600 
# 
# 
# High freq. dielectric constant tensor:
#      x y z
#    x 1.844790 0.000000 -0.013490 
#    y 0.000000 1.849510 0.000000 
#    z -0.013490 0.000000 1.802570 
# 
# From -- ./inp_files/49029.got.cif
#   From: 2010.03.12/outbox.cif.g09.slc.cpg/sg14_25_cif.got.tgz:49029.got - 2010.03.31 13:35:05.
