data_PCOD8127521
_publ_section_title
;
Structure prediction by ZEFSAII (Michael W. Deem and Ramdas Pophale) SiO2 
 PCOD8127521
Probable space group: P 21/C
;
_chemical_formula_sum "Si O2"
_cell_formula_units_Z 20
_cell_length_a 7.349971
_cell_length_b 11.317189
_cell_length_c 11.878725
_cell_angle_alpha 90.000000
_cell_angle_beta 66.318219
_cell_angle_gamma 90.000000
_cell_volume 904.878126
_symmetry_space_group_name_H-M "P 21/C"
_symmetry_group_IT_number 14
_symmetry_cell_setting 'monoclinic'
loop_
_space_group_symop_operation_xyz
x,y,z
-x,1/2+y,1/2-z
-x,-y,-z
x,1/2-y,1/2+z
loop_
_atom_site_type_symbol
_atom_site_label
_atom_site_fract_x
_atom_site_fract_y
_atom_site_fract_z
Si Si1 0.192439 0.723717 0.627588
Si Si2 0.230762 0.187115 0.692807
Si Si3 0.505870 0.893335 0.912960
Si Si4 0.728882 0.024467 0.459477
Si Si5 0.394620 0.579707 0.778351
O O1 0.302716 0.681373 0.484719
O O2 0.212384 0.864651 0.632560
O O3 0.290255 0.660276 0.710713
O O4 0.957969 0.699723 0.678620
O O5 0.300241 0.309635 0.616057
O O6 0.417107 0.150469 0.722391
O O7 0.163182 0.092814 0.614017
O O8 0.523070 0.953194 0.786293
O O9 0.500000 0.000000 0.000000
O O10 0.766083 0.049404 0.583141
O O11 0.500000 0.000000 0.500000
#
# Coordination Sequence:
#
# PCOD8127521 Si02
#       5
#     4   4   4   4   4
#     4  11  24  45  66  99 134 171 227 276 330 400
#     4  11  25  43  69 100 132 175 226 272 330 398
#     4  10  23  44  65  98 134 173 221 277 325 398
#     4  10  22  43  68  97 134 174 220 277 326 397
#     4  10  24  44  71  92 139 176 219 277 339 383
#
# _framework density 22.102425
#
# number of rings (size 3 to 8) (size 9 to 14) (size 15 to 20)
#    0.000    1.600    4.000    0.000   11.200    1.600 
#    7.200    0.000    0.000    0.000    0.000    0.000 
#    0.000    0.000    0.000    0.000    0.000    0.000 
#
# Total GULP energy -247852.543352 kJ/mol
# GULP energy per Si atom -12392.627168 kJ/mol
# Density = 2.205212 g / cm^3
# Si number density = 22.102425 Si / 1000 Ang^3
#
#
#
# Elastic Constant Matrix: (Units=GPa)
#
#
# Indices 1 2 3 4 5 6 
#
# 1 58.9256 28.2264 38.8046 0.0000 -11.0083 0.0000
# 2 28.2264 156.2112 62.8618 0.0000 -5.3321 0.0000
# 3 38.8046 62.8618 123.4820 0.0000 -18.1601 0.0000
# 4 0.0000 0.0000 0.0000 44.6088 0.0000 1.8638
# 5 -11.0083 -5.3321 -18.1601 0.0000 44.9831 0.0000
# 6 0.0000 0.0000 0.0000 1.8638 0.0000 16.6116
#
#
#
# Elastic Compliance Matrix: (Units=1/GPa)
#
#
# Indices 1 2 3 4 5 6 
#
# 1 0.022018 -0.001593 -0.005681 0.000000 0.002906 0.000000
# 2 -0.001593 0.008190 -0.003809 0.000000 -0.000957 0.000000
# 3 -0.005681 -0.003809 0.012281 0.000000 0.003116 0.000000
# 4 0.000000 0.000000 0.000000 0.022523 0.000000 -0.002527
# 5 0.002906 -0.000957 0.003116 0.000000 0.024086 0.000000
# 6 0.000000 0.000000 0.000000 -0.002527 0.000000 0.060482
#
#
# Mechanical properties :
#
#
# Convention : Reuss Voigt Hill
#
# Bulk Modulus (GPa) = 49.20776 66.48938 57.84857
# Shear Modulus (GPa) = 28.00810 35.15578 31.58194
#
# Velocity S-wave (km/s) = 3.56363 3.99254 3.78417
# Velocity P-wave (km/s) = 6.26454 7.16949 6.73224
#
# Compressibility (1/GPa) = 0.02032200
#
# Stress axis : x y z
#
# Youngs Moduli (GPa) = 45.41834 122.10441 81.42671
#
# Poissons Ratio (x) = 0.19455 0.46255
# Poissons Ratio (y) = 0.07236 0.31017
# Poissons Ratio (z) = 0.25800 0.46512
#
# Static dielectric constant tensor:
#      x y z
#    x 3.548510 0.000000 0.023830 
#    y 0.000000 4.733040 0.000000 
#    z 0.023830 0.000000 5.159580 
# 
# 
# High freq. dielectric constant tensor:
#      x y z
#    x 1.829000 0.000000 -0.015420 
#    y 0.000000 1.895510 0.000000 
#    z -0.015420 0.000000 1.883140 
# 
# From -- ./inp_files/23760.got.cif
#   From: 2010.03.12/outbox.cif.g09.slc.cpg/sg14_12_cif.got.tgz:23760.got - 2010.03.31 13:35:05.
