data_PCOD8127014
_publ_section_title
;
Structure prediction by ZEFSAII (Michael W. Deem and Ramdas Pophale) SiO2 
 PCOD8127014
Probable space group: P 21/C
;
_chemical_formula_sum "Si O2"
_cell_formula_units_Z 28
_cell_length_a 7.824778
_cell_length_b 7.099557
_cell_length_c 23.774318
_cell_angle_alpha 90.000000
_cell_angle_beta 69.693448
_cell_angle_gamma 90.000000
_cell_volume 1238.637945
_symmetry_space_group_name_H-M "P 21/C"
_symmetry_group_IT_number 14
_symmetry_cell_setting 'monoclinic'
loop_
_space_group_symop_operation_xyz
x,y,z
-x,1/2+y,1/2-z
-x,-y,-z
x,1/2-y,1/2+z
loop_
_atom_site_type_symbol
_atom_site_label
_atom_site_fract_x
_atom_site_fract_y
_atom_site_fract_z
Si Si1 0.457505 0.067824 0.305028
Si Si2 0.791812 0.397582 0.565280
Si Si3 0.940614 0.302413 0.437746
Si Si4 0.825460 0.969482 0.300650
Si Si5 0.060326 0.584639 0.876036
Si Si6 0.481152 0.994886 0.177126
Si Si7 0.110253 0.897201 0.178743
O O1 0.607386 0.931388 0.319196
O O2 0.519098 0.088314 0.233070
O O3 0.459613 0.275889 0.330863
O O4 0.258700 0.977052 0.330945
O O5 0.877489 0.607390 0.555622
O O6 0.926318 0.260509 0.584510
O O7 0.594188 0.398333 0.616048
O O8 0.778104 0.323149 0.502376
O O9 0.897642 0.424307 0.387160
O O10 0.968801 0.083868 0.421237
O O11 0.840413 0.184544 0.315037
O O12 0.932226 0.853257 0.337394
O O13 0.916412 0.940692 0.229193
O O14 0.268197 0.028498 0.186887
#
# Coordination Sequence:
#
# PCOD8127014 Si02
#       7
#     4   4   4   4   4   4   4
#     4  11  22  38  61  95 133 160 203 270 319 376
#     4  11  23  40  67  90 121 171 216 250 312 374
#     4  10  23  43  63  89 126 169 210 262 302 373
#     4  10  23  36  61  94 125 160 204 260 324 375
#     4  11  22  43  65  93 125 165 209 261 319 371
#     4  11  22  38  60  94 129 163 211 260 318 381
#     4  10  22  38  60  89 131 161 206 264 316 376
#
# _framework density 22.605475999999999
#
# number of rings (size 3 to 8) (size 9 to 14) (size 15 to 20)
#    0.000    1.429    2.857    2.143    6.000    1.714 
#    0.000    0.000    0.000    3.429    0.000    0.000 
#    0.000    0.000    0.000    0.000    0.000    0.000 
#
# Total GULP energy -347204.519772 kJ/mol
# GULP energy per Si atom -12400.161420 kJ/mol
# Density = 2.255402 g / cm^3
# Si number density = 22.605476 Si / 1000 Ang^3
#
#
#
# Elastic Constant Matrix: (Units=GPa)
#
#
# Indices 1 2 3 4 5 6 
#
# 1 93.0063 5.3670 26.4832 0.0000 9.1310 0.0000
# 2 5.3670 23.2685 16.3470 0.0000 4.8946 0.0000
# 3 26.4832 16.3470 151.4077 0.0000 9.2790 0.0000
# 4 0.0000 0.0000 0.0000 33.0516 0.0000 -2.9126
# 5 9.1310 4.8946 9.2790 0.0000 27.6731 0.0000
# 6 0.0000 0.0000 0.0000 -2.9126 0.0000 -96.1839
#
#
#
# Elastic Compliance Matrix: (Units=1/GPa)
#
#
# Indices 1 2 3 4 5 6 
#
# 1 0.011601 -0.000792 -0.001754 0.000000 -0.003100 0.000000
# 2 -0.000792 0.047799 -0.004615 0.000000 -0.006646 0.000000
# 3 -0.001754 -0.004615 0.007478 0.000000 -0.001112 0.000000
# 4 0.000000 0.000000 0.000000 0.030175 0.000000 -0.000914
# 5 -0.003100 -0.006646 -0.001112 0.000000 0.038707 0.000000
# 6 0.000000 0.000000 0.000000 -0.000914 0.000000 -0.010369
#
#
# Mechanical properties :
#
#
# Convention : Reuss Voigt Hill
#
# Bulk Modulus (GPa) = 19.02677 40.45298 29.73987
# Shear Modulus (GPa) = 31.80010 7.54050 19.67030
#
# Velocity S-wave (km/s) = 3.75473 1.82837 2.95304
# Velocity P-wave (km/s) = 5.21847 4.73195 4.98115
#
# Compressibility (1/GPa) = 0.05255754
#
# Stress axis : x y z
#
# Youngs Moduli (GPa) = 86.19679 20.92085 133.72781
#
# Poissons Ratio (x) = 0.01656 0.23453
# Poissons Ratio (y) = 0.06825 0.61715
# Poissons Ratio (z) = 0.15117 0.09655
#
# Static dielectric constant tensor:
#      x y z
#    x 4.410570 0.000000 0.172300 
#    y 0.000000 4.038890 0.000000 
#    z 0.172300 0.000000 4.751410 
# 
# 
# High freq. dielectric constant tensor:
#      x y z
#    x 1.880410 0.000000 0.003850 
#    y 0.000000 1.900760 0.000000 
#    z 0.003850 0.000000 1.884550 
# 
# From -- ./inp_files/71751.got.cif
#   From: 2010.03.12/outbox.cif.g09.slc.cpg/sg14_36_cif.got.tgz:71751.got - 2010.03.31 13:35:05.
