data_PCOD8127503
_publ_section_title
;
Structure prediction by ZEFSAII (Michael W. Deem and Ramdas Pophale) SiO2 
 PCOD8127503
Probable space group: P 21/C
;
_chemical_formula_sum "Si O2"
_cell_formula_units_Z 32
_cell_length_a 18.588031
_cell_length_b 11.450178
_cell_length_c 14.951426
_cell_angle_alpha 90.000000
_cell_angle_beta 151.563399
_cell_angle_gamma 90.000000
_cell_volume 1515.321900
_symmetry_space_group_name_H-M "P 21/C"
_symmetry_group_IT_number 14
_symmetry_cell_setting 'monoclinic'
loop_
_space_group_symop_operation_xyz
x,y,z
-x,1/2+y,1/2-z
-x,-y,-z
x,1/2-y,1/2+z
loop_
_atom_site_type_symbol
_atom_site_label
_atom_site_fract_x
_atom_site_fract_y
_atom_site_fract_z
Si Si1 0.147031 0.165889 0.411404
Si Si2 0.729034 0.491808 0.821508
Si Si3 0.648901 0.228341 0.462487
Si Si4 0.843964 0.023496 0.722620
Si Si5 0.811550 0.484560 0.383525
Si Si6 0.611501 0.028704 0.000288
Si Si7 0.657346 0.893602 0.876460
Si Si8 0.175242 0.743990 0.509417
O O1 0.253570 0.274957 0.515381
O O2 0.976376 0.208630 0.210684
O O3 0.175179 0.103686 0.538515
O O4 0.206949 0.071210 0.405385
O O5 0.560756 0.485002 0.679087
O O6 0.712710 0.505085 0.696798
O O7 0.823769 0.376155 0.952510
O O8 0.797986 0.155198 0.649283
O O9 0.612647 0.331117 0.492306
O O10 0.518248 0.133069 0.320622
O O11 0.681533 0.278951 0.399132
O O12 0.769409 0.984653 0.735523
O O13 0.023328 0.034530 0.918401
O O14 0.697864 0.542064 0.328939
O O15 0.807988 0.343841 0.389054
O O16 0.690637 0.972264 0.000027
#
# Coordination Sequence:
#
# PCOD8127503 Si02
#       8
#     4   4   4   4   4   4   4   4
#     4  11  24  41  66  96 130 177 219 266 337 396
#     4  11  23  45  65  98 136 175 217 281 335 394
#     4  12  22  41  67  96 129 175 218 273 336 394
#     4  10  22  43  67  92 131 168 217 279 329 391
#     4  10  23  42  66  98 126 170 223 270 335 401
#     4  11  24  42  68  99 134 173 224 275 338 399
#     4  12  24  40  64  96 132 170 222 269 329 401
#     4  11  22  40  71  91 132 175 219 271 336 392
#
# _framework density 21.117625
#
# number of rings (size 3 to 8) (size 9 to 14) (size 15 to 20)
#    0.000    1.000    5.000    1.500    1.750    1.500 
#    0.000    3.750    0.000    0.000    0.000    0.000 
#    0.000    0.000    0.000    0.000    0.000    0.000 
#
# Total GULP energy -396808.989214 kJ/mol
# GULP energy per Si atom -12400.280913 kJ/mol
# Density = 2.106956 g / cm^3
# Si number density = 21.117625 Si / 1000 Ang^3
#
#
#
# Elastic Constant Matrix: (Units=GPa)
#
#
# Indices 1 2 3 4 5 6 
#
# 1 120.5241 35.8726 34.9016 0.0000 -8.5111 0.0000
# 2 35.8726 122.6571 46.4227 0.0000 -3.5427 0.0000
# 3 34.9016 46.4227 75.5683 0.0000 -6.2720 0.0000
# 4 0.0000 0.0000 0.0000 36.2833 0.0000 8.0527
# 5 -8.5111 -3.5427 -6.2720 0.0000 30.3052 0.0000
# 6 0.0000 0.0000 0.0000 8.0527 0.0000 32.2570
#
#
#
# Elastic Compliance Matrix: (Units=1/GPa)
#
#
# Indices 1 2 3 4 5 6 
#
# 1 0.009890 -0.001522 -0.003476 0.000000 0.001880 0.000000
# 2 -0.001522 0.010857 -0.006000 0.000000 -0.000400 0.000000
# 3 -0.003476 -0.006000 0.018707 0.000000 0.002194 0.000000
# 4 0.000000 0.000000 0.000000 0.029177 0.000000 -0.007284
# 5 0.001880 -0.000400 0.002194 0.000000 0.033933 0.000000
# 6 0.000000 0.000000 0.000000 -0.007284 0.000000 0.032819
#
#
# Mechanical properties :
#
#
# Convention : Reuss Voigt Hill
#
# Bulk Modulus (GPa) = 57.28586 61.46036 59.37311
# Shear Modulus (GPa) = 30.63743 33.20597 31.92170
#
# Velocity S-wave (km/s) = 3.81307 3.96969 3.89217
# Velocity P-wave (km/s) = 6.82436 7.08366 6.95522
#
# Compressibility (1/GPa) = 0.01745631
#
# Stress axis : x y z
#
# Youngs Moduli (GPa) = 101.11577 92.10402 53.45724
#
# Poissons Ratio (x) = 0.14021 0.18584
# Poissons Ratio (y) = 0.15393 0.32074
# Poissons Ratio (z) = 0.35151 0.55261
#
# Static dielectric constant tensor:
#      x y z
#    x 3.990730 0.000000 -0.068390 
#    y 0.000000 3.854610 0.000000 
#    z -0.068390 0.000000 3.835110 
# 
# 
# High freq. dielectric constant tensor:
#      x y z
#    x 1.830760 0.000000 -0.004330 
#    y 0.000000 1.837720 0.000000 
#    z -0.004330 0.000000 1.820630 
# 
# From -- ./inp_files/49053.got.cif
#   From: 2010.03.12/outbox.cif.g09.slc.cpg/sg14_25_cif.got.tgz:49053.got - 2010.03.31 13:35:05.
