data_PCOD8127183
_publ_section_title
;
Structure prediction by ZEFSAII (Michael W. Deem and Ramdas Pophale) SiO2 
 PCOD8127183
Probable space group: P 21/C
;
_chemical_formula_sum "Si O2"
_cell_formula_units_Z 28
_cell_length_a 8.124284
_cell_length_b 8.811918
_cell_length_c 25.634019
_cell_angle_alpha 90.000000
_cell_angle_beta 134.352876
_cell_angle_gamma 90.000000
_cell_volume 1312.222181
_symmetry_space_group_name_H-M "P 21/C"
_symmetry_group_IT_number 14
_symmetry_cell_setting 'monoclinic'
loop_
_space_group_symop_operation_xyz
x,y,z
-x,1/2+y,1/2-z
-x,-y,-z
x,1/2-y,1/2+z
loop_
_atom_site_type_symbol
_atom_site_label
_atom_site_fract_x
_atom_site_fract_y
_atom_site_fract_z
Si Si1 0.751573 0.062130 0.263687
Si Si2 0.796743 0.182309 0.903295
Si Si3 0.691663 0.756402 0.478134
Si Si4 0.248145 0.190193 0.393746
Si Si5 0.417102 0.015971 0.881565
Si Si6 0.454144 0.519527 0.124767
Si Si7 0.554830 0.140344 0.746549
O O1 0.758271 0.018790 0.204484
O O2 0.543807 0.182849 0.227638
O O3 0.982902 0.143509 0.332837
O O4 0.694151 0.911637 0.285078
O O5 0.722978 0.358685 0.891047
O O6 0.744676 0.116927 0.834003
O O7 0.656575 0.087157 0.914714
O O8 0.067286 0.167192 0.973283
O O9 0.664315 0.838233 0.528106
O O10 0.480513 0.638077 0.425938
O O11 0.686977 0.880799 0.431402
O O12 0.281641 0.368371 0.388957
O O13 0.382014 0.087107 0.382801
O O14 0.611189 0.458933 0.207477
#
# Coordination Sequence:
#
# PCOD8127183 Si02
#       7
#     4   4   4   4   4   4   4
#     4  11  23  41  66  89 121 160 203 258 306 357
#     4  10  22  40  63  92 121 156 200 259 302 354
#     4  12  21  40  63  85 124 165 204 240 301 363
#     4  11  25  42  58  90 128 162 197 251 311 358
#     4  10  24  40  63  91 123 156 205 249 305 368
#     4  11  23  39  62  91 124 159 204 251 299 370
#     4  11  20  42  62  91 118 156 208 256 298 358
#
# _framework density 21.337848999999999
#
# number of rings (size 3 to 8) (size 9 to 14) (size 15 to 20)
#    0.000    1.143    4.286    1.714    2.000    0.000 
#    0.000    1.429    0.000    0.000    0.000    0.000 
#    0.000    0.000    0.000    0.000    0.000    0.000 
#
# Total GULP energy -347185.483422 kJ/mol
# GULP energy per Si atom -12399.481551 kJ/mol
# Density = 2.128928 g / cm^3
# Si number density = 21.337849 Si / 1000 Ang^3
#
#
#
# Elastic Constant Matrix: (Units=GPa)
#
#
# Indices 1 2 3 4 5 6 
#
# 1 74.5254 16.3388 40.9616 0.0000 -9.7574 0.0000
# 2 16.3388 75.2767 48.9339 0.0000 -3.6007 0.0000
# 3 40.9616 48.9339 108.0515 0.0000 -20.0005 0.0000
# 4 0.0000 0.0000 0.0000 38.4087 0.0000 -4.9686
# 5 -9.7574 -3.6007 -20.0005 0.0000 28.8833 0.0000
# 6 0.0000 0.0000 0.0000 -4.9686 0.0000 35.7955
#
#
#
# Elastic Compliance Matrix: (Units=1/GPa)
#
#
# Indices 1 2 3 4 5 6 
#
# 1 0.017021 0.000570 -0.006462 0.000000 0.001347 0.000000
# 2 0.000570 0.019275 -0.009709 0.000000 -0.004128 0.000000
# 3 -0.006462 -0.009709 0.017748 0.000000 0.008897 0.000000
# 4 0.000000 0.000000 0.000000 0.026512 0.000000 0.003680
# 5 0.001347 -0.004128 0.008897 0.000000 0.040723 0.000000
# 6 0.000000 0.000000 0.000000 0.003680 0.000000 0.028447
#
#
# Mechanical properties :
#
#
# Convention : Reuss Voigt Hill
#
# Bulk Modulus (GPa) = 43.77717 52.25802 48.01759
# Shear Modulus (GPa) = 26.51939 30.72547 28.62243
#
# Velocity S-wave (km/s) = 3.52921 3.79879 3.66648
# Velocity P-wave (km/s) = 6.09654 6.61702 6.36211
#
# Compressibility (1/GPa) = 0.02284296
#
# Stress axis : x y z
#
# Youngs Moduli (GPa) = 58.75097 51.88160 56.34352
#
# Poissons Ratio (x) = -0.02959 0.36407
# Poissons Ratio (y) = -0.03351 0.54706
# Poissons Ratio (z) = 0.37962 0.50373
#
# Static dielectric constant tensor:
#      x y z
#    x 3.752590 0.000000 -0.258160 
#    y 0.000000 4.036910 0.000000 
#    z -0.258160 0.000000 3.787530 
# 
# 
# High freq. dielectric constant tensor:
#      x y z
#    x 1.828410 0.000000 -0.025870 
#    y 0.000000 1.842530 0.000000 
#    z -0.025870 0.000000 1.833590 
# 
# From -- ./inp_files/54805.got.cif
#   From: 2010.03.12/outbox.cif.g09.slc.cpg/sg14_28_cif.got.tgz:54805.got - 2010.03.31 13:35:05.
