data_PCOD8127565
_publ_section_title
;
Structure prediction by ZEFSAII (Michael W. Deem and Ramdas Pophale) SiO2 
 PCOD8127565
Probable space group: P 21/C
;
_chemical_formula_sum "Si O2"
_cell_formula_units_Z 28
_cell_length_a 12.191525
_cell_length_b 7.957012
_cell_length_c 20.859749
_cell_angle_alpha 90.000000
_cell_angle_beta 142.714668
_cell_angle_gamma 90.000000
_cell_volume 1225.844691
_symmetry_space_group_name_H-M "P 21/C"
_symmetry_group_IT_number 14
_symmetry_cell_setting 'monoclinic'
loop_
_space_group_symop_operation_xyz
x,y,z
-x,1/2+y,1/2-z
-x,-y,-z
x,1/2-y,1/2+z
loop_
_atom_site_type_symbol
_atom_site_label
_atom_site_fract_x
_atom_site_fract_y
_atom_site_fract_z
Si Si1 0.215948 0.465742 0.861047
Si Si2 0.598439 0.392627 0.358549
Si Si3 0.041858 0.217051 0.695908
Si Si4 0.019084 0.684196 0.478130
Si Si5 0.501626 0.157250 0.586473
Si Si6 0.326962 0.218610 0.630537
Si Si7 0.411694 0.021157 0.890034
O O1 0.048984 0.370271 0.750062
O O2 0.343952 0.528065 0.862514
O O3 0.139886 0.611903 0.872076
O O4 0.339960 0.336169 0.959070
O O5 0.767543 0.271306 0.418368
O O6 0.646550 0.584486 0.367082
O O7 0.421656 0.337248 0.239249
O O8 0.553565 0.371644 0.413101
O O9 0.215328 0.102298 0.792279
O O10 0.038621 0.297355 0.623538
O O11 0.000000 0.500000 0.500000
O O12 0.890467 0.809342 0.459855
O O13 0.405801 0.106623 0.609134
O O14 0.601734 0.333517 0.644278
O O15 0.500000 0.000000 0.000000
#
# Coordination Sequence:
#
# PCOD8127565 Si02
#       7
#     4   4   4   4   4   4   4
#     4  11  26  42  68 102 136 185 236 296 364 433
#     4  10  23  41  69  96 139 180 230 291 352 425
#     4  12  25  43  71 103 143 182 241 300 359 434
#     4  10  24  43  67 103 136 185 235 288 362 435
#     4  10  24  45  67  98 139 183 234 296 361 431
#     4  10  22  44  66 100 132 182 233 289 356 420
#     4  11  22  43  70  99 140 187 239 296 363 426
#
# _framework density 22.841394000000001
#
# number of rings (size 3 to 8) (size 9 to 14) (size 15 to 20)
#    0.000    1.429    2.857    0.857    8.000    2.286 
#    5.143    1.429    0.000    0.000    0.000    0.000 
#    0.000    0.000    0.000    0.000    0.000    0.000 
#
# Total GULP energy -346948.227234 kJ/mol
# GULP energy per Si atom -12391.008116 kJ/mol
# Density = 2.278941 g / cm^3
# Si number density = 22.841394 Si / 1000 Ang^3
#
#
#
# Elastic Constant Matrix: (Units=GPa)
#
#
# Indices 1 2 3 4 5 6 
#
# 1 172.6256 42.8114 49.8825 0.0000 -0.6804 0.0000
# 2 42.8114 44.4196 33.3963 0.0000 -0.6924 0.0000
# 3 49.8825 33.3963 81.2789 0.0000 0.4545 0.0000
# 4 0.0000 0.0000 0.0000 38.5964 0.0000 -0.5349
# 5 -0.6804 -0.6924 0.4545 0.0000 41.0200 0.0000
# 6 0.0000 0.0000 0.0000 -0.5349 0.0000 24.2592
#
#
#
# Elastic Compliance Matrix: (Units=1/GPa)
#
#
# Indices 1 2 3 4 5 6 
#
# 1 0.007950 -0.005777 -0.002506 0.000000 0.000062 0.000000
# 2 -0.005777 0.036794 -0.011576 0.000000 0.000653 0.000000
# 3 -0.002506 -0.011576 0.018600 0.000000 -0.000443 0.000000
# 4 0.000000 0.000000 0.000000 0.025917 0.000000 0.000571
# 5 0.000062 0.000653 -0.000443 0.000000 0.024395 0.000000
# 6 0.000000 0.000000 0.000000 0.000571 0.000000 0.041234
#
#
# Mechanical properties :
#
#
# Convention : Reuss Voigt Hill
#
# Bulk Modulus (GPa) = 42.32623 61.16717 51.74670
# Shear Modulus (GPa) = 24.69326 32.25738 28.47532
#
# Velocity S-wave (km/s) = 3.29154 3.76205 3.53463
# Velocity P-wave (km/s) = 5.74599 6.76076 6.27392
#
# Compressibility (1/GPa) = 0.02362601
#
# Stress axis : x y z
#
# Youngs Moduli (GPa) = 125.78717 27.17807 53.76346
#
# Poissons Ratio (x) = 0.15702 0.13471
# Poissons Ratio (y) = 0.72672 0.62238
# Poissons Ratio (z) = 0.31517 0.31462
#
# Static dielectric constant tensor:
#      x y z
#    x 4.827680 0.000000 0.340470 
#    y 0.000000 4.042040 0.000000 
#    z 0.340470 0.000000 4.460360 
# 
# 
# High freq. dielectric constant tensor:
#      x y z
#    x 1.927080 0.000000 0.005810 
#    y 0.000000 1.886950 0.000000 
#    z 0.005810 0.000000 1.893570 
# 
# From -- ./inp_files/67092.got.cif
#   From: 2010.03.12/outbox.cif.g09.slc.cpg/sg14_34_cif.got.tgz:67092.got - 2010.03.31 13:35:05.
