data_PCOD8127586
_publ_section_title
;
Structure prediction by ZEFSAII (Michael W. Deem and Ramdas Pophale) SiO2 
 PCOD8127586
Probable space group: P 21/C
;
_chemical_formula_sum "Si O2"
_cell_formula_units_Z 20
_cell_length_a 6.347673
_cell_length_b 9.646435
_cell_length_c 13.760738
_cell_angle_alpha 90.000000
_cell_angle_beta 96.206602
_cell_angle_gamma 90.000000
_cell_volume 837.664312
_symmetry_space_group_name_H-M "P 21/C"
_symmetry_group_IT_number 14
_symmetry_cell_setting 'monoclinic'
loop_
_space_group_symop_operation_xyz
x,y,z
-x,1/2+y,1/2-z
-x,-y,-z
x,1/2-y,1/2+z
loop_
_atom_site_type_symbol
_atom_site_label
_atom_site_fract_x
_atom_site_fract_y
_atom_site_fract_z
Si Si1 0.608340 0.861503 0.740845
Si Si2 0.679751 0.205911 0.530860
Si Si3 0.993453 0.809550 0.289019
Si Si4 0.667568 0.958626 0.403337
Si Si5 0.329484 0.878314 0.158648
O O1 0.854584 0.819787 0.743944
O O2 0.469828 0.721526 0.736200
O O3 0.536402 0.955248 0.646806
O O4 0.580462 0.963509 0.833797
O O5 0.436598 0.180881 0.555972
O O6 0.678489 0.330162 0.452568
O O7 0.836709 0.248598 0.625110
O O8 0.769181 0.062896 0.487527
O O9 0.841681 0.923412 0.331823
O O10 0.099933 0.877853 0.199447
#
# Coordination Sequence:
#
# PCOD8127586 Si02
#       5
#     4   4   4   4   4
#     4  11  23  43  67  98 141 180 219 281 344 399
#     4  10  23  42  69 101 132 181 231 279 337 407
#     4  12  23  42  69 103 135 175 235 279 335 413
#     4  10  22  44  68  98 139 182 229 275 337 407
#     4  11  26  43  71 101 137 185 222 285 343 404
#
# _framework density 23.875913000000001
#
# number of rings (size 3 to 8) (size 9 to 14) (size 15 to 20)
#    0.000    1.200    4.000    0.600    5.600    5.600 
#    0.000    4.000    0.000    0.000    0.000    0.000 
#    0.000    0.000    0.000    0.000    0.000    0.000 
#
# Total GULP energy -247850.589753 kJ/mol
# GULP energy per Si atom -12392.529488 kJ/mol
# Density = 2.382157 g / cm^3
# Si number density = 23.875913 Si / 1000 Ang^3
#
#
#
# Elastic Constant Matrix: (Units=GPa)
#
#
# Indices 1 2 3 4 5 6 
#
# 1 71.9038 6.7490 13.9878 0.0000 -4.7591 0.0000
# 2 6.7490 68.0518 -19.4278 0.0000 11.7559 0.0000
# 3 13.9878 -19.4278 49.8176 0.0000 8.0000 0.0000
# 4 0.0000 0.0000 0.0000 40.7897 0.0000 4.4585
# 5 -4.7591 11.7559 8.0000 0.0000 37.1664 0.0000
# 6 0.0000 0.0000 0.0000 4.4585 0.0000 33.4820
#
#
#
# Elastic Compliance Matrix: (Units=1/GPa)
#
#
# Indices 1 2 3 4 5 6 
#
# 1 0.016024 -0.004458 -0.007037 0.000000 0.004977 0.000000
# 2 -0.004458 0.019654 0.010364 0.000000 -0.009018 0.000000
# 3 -0.007037 0.010364 0.027720 0.000000 -0.010146 0.000000
# 4 0.000000 0.000000 0.000000 0.024878 0.000000 -0.003313
# 5 0.004977 -0.009018 -0.010146 0.000000 0.032580 0.000000
# 6 0.000000 0.000000 0.000000 -0.003313 0.000000 0.030308
#
#
# Mechanical properties :
#
#
# Convention : Reuss Voigt Hill
#
# Bulk Modulus (GPa) = 16.35662 21.37680 18.86671
# Shear Modulus (GPa) = 28.76807 34.85190 31.80998
#
# Velocity S-wave (km/s) = 3.47493 3.82476 3.65403
# Velocity P-wave (km/s) = 4.79226 5.33646 5.07166
#
# Compressibility (1/GPa) = 0.06113733
#
# Stress axis : x y z
#
# Youngs Moduli (GPa) = 62.40559 50.88129 36.07460
#
# Poissons Ratio (x) = 0.22682 0.25386
# Poissons Ratio (y) = 0.27820 -0.37389
# Poissons Ratio (z) = 0.43914 -0.52735
#
# Static dielectric constant tensor:
#      x y z
#    x 4.236220 0.000000 0.170440 
#    y 0.000000 4.364370 0.000000 
#    z 0.170440 0.000000 4.206890 
# 
# 
# High freq. dielectric constant tensor:
#      x y z
#    x 1.937970 0.000000 0.004420 
#    y 0.000000 1.942060 0.000000 
#    z 0.004420 0.000000 1.942780 
# 
# From -- ./inp_files/36816.got.cif
#   From: 2010.03.12/outbox.cif.g09.slc.cpg/sg14_19_cif.got.tgz:36816.got - 2010.03.31 13:35:05.
