data_PCOD8127966
_publ_section_title
;
Structure prediction by ZEFSAII (Michael W. Deem and Ramdas Pophale) SiO2 
 PCOD8127966
Probable space group: P 21/C
;
_chemical_formula_sum "Si O2"
_cell_formula_units_Z 28
_cell_length_a 5.124739
_cell_length_b 23.382560
_cell_length_c 10.393929
_cell_angle_alpha 90.000000
_cell_angle_beta 64.249256
_cell_angle_gamma 90.000000
_cell_volume 1121.812174
_symmetry_space_group_name_H-M "P 21/C"
_symmetry_group_IT_number 14
_symmetry_cell_setting 'monoclinic'
loop_
_space_group_symop_operation_xyz
x,y,z
-x,1/2+y,1/2-z
-x,-y,-z
x,1/2-y,1/2+z
loop_
_atom_site_type_symbol
_atom_site_label
_atom_site_fract_x
_atom_site_fract_y
_atom_site_fract_z
Si Si1 0.733998 0.714255 0.365362
Si Si2 0.781289 0.133568 0.638437
Si Si3 0.237000 0.129088 0.346153
Si Si4 0.253362 0.713083 0.640996
Si Si5 0.012625 0.624639 0.499317
Si Si6 0.237388 0.430277 0.213885
Si Si7 0.773081 0.064000 0.280715
O O1 0.598917 0.677126 0.275972
O O2 0.493280 0.748906 0.504654
O O3 0.872424 0.670463 0.434763
O O4 0.965591 0.753847 0.243508
O O5 0.627477 0.185816 0.750294
O O6 0.544698 0.098052 0.607893
O O7 0.009924 0.160939 0.489108
O O8 0.964225 0.092018 0.692382
O O9 0.469583 0.094941 0.383221
O O10 0.051736 0.085417 0.298669
O O11 0.204901 0.659016 0.559631
O O12 0.786875 0.586614 0.629692
O O13 0.195981 0.578966 0.377616
O O14 0.262513 0.497382 0.188846
#
# Coordination Sequence:
#
# PCOD8127966 Si02
#       7
#     4   4   4   4   4   4   4
#     4  11  25  45  71  98 137 187 235 293 354 417
#     4  11  25  44  67 104 146 179 233 288 342 420
#     4  11  25  44  67 104 146 179 233 288 342 420
#     4  11  25  45  71  98 137 187 235 293 354 417
#     4  10  23  44  64 104 136 174 239 282 346 424
#     4  11  23  42  72 101 142 187 228 285 347 409
#     4  11  23  42  72 101 142 187 228 285 347 409
#
# _framework density 24.959616
#
# number of rings (size 3 to 8) (size 9 to 14) (size 15 to 20)
#    0.000    1.143    2.857    2.143    2.000    9.143 
#    0.000    4.286    0.000    0.000    0.000    0.000 
#    0.000    0.000    0.000    0.000    0.000    0.000 
#
# Total GULP energy -346949.008105 kJ/mol
# GULP energy per Si atom -12391.036004 kJ/mol
# Density = 2.490281 g / cm^3
# Si number density = 24.959616 Si / 1000 Ang^3
#
#
#
# Elastic Constant Matrix: (Units=GPa)
#
#
# Indices 1 2 3 4 5 6 
#
# 1 89.4043 10.1082 14.7336 0.0000 -12.2418 0.0000
# 2 10.1082 59.6639 29.5716 0.0000 -12.4391 0.0000
# 3 14.7336 29.5716 152.9433 0.0000 -29.1340 0.0000
# 4 0.0000 0.0000 0.0000 20.2894 0.0000 -28.2284
# 5 -12.2418 -12.4391 -29.1340 0.0000 47.1136 0.0000
# 6 0.0000 0.0000 0.0000 -28.2284 0.0000 -6.2517
#
#
#
# Elastic Compliance Matrix: (Units=1/GPa)
#
#
# Indices 1 2 3 4 5 6 
#
# 1 0.011734 -0.001269 -0.000417 0.000000 0.002456 0.000000
# 2 -0.001269 0.019065 -0.003024 0.000000 0.002834 0.000000
# 3 -0.000417 -0.003024 0.007924 0.000000 0.003993 0.000000
# 4 0.000000 0.000000 0.000000 0.006768 0.000000 -0.030561
# 5 0.002456 0.002834 0.003993 0.000000 0.025081 0.000000
# 6 0.000000 0.000000 0.000000 -0.030561 0.000000 -0.021966
#
#
# Mechanical properties :
#
#
# Convention : Reuss Voigt Hill
#
# Bulk Modulus (GPa) = 34.12754 45.64870 39.88812
# Shear Modulus (GPa) = 73.75210 28.73678 51.24444
#
# Velocity S-wave (km/s) = 5.44176 3.39681 4.53602
# Velocity P-wave (km/s) = 7.29290 5.80630 6.59164
#
# Compressibility (1/GPa) = 0.02930185
#
# Stress axis : x y z
#
# Youngs Moduli (GPa) = 85.22502 52.45131 126.19997
#
# Poissons Ratio (x) = 0.06657 0.05265
# Poissons Ratio (y) = 0.10816 0.38165
# Poissons Ratio (z) = 0.03555 0.15862
#
# Static dielectric constant tensor:
#      x y z
#    x 4.372190 0.000000 -0.051440 
#    y 0.000000 4.235010 0.000000 
#    z -0.051440 0.000000 5.512720 
# 
# 
# High freq. dielectric constant tensor:
#      x y z
#    x 1.988400 0.000000 -0.000030 
#    y 0.000000 1.969390 0.000000 
#    z -0.000030 0.000000 2.033100 
# 
# From -- ./inp_files/21672.got.cif
#   From: 2010.03.12/outbox.cif.g09.slc.cpg/sg14_11_cif.got.tgz:21672.got - 2010.03.31 13:35:05.
