data_PCOD8127534
_publ_section_title
;
Structure prediction by ZEFSAII (Michael W. Deem and Ramdas Pophale) SiO2 
 PCOD8127534
Probable space group: P 21/C
;
_chemical_formula_sum "Si O2"
_cell_formula_units_Z 24
_cell_length_a 26.570230
_cell_length_b 5.658209
_cell_length_c 14.100802
_cell_angle_alpha 90.000000
_cell_angle_beta 30.202607
_cell_angle_gamma 90.000000
_cell_volume 1066.442074
_symmetry_space_group_name_H-M "P 21/C"
_symmetry_group_IT_number 14
_symmetry_cell_setting 'monoclinic'
loop_
_space_group_symop_operation_xyz
x,y,z
-x,1/2+y,1/2-z
-x,-y,-z
x,1/2-y,1/2+z
loop_
_atom_site_type_symbol
_atom_site_label
_atom_site_fract_x
_atom_site_fract_y
_atom_site_fract_z
Si Si1 0.910432 0.165090 0.678611
Si Si2 0.803992 0.499068 0.721693
Si Si3 0.273297 0.368607 0.517537
Si Si4 0.020926 0.158286 0.167391
Si Si5 0.384883 0.759384 0.948370
Si Si6 0.549653 0.578831 0.320647
O O1 0.874451 0.283695 0.639905
O O2 0.953305 0.354750 0.683061
O O3 0.811739 0.040385 0.888754
O O4 0.000000 0.000000 0.500000
O O5 0.793064 0.663034 0.830430
O O6 0.860165 0.635090 0.545881
O O7 0.695586 0.405522 0.866111
O O8 0.335649 0.490937 0.501628
O O9 0.354601 0.250264 0.313160
O O10 0.009436 0.425253 0.224980
O O11 0.417723 0.648401 0.793685
O O12 0.473442 0.775651 0.879098
O O13 0.500000 0.500000 0.500000
#
# Coordination Sequence:
#
# PCOD8127534 Si02
#       6
#     4   4   4   4   4   4
#     4  11  22  44  73  94 136 195 245 286 363 454
#     4  10  23  44  70  97 134 194 237 287 376 438
#     4  10  22  43  70  98 136 185 245 295 370 443
#     4  12  27  44  67 108 151 186 241 312 366 432
#     4  10  22  45  70  99 142 186 237 309 367 446
#     4  11  23  45  72 103 140 189 246 304 379 446
#
# _framework density 22.504739000000001
#
# number of rings (size 3 to 8) (size 9 to 14) (size 15 to 20)
#    0.000    1.333    3.333    1.500    4.667    0.667 
#   12.000    0.000    0.000    0.000    0.000    0.000 
#    0.000    0.000    0.000    0.000    0.000    0.000 
#
# Total GULP energy -297350.458712 kJ/mol
# GULP energy per Si atom -12389.602446 kJ/mol
# Density = 2.245352 g / cm^3
# Si number density = 22.504739 Si / 1000 Ang^3
#
#
#
# Elastic Constant Matrix: (Units=GPa)
#
#
# Indices 1 2 3 4 5 6 
#
# 1 56.5384 20.3771 43.4865 0.0000 -6.0167 0.0000
# 2 20.3771 95.8478 51.7517 0.0000 -6.6171 0.0000
# 3 43.4865 51.7517 173.3984 0.0000 -9.6939 0.0000
# 4 0.0000 0.0000 0.0000 34.9322 0.0000 -13.4667
# 5 -6.0167 -6.6171 -9.6939 0.0000 28.8812 0.0000
# 6 0.0000 0.0000 0.0000 -13.4667 0.0000 34.3087
#
#
#
# Elastic Compliance Matrix: (Units=1/GPa)
#
#
# Indices 1 2 3 4 5 6 
#
# 1 0.022432 -0.001945 -0.004901 0.000000 0.002583 0.000000
# 2 -0.001945 0.012682 -0.003218 0.000000 0.001420 0.000000
# 3 -0.004901 -0.003218 0.008009 0.000000 0.000930 0.000000
# 4 0.000000 0.000000 0.000000 0.033731 0.000000 0.013240
# 5 0.002583 0.001420 0.000930 0.000000 0.035800 0.000000
# 6 0.000000 0.000000 0.000000 0.013240 0.000000 0.034344
#
#
# Mechanical properties :
#
#
# Convention : Reuss Voigt Hill
#
# Bulk Modulus (GPa) = 43.48576 61.89057 52.68816
# Shear Modulus (GPa) = 28.60559 33.63570 31.12064
#
# Velocity S-wave (km/s) = 3.56911 3.87021 3.72270
# Velocity P-wave (km/s) = 6.02906 6.89436 6.47618
#
# Compressibility (1/GPa) = 0.02299604
#
# Stress axis : x y z
#
# Youngs Moduli (GPa) = 44.57831 78.85080 124.86565
#
# Poissons Ratio (x) = 0.15333 0.61197
# Poissons Ratio (y) = 0.08668 0.40182
# Poissons Ratio (z) = 0.21848 0.25374
#
# Static dielectric constant tensor:
#      x y z
#    x 3.957760 0.000000 -0.371410 
#    y 0.000000 4.317480 0.000000 
#    z -0.371410 0.000000 4.384630 
# 
# 
# High freq. dielectric constant tensor:
#      x y z
#    x 1.854030 0.000000 -0.032660 
#    y 0.000000 1.903370 0.000000 
#    z -0.032660 0.000000 1.900550 
# 
# From -- ./inp_files/52106.got.cif
#   From: 2010.03.12/outbox.cif.g09.slc.cpg/sg14_27_cif.got.tgz:52106.got - 2010.03.31 13:35:05.
