data_PCOD8127770
_publ_section_title
;
Structure prediction by ZEFSAII (Michael W. Deem and Ramdas Pophale) SiO2 
 PCOD8127770
Probable space group: P 21/C
;
_chemical_formula_sum "Si O2"
_cell_formula_units_Z 24
_cell_length_a 26.747090
_cell_length_b 5.162974
_cell_length_c 14.861028
_cell_angle_alpha 90.000000
_cell_angle_beta 28.262538
_cell_angle_gamma 90.000000
_cell_volume 971.754823
_symmetry_space_group_name_H-M "P 21/C"
_symmetry_group_IT_number 14
_symmetry_cell_setting 'monoclinic'
loop_
_space_group_symop_operation_xyz
x,y,z
-x,1/2+y,1/2-z
-x,-y,-z
x,1/2-y,1/2+z
loop_
_atom_site_type_symbol
_atom_site_label
_atom_site_fract_x
_atom_site_fract_y
_atom_site_fract_z
Si Si1 0.573919 0.423738 0.233235
Si Si2 0.926687 0.739420 0.541934
Si Si3 0.563991 0.076575 0.544095
Si Si4 0.099035 0.720856 0.018171
Si Si5 0.274760 0.690109 0.368638
Si Si6 0.893862 0.587068 0.280351
O O1 0.523014 0.701733 0.333720
O O2 0.611968 0.403739 0.068933
O O3 0.669753 0.388002 0.150975
O O4 0.488943 0.200378 0.388238
O O5 0.882401 0.494147 0.559386
O O6 0.900455 0.703200 0.689421
O O7 0.861191 0.990482 0.610359
O O8 0.052300 0.810869 0.335886
O O9 0.654589 0.103627 0.326891
O O10 0.165478 0.689060 0.004228
O O11 0.971338 0.688679 0.239522
O O12 0.229086 0.442439 0.496324
#
# Coordination Sequence:
#
# PCOD8127770 Si02
#       6
#     4   4   4   4   4   4
#     4  10  24  49  72 100 139 183 226 299 367 418
#     4   9  21  44  63  87 144 187 227 275 339 391
#     4  10  24  49  72 100 140 176 234 300 356 423
#     4  10  23  41  63  97 142 180 227 282 331 405
#     4  12  25  42  76 107 137 184 244 281 354 422
#     4   9  23  41  66  96 140 182 234 280 332 405
#
# _framework density 24.697586999999999
#
# number of rings (size 3 to 8) (size 9 to 14) (size 15 to 20)
#    1.000    1.000    0.000    1.500    4.667    2.667 
#   12.000    0.000    0.000    0.000    0.000    0.000 
#    0.000    0.000    0.000    0.000    0.000    0.000 
#
# Total GULP energy -297323.326660 kJ/mol
# GULP energy per Si atom -12388.471944 kJ/mol
# Density = 2.464137 g / cm^3
# Si number density = 24.697587 Si / 1000 Ang^3
#
#
#
# Elastic Constant Matrix: (Units=GPa)
#
#
# Indices 1 2 3 4 5 6 
#
# 1 134.2035 15.6103 42.6148 0.0000 3.1894 0.0000
# 2 15.6103 82.1715 3.5401 0.0000 1.2685 0.0000
# 3 42.6148 3.5401 140.0747 0.0000 17.7108 0.0000
# 4 0.0000 0.0000 0.0000 15.1036 0.0000 -10.6286
# 5 3.1894 1.2685 17.7108 0.0000 22.8097 0.0000
# 6 0.0000 0.0000 0.0000 -10.6286 0.0000 2.9844
#
#
#
# Elastic Compliance Matrix: (Units=1/GPa)
#
#
# Indices 1 2 3 4 5 6 
#
# 1 0.008446 -0.001505 -0.002653 0.000000 0.000963 0.000000
# 2 -0.001505 0.012456 0.000226 0.000000 -0.000658 0.000000
# 3 -0.002653 0.000226 0.008755 0.000000 -0.006439 0.000000
# 4 0.000000 0.000000 0.000000 -0.043959 0.000000 -0.156552
# 5 0.000963 -0.000658 -0.006439 0.000000 0.048743 0.000000
# 6 0.000000 0.000000 0.000000 -0.156552 0.000000 -0.222464
#
#
# Mechanical properties :
#
#
# Convention : Reuss Voigt Hill
#
# Bulk Modulus (GPa) = 45.88699 53.33113 49.60906
# Shear Modulus (GPa) = -28.91924 27.82519 -0.54702
#
# Velocity S-wave (km/s) = -3.42560 3.36018 -0.47114
# Velocity P-wave (km/s) = 1.72439 6.05764 4.45357
#
# Compressibility (1/GPa) = 0.02179267
#
# Stress axis : x y z
#
# Youngs Moduli (GPa) = 118.39842 80.28259 114.22459
#
# Poissons Ratio (x) = 0.12083 0.30307
# Poissons Ratio (y) = 0.17820 -0.02585
# Poissons Ratio (z) = 0.31414 -0.01817
#
# Static dielectric constant tensor:
#      x y z
#    x 4.621060 0.000000 0.135150 
#    y 0.000000 4.301730 0.000000 
#    z 0.135150 0.000000 4.407800 
# 
# 
# High freq. dielectric constant tensor:
#      x y z
#    x 1.992670 0.000000 0.018680 
#    y 0.000000 1.981290 0.000000 
#    z 0.018680 0.000000 1.957370 
# 
# From -- ./inp_files/52109.got.cif
#   From: 2010.03.12/outbox.cif.g09.slc.cpg/sg14_27_cif.got.tgz:52109.got - 2010.03.31 13:35:05.
