data_PCOD8127754
_publ_section_title
;
Structure prediction by ZEFSAII (Michael W. Deem and Ramdas Pophale) SiO2 
 PCOD8127754
Probable space group: P 21/C
;
_chemical_formula_sum "Si O2"
_cell_formula_units_Z 24
_cell_length_a 11.338526
_cell_length_b 7.752774
_cell_length_c 11.956407
_cell_angle_alpha 90.000000
_cell_angle_beta 75.255116
_cell_angle_gamma 90.000000
_cell_volume 1016.416549
_symmetry_space_group_name_H-M "P 21/C"
_symmetry_group_IT_number 14
_symmetry_cell_setting 'monoclinic'
loop_
_space_group_symop_operation_xyz
x,y,z
-x,1/2+y,1/2-z
-x,-y,-z
x,1/2-y,1/2+z
loop_
_atom_site_type_symbol
_atom_site_label
_atom_site_fract_x
_atom_site_fract_y
_atom_site_fract_z
Si Si1 0.472804 0.386943 0.115086
Si Si2 0.624661 0.067302 0.149535
Si Si3 0.071944 0.171532 0.453260
Si Si4 0.101869 0.642123 0.359763
Si Si5 0.096114 0.503674 0.730810
Si Si6 0.282229 0.176630 0.041724
O O1 0.582357 0.253710 0.115153
O O2 0.455085 0.515353 0.223754
O O3 0.349420 0.281757 0.122920
O O4 0.500000 0.500000 0.000000
O O5 0.768400 0.067311 0.140226
O O6 0.613757 0.916333 0.059258
O O7 0.197559 0.191085 0.492265
O O8 0.980204 0.327466 0.508386
O O9 0.101888 0.159719 0.314989
O O10 0.000000 0.000000 0.500000
O O11 0.117350 0.817453 0.286864
O O12 0.035522 0.500479 0.298029
O O13 0.203575 0.475298 0.616335
#
# Coordination Sequence:
#
# PCOD8127754 Si02
#       6
#     4   4   4   4   4   4
#     4  12  30  49  76 101 142 191 252 312 372 428
#     4  12  29  48  75 105 144 191 254 306 369 437
#     4   9  21  40  67 104 145 182 228 286 361 434
#     4  10  25  39  70 102 142 183 231 288 357 438
#     4  10  23  40  70 100 147 179 232 281 366 425
#     4  11  25  45  74 103 143 190 242 301 359 435
#
# _framework density 23.612368
#
# number of rings (size 3 to 8) (size 9 to 14) (size 15 to 20)
#    0.000    1.333    0.000    2.500   21.000    1.333 
#    0.000    0.000    0.000    0.000    0.000    0.000 
#    0.000    0.000    0.000    0.000    0.000    0.000 
#
# Total GULP energy -297610.653140 kJ/mol
# GULP energy per Si atom -12400.443881 kJ/mol
# Density = 2.355862 g / cm^3
# Si number density = 23.612368 Si / 1000 Ang^3
#
#
#
# Elastic Constant Matrix: (Units=GPa)
#
#
# Indices 1 2 3 4 5 6 
#
# 1 86.6138 -2.7556 5.2390 0.0000 10.8306 0.0000
# 2 -2.7556 79.7118 28.1709 0.0000 11.6197 0.0000
# 3 5.2390 28.1709 115.6973 0.0000 -3.9883 0.0000
# 4 0.0000 0.0000 0.0000 34.7416 0.0000 3.2829
# 5 10.8306 11.6197 -3.9883 0.0000 25.2235 0.0000
# 6 0.0000 0.0000 0.0000 3.2829 0.0000 45.2378
#
#
#
# Elastic Compliance Matrix: (Units=1/GPa)
#
#
# Indices 1 2 3 4 5 6 
#
# 1 0.012473 0.001792 -0.001221 0.000000 -0.006374 0.000000
# 2 0.001792 0.015288 -0.004095 0.000000 -0.008459 0.000000
# 3 -0.001221 -0.004095 0.009832 0.000000 0.003965 0.000000
# 4 0.000000 0.000000 0.000000 0.028983 0.000000 -0.002103
# 5 -0.006374 -0.008459 0.003965 0.000000 0.046907 0.000000
# 6 0.000000 0.000000 0.000000 -0.002103 0.000000 0.022258
#
#
# Mechanical properties :
#
#
# Convention : Reuss Voigt Hill
#
# Bulk Modulus (GPa) = 32.73843 38.14796 35.44319
# Shear Modulus (GPa) = 32.68604 37.79849 35.24227
#
# Velocity S-wave (km/s) = 3.72462 4.00533 3.86752
# Velocity P-wave (km/s) = 5.69141 6.13035 5.91495
#
# Compressibility (1/GPa) = 0.03054514
#
# Stress axis : x y z
#
# Youngs Moduli (GPa) = 80.17031 65.41279 101.70534
#
# Poissons Ratio (x) = -0.11721 0.12417
# Poissons Ratio (y) = -0.14365 0.41649
# Poissons Ratio (z) = 0.09788 0.26787
#
# Static dielectric constant tensor:
#      x y z
#    x 4.153710 0.000000 0.190540 
#    y 0.000000 4.529300 0.000000 
#    z 0.190540 0.000000 4.861980 
# 
# 
# High freq. dielectric constant tensor:
#      x y z
#    x 1.928570 0.000000 0.007350 
#    y 0.000000 1.945260 0.000000 
#    z 0.007350 0.000000 1.952020 
# 
# From -- ./inp_files/28027.got.cif
#   From: 2010.03.12/outbox.cif.g09.slc.cpg/sg14_15_cif.got.tgz:28027.got - 2010.03.31 13:35:05.
