data_PCOD8127151
_publ_section_title
;
Structure prediction by ZEFSAII (Michael W. Deem and Ramdas Pophale) SiO2 
 PCOD8127151
Probable space group: P 21/C
;
_chemical_formula_sum "Si O2"
_cell_formula_units_Z 32
_cell_length_a 12.420761
_cell_length_b 12.881634
_cell_length_c 19.600604
_cell_angle_alpha 90.000000
_cell_angle_beta 152.609570
_cell_angle_gamma 90.000000
_cell_volume 1442.763196
_symmetry_space_group_name_H-M "P 21/C"
_symmetry_group_IT_number 14
_symmetry_cell_setting 'monoclinic'
loop_
_space_group_symop_operation_xyz
x,y,z
-x,1/2+y,1/2-z
-x,-y,-z
x,1/2-y,1/2+z
loop_
_atom_site_type_symbol
_atom_site_label
_atom_site_fract_x
_atom_site_fract_y
_atom_site_fract_z
Si Si1 0.698679 0.985765 0.429609
Si Si2 0.486090 0.681853 0.711719
Si Si3 0.127805 0.919219 0.915564
Si Si4 0.375692 0.155886 0.316836
Si Si5 0.641716 0.291811 0.570909
Si Si6 0.638656 0.875669 0.970016
Si Si7 0.226883 0.860625 0.639384
Si Si8 0.946482 0.807338 0.603146
O O1 0.601757 0.884191 0.336253
O O2 0.868975 0.927097 0.580912
O O3 0.503094 0.056360 0.355223
O O4 0.845765 0.052731 0.457554
O O5 0.324550 0.601052 0.581719
O O6 0.652836 0.747495 0.752307
O O7 0.316535 0.764263 0.648621
O O8 0.194632 0.859130 0.885254
O O9 0.873889 0.884282 0.798145
O O10 0.148867 0.042024 0.912282
O O11 0.527650 0.194466 0.467430
O O12 0.439547 0.358523 0.494983
O O13 0.827979 0.257078 0.733183
O O14 0.417954 0.909691 0.799355
O O15 0.728630 0.768402 0.989224
O O16 0.001986 0.820123 0.553669
#
# Coordination Sequence:
#
# PCOD8127151 Si02
#       8
#     4   4   4   4   4   4   4   4
#     4  11  22  42  64 100 134 171 220 267 330 403
#     4  10  22  40  64  98 138 163 218 275 323 398
#     4  11  23  42  69  95 124 183 214 269 339 387
#     4  10  25  43  68  96 135 174 222 277 323 391
#     4  10  24  47  61  93 134 171 226 271 329 386
#     4  11  22  39  65  95 126 170 223 279 320 391
#     4  10  22  40  59  96 136 171 213 266 329 397
#     4  11  24  39  68  92 132 180 215 273 329 381
#
# _framework density 22.179663000000001
#
# number of rings (size 3 to 8) (size 9 to 14) (size 15 to 20)
#    0.000    1.500    2.500    1.500    3.500    1.500 
#    2.250    1.875    0.000    0.000    0.000    0.000 
#    0.000    0.000    0.000    0.000    0.000    0.000 
#
# Total GULP energy -396486.804438 kJ/mol
# GULP energy per Si atom -12390.212639 kJ/mol
# Density = 2.212918 g / cm^3
# Si number density = 22.179663 Si / 1000 Ang^3
#
#
#
# Elastic Constant Matrix: (Units=GPa)
#
#
# Indices 1 2 3 4 5 6 
#
# 1 127.4713 59.1132 42.6342 0.0000 38.6783 0.0000
# 2 59.1132 95.9200 36.7893 0.0000 12.8948 0.0000
# 3 42.6342 36.7893 67.5330 0.0000 9.3762 0.0000
# 4 0.0000 0.0000 0.0000 26.1198 0.0000 -0.9268
# 5 38.6783 12.8948 9.3762 0.0000 30.7426 0.0000
# 6 0.0000 0.0000 0.0000 -0.9268 0.0000 30.1899
#
#
#
# Elastic Compliance Matrix: (Units=1/GPa)
#
#
# Indices 1 2 3 4 5 6 
#
# 1 0.018496 -0.006821 -0.005354 0.000000 -0.018777 0.000000
# 2 -0.006821 0.016062 -0.004908 0.000000 0.003341 0.000000
# 3 -0.005354 -0.004908 0.020509 0.000000 0.002540 0.000000
# 4 0.000000 0.000000 0.000000 0.038327 0.000000 0.001177
# 5 -0.018777 0.003341 0.002540 0.000000 0.053975 0.000000
# 6 0.000000 0.000000 0.000000 0.001177 0.000000 0.033160
#
#
# Mechanical properties :
#
#
# Convention : Reuss Voigt Hill
#
# Bulk Modulus (GPa) = 47.84415 63.11085 55.47750
# Shear Modulus (GPa) = 22.55691 27.56964 25.06328
#
# Velocity S-wave (km/s) = 3.19252 3.52947 3.36521
# Velocity P-wave (km/s) = 5.93360 6.71756 6.33771
#
# Compressibility (1/GPa) = 0.02090120
#
# Stress axis : x y z
#
# Youngs Moduli (GPa) = 54.06542 62.25825 48.76013
#
# Poissons Ratio (x) = 0.42467 0.26106
# Poissons Ratio (y) = 0.36878 0.23930
# Poissons Ratio (z) = 0.28947 0.30555
#
# Static dielectric constant tensor:
#      x y z
#    x 4.228980 0.000000 -0.081390 
#    y 0.000000 4.327800 0.000000 
#    z -0.081390 0.000000 4.006330 
# 
# 
# High freq. dielectric constant tensor:
#      x y z
#    x 1.884640 0.000000 0.004140 
#    y 0.000000 1.877490 0.000000 
#    z 0.004140 0.000000 1.865890 
# 
# From -- ./inp_files/67432.got.cif
#   From: 2010.03.12/outbox.cif.g09.slc.cpg/sg14_34_cif.got.tgz:67432.got - 2010.03.31 13:35:05.
