data_PCOD8127970
_publ_section_title
;
Structure prediction by ZEFSAII (Michael W. Deem and Ramdas Pophale) SiO2 
 PCOD8127970
Probable space group: P 21/C
;
_chemical_formula_sum "Si O2"
_cell_formula_units_Z 32
_cell_length_a 17.088305
_cell_length_b 6.517751
_cell_length_c 13.083507
_cell_angle_alpha 90.000000
_cell_angle_beta 89.172278
_cell_angle_gamma 90.000000
_cell_volume 1457.053849
_symmetry_space_group_name_H-M "P 21/C"
_symmetry_group_IT_number 14
_symmetry_cell_setting 'monoclinic'
loop_
_space_group_symop_operation_xyz
x,y,z
-x,1/2+y,1/2-z
-x,-y,-z
x,1/2-y,1/2+z
loop_
_atom_site_type_symbol
_atom_site_label
_atom_site_fract_x
_atom_site_fract_y
_atom_site_fract_z
Si Si1 0.592434 0.185225 0.413996
Si Si2 0.153539 0.340456 0.546848
Si Si3 0.061967 0.206677 0.359920
Si Si4 0.315401 0.499755 0.457207
Si Si5 0.839375 0.406533 0.262586
Si Si6 0.091180 0.501331 0.179304
Si Si7 0.673178 0.195123 0.718369
Si Si8 0.587766 0.622032 0.091140
O O1 0.626561 0.395249 0.461831
O O2 0.634694 0.157527 0.304231
O O3 0.500085 0.203766 0.399447
O O4 0.608029 0.985056 0.482402
O O5 0.092078 0.339799 0.454960
O O6 0.239802 0.398851 0.509526
O O7 0.126317 0.507086 0.631000
O O8 0.150337 0.116855 0.601730
O O9 0.050670 0.351522 0.261870
O O10 0.978081 0.105065 0.385687
O O11 0.124946 0.028226 0.334193
O O12 0.291590 0.668685 0.374049
O O13 0.359131 0.319995 0.397051
O O14 0.859023 0.166263 0.258061
O O15 0.745729 0.434701 0.261467
O O16 0.606189 0.038416 0.681244
#
# Coordination Sequence:
#
# PCOD8127970 Si02
#       8
#     4   4   4   4   4   4   4   4
#     4  10  23  44  64  97 135 172 226 274 332 400
#     4  11  25  41  67  99 130 174 225 268 343 398
#     4  11  23  45  65  99 133 174 225 273 332 403
#     4  11  23  43  67  98 132 176 218 278 335 396
#     4  11  24  44  66  95 135 172 218 281 331 398
#     4  11  24  42  69  95 133 179 220 277 336 391
#     4  11  24  41  68  99 132 173 223 274 335 392
#     4  10  24  42  67  95 132 178 221 277 332 397
#
# _framework density 21.962125
#
# number of rings (size 3 to 8) (size 9 to 14) (size 15 to 20)
#    0.000    1.250    2.500    2.250    3.500    4.500 
#    0.000    0.000    0.000    0.000    0.000    0.000 
#    0.000    0.000    0.000    0.000    0.000    0.000 
#
# Total GULP energy -396880.611604 kJ/mol
# GULP energy per Si atom -12402.519113 kJ/mol
# Density = 2.191214 g / cm^3
# Si number density = 21.962125 Si / 1000 Ang^3
#
#
#
# Elastic Constant Matrix: (Units=GPa)
#
#
# Indices 1 2 3 4 5 6 
#
# 1 112.6901 48.3709 40.3447 0.0000 3.6918 0.0000
# 2 48.3709 92.5684 31.0087 0.0000 0.9605 0.0000
# 3 40.3447 31.0087 97.7559 0.0000 0.9435 0.0000
# 4 0.0000 0.0000 0.0000 21.7799 0.0000 -2.1245
# 5 3.6918 0.9605 0.9435 0.0000 31.3142 0.0000
# 6 0.0000 0.0000 0.0000 -2.1245 0.0000 45.3024
#
#
#
# Elastic Compliance Matrix: (Units=1/GPa)
#
#
# Indices 1 2 3 4 5 6 
#
# 1 0.012430 -0.005335 -0.003426 0.000000 -0.001199 0.000000
# 2 -0.005335 0.014379 -0.002362 0.000000 0.000259 0.000000
# 3 -0.003426 -0.002362 0.012392 0.000000 0.000103 0.000000
# 4 0.000000 0.000000 0.000000 0.046125 0.000000 0.002163
# 5 -0.001199 0.000259 0.000103 0.000000 0.032065 0.000000
# 6 0.000000 0.000000 0.000000 0.002163 0.000000 0.022175
#
#
# Mechanical properties :
#
#
# Convention : Reuss Voigt Hill
#
# Bulk Modulus (GPa) = 58.98013 60.27366 59.62689
# Shear Modulus (GPa) = 29.85743 31.89863 30.87803
#
# Velocity S-wave (km/s) = 3.69113 3.81522 3.75369
# Velocity P-wave (km/s) = 6.71414 6.84922 6.78202
#
# Compressibility (1/GPa) = 0.01695486
#
# Stress axis : x y z
#
# Youngs Moduli (GPa) = 80.45262 69.54572 80.69925
#
# Poissons Ratio (x) = 0.37102 0.27647
# Poissons Ratio (y) = 0.42921 0.19060
# Poissons Ratio (z) = 0.27563 0.16426
#
# Static dielectric constant tensor:
#      x y z
#    x 3.867490 0.000000 0.028490 
#    y 0.000000 3.946970 0.000000 
#    z 0.028490 0.000000 3.927400 
# 
# 
# High freq. dielectric constant tensor:
#      x y z
#    x 1.866570 0.000000 0.003250 
#    y 0.000000 1.865960 0.000000 
#    z 0.003250 0.000000 1.862220 
# 
# From -- ./inp_files/48159.got.cif
#   From: 2010.03.12/outbox.cif.g09.slc.cpg/sg14_25_cif.got.tgz:48159.got - 2010.03.31 13:35:05.
