data_PCOD8127805
_publ_section_title
;
Structure prediction by ZEFSAII (Michael W. Deem and Ramdas Pophale) SiO2 
 PCOD8127805
Probable space group: P 21/C
;
_chemical_formula_sum "Si O2"
_cell_formula_units_Z 28
_cell_length_a 18.866611
_cell_length_b 9.418213
_cell_length_c 14.944171
_cell_angle_alpha 90.000000
_cell_angle_beta 151.689214
_cell_angle_gamma 90.000000
_cell_volume 1259.346356
_symmetry_space_group_name_H-M "P 21/C"
_symmetry_group_IT_number 14
_symmetry_cell_setting 'monoclinic'
loop_
_space_group_symop_operation_xyz
x,y,z
-x,1/2+y,1/2-z
-x,-y,-z
x,1/2-y,1/2+z
loop_
_atom_site_type_symbol
_atom_site_label
_atom_site_fract_x
_atom_site_fract_y
_atom_site_fract_z
Si Si1 0.648326 0.101910 0.881729
Si Si2 0.112507 0.835687 0.110955
Si Si3 0.873238 0.177016 0.672094
Si Si4 0.465676 0.127651 0.114361
Si Si5 0.247127 0.907428 0.649631
Si Si6 0.195001 0.319125 0.196693
Si Si7 0.817322 0.918330 0.935535
O O1 0.541427 0.234626 0.742759
O O2 0.553869 0.004764 0.842179
O O3 0.689532 0.003179 0.843906
O O4 0.809981 0.160859 0.095799
O O5 0.962731 0.742652 0.947755
O O6 0.176126 0.869342 0.281679
O O7 0.222889 0.742677 0.171809
O O8 0.092833 0.984644 0.036963
O O9 0.805437 0.089128 0.513329
O O10 0.053154 0.160440 0.861709
O O11 0.572969 0.073081 0.153496
O O12 0.300366 0.166174 0.898887
O O13 0.168437 0.031404 0.617735
O O14 0.271365 0.206866 0.213775
#
# Coordination Sequence:
#
# PCOD8127805 Si02
#       7
#     4   4   4   4   4   4   4
#     4  11  26  47  70 105 139 196 234 293 357 429
#     4  11  23  47  69 106 138 184 240 289 358 418
#     4  10  23  41  74 100 142 179 234 299 345 423
#     4  11  26  47  69 102 145 185 242 284 358 433
#     4  11  24  45  70 103 144 186 235 291 358 413
#     4  11  25  40  71 105 137 187 229 299 352 426
#     4  11  25  45  69 105 141 182 237 289 369 413
#
# _framework density 22.233754999999999
#
# number of rings (size 3 to 8) (size 9 to 14) (size 15 to 20)
#    0.000    1.143    2.857    3.429    8.000    5.143 
#    2.571    0.000    0.000    0.000    0.000    0.000 
#    0.000    0.000    0.000    0.000    0.000    0.000 
#
# Total GULP energy -346928.543644 kJ/mol
# GULP energy per Si atom -12390.305130 kJ/mol
# Density = 2.218315 g / cm^3
# Si number density = 22.233755 Si / 1000 Ang^3
#
#
#
# Elastic Constant Matrix: (Units=GPa)
#
#
# Indices 1 2 3 4 5 6 
#
# 1 63.4248 20.0221 38.8446 0.0000 -0.6028 0.0000
# 2 20.0221 107.7226 33.7697 0.0000 -1.5064 0.0000
# 3 38.8446 33.7697 85.1189 0.0000 -14.9976 0.0000
# 4 0.0000 0.0000 0.0000 29.6402 0.0000 -6.2804
# 5 -0.6028 -1.5064 -14.9976 0.0000 27.2191 0.0000
# 6 0.0000 0.0000 0.0000 -6.2804 0.0000 42.7796
#
#
#
# Elastic Compliance Matrix: (Units=1/GPa)
#
#
# Indices 1 2 3 4 5 6 
#
# 1 0.022736 -0.000847 -0.011030 0.000000 -0.005621 0.000000
# 2 -0.000847 0.010724 -0.004172 0.000000 -0.001724 0.000000
# 3 -0.011030 -0.004172 0.020327 0.000000 0.010725 0.000000
# 4 0.000000 0.000000 0.000000 0.034821 0.000000 0.005112
# 5 -0.005621 -0.001724 0.010725 0.000000 0.042428 0.000000
# 6 0.000000 0.000000 0.000000 0.005112 0.000000 0.024126
#
#
# Mechanical properties :
#
#
# Convention : Reuss Voigt Hill
#
# Bulk Modulus (GPa) = 46.10584 49.05990 47.58287
# Shear Modulus (GPa) = 25.70821 30.83644 28.27233
#
# Velocity S-wave (km/s) = 3.40409 3.72818 3.56981
# Velocity P-wave (km/s) = 6.01933 6.37541 6.19992
#
# Compressibility (1/GPa) = 0.02168922
#
# Stress axis : x y z
#
# Youngs Moduli (GPa) = 43.98302 93.24655 49.19596
#
# Poissons Ratio (x) = 0.07895 0.54264
# Poissons Ratio (y) = 0.03724 0.20525
# Poissons Ratio (z) = 0.48514 0.38903
#
# Static dielectric constant tensor:
#      x y z
#    x 4.110610 0.000000 -0.080460 
#    y 0.000000 4.185110 0.000000 
#    z -0.080460 0.000000 3.934030 
# 
# 
# High freq. dielectric constant tensor:
#      x y z
#    x 1.882590 0.000000 -0.003780 
#    y 0.000000 1.889470 0.000000 
#    z -0.003780 0.000000 1.861570 
# 
# From -- ./inp_files/50261.got.cif
#   From: 2010.03.12/outbox.cif.g09.slc.cpg/sg14_26_cif.got.tgz:50261.got - 2010.03.31 13:35:05.
