data_PCOD8127146
_publ_section_title
;
Structure prediction by ZEFSAII (Michael W. Deem and Ramdas Pophale) SiO2 
 PCOD8127146
Probable space group: P 21/C
;
_chemical_formula_sum "Si O2"
_cell_formula_units_Z 20
_cell_length_a 9.546571
_cell_length_b 9.793317
_cell_length_c 23.625047
_cell_angle_alpha 90.000000
_cell_angle_beta 23.284174
_cell_angle_gamma 90.000000
_cell_volume 873.107470
_symmetry_space_group_name_H-M "P 21/C"
_symmetry_group_IT_number 14
_symmetry_cell_setting 'monoclinic'
loop_
_space_group_symop_operation_xyz
x,y,z
-x,1/2+y,1/2-z
-x,-y,-z
x,1/2-y,1/2+z
loop_
_atom_site_type_symbol
_atom_site_label
_atom_site_fract_x
_atom_site_fract_y
_atom_site_fract_z
Si Si1 0.609739 0.144532 0.387968
Si Si2 0.167700 0.368196 0.158510
Si Si3 0.648500 0.885548 0.640119
Si Si4 0.358658 0.783606 0.417988
Si Si5 0.717672 0.862492 0.179261
O O1 0.278502 0.165041 0.552990
O O2 0.456319 0.088859 0.385751
O O3 0.812236 0.287650 0.305911
O O4 0.883649 0.031073 0.311799
O O5 0.500051 0.326367 0.073732
O O6 0.523059 0.731227 0.703903
O O7 0.075349 0.895951 0.495506
O O8 0.426219 0.985036 0.764378
O O9 0.672450 0.778854 0.255727
O O10 0.141433 0.641264 0.507683
#
# Coordination Sequence:
#
# PCOD8127146 Si02
#       5
#     4   4   4   4   4
#     4  11  26  44  70  98 139 174 229 268 345 388
#     4  11  25  46  68  99 135 185 213 284 329 407
#     4  10  24  42  69  95 132 170 222 272 325 392
#     4  10  22  42  70  89 132 171 217 267 336 381
#     4  10  22  39  69  94 129 166 219 271 327 382
#
# _framework density 22.906687999999999
#
# number of rings (size 3 to 8) (size 9 to 14) (size 15 to 20)
#    1.200    0.400    2.000    1.800    2.800    3.200 
#    0.000    0.000    0.000    0.000    0.000    0.000 
#    0.000    0.000    0.000    0.000    0.000    0.000 
#
# Total GULP energy -247817.562066 kJ/mol
# GULP energy per Si atom -12390.878103 kJ/mol
# Density = 2.285455 g / cm^3
# Si number density = 22.906688 Si / 1000 Ang^3
#
#
#
# Elastic Constant Matrix: (Units=GPa)
#
#
# Indices 1 2 3 4 5 6 
#
# 1 93.5393 20.1634 17.3104 0.0000 11.6127 0.0000
# 2 20.1634 56.3394 6.0449 0.0000 9.6147 0.0000
# 3 17.3104 6.0449 40.2454 0.0000 12.1073 0.0000
# 4 0.0000 0.0000 0.0000 36.7781 0.0000 3.4976
# 5 11.6127 9.6147 12.1073 0.0000 31.5148 0.0000
# 6 0.0000 0.0000 0.0000 3.4976 0.0000 28.5391
#
#
#
# Elastic Compliance Matrix: (Units=1/GPa)
#
#
# Indices 1 2 3 4 5 6 
#
# 1 0.012508 -0.003705 -0.004270 0.000000 -0.001838 0.000000
# 2 -0.003705 0.019876 0.000024 0.000000 -0.004708 0.000000
# 3 -0.004270 0.000024 0.029635 0.000000 -0.009819 0.000000
# 4 0.000000 0.000000 0.000000 0.027511 0.000000 -0.003372
# 5 -0.001838 -0.004708 -0.009819 0.000000 0.037617 0.000000
# 6 0.000000 0.000000 0.000000 -0.003372 0.000000 0.035453
#
#
# Mechanical properties :
#
#
# Convention : Reuss Voigt Hill
#
# Bulk Modulus (GPa) = 21.68378 30.79571 26.23975
# Shear Modulus (GPa) = 25.79007 29.14008 27.46508
#
# Velocity S-wave (km/s) = 3.35905 3.57055 3.46641
# Velocity P-wave (km/s) = 4.95287 5.52011 5.24417
#
# Compressibility (1/GPa) = 0.04611741
#
# Stress axis : x y z
#
# Youngs Moduli (GPa) = 79.95056 50.31121 33.74430
#
# Poissons Ratio (x) = 0.18638 0.14410
# Poissons Ratio (y) = 0.29618 -0.00082
# Poissons Ratio (z) = 0.34143 -0.00123
#
# Static dielectric constant tensor:
#      x y z
#    x 4.015650 0.000000 0.215880 
#    y 0.000000 4.052320 0.000000 
#    z 0.215880 0.000000 3.834530 
# 
# 
# High freq. dielectric constant tensor:
#      x y z
#    x 1.907310 0.000000 0.017660 
#    y 0.000000 1.901170 0.000000 
#    z 0.017660 0.000000 1.889370 
# 
# From -- ./inp_files/79879.got.cif
#   From: 2010.03.12/outbox.cif.g09.slc.cpg/sg14_40_cif.got.tgz:79879.got - 2010.03.31 13:35:05.
