data_PCOD8127359
_publ_section_title
;
Structure prediction by ZEFSAII (Michael W. Deem and Ramdas Pophale) SiO2 
 PCOD8127359
Probable space group: P 21/C
;
_chemical_formula_sum "Si O2"
_cell_formula_units_Z 20
_cell_length_a 5.198932
_cell_length_b 7.851257
_cell_length_c 24.013795
_cell_angle_alpha 90.000000
_cell_angle_beta 68.067342
_cell_angle_gamma 90.000000
_cell_volume 909.255368
_symmetry_space_group_name_H-M "P 21/C"
_symmetry_group_IT_number 14
_symmetry_cell_setting 'monoclinic'
loop_
_space_group_symop_operation_xyz
x,y,z
-x,1/2+y,1/2-z
-x,-y,-z
x,1/2-y,1/2+z
loop_
_atom_site_type_symbol
_atom_site_label
_atom_site_fract_x
_atom_site_fract_y
_atom_site_fract_z
Si Si1 0.261733 0.647532 0.801235
Si Si2 0.706559 0.219332 0.014477
Si Si3 0.650900 0.642826 0.862120
Si Si4 0.501707 0.681753 0.177256
Si Si5 0.321496 0.331888 0.447532
O O1 0.481507 0.735901 0.825698
O O2 0.282059 0.440918 0.806634
O O3 0.325353 0.701483 0.733125
O O4 0.958615 0.719467 0.843228
O O5 0.532614 0.347105 0.067424
O O6 0.679343 0.031811 0.041678
O O7 0.574717 0.241823 0.963711
O O8 0.033426 0.262520 0.987555
O O9 0.696469 0.444033 0.842352
O O10 0.645896 0.806234 0.121233
#
# Coordination Sequence:
#
# PCOD8127359 Si02
#       5
#     4   4   4   4   4
#     4  10  25  41  60  94 119 165 203 253 304 359
#     4  10  22  42  61  94 122 161 203 249 304 367
#     4  10  24  40  64  90 123 162 200 256 303 360
#     4  10  26  40  65  90 125 162 206 251 307 359
#     4  10  23  39  65  89 125 161 202 249 306 362
#
# _framework density 21.996023000000001
#
# number of rings (size 3 to 8) (size 9 to 14) (size 15 to 20)
#    1.200    0.800    0.000    1.200    8.400    1.600 
#    0.000    0.000    0.000    0.000    0.000    0.000 
#    0.000    0.000    0.000    0.000    0.000    0.000 
#
# Total GULP energy -247774.590436 kJ/mol
# GULP energy per Si atom -12388.729522 kJ/mol
# Density = 2.194596 g / cm^3
# Si number density = 21.996023 Si / 1000 Ang^3
#
#
#
# Elastic Constant Matrix: (Units=GPa)
#
#
# Indices 1 2 3 4 5 6 
#
# 1 147.2391 24.5006 32.3402 0.0000 -12.3630 0.0000
# 2 24.5006 39.0373 35.8114 0.0000 7.2591 0.0000
# 3 32.3402 35.8114 130.5046 0.0000 -9.6581 0.0000
# 4 0.0000 0.0000 0.0000 40.8948 0.0000 4.0991
# 5 -12.3630 7.2591 -9.6581 0.0000 28.8694 0.0000
# 6 0.0000 0.0000 0.0000 4.0991 0.0000 12.1986
#
#
#
# Elastic Compliance Matrix: (Units=1/GPa)
#
#
# Indices 1 2 3 4 5 6 
#
# 1 0.008233 -0.006125 0.000016 0.000000 0.005071 0.000000
# 2 -0.006125 0.043432 -0.011692 0.000000 -0.017455 0.000000
# 3 0.000016 -0.011692 0.011367 0.000000 0.006749 0.000000
# 4 0.000000 0.000000 0.000000 0.025305 0.000000 -0.008503
# 5 0.005071 -0.017455 0.006749 0.000000 0.043457 0.000000
# 6 0.000000 0.000000 0.000000 -0.008503 0.000000 0.084834
#
#
# Mechanical properties :
#
#
# Convention : Reuss Voigt Hill
#
# Bulk Modulus (GPa) = 36.45679 55.78727 46.12203
# Shear Modulus (GPa) = 19.12963 31.33447 25.23205
#
# Velocity S-wave (km/s) = 2.95224 3.77842 3.39059
# Velocity P-wave (km/s) = 5.31331 6.66729 6.02843
#
# Compressibility (1/GPa) = 0.02742973
#
# Stress axis : x y z
#
# Youngs Moduli (GPa) = 121.46001 23.02438 87.97729
#
# Poissons Ratio (x) = 0.14102 -0.00138
# Poissons Ratio (y) = 0.74390 1.02864
# Poissons Ratio (z) = -0.00190 0.26920
#
# Static dielectric constant tensor:
#      x y z
#    x 4.001820 0.000000 0.054930 
#    y 0.000000 3.588780 0.000000 
#    z 0.054930 0.000000 3.821700 
# 
# 
# High freq. dielectric constant tensor:
#      x y z
#    x 1.864270 0.000000 0.003420 
#    y 0.000000 1.836160 0.000000 
#    z 0.003420 0.000000 1.868930 
# 
# From -- ./inp_files/62951.got.cif
#   From: 2010.03.12/outbox.cif.g09.slc.cpg/sg14_32_cif.got.tgz:62951.got - 2010.03.31 13:35:05.
