data_PCOD8127326
_publ_section_title
;
Structure prediction by ZEFSAII (Michael W. Deem and Ramdas Pophale) SiO2 
 PCOD8127326
Probable space group: P 21/C
;
_chemical_formula_sum "Si O2"
_cell_formula_units_Z 28
_cell_length_a 7.893552
_cell_length_b 14.676757
_cell_length_c 18.810367
_cell_angle_alpha 90.000000
_cell_angle_beta 32.405855
_cell_angle_gamma 90.000000
_cell_volume 1167.869182
_symmetry_space_group_name_H-M "P 21/C"
_symmetry_group_IT_number 14
_symmetry_cell_setting 'monoclinic'
loop_
_space_group_symop_operation_xyz
x,y,z
-x,1/2+y,1/2-z
-x,-y,-z
x,1/2-y,1/2+z
loop_
_atom_site_type_symbol
_atom_site_label
_atom_site_fract_x
_atom_site_fract_y
_atom_site_fract_z
Si Si1 0.348526 0.815473 0.133075
Si Si2 0.959237 0.001462 0.775951
Si Si3 0.966270 0.491129 0.912492
Si Si4 0.261148 0.301988 0.632650
Si Si5 0.498478 0.057166 0.318569
Si Si6 0.807748 0.205476 0.519441
Si Si7 0.513457 0.256079 0.269164
O O1 0.449732 0.826794 0.178866
O O2 0.056944 0.746312 0.229515
O O3 0.645548 0.778361 0.981985
O O4 0.263091 0.912992 0.129371
O O5 0.094411 0.014637 0.648127
O O6 0.228087 0.002955 0.741964
O O7 0.763125 0.909360 0.846579
O O8 0.339896 0.486925 0.803372
O O9 0.789692 0.568194 0.022422
O O10 0.792543 0.395585 0.992692
O O11 0.547028 0.270694 0.579827
O O12 0.638658 0.156772 0.251430
O O13 0.734878 0.204286 0.629285
O O14 0.145879 0.248651 0.379315
#
# Coordination Sequence:
#
# PCOD8127326 Si02
#       7
#     4   4   4   4   4   4   4
#     4  12  27  44  76 102 146 188 241 296 366 429
#     4  12  25  44  71 107 147 185 243 296 371 420
#     4  10  23  41  73 105 137 185 249 294 363 428
#     4  12  25  48  69 107 143 194 239 298 359 434
#     4  10  22  41  68  99 142 179 239 297 353 431
#     4  11  24  45  71 103 141 186 240 302 356 430
#     4  11  24  43  69 101 138 188 236 296 363 424
#
# _framework density 23.975286000000001
#
# number of rings (size 3 to 8) (size 9 to 14) (size 15 to 20)
#    0.000    0.857    1.429    6.000    8.000    0.000 
#    0.000    0.714    0.000    0.000    0.000    0.000 
#    0.000    0.000    0.000    0.000    0.000    0.000 
#
# Total GULP energy -347203.215710 kJ/mol
# GULP energy per Si atom -12400.114847 kJ/mol
# Density = 2.392072 g / cm^3
# Si number density = 23.975286 Si / 1000 Ang^3
#
#
#
# Elastic Constant Matrix: (Units=GPa)
#
#
# Indices 1 2 3 4 5 6 
#
# 1 63.7248 -1.4739 -21.3828 0.0000 4.1498 0.0000
# 2 -1.4739 72.1879 6.3168 0.0000 -2.0050 0.0000
# 3 -21.3828 6.3168 56.8232 0.0000 19.4107 0.0000
# 4 0.0000 0.0000 0.0000 40.6194 0.0000 -2.9669
# 5 4.1498 -2.0050 19.4107 0.0000 34.2100 0.0000
# 6 0.0000 0.0000 0.0000 -2.9669 0.0000 30.1699
#
#
#
# Elastic Compliance Matrix: (Units=1/GPa)
#
#
# Indices 1 2 3 4 5 6 
#
# 1 0.019676 -0.000731 0.010315 0.000000 -0.008282 0.000000
# 2 -0.000731 0.014140 -0.002680 0.000000 0.002438 0.000000
# 3 0.010315 -0.002680 0.027610 0.000000 -0.017074 0.000000
# 4 0.000000 0.000000 0.000000 0.024797 0.000000 0.002439
# 5 -0.008282 0.002438 -0.017074 0.000000 0.040067 0.000000
# 6 0.000000 0.000000 0.000000 0.002439 0.000000 0.033385
#
#
# Mechanical properties :
#
#
# Convention : Reuss Voigt Hill
#
# Bulk Modulus (GPa) = 13.29183 17.73957 15.51570
# Shear Modulus (GPa) = 29.24912 34.95158 32.10035
#
# Velocity S-wave (km/s) = 3.49660 3.82228 3.66306
# Velocity P-wave (km/s) = 4.67521 5.18603 4.93723
#
# Compressibility (1/GPa) = 0.07523418
#
# Stress axis : x y z
#
# Youngs Moduli (GPa) = 50.82353 70.72131 36.21838
#
# Poissons Ratio (x) = 0.05169 -0.37357
# Poissons Ratio (y) = 0.03715 0.09705
# Poissons Ratio (z) = -0.52422 0.18951
#
# Static dielectric constant tensor:
#      x y z
#    x 4.454000 0.000000 0.030740 
#    y 0.000000 4.237760 0.000000 
#    z 0.030740 0.000000 4.352240 
# 
# 
# High freq. dielectric constant tensor:
#      x y z
#    x 1.963280 0.000000 -0.000830 
#    y 0.000000 1.947530 0.000000 
#    z -0.000830 0.000000 1.944300 
# 
# From -- ./inp_files/65807.got.cif
#   From: 2010.03.12/outbox.cif.g09.slc.cpg/sg14_33_cif.got.tgz:65807.got - 2010.03.31 13:35:05.
