data_PCOD8127278
_publ_section_title
;
Structure prediction by ZEFSAII (Michael W. Deem and Ramdas Pophale) SiO2 
 PCOD8127278
Probable space group: P 21/C
;
_chemical_formula_sum "Si O2"
_cell_formula_units_Z 32
_cell_length_a 8.537363
_cell_length_b 17.563804
_cell_length_c 10.513322
_cell_angle_alpha 90.000000
_cell_angle_beta 91.885650
_cell_angle_gamma 90.000000
_cell_volume 1575.603934
_symmetry_space_group_name_H-M "P 21/C"
_symmetry_group_IT_number 14
_symmetry_cell_setting 'monoclinic'
loop_
_space_group_symop_operation_xyz
x,y,z
-x,1/2+y,1/2-z
-x,-y,-z
x,1/2-y,1/2+z
loop_
_atom_site_type_symbol
_atom_site_label
_atom_site_fract_x
_atom_site_fract_y
_atom_site_fract_z
Si Si1 0.474280 0.814089 0.997899
Si Si2 0.241762 0.805548 0.400439
Si Si3 0.655532 0.571785 0.901236
Si Si4 0.389512 0.920470 0.208000
Si Si5 0.117918 0.300721 0.108777
Si Si6 0.618305 0.594002 0.290857
Si Si7 0.388259 0.904193 0.581943
Si Si8 0.730507 0.726066 0.144298
O O1 0.353803 0.768887 0.901465
O O2 0.608257 0.858002 0.920680
O O3 0.380077 0.878955 0.072012
O O4 0.557173 0.756858 0.100642
O O5 0.286525 0.871325 0.302374
O O6 0.256578 0.841725 0.543588
O O7 0.063083 0.784864 0.369025
O O8 0.569005 0.573487 0.761632
O O9 0.825647 0.611468 0.900491
O O10 0.681132 0.486901 0.954712
O O11 0.540432 0.615217 0.996929
O O12 0.322096 0.007009 0.190401
O O13 0.214145 0.271622 0.231371
O O14 0.158068 0.261305 0.974706
O O15 0.440154 0.596178 0.229921
O O16 0.727909 0.637891 0.191622
#
# Coordination Sequence:
#
# PCOD8127278 Si02
#       8
#     4   4   4   4   4   4   4   4
#     4  12  22  40  67  93 122 167 219 265 318 377
#     4  11  25  38  64  91 127 165 206 270 325 376
#     4   9  17  36  60  87 116 160 204 257 308 369
#     4  10  22  41  63  93 126 160 213 269 324 379
#     4  12  25  39  62  92 134 172 209 264 329 384
#     4  11  21  38  68  93 122 164 216 271 313 375
#     4   9  18  35  60  89 119 151 211 260 303 368
#     4  12  23  41  63  93 125 171 222 258 309 386
#
# _framework density 20.309671999999999
#
# number of rings (size 3 to 8) (size 9 to 14) (size 15 to 20)
#    0.000    1.250    5.000    2.625    1.750    0.500 
#    0.000    0.000    0.000    1.500    0.000    0.000 
#    0.000    0.000    0.000    0.000    0.000    0.000 
#
# Total GULP energy -396504.244327 kJ/mol
# GULP energy per Si atom -12390.757635 kJ/mol
# Density = 2.026345 g / cm^3
# Si number density = 20.309672 Si / 1000 Ang^3
#
#
#
# Elastic Constant Matrix: (Units=GPa)
#
#
# Indices 1 2 3 4 5 6 
#
# 1 74.6147 32.1027 20.1603 0.0000 -0.5503 0.0000
# 2 32.1027 116.1909 37.6428 0.0000 -6.1585 0.0000
# 3 20.1603 37.6428 90.1471 0.0000 -9.1848 0.0000
# 4 0.0000 0.0000 0.0000 35.5145 0.0000 -3.7026
# 5 -0.5503 -6.1585 -9.1848 0.0000 18.7603 0.0000
# 6 0.0000 0.0000 0.0000 -3.7026 0.0000 19.5418
#
#
#
# Elastic Compliance Matrix: (Units=1/GPa)
#
#
# Indices 1 2 3 4 5 6 
#
# 1 0.015555 -0.003708 -0.002113 0.000000 -0.001796 0.000000
# 2 -0.003708 0.010867 -0.003532 0.000000 0.001729 0.000000
# 3 -0.002113 -0.003532 0.013594 0.000000 0.005434 0.000000
# 4 0.000000 0.000000 0.000000 0.028725 0.000000 0.005443
# 5 -0.001796 0.001729 0.005434 0.000000 0.056480 0.000000
# 6 0.000000 0.000000 0.000000 0.005443 0.000000 0.052203
#
#
# Mechanical properties :
#
#
# Convention : Reuss Voigt Hill
#
# Bulk Modulus (GPa) = 46.92853 51.19603 49.06228
# Shear Modulus (GPa) = 24.60200 27.49979 26.05089
#
# Velocity S-wave (km/s) = 3.48421 3.68370 3.58534
# Velocity P-wave (km/s) = 6.27240 6.58447 6.43033
#
# Compressibility (1/GPa) = 0.02130900
#
# Stress axis : x y z
#
# Youngs Moduli (GPa) = 64.28613 92.02037 73.56079
#
# Poissons Ratio (x) = 0.34125 0.15545
# Poissons Ratio (y) = 0.23840 0.25984
# Poissons Ratio (z) = 0.13585 0.32504
#
# Static dielectric constant tensor:
#      x y z
#    x 3.215260 0.000000 0.166370 
#    y 0.000000 3.875700 0.000000 
#    z 0.166370 0.000000 3.798690 
# 
# 
# High freq. dielectric constant tensor:
#      x y z
#    x 1.732320 0.000000 0.009360 
#    y 0.000000 1.807600 0.000000 
#    z 0.009360 0.000000 1.799380 
# 
# From -- ./inp_files/26100.got.cif
#   From: 2010.03.12/outbox.cif.g09.slc.cpg/sg14_14_cif.got.tgz:26100.got - 2010.03.31 13:35:05.
