data_PCOD8127676
_publ_section_title
;
Structure prediction by ZEFSAII (Michael W. Deem and Ramdas Pophale) SiO2 
 PCOD8127676
Probable space group: P 21/C
;
_chemical_formula_sum "Si O2"
_cell_formula_units_Z 20
_cell_length_a 12.095440
_cell_length_b 5.316876
_cell_length_c 26.732389
_cell_angle_alpha 90.000000
_cell_angle_beta 30.063580
_cell_angle_gamma 90.000000
_cell_volume 861.230964
_symmetry_space_group_name_H-M "P 21/C"
_symmetry_group_IT_number 14
_symmetry_cell_setting 'monoclinic'
loop_
_space_group_symop_operation_xyz
x,y,z
-x,1/2+y,1/2-z
-x,-y,-z
x,1/2-y,1/2+z
loop_
_atom_site_type_symbol
_atom_site_label
_atom_site_fract_x
_atom_site_fract_y
_atom_site_fract_z
Si Si1 0.862193 0.722020 0.234522
Si Si2 0.566751 0.454152 0.116253
Si Si3 0.257853 0.461431 0.615225
Si Si4 0.128267 0.356549 0.079681
Si Si5 0.197281 0.058237 0.959668
O O1 0.701080 0.948683 0.279113
O O2 0.728726 0.576114 0.330478
O O3 0.913891 0.539332 0.166919
O O4 0.094808 0.809581 0.166259
O O5 0.661653 0.690542 0.111867
O O6 0.646281 0.183287 0.104654
O O7 0.659289 0.487882 0.023507
O O8 0.500000 0.500000 0.500000
O O9 0.164938 0.218912 0.622749
O O10 0.093566 0.116210 0.055865
O O11 0.000000 0.000000 0.000000
#
# Coordination Sequence:
#
# PCOD8127676 Si02
#       5
#     4   4   4   4   4
#     4  12  24  41  66 104 150 203 238 310 361 445
#     4  10  25  43  74 103 144 184 248 301 367 431
#     4  12  26  41  67 103 150 200 252 293 365 444
#     4  10  24  41  71 100 148 187 252 302 367 434
#     4  10  22  47  78 102 135 189 242 315 377 433
#
# _framework density 23.222574999999999
#
# number of rings (size 3 to 8) (size 9 to 14) (size 15 to 20)
#    1.200    0.000    2.000    4.200    5.600    1.600 
#    0.000    0.000    8.800    0.000    0.000    0.000 
#    0.000    0.000    0.000    0.000    0.000    0.000 
#
# Total GULP energy -247787.997802 kJ/mol
# GULP energy per Si atom -12389.399890 kJ/mol
# Density = 2.316972 g / cm^3
# Si number density = 23.222575 Si / 1000 Ang^3
#
#
#
# Elastic Constant Matrix: (Units=GPa)
#
#
# Indices 1 2 3 4 5 6 
#
# 1 70.1887 24.4837 16.7344 0.0000 -18.8966 0.0000
# 2 24.4837 137.2725 27.0491 0.0000 -11.5077 0.0000
# 3 16.7344 27.0491 104.3907 0.0000 -11.5934 0.0000
# 4 0.0000 0.0000 0.0000 31.5997 0.0000 -6.6619
# 5 -18.8966 -11.5077 -11.5934 0.0000 20.7438 0.0000
# 6 0.0000 0.0000 0.0000 -6.6619 0.0000 32.9903
#
#
#
# Elastic Compliance Matrix: (Units=1/GPa)
#
#
# Indices 1 2 3 4 5 6 
#
# 1 0.019489 -0.001956 -0.000817 0.000000 0.016212 0.000000
# 2 -0.001956 0.008099 -0.001582 0.000000 0.001827 0.000000
# 3 -0.000817 -0.001582 0.010598 0.000000 0.004301 0.000000
# 4 0.000000 0.000000 0.000000 0.033053 0.000000 0.006675
# 5 0.016212 0.001827 0.004301 0.000000 0.066393 0.000000
# 6 0.000000 0.000000 0.000000 0.006675 0.000000 0.031660
#
#
# Mechanical properties :
#
#
# Convention : Reuss Voigt Hill
#
# Bulk Modulus (GPa) = 33.92625 49.82069 41.87347
# Shear Modulus (GPa) = 26.62036 33.30575 29.96305
#
# Velocity S-wave (km/s) = 3.38940 3.79119 3.59591
# Velocity P-wave (km/s) = 5.47341 6.37685 5.94233
#
# Compressibility (1/GPa) = 0.02947570
#
# Stress axis : x y z
#
# Youngs Moduli (GPa) = 51.31082 123.47943 94.35780
#
# Poissons Ratio (x) = 0.24153 0.07708
# Poissons Ratio (y) = 0.10036 0.14928
# Poissons Ratio (z) = 0.04192 0.19535
#
# Static dielectric constant tensor:
#      x y z
#    x 4.010270 0.000000 -0.144060 
#    y 0.000000 4.301480 0.000000 
#    z -0.144060 0.000000 4.171350 
# 
# 
# High freq. dielectric constant tensor:
#      x y z
#    x 1.878270 0.000000 -0.009280 
#    y 0.000000 1.929980 0.000000 
#    z -0.009280 0.000000 1.923260 
# 
# From -- ./inp_files/30966.got.cif
#   From: 2010.03.12/outbox.cif.g09.slc.cpg/sg14_16_cif.got.tgz:30966.got - 2010.03.31 13:35:05.
