data_PCOD8127218
_publ_section_title
;
Structure prediction by ZEFSAII (Michael W. Deem and Ramdas Pophale) SiO2 
 PCOD8127218
Probable space group: P 21/C
;
_chemical_formula_sum "Si O2"
_cell_formula_units_Z 28
_cell_length_a 15.119583
_cell_length_b 11.693343
_cell_length_c 9.092014
_cell_angle_alpha 90.000000
_cell_angle_beta 122.294598
_cell_angle_gamma 90.000000
_cell_volume 1358.800632
_symmetry_space_group_name_H-M "P 21/C"
_symmetry_group_IT_number 14
_symmetry_cell_setting 'monoclinic'
loop_
_space_group_symop_operation_xyz
x,y,z
-x,1/2+y,1/2-z
-x,-y,-z
x,1/2-y,1/2+z
loop_
_atom_site_type_symbol
_atom_site_label
_atom_site_fract_x
_atom_site_fract_y
_atom_site_fract_z
Si Si1 0.493727 0.340941 0.400690
Si Si2 0.669971 0.474336 0.713371
Si Si3 0.933490 0.664734 0.021261
Si Si4 0.120024 0.984018 0.762571
Si Si5 0.901157 0.573095 0.445657
Si Si6 0.531234 0.619101 0.953059
Si Si7 0.246512 0.070446 0.443357
O O1 0.578825 0.388453 0.591147
O O2 0.380528 0.397427 0.338344
O O3 0.494506 0.208110 0.440974
O O4 0.525784 0.361833 0.257117
O O5 0.766873 0.447673 0.694661
O O6 0.713317 0.463079 0.920508
O O7 0.830076 0.650455 0.028310
O O8 0.040073 0.624807 0.200733
O O9 0.930795 0.585533 0.875989
O O10 0.935430 0.794570 0.968235
O O11 0.145323 0.038928 0.940472
O O12 0.815843 0.529883 0.253610
O O13 0.000000 0.500000 0.500000
O O14 0.500000 0.500000 0.000000
O O15 0.653386 0.637908 0.027470
#
# Coordination Sequence:
#
# PCOD8127218 Si02
#       7
#     4   4   4   4   4   4   4
#     4  10  24  44  72  97 137 172 229 281 335 398
#     4   9  22  45  67  94 129 180 216 269 342 391
#     4  10  22  43  62  93 130 172 218 269 336 401
#     4  10  22  40  66  88 128 175 212 267 334 395
#     4  12  24  39  65  98 131 166 225 275 323 396
#     4  11  27  44  69 101 136 180 229 278 341 405
#     4  10  23  42  67  96 129 168 223 276 325 402
#
# _framework density 20.606407999999998
#
# number of rings (size 3 to 8) (size 9 to 14) (size 15 to 20)
#    0.000    1.714    1.429    0.857   16.000    0.000 
#    2.571    0.000    0.000    0.000    0.000    0.000 
#    0.000    0.000    0.000    0.000    0.000    0.000 
#
# Total GULP energy -346955.577300 kJ/mol
# GULP energy per Si atom -12391.270618 kJ/mol
# Density = 2.055951 g / cm^3
# Si number density = 20.606408 Si / 1000 Ang^3
#
#
#
# Elastic Constant Matrix: (Units=GPa)
#
#
# Indices 1 2 3 4 5 6 
#
# 1 99.7366 53.7465 45.2893 0.0000 0.5523 0.0000
# 2 53.7465 108.8583 56.0092 0.0000 -3.2385 0.0000
# 3 45.2893 56.0092 161.3720 0.0000 -4.3200 0.0000
# 4 0.0000 0.0000 0.0000 22.0463 0.0000 -8.1173
# 5 0.5523 -3.2385 -4.3200 0.0000 37.6685 0.0000
# 6 0.0000 0.0000 0.0000 -8.1173 0.0000 19.6071
#
#
#
# Elastic Compliance Matrix: (Units=1/GPa)
#
#
# Indices 1 2 3 4 5 6 
#
# 1 0.014147 -0.006035 -0.001901 0.000000 -0.000944 0.000000
# 2 -0.006035 0.013768 -0.003060 0.000000 0.000921 0.000000
# 3 -0.001901 -0.003060 0.007810 0.000000 0.000660 0.000000
# 4 0.000000 0.000000 0.000000 0.053517 0.000000 0.022156
# 5 -0.000944 0.000921 0.000660 0.000000 0.026716 0.000000
# 6 0.000000 0.000000 0.000000 0.022156 0.000000 0.060175
#
#
# Mechanical properties :
#
#
# Convention : Reuss Voigt Hill
#
# Bulk Modulus (GPa) = 72.81815 75.56187 74.19001
# Shear Modulus (GPa) = 24.66678 30.19252 27.42965
#
# Velocity S-wave (km/s) = 3.46359 3.83195 3.65241
# Velocity P-wave (km/s) = 7.17005 7.50514 7.33951
#
# Compressibility (1/GPa) = 0.01373284
#
# Stress axis : x y z
#
# Youngs Moduli (GPa) = 70.68686 72.63395 128.03727
#
# Poissons Ratio (x) = 0.43832 0.24341
# Poissons Ratio (y) = 0.42657 0.39182
# Poissons Ratio (z) = 0.13438 0.22227
#
# Static dielectric constant tensor:
#      x y z
#    x 3.770380 0.000000 0.016420 
#    y 0.000000 3.533810 0.000000 
#    z 0.016420 0.000000 4.004980 
# 
# 
# High freq. dielectric constant tensor:
#      x y z
#    x 1.810580 0.000000 -0.002170 
#    y 0.000000 1.777270 0.000000 
#    z -0.002170 0.000000 1.826520 
# 
# From -- ./inp_files/15441.got.cif
#   From: 2010.03.12/outbox.cif.g09.slc.cpg/sg14_8_cif.got.tgz:15441.got - 2010.03.31 13:35:05.
