data_PCOD8127313
_publ_section_title
;
Structure prediction by ZEFSAII (Michael W. Deem and Ramdas Pophale) SiO2 
 PCOD8127313
Probable space group: P 21/C
;
_chemical_formula_sum "Si O2"
_cell_formula_units_Z 20
_cell_length_a 5.237376
_cell_length_b 12.699443
_cell_length_c 14.151127
_cell_angle_alpha 90.000000
_cell_angle_beta 103.843754
_cell_angle_gamma 90.000000
_cell_volume 913.875732
_symmetry_space_group_name_H-M "P 21/C"
_symmetry_group_IT_number 14
_symmetry_cell_setting 'monoclinic'
loop_
_space_group_symop_operation_xyz
x,y,z
-x,1/2+y,1/2-z
-x,-y,-z
x,1/2-y,1/2+z
loop_
_atom_site_type_symbol
_atom_site_label
_atom_site_fract_x
_atom_site_fract_y
_atom_site_fract_z
Si Si1 0.942479 0.378768 0.501243
Si Si2 0.393601 0.395906 0.845692
Si Si3 0.080649 0.482169 0.116669
Si Si4 0.430222 0.225640 0.988793
Si Si5 0.236033 0.245178 0.164256
O O1 0.637081 0.352795 0.456309
O O2 0.000000 0.500000 0.500000
O O3 0.133974 0.319117 0.442865
O O4 0.007506 0.336530 0.612252
O O5 0.643518 0.462154 0.834424
O O6 0.459411 0.343715 0.952467
O O7 0.344196 0.294664 0.773706
O O8 0.140955 0.470392 0.833828
O O9 0.111256 0.361397 0.150898
O O10 0.000000 0.500000 0.000000
O O11 0.469170 0.236771 0.105785
#
# Coordination Sequence:
#
# PCOD8127313 Si02
#       5
#     4   4   4   4   4
#     4  10  22  41  67  90 135 174 214 276 347 391
#     4  12  26  42  71 101 132 186 226 281 351 400
#     4  12  25  46  72  99 138 186 229 282 350 414
#     4  10  22  42  64  95 135 173 221 277 338 404
#     4  10  27  41  70  99 137 170 236 280 331 424
#
# _framework density 21.884813999999999
#
# number of rings (size 3 to 8) (size 9 to 14) (size 15 to 20)
#    1.200    0.000    2.000    3.600    5.600    3.200 
#    0.000    0.000    0.000    0.000    0.000    0.000 
#    0.000    0.000    0.000    0.000    0.000    0.000 
#
# Total GULP energy -247800.376907 kJ/mol
# GULP energy per Si atom -12390.018845 kJ/mol
# Density = 2.183500 g / cm^3
# Si number density = 21.884814 Si / 1000 Ang^3
#
#
#
# Elastic Constant Matrix: (Units=GPa)
#
#
# Indices 1 2 3 4 5 6 
#
# 1 177.4841 62.4336 24.1719 0.0000 14.0794 0.0000
# 2 62.4336 153.3724 40.2314 0.0000 0.5691 0.0000
# 3 24.1719 40.2314 74.5546 0.0000 -1.1130 0.0000
# 4 0.0000 0.0000 0.0000 44.2538 0.0000 6.8247
# 5 14.0794 0.5691 -1.1130 0.0000 19.6270 0.0000
# 6 0.0000 0.0000 0.0000 6.8247 0.0000 34.5059
#
#
#
# Elastic Compliance Matrix: (Units=1/GPa)
#
#
# Indices 1 2 3 4 5 6 
#
# 1 0.007086 -0.002613 -0.000963 0.000000 -0.005062 0.000000
# 2 -0.002613 0.008563 -0.003752 0.000000 0.001414 0.000000
# 3 -0.000963 -0.003752 0.015775 0.000000 0.001694 0.000000
# 4 0.000000 0.000000 0.000000 0.023308 0.000000 -0.004610
# 5 -0.005062 0.001414 0.001694 0.000000 0.054637 0.000000
# 6 0.000000 0.000000 0.000000 -0.004610 0.000000 0.029892
#
#
# Mechanical properties :
#
#
# Convention : Reuss Voigt Hill
#
# Bulk Modulus (GPa) = 59.63931 73.23167 66.43549
# Shear Modulus (GPa) = 31.34649 38.24896 34.79772
#
# Velocity S-wave (km/s) = 3.78873 4.18513 3.99186
# Velocity P-wave (km/s) = 6.81542 7.54246 7.18814
#
# Compressibility (1/GPa) = 0.01676747
#
# Stress axis : x y z
#
# Youngs Moduli (GPa) = 141.11771 116.78261 63.39007
#
# Poissons Ratio (x) = 0.30518 0.06104
# Poissons Ratio (y) = 0.36878 0.23786
# Poissons Ratio (z) = 0.13588 0.43821
#
# Static dielectric constant tensor:
#      x y z
#    x 4.158570 0.000000 0.020370 
#    y 0.000000 3.878630 0.000000 
#    z 0.020370 0.000000 3.667840 
# 
# 
# High freq. dielectric constant tensor:
#      x y z
#    x 1.873240 0.000000 -0.000040 
#    y 0.000000 1.871210 0.000000 
#    z -0.000040 0.000000 1.821790 
# 
# From -- ./inp_files/52898.got.cif
#   From: 2010.03.12/outbox.cif.g09.slc.cpg/sg14_27_cif.got.tgz:52898.got - 2010.03.31 13:35:05.
