data_PCOD8127652
_publ_section_title
;
Structure prediction by ZEFSAII (Michael W. Deem and Ramdas Pophale) SiO2 
 PCOD8127652
Probable space group: P 21/C
;
_chemical_formula_sum "Si O2"
_cell_formula_units_Z 24
_cell_length_a 15.042006
_cell_length_b 4.978283
_cell_length_c 21.028143
_cell_angle_alpha 90.000000
_cell_angle_beta 33.769046
_cell_angle_gamma 90.000000
_cell_volume 875.268322
_symmetry_space_group_name_H-M "P 21/C"
_symmetry_group_IT_number 14
_symmetry_cell_setting 'monoclinic'
loop_
_space_group_symop_operation_xyz
x,y,z
-x,1/2+y,1/2-z
-x,-y,-z
x,1/2-y,1/2+z
loop_
_atom_site_type_symbol
_atom_site_label
_atom_site_fract_x
_atom_site_fract_y
_atom_site_fract_z
Si Si1 0.352002 0.951722 0.663868
Si Si2 0.470499 0.096393 0.226436
Si Si3 0.326461 0.210887 0.987714
Si Si4 0.175734 0.724299 0.876133
Si Si5 0.921218 0.459477 0.942878
Si Si6 0.209349 0.061264 0.186852
O O1 0.538937 0.887759 0.557218
O O2 0.273047 0.960139 0.781941
O O3 0.254907 0.741202 0.678011
O O4 0.341949 0.244374 0.638965
O O5 0.510804 0.901568 0.262145
O O6 0.595528 0.042025 0.094920
O O7 0.292133 0.038289 0.306415
O O8 0.232956 0.394536 0.993388
O O9 0.205548 0.093806 0.112912
O O10 0.014868 0.666111 0.932981
O O11 0.135060 0.783888 0.975359
O O12 0.034959 0.355386 0.818375
#
# Coordination Sequence:
#
# PCOD8127652 Si02
#       6
#     4   4   4   4   4   4
#     4  10  24  47  75 101 138 192 239 294 347 419
#     4  11  24  45  70 102 132 180 242 291 346 414
#     4  11  24  45  76 105 143 184 243 293 350 428
#     4   9  21  44  68  97 142 181 233 287 356 409
#     4  10  22  46  67 105 144 188 226 295 357 425
#     4  11  25  47  71 104 146 188 232 289 364 422
#
# _framework density 27.420164
#
# number of rings (size 3 to 8) (size 9 to 14) (size 15 to 20)
#    0.000    1.667    1.667    1.000    0.000   12.667 
#    9.000    0.000    0.000    0.000    0.000    0.000 
#    0.000    0.000    0.000    0.000    0.000    0.000 
#
# Total GULP energy -297554.536844 kJ/mol
# GULP energy per Si atom -12398.105702 kJ/mol
# Density = 2.735775 g / cm^3
# Si number density = 27.420164 Si / 1000 Ang^3
#
#
#
# Elastic Constant Matrix: (Units=GPa)
#
#
# Indices 1 2 3 4 5 6 
#
# 1 80.5595 0.2970 21.9607 0.0000 -2.3598 0.0000
# 2 0.2970 40.7317 -11.9172 0.0000 5.6238 0.0000
# 3 21.9607 -11.9172 189.5305 0.0000 37.9784 0.0000
# 4 0.0000 0.0000 0.0000 16.4857 0.0000 6.2426
# 5 -2.3598 5.6238 37.9784 0.0000 50.3016 0.0000
# 6 0.0000 0.0000 0.0000 6.2426 0.0000 28.5961
#
#
#
# Elastic Compliance Matrix: (Units=1/GPa)
#
#
# Indices 1 2 3 4 5 6 
#
# 1 0.013035 -0.000998 -0.002024 0.000000 0.002251 0.000000
# 2 -0.000998 0.026065 0.002766 0.000000 -0.005050 0.000000
# 3 -0.002024 0.002766 0.006793 0.000000 -0.005533 0.000000
# 4 0.000000 0.000000 0.000000 0.066125 0.000000 -0.014435
# 5 0.002251 -0.005050 -0.005533 0.000000 0.024728 0.000000
# 6 0.000000 0.000000 0.000000 -0.014435 0.000000 0.038121
#
#
# Mechanical properties :
#
#
# Convention : Reuss Voigt Hill
#
# Bulk Modulus (GPa) = 22.03566 36.83363 29.43465
# Shear Modulus (GPa) = 26.24596 39.10877 32.67736
#
# Velocity S-wave (km/s) = 3.09718 3.78071 3.45589
# Velocity P-wave (km/s) = 4.56550 5.70268 5.16548
#
# Compressibility (1/GPa) = 0.04538098
#
# Stress axis : x y z
#
# Youngs Moduli (GPa) = 76.71879 38.36594 147.20006
#
# Poissons Ratio (x) = 0.03829 0.29796
# Poissons Ratio (y) = 0.07658 -0.40721
# Poissons Ratio (z) = 0.15529 -0.10613
#
# Static dielectric constant tensor:
#      x y z
#    x 5.008590 0.000000 0.212760 
#    y 0.000000 4.325370 0.000000 
#    z 0.212760 0.000000 5.631100 
# 
# 
# High freq. dielectric constant tensor:
#      x y z
#    x 2.113950 0.000000 0.006960 
#    y 0.000000 2.069640 0.000000 
#    z 0.006960 0.000000 2.127400 
# 
# From -- ./inp_files/67810.got.cif
#   From: 2010.03.12/outbox.cif.g09.slc.cpg/sg14_34_cif.got.tgz:67810.got - 2010.03.31 13:35:05.
