data_PCOD8127344
_publ_section_title
;
Structure prediction by ZEFSAII (Michael W. Deem and Ramdas Pophale) SiO2 
 PCOD8127344
Probable space group: P 21/C
;
_chemical_formula_sum "Si O2"
_cell_formula_units_Z 28
_cell_length_a 16.521685
_cell_length_b 19.380514
_cell_length_c 8.856382
_cell_angle_alpha 90.000000
_cell_angle_beta 28.446418
_cell_angle_gamma 90.000000
_cell_volume 1350.796761
_symmetry_space_group_name_H-M "P 21/C"
_symmetry_group_IT_number 14
_symmetry_cell_setting 'monoclinic'
loop_
_space_group_symop_operation_xyz
x,y,z
-x,1/2+y,1/2-z
-x,-y,-z
x,1/2-y,1/2+z
loop_
_atom_site_type_symbol
_atom_site_label
_atom_site_fract_x
_atom_site_fract_y
_atom_site_fract_z
Si Si1 0.156969 0.833716 0.037412
Si Si2 0.879736 0.193096 0.249518
Si Si3 0.987433 0.978162 0.351519
Si Si4 0.528351 0.317922 0.477034
Si Si5 0.820893 0.911401 0.160153
Si Si6 0.493999 0.174905 0.389690
Si Si7 0.660468 0.548017 0.228885
O O1 0.081790 0.771919 0.264069
O O2 0.036709 0.899195 0.243834
O O3 0.167605 0.806784 0.848908
O O4 0.342683 0.856681 0.792649
O O5 0.717892 0.165507 0.608265
O O6 0.041311 0.145459 0.017333
O O7 0.790346 0.984081 0.634398
O O8 0.000000 0.000000 0.500000
O O9 0.101616 0.029633 0.069124
O O10 0.452882 0.247925 0.533194
O O11 0.534421 0.315062 0.647563
O O12 0.397433 0.375138 0.633082
O O13 0.667702 0.874536 0.321278
O O14 0.749256 0.952325 0.420660
O O15 0.500000 0.500000 0.500000
#
# Coordination Sequence:
#
# PCOD8127344 Si02
#       7
#     4   4   4   4   4   4   4
#     4  11  25  43  69 100 136 177 225 275 345 398
#     4  11  23  43  73  97 137 178 230 282 334 408
#     4  12  29  44  67 104 137 179 229 282 348 412
#     4  10  22  41  70  98 131 179 227 277 339 403
#     4  11  26  45  69  98 137 181 227 284 342 409
#     4  10  23  42  67  99 135 173 229 279 339 400
#     4  11  25  46  70  95 136 182 224 276 345 409
#
# _framework density 20.728508000000001
#
# number of rings (size 3 to 8) (size 9 to 14) (size 15 to 20)
#    0.000    1.143    1.429    4.714   12.000    2.857 
#    0.000    0.000    0.000    0.000    0.000    0.000 
#    0.000    0.000    0.000    0.000    0.000    0.000 
#
# Total GULP energy -347271.496581 kJ/mol
# GULP energy per Si atom -12402.553449 kJ/mol
# Density = 2.068133 g / cm^3
# Si number density = 20.728508 Si / 1000 Ang^3
#
#
#
# Elastic Constant Matrix: (Units=GPa)
#
#
# Indices 1 2 3 4 5 6 
#
# 1 137.1981 68.3330 73.9952 0.0000 -10.7379 0.0000
# 2 68.3330 113.1701 74.8624 0.0000 -1.6266 0.0000
# 3 73.9952 74.8624 130.8915 0.0000 -18.0593 0.0000
# 4 0.0000 0.0000 0.0000 45.9489 0.0000 -5.3073
# 5 -10.7379 -1.6266 -18.0593 0.0000 15.7853 0.0000
# 6 0.0000 0.0000 0.0000 -5.3073 0.0000 36.9813
#
#
#
# Elastic Compliance Matrix: (Units=1/GPa)
#
#
# Indices 1 2 3 4 5 6 
#
# 1 0.011820 -0.004819 -0.003426 0.000000 0.003624 0.000000
# 2 -0.004819 0.017431 -0.008846 0.000000 -0.011602 0.000000
# 3 -0.003426 -0.008846 0.016848 0.000000 0.016033 0.000000
# 4 0.000000 0.000000 0.000000 0.022130 0.000000 0.003176
# 5 0.003624 -0.011602 0.016033 0.000000 0.082963 0.000000
# 6 0.000000 0.000000 0.000000 0.003176 0.000000 0.027496
#
#
# Mechanical properties :
#
#
# Convention : Reuss Voigt Hill
#
# Bulk Modulus (GPa) = 83.90937 90.62675 87.26806
# Shear Modulus (GPa) = 23.05815 30.68104 26.86960
#
# Velocity S-wave (km/s) = 3.33887 3.85143 3.60427
# Velocity P-wave (km/s) = 7.44527 7.97457 7.71446
#
# Compressibility (1/GPa) = 0.01191762
#
# Stress axis : x y z
#
# Youngs Moduli (GPa) = 84.60103 57.36989 59.35318
#
# Poissons Ratio (x) = 0.27645 0.20335
# Poissons Ratio (y) = 0.40766 0.52504
# Poissons Ratio (z) = 0.28985 0.50750
#
# Static dielectric constant tensor:
#      x y z
#    x 4.022790 0.000000 -0.002530 
#    y 0.000000 4.020530 0.000000 
#    z -0.002530 0.000000 4.013620 
# 
# 
# High freq. dielectric constant tensor:
#      x y z
#    x 1.822550 0.000000 -0.003980 
#    y 0.000000 1.822070 0.000000 
#    z -0.003980 0.000000 1.820310 
# 
# From -- ./inp_files/16922.got.cif
#   From: 2010.03.12/outbox.cif.g09.slc.cpg/sg14_9_cif.got.tgz:16922.got - 2010.03.31 13:35:05.
