data_PCOD8127683
_publ_section_title
;
Structure prediction by ZEFSAII (Michael W. Deem and Ramdas Pophale) SiO2 
 PCOD8127683
Probable space group: P 21/C
;
_chemical_formula_sum "Si O2"
_cell_formula_units_Z 28
_cell_length_a 9.076201
_cell_length_b 15.117053
_cell_length_c 10.094842
_cell_angle_alpha 90.000000
_cell_angle_beta 90.187673
_cell_angle_gamma 90.000000
_cell_volume 1385.059521
_symmetry_space_group_name_H-M "P 21/C"
_symmetry_group_IT_number 14
_symmetry_cell_setting 'monoclinic'
loop_
_space_group_symop_operation_xyz
x,y,z
-x,1/2+y,1/2-z
-x,-y,-z
x,1/2-y,1/2+z
loop_
_atom_site_type_symbol
_atom_site_label
_atom_site_fract_x
_atom_site_fract_y
_atom_site_fract_z
Si Si1 0.876947 0.765119 0.704433
Si Si2 0.682107 0.750414 0.957388
Si Si3 0.517538 0.906508 0.850448
Si Si4 0.998861 0.588895 0.640092
Si Si5 0.252564 0.512319 0.489918
Si Si6 0.922636 0.960436 0.627398
Si Si7 0.600192 0.926650 0.562122
O O1 0.809976 0.771641 0.851192
O O2 0.745661 0.738728 0.604912
O O3 0.997241 0.686700 0.703179
O O4 0.953829 0.856336 0.657252
O O5 0.545527 0.816574 0.933570
O O6 0.623581 0.649302 0.950674
O O7 0.526691 0.886327 0.694453
O O8 0.642857 0.977537 0.891791
O O9 0.354231 0.942850 0.878461
O O10 0.842739 0.569779 0.566974
O O11 0.137361 0.585894 0.541059
O O12 0.018614 0.513525 0.748213
O O13 0.750382 0.974088 0.604532
O O14 0.000000 0.000000 0.500000
O O15 0.500000 0.000000 0.500000
#
# Coordination Sequence:
#
# PCOD8127683 Si02
#       7
#     4   4   4   4   4   4   4
#     4  11  23  40  71  96 129 185 224 266 342 417
#     4  11  21  42  67  97 128 175 227 269 326 421
#     4  11  21  44  63  98 128 173 224 284 333 401
#     4  11  21  42  64  99 127 174 220 274 335 404
#     4  10  23  36  69  90 132 167 219 282 339 389
#     4  11  24  45  65  97 137 174 221 279 337 406
#     4  11  25  43  66  95 133 176 223 276 344 400
#
# _framework density 20.215738999999999
#
# number of rings (size 3 to 8) (size 9 to 14) (size 15 to 20)
#    0.000    1.143    5.714    1.714    6.000    0.000 
#    2.571    0.000    0.000    0.000    0.000    0.000 
#    0.000    0.000    0.000    0.000    0.000    0.000 
#
# Total GULP energy -347176.864066 kJ/mol
# GULP energy per Si atom -12399.173717 kJ/mol
# Density = 2.016973 g / cm^3
# Si number density = 20.215739 Si / 1000 Ang^3
#
#
#
# Elastic Constant Matrix: (Units=GPa)
#
#
# Indices 1 2 3 4 5 6 
#
# 1 99.3636 40.0012 24.5941 0.0000 -16.9612 0.0000
# 2 40.0012 127.0668 25.1111 0.0000 -8.1131 0.0000
# 3 24.5941 25.1111 84.9677 0.0000 -16.1246 0.0000
# 4 0.0000 0.0000 0.0000 38.1245 0.0000 -1.7042
# 5 -16.9612 -8.1131 -16.1246 0.0000 33.3114 0.0000
# 6 0.0000 0.0000 0.0000 -1.7042 0.0000 34.3617
#
#
#
# Elastic Compliance Matrix: (Units=1/GPa)
#
#
# Indices 1 2 3 4 5 6 
#
# 1 0.012659 -0.003330 -0.001774 0.000000 0.004776 0.000000
# 2 -0.003330 0.009260 -0.001835 0.000000 -0.000328 0.000000
# 3 -0.001774 -0.001835 0.013840 0.000000 0.005349 0.000000
# 4 0.000000 0.000000 0.000000 0.026288 0.000000 0.001304
# 5 0.004776 -0.000328 0.005349 0.000000 0.034961 0.000000
# 6 0.000000 0.000000 0.000000 0.001304 0.000000 0.029167
#
#
# Mechanical properties :
#
#
# Convention : Reuss Voigt Hill
#
# Bulk Modulus (GPa) = 45.70047 54.53455 50.11751
# Shear Modulus (GPa) = 33.93392 35.93896 34.93644
#
# Velocity S-wave (km/s) = 4.10150 4.22094 4.16165
# Velocity P-wave (km/s) = 6.71455 7.12671 6.92370
#
# Compressibility (1/GPa) = 0.02188161
#
# Stress axis : x y z
#
# Youngs Moduli (GPa) = 78.99700 107.99448 72.25382
#
# Poissons Ratio (x) = 0.35957 0.12816
# Poissons Ratio (y) = 0.26302 0.13260
# Poissons Ratio (z) = 0.14012 0.19819
#
# Static dielectric constant tensor:
#      x y z
#    x 3.456490 0.000000 0.120000 
#    y 0.000000 3.464580 0.000000 
#    z 0.120000 0.000000 3.521780 
# 
# 
# High freq. dielectric constant tensor:
#      x y z
#    x 1.773690 0.000000 -0.005200 
#    y 0.000000 1.792840 0.000000 
#    z -0.005200 0.000000 1.797950 
# 
# From -- ./inp_files/24936.got.cif
#   From: 2010.03.12/outbox.cif.g09.slc.cpg/sg14_13_cif.got.tgz:24936.got - 2010.03.31 13:35:05.
