data_PCOD8127952
_publ_section_title
;
Structure prediction by ZEFSAII (Michael W. Deem and Ramdas Pophale) SiO2 
 PCOD8127952
Probable space group: P 21/C
;
_chemical_formula_sum "Si O2"
_cell_formula_units_Z 32
_cell_length_a 16.620062
_cell_length_b 15.536849
_cell_length_c 10.359328
_cell_angle_alpha 90.000000
_cell_angle_beta 28.447014
_cell_angle_gamma 90.000000
_cell_volume 1274.235055
_symmetry_space_group_name_H-M "P 21/C"
_symmetry_group_IT_number 14
_symmetry_cell_setting 'monoclinic'
loop_
_space_group_symop_operation_xyz
x,y,z
-x,1/2+y,1/2-z
-x,-y,-z
x,1/2-y,1/2+z
loop_
_atom_site_type_symbol
_atom_site_label
_atom_site_fract_x
_atom_site_fract_y
_atom_site_fract_z
Si Si1 0.853343 0.430569 0.722108
Si Si2 0.856242 0.578369 0.373234
Si Si3 0.667520 0.308332 0.361358
Si Si4 0.135579 0.745687 0.173869
Si Si5 0.234591 0.973198 0.393549
Si Si6 0.644959 0.436527 0.758896
Si Si7 0.399672 0.296524 0.122766
Si Si8 0.818140 0.847900 0.652667
O O1 0.930905 0.339992 0.660692
O O2 0.718527 0.464860 0.020350
O O3 0.753837 0.412887 0.731211
O O4 0.000000 0.500000 0.500000
O O5 0.765033 0.484774 0.486317
O O6 0.879295 0.622064 0.204554
O O7 0.041218 0.561302 0.166077
O O8 0.748530 0.641059 0.617592
O O9 0.747857 0.296178 0.388214
O O10 0.487364 0.258440 0.615083
O O11 0.775346 0.272547 0.087466
O O12 0.648546 0.411569 0.360520
O O13 0.979714 0.807017 0.353513
O O14 0.254789 0.071603 0.323526
O O15 0.549751 0.351179 0.839912
O O16 0.500000 0.500000 0.000000
O O17 0.324845 0.225671 0.130409
#
# Coordination Sequence:
#
# PCOD8127952 Si02
#       8
#     4   4   4   4   4   4   4   4
#     4  11  22  41  75 102 139 184 246 292 356 436
#     4  11  24  48  70 110 145 188 249 298 368 435
#     4  11  25  45  73 106 149 192 245 306 371 434
#     4  11  26  44  73 110 145 194 251 305 359 444
#     4  11  25  46  71 110 146 187 242 308 363 439
#     4  10  23  43  72 102 140 184 235 303 359 425
#     4  11  26  47  70 108 143 192 243 301 363 447
#     4  12  28  45  75 105 151 191 241 306 368 447
#
# _framework density 25.113105000000001
#
# number of rings (size 3 to 8) (size 9 to 14) (size 15 to 20)
#    0.000    1.000    3.750    1.875    7.000    1.500 
#    0.000    0.000    0.000    0.000    0.000    0.000 
#    0.000    0.000    0.000    0.000    0.000    0.000 
#
# Total GULP energy -396525.407319 kJ/mol
# GULP energy per Si atom -12391.418979 kJ/mol
# Density = 2.505595 g / cm^3
# Si number density = 25.113105 Si / 1000 Ang^3
#
#
#
# Elastic Constant Matrix: (Units=GPa)
#
#
# Indices 1 2 3 4 5 6 
#
# 1 50.9891 21.2188 14.6269 0.0000 -0.1469 0.0000
# 2 21.2188 156.6937 30.0814 0.0000 -2.6827 0.0000
# 3 14.6269 30.0814 55.0579 0.0000 -8.6265 0.0000
# 4 0.0000 0.0000 0.0000 43.7588 0.0000 -4.3277
# 5 -0.1469 -2.6827 -8.6265 0.0000 35.0044 0.0000
# 6 0.0000 0.0000 0.0000 -4.3277 0.0000 42.6761
#
#
#
# Elastic Compliance Matrix: (Units=1/GPa)
#
#
# Indices 1 2 3 4 5 6 
#
# 1 0.021862 -0.002043 -0.004890 0.000000 -0.001270 0.000000
# 2 -0.002043 0.007327 -0.003509 0.000000 -0.000312 0.000000
# 3 -0.004890 -0.003509 0.022191 0.000000 0.005179 0.000000
# 4 0.000000 0.000000 0.000000 0.023084 0.000000 0.002341
# 5 -0.001270 -0.000312 0.005179 0.000000 0.029815 0.000000
# 6 0.000000 0.000000 0.000000 0.002341 0.000000 0.023670
#
#
# Mechanical properties :
#
#
# Convention : Reuss Voigt Hill
#
# Bulk Modulus (GPa) = 32.79405 43.84387 38.31896
# Shear Modulus (GPa) = 31.44691 37.40877 34.42784
#
# Velocity S-wave (km/s) = 3.54250 3.86374 3.70660
# Velocity P-wave (km/s) = 5.46070 6.11564 5.79743
#
# Compressibility (1/GPa) = 0.03049333
#
# Stress axis : x y z
#
# Youngs Moduli (GPa) = 45.74237 136.48325 45.06400
#
# Poissons Ratio (x) = 0.27888 0.22038
# Poissons Ratio (y) = 0.09347 0.15814
# Poissons Ratio (z) = 0.22370 0.47894
#
# Static dielectric constant tensor:
#      x y z
#    x 4.457750 0.000000 -0.171040 
#    y 0.000000 6.747900 0.000000 
#    z -0.171040 0.000000 4.547180 
# 
# 
# High freq. dielectric constant tensor:
#      x y z
#    x 1.991500 0.000000 -0.007970 
#    y 0.000000 2.033650 0.000000 
#    z -0.007970 0.000000 1.985740 
# 
# From -- ./inp_files/34157.got.cif
#   From: 2010.03.12/outbox.cif.g09.slc.cpg/sg14_18_cif.got.tgz:34157.got - 2010.03.31 13:35:05.
