data_PCOD8127046
_publ_section_title
;
Structure prediction by ZEFSAII (Michael W. Deem and Ramdas Pophale) SiO2 
 PCOD8127046
Probable space group: P 21/C
;
_chemical_formula_sum "Si O2"
_cell_formula_units_Z 28
_cell_length_a 5.232604
_cell_length_b 9.306737
_cell_length_c 27.564030
_cell_angle_alpha 90.000000
_cell_angle_beta 116.353596
_cell_angle_gamma 90.000000
_cell_volume 1202.820237
_symmetry_space_group_name_H-M "P 21/C"
_symmetry_group_IT_number 14
_symmetry_cell_setting 'monoclinic'
loop_
_space_group_symop_operation_xyz
x,y,z
-x,1/2+y,1/2-z
-x,-y,-z
x,1/2-y,1/2+z
loop_
_atom_site_type_symbol
_atom_site_label
_atom_site_fract_x
_atom_site_fract_y
_atom_site_fract_z
Si Si1 0.686001 0.873287 0.615361
Si Si2 0.674567 0.304228 0.823200
Si Si3 0.131187 0.392538 0.473228
Si Si4 0.833611 0.350846 0.989976
Si Si5 0.420231 0.117379 0.724084
Si Si6 0.740193 0.346417 0.566940
Si Si7 0.217775 0.819721 0.336657
O O1 0.522072 0.799797 0.646102
O O2 0.505561 0.865397 0.549883
O O3 0.992550 0.799138 0.633972
O O4 0.726061 0.040295 0.627299
O O5 0.609749 0.161256 0.786411
O O6 0.598402 0.445592 0.784364
O O7 0.438182 0.343397 0.516058
O O8 0.137716 0.489407 0.424728
O O9 0.000000 0.500000 0.500000
O O10 0.940478 0.249833 0.454309
O O11 0.906496 0.275357 0.048209
O O12 0.000000 0.500000 0.000000
O O13 0.562924 0.192287 0.689164
O O14 0.108849 0.183599 0.708304
O O15 0.729406 0.312672 0.622753
#
# Coordination Sequence:
#
# PCOD8127046 Si02
#       7
#     4   4   4   4   4   4   4
#     4  10  23  39  64  95 130 165 208 273 321 381
#     4  10  22  44  64  89 129 160 213 273 325 378
#     4   9  21  40  57  84 130 169 209 260 315 364
#     4  11  24  37  66  96 131 174 223 260 332 394
#     4  10  22  42  66  93 120 164 212 265 328 382
#     4  10  22  40  62  89 132 172 212 269 311 393
#     4  10  22  38  67  93 124 168 213 255 325 391
#
# _framework density 23.278623
#
# number of rings (size 3 to 8) (size 9 to 14) (size 15 to 20)
#    0.000    2.000    0.000    1.714   12.000    1.143 
#    2.571    0.000    0.000    0.000    0.000    0.000 
#    0.000    0.000    0.000    0.000    0.000    0.000 
#
# Total GULP energy -347026.896781 kJ/mol
# GULP energy per Si atom -12393.817742 kJ/mol
# Density = 2.322564 g / cm^3
# Si number density = 23.278623 Si / 1000 Ang^3
#
#
#
# Elastic Constant Matrix: (Units=GPa)
#
#
# Indices 1 2 3 4 5 6 
#
# 1 109.2267 31.3475 10.7512 0.0000 6.8081 0.0000
# 2 31.3475 77.0697 21.4285 0.0000 9.0838 0.0000
# 3 10.7512 21.4285 64.0820 0.0000 10.3572 0.0000
# 4 0.0000 0.0000 0.0000 35.1130 0.0000 -0.9152
# 5 6.8081 9.0838 10.3572 0.0000 25.1616 0.0000
# 6 0.0000 0.0000 0.0000 -0.9152 0.0000 29.5649
#
#
#
# Elastic Compliance Matrix: (Units=1/GPa)
#
#
# Indices 1 2 3 4 5 6 
#
# 1 0.010411 -0.004030 -0.000192 0.000000 -0.001283 0.000000
# 2 -0.004030 0.016146 -0.004239 0.000000 -0.002994 0.000000
# 3 -0.000192 -0.004239 0.017996 0.000000 -0.005825 0.000000
# 4 0.000000 0.000000 0.000000 0.028503 0.000000 0.000882
# 5 -0.001283 -0.002994 -0.005825 0.000000 0.043569 0.000000
# 6 0.000000 0.000000 0.000000 0.000882 0.000000 0.033851
#
#
# Mechanical properties :
#
#
# Convention : Reuss Voigt Hill
#
# Bulk Modulus (GPa) = 36.19075 41.93700 39.06387
# Shear Modulus (GPa) = 28.31139 30.42463 29.36801
#
# Velocity S-wave (km/s) = 3.49118 3.61914 3.55574
# Velocity P-wave (km/s) = 5.64196 5.95974 5.80303
#
# Compressibility (1/GPa) = 0.02763137
#
# Stress axis : x y z
#
# Youngs Moduli (GPa) = 96.05518 61.93522 55.56718
#
# Poissons Ratio (x) = 0.24960 0.01065
# Poissons Ratio (y) = 0.38710 0.23556
# Poissons Ratio (z) = 0.01841 0.26255
#
# Static dielectric constant tensor:
#      x y z
#    x 4.627790 0.000000 0.036890 
#    y 0.000000 4.709440 0.000000 
#    z 0.036890 0.000000 3.792630 
# 
# 
# High freq. dielectric constant tensor:
#      x y z
#    x 1.938570 0.000000 -0.000130 
#    y 0.000000 1.920040 0.000000 
#    z -0.000130 0.000000 1.897670 
# 
# From -- ./inp_files/78870.got.cif
#   From: 2010.03.12/outbox.cif.g09.slc.cpg/sg14_40_cif.got.tgz:78870.got - 2010.03.31 13:35:05.
