data_PCOD8127839
_publ_section_title
;
Structure prediction by ZEFSAII (Michael W. Deem and Ramdas Pophale) SiO2 
 PCOD8127839
Probable space group: P 21/C
;
_chemical_formula_sum "Si O2"
_cell_formula_units_Z 32
_cell_length_a 22.848054
_cell_length_b 8.501070
_cell_length_c 15.260213
_cell_angle_alpha 90.000000
_cell_angle_beta 149.762793
_cell_angle_gamma 90.000000
_cell_volume 1492.632232
_symmetry_space_group_name_H-M "P 21/C"
_symmetry_group_IT_number 14
_symmetry_cell_setting 'monoclinic'
loop_
_space_group_symop_operation_xyz
x,y,z
-x,1/2+y,1/2-z
-x,-y,-z
x,1/2-y,1/2+z
loop_
_atom_site_type_symbol
_atom_site_label
_atom_site_fract_x
_atom_site_fract_y
_atom_site_fract_z
Si Si1 0.434223 0.730709 0.250562
Si Si2 0.177480 0.268889 0.419360
Si Si3 0.980572 0.821201 0.947292
Si Si4 0.172452 0.821161 0.595525
Si Si5 0.806875 0.367153 0.553182
Si Si6 0.574596 0.635185 0.781297
Si Si7 0.939524 0.654593 0.063029
Si Si8 0.562392 0.160604 0.056913
O O1 0.450958 0.547048 0.260344
O O2 0.535451 0.814014 0.327175
O O3 0.449348 0.775572 0.373558
O O4 0.306007 0.781498 0.052192
O O5 0.088748 0.202024 0.232744
O O6 0.215680 0.448654 0.461536
O O7 0.290174 0.160876 0.558422
O O8 0.119700 0.258415 0.439529
O O9 0.907743 0.725108 0.926616
O O10 0.109436 0.750621 0.099021
O O11 0.000000 0.000000 0.000000
O O12 0.173847 0.689050 0.521706
O O13 0.302429 0.871847 0.789581
O O14 0.099798 0.975344 0.472879
O O15 0.921827 0.323790 0.755049
O O16 0.500582 0.730411 0.611087
O O17 0.500000 0.000000 0.000000
#
# Coordination Sequence:
#
# PCOD8127839 Si02
#       8
#     4   4   4   4   4   4   4   4
#     4  10  23  42  66  98 131 176 228 283 334 405
#     4  12  26  44  67 101 138 179 228 283 345 413
#     4  12  28  42  65 103 139 180 229 284 346 418
#     4  11  23  44  69 101 137 180 229 289 348 412
#     4  11  22  42  70  93 137 174 225 276 345 407
#     4  11  24  42  69  95 132 180 226 282 341 407
#     4  12  24  42  70  96 137 179 224 278 351 403
#     4   9  21  42  67  94 130 174 225 275 336 405
#
# _framework density 21.438637
#
# number of rings (size 3 to 8) (size 9 to 14) (size 15 to 20)
#    0.000    1.000    2.500    4.125    5.250    3.000 
#    0.000    5.625    0.000    0.000    0.000    0.000 
#    0.000    0.000    0.000    0.000    0.000    0.000 
#
# Total GULP energy -396780.257457 kJ/mol
# GULP energy per Si atom -12399.383046 kJ/mol
# Density = 2.138984 g / cm^3
# Si number density = 21.438637 Si / 1000 Ang^3
#
#
#
# Elastic Constant Matrix: (Units=GPa)
#
#
# Indices 1 2 3 4 5 6 
#
# 1 107.9984 27.3215 60.6778 0.0000 -22.2740 0.0000
# 2 27.3215 88.7167 22.3075 0.0000 -6.6107 0.0000
# 3 60.6778 22.3075 97.5828 0.0000 18.1854 0.0000
# 4 0.0000 0.0000 0.0000 28.9320 0.0000 5.3921
# 5 -22.2740 -6.6107 18.1854 0.0000 16.3339 0.0000
# 6 0.0000 0.0000 0.0000 5.3921 0.0000 40.1282
#
#
#
# Elastic Compliance Matrix: (Units=1/GPa)
#
#
# Indices 1 2 3 4 5 6 
#
# 1 -0.050865 -0.009868 0.060005 0.000000 -0.140164 0.000000
# 2 -0.009868 0.011480 0.006502 0.000000 -0.016049 0.000000
# 3 0.060005 0.006502 -0.055885 0.000000 0.146678 0.000000
# 4 0.000000 0.000000 0.000000 0.035452 0.000000 -0.004764
# 5 -0.140164 -0.016049 0.146678 0.000000 -0.299714 0.000000
# 6 0.000000 0.000000 0.000000 -0.004764 0.000000 0.025560
#
#
# Mechanical properties :
#
#
# Convention : Reuss Voigt Hill
#
# Bulk Modulus (GPa) = 55.52805 57.21237 56.37021
# Shear Modulus (GPa) = -11.33143 29.34491 9.00674
#
# Velocity S-wave (km/s) = -2.30152 3.70372 2.05190
# Velocity P-wave (km/s) = 4.34678 6.71078 5.65372
#
# Compressibility (1/GPa) = 0.01800892
#
# Stress axis : x y z
#
# Youngs Moduli (GPa) = -19.65970 87.10977 -17.89381
#
# Poissons Ratio (x) = 0.85956 1.07372
# Poissons Ratio (y) = -0.19399 0.11635
# Poissons Ratio (z) = 1.17968 -0.56642
#
# Static dielectric constant tensor:
#      x y z
#    x 4.286500 0.000000 -0.284060 
#    y 0.000000 3.724830 0.000000 
#    z -0.284060 0.000000 4.414490 
# 
# 
# High freq. dielectric constant tensor:
#      x y z
#    x 1.858990 0.000000 0.005340 
#    y 0.000000 1.832350 0.000000 
#    z 0.005340 0.000000 1.842070 
# 
# From -- ./inp_files/51267.got.cif
#   From: 2010.03.12/outbox.cif.g09.slc.cpg/sg14_26_cif.got.tgz:51267.got - 2010.03.31 13:35:05.
