data_PCOD8127228
_publ_section_title
;
Structure prediction by ZEFSAII (Michael W. Deem and Ramdas Pophale) SiO2 
 PCOD8127228
Probable space group: P 21/C
;
_chemical_formula_sum "Si O2"
_cell_formula_units_Z 32
_cell_length_a 16.222700
_cell_length_b 11.068362
_cell_length_c 10.936388
_cell_angle_alpha 90.000000
_cell_angle_beta 54.151920
_cell_angle_gamma 90.000000
_cell_volume 1591.740823
_symmetry_space_group_name_H-M "P 21/C"
_symmetry_group_IT_number 14
_symmetry_cell_setting 'monoclinic'
loop_
_space_group_symop_operation_xyz
x,y,z
-x,1/2+y,1/2-z
-x,-y,-z
x,1/2-y,1/2+z
loop_
_atom_site_type_symbol
_atom_site_label
_atom_site_fract_x
_atom_site_fract_y
_atom_site_fract_z
Si Si1 0.286809 0.208893 0.178928
Si Si2 0.715487 0.058815 0.485896
Si Si3 0.861415 0.920212 0.199081
Si Si4 0.619965 0.205452 0.115767
Si Si5 0.922146 0.437152 0.420780
Si Si6 0.795701 0.217740 0.608384
Si Si7 0.766969 0.449921 0.347273
Si Si8 0.383660 0.186482 0.352675
O O1 0.183771 0.285918 0.264201
O O2 0.346224 0.240263 0.253991
O O3 0.257250 0.068443 0.209429
O O4 0.350086 0.233760 0.999117
O O5 0.636447 0.168398 0.525116
O O6 0.801549 0.108097 0.504887
O O7 0.773284 0.014692 0.314228
O O8 0.655044 0.949454 0.600533
O O9 0.957028 0.925032 0.209610
O O10 0.901439 0.952746 0.030752
O O11 0.686241 0.215716 0.183359
O O12 0.504502 0.183204 0.248152
O O13 0.663393 0.089973 0.004963
O O14 0.887441 0.309810 0.508109
O O15 0.862115 0.473698 0.352084
O O16 0.803384 0.163686 0.735904
#
# Coordination Sequence:
#
# PCOD8127228 Si02
#       8
#     4   4   4   4   4   4   4   4
#     4  11  24  41  62  94 132 163 208 262 317 374
#     4   9  20  42  61  85 129 159 202 263 305 359
#     4  10  22  43  60  89 133 157 201 265 317 373
#     4   9  22  36  63  90 120 160 207 260 301 369
#     4  10  22  40  67  92 116 170 208 254 323 377
#     4   9  20  40  62  92 120 156 209 264 299 371
#     4  11  21  40  66  90 122 164 213 254 310 379
#     4  11  23  40  63  93 126 172 207 260 317 373
#
# _framework density 20.103774999999999
#
# number of rings (size 3 to 8) (size 9 to 14) (size 15 to 20)
#    0.750    1.250    1.250    1.500    3.500    1.500 
#    6.750    2.500    0.000    0.000    0.000    0.000 
#    0.000    0.000    0.000    0.000    0.000    0.000 
#
# Total GULP energy -396597.565918 kJ/mol
# GULP energy per Si atom -12393.673935 kJ/mol
# Density = 2.005802 g / cm^3
# Si number density = 20.103775 Si / 1000 Ang^3
#
#
#
# Elastic Constant Matrix: (Units=GPa)
#
#
# Indices 1 2 3 4 5 6 
#
# 1 84.8677 17.6343 40.6329 0.0000 -3.8878 0.0000
# 2 17.6343 84.6671 25.7847 0.0000 -12.9812 0.0000
# 3 40.6329 25.7847 72.7555 0.0000 -3.6423 0.0000
# 4 0.0000 0.0000 0.0000 26.4020 0.0000 3.8539
# 5 -3.8878 -12.9812 -3.6423 0.0000 36.3178 0.0000
# 6 0.0000 0.0000 0.0000 3.8539 0.0000 25.8236
#
#
#
# Elastic Compliance Matrix: (Units=1/GPa)
#
#
# Indices 1 2 3 4 5 6 
#
# 1 0.016133 -0.000592 -0.008769 0.000000 0.000636 0.000000
# 2 -0.000592 0.013960 -0.004392 0.000000 0.004486 0.000000
# 3 -0.008769 -0.004392 0.020174 0.000000 -0.000485 0.000000
# 4 0.000000 0.000000 0.000000 0.038719 0.000000 -0.005778
# 5 0.000636 0.004486 -0.000485 0.000000 0.029157 0.000000
# 6 0.000000 0.000000 0.000000 -0.005778 0.000000 0.039587
#
#
# Mechanical properties :
#
#
# Convention : Reuss Voigt Hill
#
# Bulk Modulus (GPa) = 43.93401 45.59936 44.76668
# Shear Modulus (GPa) = 25.93047 28.25790 27.09418
#
# Velocity S-wave (km/s) = 3.59532 3.75320 3.67511
# Velocity P-wave (km/s) = 6.25589 6.44308 6.35017
#
# Compressibility (1/GPa) = 0.02276141
#
# Stress axis : x y z
#
# Youngs Moduli (GPa) = 61.98304 71.63511 49.56880
#
# Poissons Ratio (x) = 0.04243 0.43465
# Poissons Ratio (y) = 0.03672 0.21770
# Poissons Ratio (z) = 0.54350 0.31462
#
# Static dielectric constant tensor:
#      x y z
#    x 3.525140 0.000000 0.059350 
#    y 0.000000 3.652790 0.000000 
#    z 0.059350 0.000000 3.495640 
# 
# 
# High freq. dielectric constant tensor:
#      x y z
#    x 1.775900 0.000000 0.004010 
#    y 0.000000 1.791420 0.000000 
#    z 0.004010 0.000000 1.775110 
# 
# From -- ./inp_files/33813.got.cif
#   From: 2010.03.12/outbox.cif.g09.slc.cpg/sg14_17_cif.got.tgz:33813.got - 2010.03.31 13:35:05.
