data_PCOD8127056
_publ_section_title
;
Structure prediction by ZEFSAII (Michael W. Deem and Ramdas Pophale) SiO2 
 PCOD8127056
Probable space group: P 21/C
;
_chemical_formula_sum "Si O2"
_cell_formula_units_Z 28
_cell_length_a 28.634689
_cell_length_b 8.543772
_cell_length_c 9.388354
_cell_angle_alpha 90.000000
_cell_angle_beta 36.159092
_cell_angle_gamma 90.000000
_cell_volume 1355.205650
_symmetry_space_group_name_H-M "P 21/C"
_symmetry_group_IT_number 14
_symmetry_cell_setting 'monoclinic'
loop_
_space_group_symop_operation_xyz
x,y,z
-x,1/2+y,1/2-z
-x,-y,-z
x,1/2-y,1/2+z
loop_
_atom_site_type_symbol
_atom_site_label
_atom_site_fract_x
_atom_site_fract_y
_atom_site_fract_z
Si Si1 0.887891 0.411620 0.185447
Si Si2 0.440344 0.055335 0.343658
Si Si3 0.163749 0.936724 0.690314
Si Si4 0.939741 0.910428 0.836360
Si Si5 0.703226 0.905276 0.475174
Si Si6 0.176246 0.135155 0.379099
Si Si7 0.449614 0.303319 0.535252
O O1 0.845242 0.246584 0.314465
O O2 0.909653 0.476775 0.285736
O O3 0.829128 0.530793 0.250534
O O4 0.965994 0.390699 0.896115
O O5 0.346950 0.027651 0.536767
O O6 0.451228 0.125636 0.474657
O O7 0.474666 0.179563 0.139698
O O8 0.490168 0.897566 0.213731
O O9 0.235239 0.963677 0.625787
O O10 0.185014 0.022569 0.492025
O O11 0.084575 0.012553 0.953015
O O12 0.902991 0.738279 0.910426
O O13 0.747679 0.746203 0.320310
O O14 0.640770 0.867791 0.756435
#
# Coordination Sequence:
#
# PCOD8127056 Si02
#       7
#     4   4   4   4   4   4   4
#     4  11  23  38  57  87 116 152 198 253 298 341
#     4   9  19  37  63  88 119 150 191 236 280 344
#     4  11  22  37  61  85 119 150 200 250 290 345
#     4  10  22  39  58  82 118 154 199 244 300 359
#     4   9  20  39  59  82 117 157 188 234 286 357
#     4  11  22  38  61  82 113 162 198 235 300 354
#     4   9  19  38  62  89 118 152 192 236 280 345
#
# _framework density 20.661069999999999
#
# number of rings (size 3 to 8) (size 9 to 14) (size 15 to 20)
#    0.857    1.143    0.000    4.286    0.000    6.286 
#    0.000    7.143    0.000    0.000    0.000    0.000 
#    0.000    0.000    0.000    0.000    0.000    0.000 
#
# Total GULP energy -347056.785426 kJ/mol
# GULP energy per Si atom -12394.885194 kJ/mol
# Density = 2.061404 g / cm^3
# Si number density = 20.661070 Si / 1000 Ang^3
#
#
#
# Elastic Constant Matrix: (Units=GPa)
#
#
# Indices 1 2 3 4 5 6 
#
# 1 55.9445 33.3365 24.6497 0.0000 -3.7900 0.0000
# 2 33.3365 106.9711 24.2006 0.0000 -10.0799 0.0000
# 3 24.6497 24.2006 53.7044 0.0000 -16.7000 0.0000
# 4 0.0000 0.0000 0.0000 31.9460 0.0000 7.7066
# 5 -3.7900 -10.0799 -16.7000 0.0000 24.2731 0.0000
# 6 0.0000 0.0000 0.0000 7.7066 0.0000 24.0064
#
#
#
# Elastic Compliance Matrix: (Units=1/GPa)
#
#
# Indices 1 2 3 4 5 6 
#
# 1 0.026016 -0.006182 -0.011056 0.000000 -0.006111 0.000000
# 2 -0.006182 0.011916 -0.001645 0.000000 0.002851 0.000000
# 3 -0.011056 -0.001645 0.030134 0.000000 0.018323 0.000000
# 4 0.000000 0.000000 0.000000 0.033930 0.000000 -0.010892
# 5 -0.006111 0.002851 0.018323 0.000000 0.054034 0.000000
# 6 0.000000 0.000000 0.000000 -0.010892 0.000000 0.045152
#
#
# Mechanical properties :
#
#
# Convention : Reuss Voigt Hill
#
# Bulk Modulus (GPa) = 33.00417 42.33262 37.66840
# Shear Modulus (GPa) = 20.07639 25.00732 22.54185
#
# Velocity S-wave (km/s) = 3.12059 3.48280 3.30666
# Velocity P-wave (km/s) = 5.38451 6.05861 5.73148
#
# Compressibility (1/GPa) = 0.03029920
#
# Stress axis : x y z
#
# Youngs Moduli (GPa) = 38.43793 83.92157 33.18511
#
# Poissons Ratio (x) = 0.51883 0.36688
# Poissons Ratio (y) = 0.23764 0.05460
# Poissons Ratio (z) = 0.42495 0.13809
#
# Static dielectric constant tensor:
#      x y z
#    x 3.581800 0.000000 -0.052970 
#    y 0.000000 3.514110 0.000000 
#    z -0.052970 0.000000 3.783420 
# 
# 
# High freq. dielectric constant tensor:
#      x y z
#    x 1.797810 0.000000 0.000320 
#    y 0.000000 1.795810 0.000000 
#    z 0.000320 0.000000 1.807090 
# 
# From -- ./inp_files/19940.got.cif
#   From: 2010.03.12/outbox.cif.g09.slc.cpg/sg14_10_cif.got.tgz:19940.got - 2010.03.31 13:35:05.
