data_PCOD8127051
_publ_section_title
;
Structure prediction by ZEFSAII (Michael W. Deem and Ramdas Pophale) SiO2 
 PCOD8127051
Probable space group: P 21/C
;
_chemical_formula_sum "Si O2"
_cell_formula_units_Z 28
_cell_length_a 23.601189
_cell_length_b 8.349236
_cell_length_c 17.753013
_cell_angle_alpha 90.000000
_cell_angle_beta 157.010904
_cell_angle_gamma 90.000000
_cell_volume 1366.268129
_symmetry_space_group_name_H-M "P 21/C"
_symmetry_group_IT_number 14
_symmetry_cell_setting 'monoclinic'
loop_
_space_group_symop_operation_xyz
x,y,z
-x,1/2+y,1/2-z
-x,-y,-z
x,1/2-y,1/2+z
loop_
_atom_site_type_symbol
_atom_site_label
_atom_site_fract_x
_atom_site_fract_y
_atom_site_fract_z
Si Si1 0.949889 0.551219 0.593689
Si Si2 0.172320 0.303778 0.936537
Si Si3 0.693243 0.415079 0.183208
Si Si4 0.693742 0.509216 0.464112
Si Si5 0.589218 0.047716 0.292153
Si Si6 0.459642 0.852227 0.357436
Si Si7 0.204944 0.779186 0.339016
O O1 0.883939 0.688194 0.566623
O O2 0.829037 0.469735 0.396788
O O3 0.036993 0.412972 0.745514
O O4 0.051831 0.633676 0.656904
O O5 0.309791 0.416342 0.127016
O O6 0.240301 0.188363 0.954474
O O7 0.580971 0.337470 0.104290
O O8 0.741154 0.282138 0.181211
O O9 0.616401 0.561619 0.044430
O O10 0.549266 0.473838 0.335757
O O11 0.660860 0.453234 0.337647
O O12 0.814541 0.400561 0.653165
O O13 0.528364 0.172043 0.156880
O O14 0.680516 0.134201 0.467550
#
# Coordination Sequence:
#
# PCOD8127051 Si02
#       7
#     4   4   4   4   4   4   4
#     4  11  24  40  65  90 132 174 216 262 326 393
#     4  11  23  40  67  97 125 175 224 268 316 393
#     4  11  22  41  64  92 135 165 209 273 337 383
#     4  11  20  41  68  95 125 166 223 271 314 386
#     4  10  22  38  70  94 124 165 222 270 311 388
#     4  10  22  39  67  96 126 168 212 269 336 381
#     4  10  22  39  62  93 123 171 217 259 320 394
#
# _framework density 20.493780999999998
#
# number of rings (size 3 to 8) (size 9 to 14) (size 15 to 20)
#    0.000    1.429    2.857    3.000    6.000    0.000 
#    0.000    3.571    0.000    0.000    0.000    0.000 
#    0.000    0.000    0.000    0.000    0.000    0.000 
#
# Total GULP energy -347084.415089 kJ/mol
# GULP energy per Si atom -12395.871967 kJ/mol
# Density = 2.044714 g / cm^3
# Si number density = 20.493781 Si / 1000 Ang^3
#
#
#
# Elastic Constant Matrix: (Units=GPa)
#
#
# Indices 1 2 3 4 5 6 
#
# 1 91.9730 19.0866 14.8774 0.0000 -3.0989 0.0000
# 2 19.0866 73.5924 9.1838 0.0000 -3.6567 0.0000
# 3 14.8774 9.1838 51.4504 0.0000 -1.9341 0.0000
# 4 0.0000 0.0000 0.0000 33.2931 0.0000 5.5992
# 5 -3.0989 -3.6567 -1.9341 0.0000 20.2715 0.0000
# 6 0.0000 0.0000 0.0000 5.5992 0.0000 38.4609
#
#
#
# Elastic Compliance Matrix: (Units=1/GPa)
#
#
# Indices 1 2 3 4 5 6 
#
# 1 0.011939 -0.002677 -0.002934 0.000000 0.001062 0.000000
# 2 -0.002677 0.014604 -0.001755 0.000000 0.002058 0.000000
# 3 -0.002934 -0.001755 0.020643 0.000000 0.001204 0.000000
# 4 0.000000 0.000000 0.000000 0.030790 0.000000 -0.004483
# 5 0.001062 0.002058 0.001204 0.000000 0.049979 0.000000
# 6 0.000000 0.000000 0.000000 -0.004483 0.000000 0.026653
#
#
# Mechanical properties :
#
#
# Convention : Reuss Voigt Hill
#
# Bulk Modulus (GPa) = 30.81471 33.70127 32.25799
# Shear Modulus (GPa) = 27.75318 29.99631 28.87475
#
# Velocity S-wave (km/s) = 3.68397 3.82996 3.75767
# Velocity P-wave (km/s) = 5.75885 6.00320 5.88229
#
# Compressibility (1/GPa) = 0.03245204
#
# Stress axis : x y z
#
# Youngs Moduli (GPa) = 83.76030 68.47420 48.44187
#
# Poissons Ratio (x) = 0.18333 0.14215
# Poissons Ratio (y) = 0.22426 0.08503
# Poissons Ratio (z) = 0.24579 0.12019
#
# Static dielectric constant tensor:
#      x y z
#    x 3.971260 0.000000 0.173910 
#    y 0.000000 3.890320 0.000000 
#    z 0.173910 0.000000 3.702540 
# 
# 
# High freq. dielectric constant tensor:
#      x y z
#    x 1.809590 0.000000 0.016090 
#    y 0.000000 1.799220 0.000000 
#    z 0.016090 0.000000 1.789000 
# 
# From -- ./inp_files/50268.got.cif
#   From: 2010.03.12/outbox.cif.g09.slc.cpg/sg14_26_cif.got.tgz:50268.got - 2010.03.31 13:35:05.
