data_PCOD8127751
_publ_section_title
;
Structure prediction by ZEFSAII (Michael W. Deem and Ramdas Pophale) SiO2 
 PCOD8127751
Probable space group: P 21/C
;
_chemical_formula_sum "Si O2"
_cell_formula_units_Z 28
_cell_length_a 29.169571
_cell_length_b 7.801781
_cell_length_c 9.376979
_cell_angle_alpha 90.000000
_cell_angle_beta 32.508955
_cell_angle_gamma 90.000000
_cell_volume 1146.858382
_symmetry_space_group_name_H-M "P 21/C"
_symmetry_group_IT_number 14
_symmetry_cell_setting 'monoclinic'
loop_
_space_group_symop_operation_xyz
x,y,z
-x,1/2+y,1/2-z
-x,-y,-z
x,1/2-y,1/2+z
loop_
_atom_site_type_symbol
_atom_site_label
_atom_site_fract_x
_atom_site_fract_y
_atom_site_fract_z
Si Si1 0.593868 0.179512 0.665588
Si Si2 0.032094 0.414194 0.136696
Si Si3 0.229357 0.414689 0.638785
Si Si4 0.045962 0.742373 0.916177
Si Si5 0.296167 0.384547 0.773775
Si Si6 0.459183 0.553018 0.403600
Si Si7 0.240789 0.757286 0.933222
O O1 0.540654 0.340165 0.743010
O O2 0.693206 0.190630 0.364974
O O3 0.553160 0.005988 0.704069
O O4 0.582218 0.177253 0.866355
O O5 0.129482 0.394322 0.928944
O O6 0.012925 0.587930 0.103090
O O7 0.977773 0.409433 0.426879
O O8 0.003065 0.260064 0.106017
O O9 0.281719 0.373863 0.642864
O O10 0.254671 0.281909 0.450281
O O11 0.250947 0.609603 0.536757
O O12 0.146014 0.730266 0.617011
O O13 0.397494 0.387858 0.541827
O O14 0.256846 0.561645 0.940797
#
# Coordination Sequence:
#
# PCOD8127751 Si02
#       7
#     4   4   4   4   4   4   4
#     4  10  24  45  68 103 139 178 236 283 353 421
#     4  10  23  42  62  98 127 179 226 287 341 415
#     4  11  26  46  68 104 141 184 241 290 358 419
#     4  10  23  40  68  92 135 177 230 282 354 398
#     4  11  27  43  72 104 138 190 234 292 356 420
#     4  10  25  44  71 103 137 188 227 290 355 418
#     4  10  26  44  72 103 139 187 235 297 348 423
#
# _framework density 24.414522999999999
#
# number of rings (size 3 to 8) (size 9 to 14) (size 15 to 20)
#    0.000    1.714    0.000    0.857   18.000    2.286 
#    0.000    0.000    0.000    0.000    0.000    0.000 
#    0.000    0.000    0.000    0.000    0.000    0.000 
#
# Total GULP energy -347211.614313 kJ/mol
# GULP energy per Si atom -12400.414797 kJ/mol
# Density = 2.435895 g / cm^3
# Si number density = 24.414523 Si / 1000 Ang^3
#
#
#
# Elastic Constant Matrix: (Units=GPa)
#
#
# Indices 1 2 3 4 5 6 
#
# 1 88.5346 1.0345 7.6855 0.0000 9.2112 0.0000
# 2 1.0345 63.6078 13.0549 0.0000 0.6909 0.0000
# 3 7.6855 13.0549 79.8707 0.0000 -10.2045 0.0000
# 4 0.0000 0.0000 0.0000 11.4442 0.0000 8.5240
# 5 9.2112 0.6909 -10.2045 0.0000 29.1244 0.0000
# 6 0.0000 0.0000 0.0000 8.5240 0.0000 35.8356
#
#
#
# Elastic Compliance Matrix: (Units=1/GPa)
#
#
# Indices 1 2 3 4 5 6 
#
# 1 0.011899 0.000211 -0.001739 0.000000 -0.004378 0.000000
# 2 0.000211 0.016324 -0.002875 0.000000 -0.001461 0.000000
# 3 -0.001739 -0.002875 0.013857 0.000000 0.005473 0.000000
# 4 0.000000 0.000000 0.000000 0.106194 0.000000 -0.025260
# 5 -0.004378 -0.001461 0.005473 0.000000 0.037672 0.000000
# 6 0.000000 0.000000 0.000000 -0.025260 0.000000 0.033914
#
#
# Mechanical properties :
#
#
# Convention : Reuss Voigt Hill
#
# Bulk Modulus (GPa) = 30.05385 30.61811 30.33598
# Shear Modulus (GPa) = 20.85444 29.29672 25.07558
#
# Velocity S-wave (km/s) = 2.92581 3.46782 3.20828
# Velocity P-wave (km/s) = 4.87343 5.34813 5.11629
#
# Compressibility (1/GPa) = 0.03327360
#
# Stress axis : x y z
#
# Youngs Moduli (GPa) = 84.04120 61.25997 72.16696
#
# Poissons Ratio (x) = -0.01292 0.12548
# Poissons Ratio (y) = -0.01772 0.20749
# Poissons Ratio (z) = 0.14612 0.17613
#
# Static dielectric constant tensor:
#      x y z
#    x 4.402930 0.000000 -0.107210 
#    y 0.000000 4.454850 0.000000 
#    z -0.107210 0.000000 4.282130 
# 
# 
# High freq. dielectric constant tensor:
#      x y z
#    x 1.984730 0.000000 -0.003590 
#    y 0.000000 1.969980 0.000000 
#    z -0.003590 0.000000 1.960630 
# 
# From -- ./inp_files/19710.got.cif
#   From: 2010.03.12/outbox.cif.g09.slc.cpg/sg14_10_cif.got.tgz:19710.got - 2010.03.31 13:35:05.
