data_PCOD8127421
_publ_section_title
;
Structure prediction by ZEFSAII (Michael W. Deem and Ramdas Pophale) SiO2 
 PCOD8127421
Probable space group: P 21/C
;
_chemical_formula_sum "Si O2"
_cell_formula_units_Z 24
_cell_length_a 6.444210
_cell_length_b 13.612440
_cell_length_c 14.560073
_cell_angle_alpha 90.000000
_cell_angle_beta 118.972290
_cell_angle_gamma 90.000000
_cell_volume 1117.390138
_symmetry_space_group_name_H-M "P 21/C"
_symmetry_group_IT_number 14
_symmetry_cell_setting 'monoclinic'
loop_
_space_group_symop_operation_xyz
x,y,z
-x,1/2+y,1/2-z
-x,-y,-z
x,1/2-y,1/2+z
loop_
_atom_site_type_symbol
_atom_site_label
_atom_site_fract_x
_atom_site_fract_y
_atom_site_fract_z
Si Si1 0.564193 0.848137 0.509221
Si Si2 0.397716 0.414878 0.686747
Si Si3 0.601255 0.252516 0.349890
Si Si4 0.235719 0.980845 0.333802
Si Si5 0.121606 0.331971 0.469613
Si Si6 0.727271 0.926921 0.179509
O O1 0.395779 0.804139 0.552355
O O2 0.402160 0.887999 0.391886
O O3 0.737465 0.769145 0.503643
O O4 0.728371 0.934364 0.583882
O O5 0.557166 0.325045 0.758797
O O6 0.294358 0.481797 0.744956
O O7 0.169559 0.377651 0.580281
O O8 0.561226 0.478003 0.653491
O O9 0.388438 0.330367 0.300990
O O10 0.846310 0.311010 0.391187
O O11 0.967088 0.946174 0.286659
O O12 0.216782 0.409257 0.415313
#
# Coordination Sequence:
#
# PCOD8127421 Si02
#       6
#     4   4   4   4   4   4
#     4   9  22  42  65  96 127 170 217 273 320 371
#     4  11  25  41  66  95 131 172 215 265 327 386
#     4  10  24  43  65 100 125 173 222 259 326 383
#     4  10  22  42  67  94 128 168 222 269 320 382
#     4  11  24  41  65  94 136 168 215 265 321 390
#     4  11  24  41  64  96 132 170 215 267 322 382
#
# _framework density 21.478622000000001
#
# number of rings (size 3 to 8) (size 9 to 14) (size 15 to 20)
#    0.000    1.667    0.000    2.500    7.000    5.333 
#    0.000    5.000    0.000    0.000    0.000    0.000 
#    0.000    0.000    0.000    0.000    0.000    0.000 
#
# Total GULP energy -297722.901231 kJ/mol
# GULP energy per Si atom -12405.120885 kJ/mol
# Density = 2.142974 g / cm^3
# Si number density = 21.478622 Si / 1000 Ang^3
#
#
#
# Elastic Constant Matrix: (Units=GPa)
#
#
# Indices 1 2 3 4 5 6 
#
# 1 87.9068 65.6963 35.9748 0.0000 9.5850 0.0000
# 2 65.6963 102.6392 74.5483 0.0000 10.0179 0.0000
# 3 35.9748 74.5483 83.8887 0.0000 6.5922 0.0000
# 4 0.0000 0.0000 0.0000 38.7359 0.0000 0.7379
# 5 9.5850 10.0179 6.5922 0.0000 28.8911 0.0000
# 6 0.0000 0.0000 0.0000 0.7379 0.0000 25.6134
#
#
#
# Elastic Compliance Matrix: (Units=1/GPa)
#
#
# Indices 1 2 3 4 5 6 
#
# 1 0.024438 -0.022358 0.009589 0.000000 -0.002543 0.000000
# 2 -0.022358 0.048403 -0.033286 0.000000 -0.001771 0.000000
# 3 0.009589 -0.033286 0.037402 0.000000 -0.000174 0.000000
# 4 0.000000 0.000000 0.000000 0.025830 0.000000 -0.000744
# 5 -0.002543 -0.001771 -0.000174 0.000000 0.036110 0.000000
# 6 0.000000 0.000000 0.000000 -0.000744 0.000000 0.039064
#
#
# Mechanical properties :
#
#
# Convention : Reuss Voigt Hill
#
# Bulk Modulus (GPa) = 55.15274 69.65263 62.40268
# Shear Modulus (GPa) = 16.16012 25.19575 20.67794
#
# Velocity S-wave (km/s) = 2.74593 3.42871 3.10614
# Velocity P-wave (km/s) = 5.98224 6.94075 6.47925
#
# Compressibility (1/GPa) = 0.01813146
#
# Stress axis : x y z
#
# Youngs Moduli (GPa) = 40.91942 20.65980 26.73621
#
# Poissons Ratio (x) = 0.46192 -0.25637
# Poissons Ratio (y) = 0.91490 0.88995
# Poissons Ratio (z) = -0.39237 0.68769
#
# Static dielectric constant tensor:
#      x y z
#    x 3.722470 0.000000 0.030170 
#    y 0.000000 4.103310 0.000000 
#    z 0.030170 0.000000 3.853940 
# 
# 
# High freq. dielectric constant tensor:
#      x y z
#    x 1.833970 0.000000 0.002580 
#    y 0.000000 1.862100 0.000000 
#    z 0.002580 0.000000 1.848890 
# 
# From -- ./inp_files/37248.got.cif
#   From: 2010.03.12/outbox.cif.g09.slc.cpg/sg14_19_cif.got.tgz:37248.got - 2010.03.31 13:35:05.
