data_PCOD8127766
_publ_section_title
;
Structure prediction by ZEFSAII (Michael W. Deem and Ramdas Pophale) SiO2 
 PCOD8127766
Probable space group: P 21/C
;
_chemical_formula_sum "Si O2"
_cell_formula_units_Z 32
_cell_length_a 8.391686
_cell_length_b 5.290964
_cell_length_c 31.394364
_cell_angle_alpha 90.000000
_cell_angle_beta 86.916886
_cell_angle_gamma 90.000000
_cell_volume 1391.895570
_symmetry_space_group_name_H-M "P 21/C"
_symmetry_group_IT_number 14
_symmetry_cell_setting 'monoclinic'
loop_
_space_group_symop_operation_xyz
x,y,z
-x,1/2+y,1/2-z
-x,-y,-z
x,1/2-y,1/2+z
loop_
_atom_site_type_symbol
_atom_site_label
_atom_site_fract_x
_atom_site_fract_y
_atom_site_fract_z
Si Si1 0.382283 0.762185 0.456501
Si Si2 0.805661 0.464046 0.764267
Si Si3 0.157681 0.867161 0.120622
Si Si4 0.328331 0.040024 0.195416
Si Si5 0.136762 0.879221 0.894539
Si Si6 0.692883 0.897805 0.180154
Si Si7 0.066600 0.497503 0.822641
Si Si8 0.420692 0.757432 0.052959
O O1 0.213020 0.754436 0.434302
O O2 0.493364 0.526769 0.441946
O O3 0.344406 0.757199 0.507043
O O4 0.458663 0.026913 0.441685
O O5 0.762090 0.186002 0.780067
O O6 0.799444 0.439674 0.712771
O O7 0.980912 0.557725 0.778353
O O8 0.682433 0.687154 0.781259
O O9 0.256233 0.066797 0.148567
O O10 0.281804 0.717194 0.089276
O O11 0.058071 0.692822 0.153514
O O12 0.029717 0.990901 0.089433
O O13 0.509792 0.946220 0.191038
O O14 0.083000 0.720435 0.854910
O O15 0.269577 0.057877 0.870505
O O16 0.754946 0.612177 0.188115
#
# Coordination Sequence:
#
# PCOD8127766 Si02
#       8
#     4   4   4   4   4   4   4   4
#     4  10  24  43  70  98 135 159 222 262 325 389
#     4  11  25  44  64  89 134 166 224 270 330 382
#     4  10  23  41  63  92 132 169 214 262 331 382
#     4  11  24  43  63  96 123 171 217 281 316 392
#     4  11  24  41  62  98 128 174 212 272 316 401
#     4  11  26  39  67  91 126 176 221 271 329 381
#     4  10  25  40  60  94 129 171 216 266 321 392
#     4  10  23  45  70 100 125 176 205 271 322 391
#
# _framework density 22.99023
#
# number of rings (size 3 to 8) (size 9 to 14) (size 15 to 20)
#    0.000    1.500    1.250    1.500   12.250    1.500 
#    0.000    0.625    0.000    0.000    0.000    0.000 
#    0.000    0.000    0.000    0.000    0.000    0.000 
#
# Total GULP energy -396511.921468 kJ/mol
# GULP energy per Si atom -12390.997546 kJ/mol
# Density = 2.293790 g / cm^3
# Si number density = 22.990230 Si / 1000 Ang^3
#
#
#
# Elastic Constant Matrix: (Units=GPa)
#
#
# Indices 1 2 3 4 5 6 
#
# 1 81.9037 -2.6750 34.1867 0.0000 10.9965 0.0000
# 2 -2.6750 69.0641 8.2041 0.0000 -1.9883 0.0000
# 3 34.1867 8.2041 93.6262 0.0000 23.7429 0.0000
# 4 0.0000 0.0000 0.0000 9.8001 0.0000 10.2619
# 5 10.9965 -1.9883 23.7429 0.0000 23.6522 0.0000
# 6 0.0000 0.0000 0.0000 10.2619 0.0000 24.0455
#
#
#
# Elastic Compliance Matrix: (Units=1/GPa)
#
#
# Indices 1 2 3 4 5 6 
#
# 1 0.014551 0.001108 -0.004988 0.000000 -0.001665 0.000000
# 2 0.001108 0.014920 -0.002548 0.000000 0.003297 0.000000
# 3 -0.004988 -0.002548 0.016355 0.000000 -0.014313 0.000000
# 4 0.000000 0.000000 0.000000 0.184481 0.000000 -0.078731
# 5 -0.001665 0.003297 -0.014313 0.000000 0.057698 0.000000
# 6 0.000000 0.000000 0.000000 -0.078731 0.000000 0.075188
#
#
# Mechanical properties :
#
#
# Convention : Reuss Voigt Hill
#
# Bulk Modulus (GPa) = 30.33053 36.00285 33.16669
# Shear Modulus (GPa) = 12.91856 25.15810 19.03833
#
# Velocity S-wave (km/s) = 2.37305 3.31160 2.88080
# Velocity P-wave (km/s) = 4.55301 5.50603 5.05204
#
# Compressibility (1/GPa) = 0.03297008
#
# Stress axis : x y z
#
# Youngs Moduli (GPa) = 68.72264 67.02493 61.14304
#
# Poissons Ratio (x) = -0.07428 0.30499
# Poissons Ratio (y) = -0.07616 0.15580
# Poissons Ratio (z) = 0.34280 0.17078
#
# Static dielectric constant tensor:
#      x y z
#    x 4.342500 0.000000 0.107510 
#    y 0.000000 4.349210 0.000000 
#    z 0.107510 0.000000 4.265490 
# 
# 
# High freq. dielectric constant tensor:
#      x y z
#    x 1.909490 0.000000 0.014350 
#    y 0.000000 1.909430 0.000000 
#    z 0.014350 0.000000 1.907370 
# 
# From -- ./inp_files/79112.got.cif
#   From: 2010.03.12/outbox.cif.g09.slc.cpg/sg14_40_cif.got.tgz:79112.got - 2010.03.31 13:35:05.
