data_PCOD8127877
_publ_section_title
;
Structure prediction by ZEFSAII (Michael W. Deem and Ramdas Pophale) SiO2 
 PCOD8127877
Probable space group: P 21/C
;
_chemical_formula_sum "Si O2"
_cell_formula_units_Z 28
_cell_length_a 16.532544
_cell_length_b 6.762648
_cell_length_c 9.330268
_cell_angle_alpha 90.000000
_cell_angle_beta 114.688332
_cell_angle_gamma 90.000000
_cell_volume 947.807404
_symmetry_space_group_name_H-M "P 21/C"
_symmetry_group_IT_number 14
_symmetry_cell_setting 'monoclinic'
loop_
_space_group_symop_operation_xyz
x,y,z
-x,1/2+y,1/2-z
-x,-y,-z
x,1/2-y,1/2+z
loop_
_atom_site_type_symbol
_atom_site_label
_atom_site_fract_x
_atom_site_fract_y
_atom_site_fract_z
Si Si1 0.805897 0.330644 0.992042
Si Si2 0.377781 0.696533 0.043526
Si Si3 0.509914 0.316857 0.611689
Si Si4 0.784068 0.678562 0.779569
Si Si5 0.673099 0.856110 0.933395
Si Si6 0.094106 0.462408 0.476644
Si Si7 0.996571 0.151487 0.625959
O O1 0.813330 0.092940 0.963860
O O2 0.900864 0.387311 0.136423
O O3 0.722799 0.393228 0.031697
O O4 0.793200 0.448690 0.832723
O O5 0.442632 0.602790 0.210056
O O6 0.423612 0.665845 0.922613
O O7 0.364451 0.923345 0.084876
O O8 0.500000 0.500000 0.500000
O O9 0.412389 0.223692 0.575974
O O10 0.760899 0.685101 0.595310
O O11 0.701406 0.782749 0.798077
O O12 0.879979 0.785717 0.889515
O O13 0.014558 0.625028 0.454006
O O14 0.073572 0.372302 0.302369
O O15 0.000000 0.000000 0.500000
#
# Coordination Sequence:
#
# PCOD8127877 Si02
#       7
#     4   4   4   4   4   4   4
#     4  10  24  43  73 106 146 197 254 304 398 447
#     4  11  22  47  75 106 157 204 255 325 386 470
#     4  10  23  42  75 110 153 198 260 316 387 456
#     4  12  25  47  75 111 159 202 263 320 385 478
#     4  11  25  46  71 113 155 200 261 318 390 458
#     4  10  24  46  72 110 148 197 256 318 395 457
#     4  10  23  45  75 104 152 196 258 318 390 469
#
# _framework density 29.541865000000001
#
# number of rings (size 3 to 8) (size 9 to 14) (size 15 to 20)
#    0.857    0.571    1.429    3.429    2.000    4.571 
#    2.571    5.714    0.000    0.000    0.000    0.000 
#    0.000    0.000    0.000    0.000    0.000    0.000 
#
# Total GULP energy -347075.953820 kJ/mol
# GULP energy per Si atom -12395.569779 kJ/mol
# Density = 2.947463 g / cm^3
# Si number density = 29.541865 Si / 1000 Ang^3
#
#
#
# Elastic Constant Matrix: (Units=GPa)
#
#
# Indices 1 2 3 4 5 6 
#
# 1 167.0119 0.3555 21.7838 0.0000 43.1569 0.0000
# 2 0.3555 91.6426 31.6945 0.0000 -1.0744 0.0000
# 3 21.7838 31.6945 113.8873 0.0000 11.6524 0.0000
# 4 0.0000 0.0000 0.0000 45.5170 0.0000 -3.0500
# 5 43.1569 -1.0744 11.6524 0.0000 45.4990 0.0000
# 6 0.0000 0.0000 0.0000 -3.0500 0.0000 39.1740
#
#
#
# Elastic Compliance Matrix: (Units=1/GPa)
#
#
# Indices 1 2 3 4 5 6 
#
# 1 0.008000 0.000167 -0.000822 0.000000 -0.007374 0.000000
# 2 0.000167 0.012139 -0.003515 0.000000 0.001029 0.000000
# 3 -0.000822 -0.003515 0.010110 0.000000 -0.001892 0.000000
# 4 0.000000 0.000000 0.000000 0.022085 0.000000 0.001719
# 5 -0.007374 0.001029 -0.001892 0.000000 0.029481 0.000000
# 6 0.000000 0.000000 0.000000 0.001719 0.000000 0.025661
#
#
# Mechanical properties :
#
#
# Convention : Reuss Voigt Hill
#
# Bulk Modulus (GPa) = 45.64687 53.35661 49.50174
# Shear Modulus (GPa) = 40.61066 47.28519 43.94792
#
# Velocity S-wave (km/s) = 3.71169 4.00511 3.86119
# Velocity P-wave (km/s) = 5.81842 6.28398 6.05568
#
# Compressibility (1/GPa) = 0.02190731
#
# Stress axis : x y z
#
# Youngs Moduli (GPa) = 125.00223 82.37775 98.91356
#
# Poissons Ratio (x) = -0.01375 0.08133
# Poissons Ratio (y) = -0.02086 0.34773
# Poissons Ratio (z) = 0.10278 0.28960
#
# Static dielectric constant tensor:
#      x y z
#    x 7.106760 0.000000 0.188380 
#    y 0.000000 5.682560 0.000000 
#    z 0.188380 0.000000 4.835360 
# 
# 
# High freq. dielectric constant tensor:
#      x y z
#    x 2.262770 0.000000 0.016580 
#    y 0.000000 2.215620 0.000000 
#    z 0.016580 0.000000 2.172730 
# 
# From -- ./inp_files/18754.got.cif
#   From: 2010.03.12/outbox.cif.g09.slc.cpg/sg14_10_cif.got.tgz:18754.got - 2010.03.31 13:35:05.
