data_PCOD8127755
_publ_section_title
;
Structure prediction by ZEFSAII (Michael W. Deem and Ramdas Pophale) SiO2 
 PCOD8127755
Probable space group: P 21/C
;
_chemical_formula_sum "Si O2"
_cell_formula_units_Z 28
_cell_length_a 6.367838
_cell_length_b 11.232030
_cell_length_c 20.205858
_cell_angle_alpha 90.000000
_cell_angle_beta 71.630340
_cell_angle_gamma 90.000000
_cell_volume 1371.555732
_symmetry_space_group_name_H-M "P 21/C"
_symmetry_group_IT_number 14
_symmetry_cell_setting 'monoclinic'
loop_
_space_group_symop_operation_xyz
x,y,z
-x,1/2+y,1/2-z
-x,-y,-z
x,1/2-y,1/2+z
loop_
_atom_site_type_symbol
_atom_site_label
_atom_site_fract_x
_atom_site_fract_y
_atom_site_fract_z
Si Si1 0.792481 0.702667 0.421042
Si Si2 0.365435 0.297333 0.421042
Si Si3 0.843159 0.140273 0.673826
Si Si4 0.125317 0.500000 0.374684
Si Si5 0.809189 0.859726 0.673826
Si Si6 0.500307 0.821679 0.826217
Si Si7 0.152741 0.821679 0.173783
O O1 0.665979 0.741727 0.500000
O O2 0.614569 0.657570 0.385460
O O3 0.924564 0.815852 0.379280
O O4 0.958735 0.595462 0.422672
O O5 0.195922 0.404538 0.422672
O O6 0.316876 0.184149 0.379280
O O7 0.614511 0.342430 0.385461
O O8 0.637426 0.198870 0.655443
O O9 0.817227 0.185623 0.751066
O O10 0.832153 1.000000 0.667845
O O11 0.340947 0.567198 0.325095
O O12 0.008863 0.432801 0.325096
O O13 0.680637 0.814376 0.751066
O O14 0.051687 0.801131 0.655444
#
# Coordination Sequence:
#
# PCOD8127755 Si02
#       7
#     4   4   4   4   4   4   4
#     4  11  24  42  64  96 134 171 211 264 323 376
#     4  11  24  42  64  96 134 171 211 264 323 376
#     4  11  24  41  66  94 129 168 219 263 315 385
#     4  10  23  40  70  96 131 164 218 266 321 374
#     4  11  24  41  66  94 129 168 219 263 315 385
#     4  11  23  41  66  98 125 169 217 266 320 375
#     4  11  23  41  66  98 125 169 217 266 320 375
#
# _framework density 20.414774999999999
#
# number of rings (size 3 to 8) (size 9 to 14) (size 15 to 20)
#    0.000    1.143    2.857    3.000    4.000    8.571 
#    0.000    1.429    0.000    0.000    0.000    0.000 
#    0.000    0.000    0.000    0.000    0.000    0.000 
#
# Total GULP energy -347346.245725 kJ/mol
# GULP energy per Si atom -12405.223062 kJ/mol
# Density = 2.036831 g / cm^3
# Si number density = 20.414775 Si / 1000 Ang^3
#
#
#
# Elastic Constant Matrix: (Units=GPa)
#
#
# Indices 1 2 3 4 5 6 
#
# 1 117.9374 41.1039 46.8909 0.0000 -1.0824 0.0000
# 2 41.1039 130.0487 20.3621 0.0000 -0.6491 0.0000
# 3 46.8909 20.3621 146.0562 0.0000 1.9619 0.0000
# 4 0.0000 0.0000 0.0000 6.9083 0.0000 -0.5708
# 5 -1.0824 -0.6491 1.9619 0.0000 18.3363 0.0000
# 6 0.0000 0.0000 0.0000 -0.5708 0.0000 25.1680
#
#
#
# Elastic Compliance Matrix: (Units=1/GPa)
#
#
# Indices 1 2 3 4 5 6 
#
# 1 0.010710 -0.002904 -0.003045 0.000000 0.000855 0.000000
# 2 -0.002904 0.008651 -0.000276 0.000000 0.000164 0.000000
# 3 -0.003045 -0.000276 0.007877 0.000000 -0.001032 0.000000
# 4 0.000000 0.000000 0.000000 0.145025 0.000000 0.003289
# 5 0.000855 0.000164 -0.001032 0.000000 0.054703 0.000000
# 6 0.000000 0.000000 0.000000 0.003289 0.000000 0.039808
#
#
# Mechanical properties :
#
#
# Convention : Reuss Voigt Hill
#
# Bulk Modulus (GPa) = 67.62342 67.86179 67.74261
# Shear Modulus (GPa) = 17.59620 29.12822 23.36221
#
# Velocity S-wave (km/s) = 2.93906 3.78143 3.38654
# Velocity P-wave (km/s) = 6.68686 7.23735 6.96754
#
# Compressibility (1/GPa) = 0.01478778
#
# Stress axis : x y z
#
# Youngs Moduli (GPa) = 93.37371 115.58967 126.95846
#
# Poissons Ratio (x) = 0.33566 0.38658
# Poissons Ratio (y) = 0.27115 0.03504
# Poissons Ratio (z) = 0.28432 0.03190
#
# Static dielectric constant tensor:
#      x y z
#    x 3.975720 0.000000 -0.015450 
#    y 0.000000 3.661270 0.000000 
#    z -0.015450 0.000000 3.482550 
# 
# 
# High freq. dielectric constant tensor:
#      x y z
#    x 1.814250 0.000000 -0.000920 
#    y 0.000000 1.796990 0.000000 
#    z -0.000920 0.000000 1.784920 
# 
# From -- ./inp_files/63280.got.cif
#   From: 2010.03.12/outbox.cif.g09.slc.cpg/sg14_32_cif.got.tgz:63280.got - 2010.03.31 13:35:05.
