data_PCOD8127670
_publ_section_title
;
Structure prediction by ZEFSAII (Michael W. Deem and Ramdas Pophale) SiO2 
 PCOD8127670
Probable space group: P 21/C
;
_chemical_formula_sum "Si O2"
_cell_formula_units_Z 28
_cell_length_a 14.490336
_cell_length_b 19.571696
_cell_length_c 8.998449
_cell_angle_alpha 90.000000
_cell_angle_beta 150.823705
_cell_angle_gamma 90.000000
_cell_volume 1244.078623
_symmetry_space_group_name_H-M "P 21/C"
_symmetry_group_IT_number 14
_symmetry_cell_setting 'monoclinic'
loop_
_space_group_symop_operation_xyz
x,y,z
-x,1/2+y,1/2-z
-x,-y,-z
x,1/2-y,1/2+z
loop_
_atom_site_type_symbol
_atom_site_label
_atom_site_fract_x
_atom_site_fract_y
_atom_site_fract_z
Si Si1 0.511405 0.248297 0.331015
Si Si2 0.954334 0.451540 0.572793
Si Si3 0.199797 0.994254 0.855471
Si Si4 0.331185 0.881398 0.832972
Si Si5 0.149315 0.659157 0.797805
Si Si6 0.758982 0.737584 0.294177
Si Si7 0.724995 0.601270 0.758997
O O1 0.651692 0.300850 0.608845
O O2 0.647440 0.196309 0.434994
O O3 0.358174 0.213052 0.225854
O O4 0.373979 0.289172 0.025516
O O5 0.799833 0.488599 0.463575
O O6 0.879540 0.381532 0.395637
O O7 0.000000 0.500000 0.500000
O O8 0.128294 0.435300 0.924810
O O9 0.301460 0.062969 0.938197
O O10 0.279905 0.922503 0.908108
O O11 0.000000 0.000000 0.500000
O O12 0.174936 0.888545 0.480454
O O13 0.528199 0.911777 0.060027
O O14 0.969792 0.707659 0.578090
O O15 0.777459 0.819811 0.309276
#
# Coordination Sequence:
#
# PCOD8127670 Si02
#       7
#     4   4   4   4   4   4   4
#     4  11  25  43  65 106 138 179 235 278 359 428
#     4  11  26  46  67 105 139 183 239 291 348 419
#     4  10  23  41  73  95 135 186 235 280 356 415
#     4  11  24  44  69 101 138 183 232 291 354 424
#     4  12  25  44  74  99 147 181 233 296 355 423
#     4  11  26  43  70 104 141 185 228 291 357 418
#     4  10  22  47  68 100 140 184 237 290 355 423
#
# _framework density 22.506615
#
# number of rings (size 3 to 8) (size 9 to 14) (size 15 to 20)
#    0.000    1.143    2.857    3.857   10.000    1.143 
#    0.000    1.429    0.000    0.000    0.000    0.000 
#    0.000    0.000    0.000    0.000    0.000    0.000 
#
# Total GULP energy -346956.726909 kJ/mol
# GULP energy per Si atom -12391.311675 kJ/mol
# Density = 2.245539 g / cm^3
# Si number density = 22.506615 Si / 1000 Ang^3
#
#
#
# Elastic Constant Matrix: (Units=GPa)
#
#
# Indices 1 2 3 4 5 6 
#
# 1 152.6519 41.7738 42.4882 0.0000 -14.6209 0.0000
# 2 41.7738 79.4980 17.6946 0.0000 -2.9255 0.0000
# 3 42.4882 17.6946 94.8730 0.0000 -7.0352 0.0000
# 4 0.0000 0.0000 0.0000 11.1827 0.0000 -10.1517
# 5 -14.6209 -2.9255 -7.0352 0.0000 37.6394 0.0000
# 6 0.0000 0.0000 0.0000 -10.1517 0.0000 37.3277
#
#
#
# Elastic Compliance Matrix: (Units=1/GPa)
#
#
# Indices 1 2 3 4 5 6 
#
# 1 0.008660 -0.003794 -0.002985 0.000000 0.002511 0.000000
# 2 -0.003794 0.014798 -0.001100 0.000000 -0.000529 0.000000
# 3 -0.002985 -0.001100 0.012158 0.000000 0.001028 0.000000
# 4 0.000000 0.000000 0.000000 0.118738 0.000000 0.032292
# 5 0.002511 -0.000529 0.001028 0.000000 0.027694 0.000000
# 6 0.000000 0.000000 0.000000 0.032292 0.000000 0.035572
#
#
# Mechanical properties :
#
#
# Convention : Reuss Voigt Hill
#
# Bulk Modulus (GPa) = 50.35421 58.99289 54.67355
# Shear Modulus (GPa) = 20.83347 32.23440 26.53394
#
# Velocity S-wave (km/s) = 3.04577 3.78857 3.43729
# Velocity P-wave (km/s) = 5.89835 6.73840 6.33232
#
# Compressibility (1/GPa) = 0.01985931
#
# Stress axis : x y z
#
# Youngs Moduli (GPa) = 115.46869 67.57691 82.24743
#
# Poissons Ratio (x) = 0.25639 0.24548
# Poissons Ratio (y) = 0.43809 0.09048
# Poissons Ratio (z) = 0.34463 0.07434
#
# Static dielectric constant tensor:
#      x y z
#    x 4.930960 0.000000 -0.192760 
#    y 0.000000 3.600740 0.000000 
#    z -0.192760 0.000000 4.049220 
# 
# 
# High freq. dielectric constant tensor:
#      x y z
#    x 1.908310 0.000000 -0.003760 
#    y 0.000000 1.879150 0.000000 
#    z -0.003760 0.000000 1.884820 
# 
# From -- ./inp_files/16889.got.cif
#   From: 2010.03.12/outbox.cif.g09.slc.cpg/sg14_9_cif.got.tgz:16889.got - 2010.03.31 13:35:05.
