data_PCOD8127309
_publ_section_title
;
Structure prediction by ZEFSAII (Michael W. Deem and Ramdas Pophale) SiO2 
 PCOD8127309
Probable space group: P 21/C
;
_chemical_formula_sum "Si O2"
_cell_formula_units_Z 28
_cell_length_a 7.629117
_cell_length_b 12.754731
_cell_length_c 19.087383
_cell_angle_alpha 90.000000
_cell_angle_beta 136.058862
_cell_angle_gamma 90.000000
_cell_volume 1288.845164
_symmetry_space_group_name_H-M "P 21/C"
_symmetry_group_IT_number 14
_symmetry_cell_setting 'monoclinic'
loop_
_space_group_symop_operation_xyz
x,y,z
-x,1/2+y,1/2-z
-x,-y,-z
x,1/2-y,1/2+z
loop_
_atom_site_type_symbol
_atom_site_label
_atom_site_fract_x
_atom_site_fract_y
_atom_site_fract_z
Si Si1 0.654143 0.926629 0.438482
Si Si2 0.061880 0.257008 0.720145
Si Si3 0.504637 0.299233 0.583824
Si Si4 0.523560 0.520874 0.328759
Si Si5 0.813317 0.985970 0.776114
Si Si6 0.947062 0.561122 0.881662
Si Si7 0.675152 0.893739 0.107913
O O1 0.635441 0.810808 0.465682
O O2 0.839842 0.914541 0.426816
O O3 0.380077 0.969447 0.337435
O O4 0.781427 0.003249 0.532867
O O5 0.193123 0.360186 0.726811
O O6 0.017352 0.171156 0.647003
O O7 0.239616 0.214733 0.832874
O O8 0.799640 0.284145 0.680719
O O9 0.411595 0.361457 0.626513
O O10 0.466235 0.371343 0.504727
O O11 0.726852 0.481164 0.329883
O O12 0.242238 0.515319 0.214808
O O13 0.528613 0.446506 0.398609
O O14 0.086740 0.030536 0.836960
#
# Coordination Sequence:
#
# PCOD8127309 Si02
#       7
#     4   4   4   4   4   4   4
#     4  10  22  41  66  95 125 169 215 261 321 376
#     4  11  24  41  65  94 129 165 215 264 319 375
#     4  12  24  39  66  95 130 167 215 262 320 380
#     4  10  23  44  66  91 134 166 214 265 311 382
#     4  11  23  44  69  91 128 174 211 262 323 371
#     4   9  22  43  63  95 130 164 215 267 313 382
#     4  11  25  44  61  96 131 166 214 267 314 383
#
# _framework density 21.724874
#
# number of rings (size 3 to 8) (size 9 to 14) (size 15 to 20)
#    0.000    1.429    2.857    1.286    4.000    1.143 
#    2.571    0.000    0.000    0.000    0.000    0.000 
#    0.000    0.000    0.000    0.000    0.000    0.000 
#
# Total GULP energy -347256.800645 kJ/mol
# GULP energy per Si atom -12402.028594 kJ/mol
# Density = 2.167543 g / cm^3
# Si number density = 21.724874 Si / 1000 Ang^3
#
#
#
# Elastic Constant Matrix: (Units=GPa)
#
#
# Indices 1 2 3 4 5 6 
#
# 1 63.2559 30.9887 3.9470 0.0000 -11.1451 0.0000
# 2 30.9887 117.3718 30.5541 0.0000 -9.2353 0.0000
# 3 3.9470 30.5541 38.6722 0.0000 -15.8424 0.0000
# 4 0.0000 0.0000 0.0000 33.9798 0.0000 -2.0616
# 5 -11.1451 -9.2353 -15.8424 0.0000 29.0854 0.0000
# 6 0.0000 0.0000 0.0000 -2.0616 0.0000 31.6705
#
#
#
# Elastic Compliance Matrix: (Units=1/GPa)
#
#
# Indices 1 2 3 4 5 6 
#
# 1 0.020158 -0.006358 0.006826 0.000000 0.009423 0.000000
# 2 -0.006358 0.012786 -0.011312 0.000000 -0.004538 0.000000
# 3 0.006826 -0.011312 0.043379 0.000000 0.022651 0.000000
# 4 0.000000 0.000000 0.000000 0.029546 0.000000 0.001923
# 5 0.009423 -0.004538 0.022651 0.000000 0.048890 0.000000
# 6 0.000000 0.000000 0.000000 0.001923 0.000000 0.031700
#
#
# Mechanical properties :
#
#
# Convention : Reuss Voigt Hill
#
# Bulk Modulus (GPa) = 18.30325 38.91995 28.61160
# Shear Modulus (GPa) = 22.08898 29.20115 25.64506
#
# Velocity S-wave (km/s) = 3.19213 3.67022 3.43949
# Velocity P-wave (km/s) = 4.69356 5.99287 5.38257
#
# Compressibility (1/GPa) = 0.05463510
#
# Stress axis : x y z
#
# Youngs Moduli (GPa) = 49.60877 78.20948 23.05289
#
# Poissons Ratio (x) = 0.49722 -0.15736
# Poissons Ratio (y) = 0.31539 0.26078
# Poissons Ratio (z) = -0.33863 0.88472
#
# Static dielectric constant tensor:
#      x y z
#    x 3.903550 0.000000 -0.132360 
#    y 0.000000 4.081680 0.000000 
#    z -0.132360 0.000000 3.931400 
# 
# 
# High freq. dielectric constant tensor:
#      x y z
#    x 1.854400 0.000000 -0.009600 
#    y 0.000000 1.860040 0.000000 
#    z -0.009600 0.000000 1.852910 
# 
# From -- ./inp_files/65629.got.cif
#   From: 2010.03.12/outbox.cif.g09.slc.cpg/sg14_33_cif.got.tgz:65629.got - 2010.03.31 13:35:05.
