data_PCOD8127629
_publ_section_title
;
Structure prediction by ZEFSAII (Michael W. Deem and Ramdas Pophale) SiO2 
 PCOD8127629
Probable space group: P 21/C
;
_chemical_formula_sum "Si O2"
_cell_formula_units_Z 16
_cell_length_a 12.911378
_cell_length_b 4.916786
_cell_length_c 12.781888
_cell_angle_alpha 90.000000
_cell_angle_beta 65.496795
_cell_angle_gamma 90.000000
_cell_volume 738.347394
_symmetry_space_group_name_H-M "P 21/C"
_symmetry_group_IT_number 14
_symmetry_cell_setting 'monoclinic'
loop_
_space_group_symop_operation_xyz
x,y,z
-x,1/2+y,1/2-z
-x,-y,-z
x,1/2-y,1/2+z
loop_
_atom_site_type_symbol
_atom_site_label
_atom_site_fract_x
_atom_site_fract_y
_atom_site_fract_z
Si Si1 0.643168 0.923780 0.145100
Si Si2 0.893575 0.797186 0.044590
Si Si3 0.000140 0.499341 0.178913
Si Si4 0.528360 0.425364 0.104703
O O1 0.581802 0.125559 0.089315
O O2 0.588990 0.959776 0.282347
O O3 0.778336 0.972167 0.095171
O O4 0.624325 0.620378 0.111982
O O5 0.898577 0.606079 0.145985
O O6 0.897992 0.611235 0.937895
O O7 0.000000 0.000000 0.000000
O O8 0.953987 0.251189 0.270148
O O9 0.500000 0.500000 0.000000
#
# Coordination Sequence:
#
# PCOD8127629 Si02
#       4
#     4   4   4   4
#     4  10  24  42  68  96 132 170 220 272 331 398
#     4  11  25  44  68 100 142 179 222 279 340 410
#     4  11  24  43  64  95 140 180 223 270 334 411
#     4  10  22  45  68  96 127 171 223 277 329 384
#
# _framework density 21.670017000000001
#
# number of rings (size 3 to 8) (size 9 to 14) (size 15 to 20)
#    0.000    1.500    2.500    0.750    7.000    2.000 
#    4.500    0.000    0.000    0.000    0.000    0.000 
#    0.000    0.000    0.000    0.000    0.000    0.000 
#
# Total GULP energy -198405.386570 kJ/mol
# GULP energy per Si atom -12400.336661 kJ/mol
# Density = 2.162070 g / cm^3
# Si number density = 21.670017 Si / 1000 Ang^3
#
#
#
# Elastic Constant Matrix: (Units=GPa)
#
#
# Indices 1 2 3 4 5 6 
#
# 1 123.5784 38.3848 86.1311 0.0000 -20.4763 0.0000
# 2 38.3848 113.2250 55.8957 0.0000 0.9646 0.0000
# 3 86.1311 55.8957 137.6481 0.0000 19.1184 0.0000
# 4 0.0000 0.0000 0.0000 46.5924 0.0000 6.7661
# 5 -20.4763 0.9646 19.1184 0.0000 45.3013 0.0000
# 6 0.0000 0.0000 0.0000 6.7661 0.0000 28.9496
#
#
#
# Elastic Compliance Matrix: (Units=1/GPa)
#
#
# Indices 1 2 3 4 5 6 
#
# 1 0.022236 0.000438 -0.016450 0.000000 0.016984 0.000000
# 2 0.000438 0.011189 -0.005112 0.000000 0.002117 0.000000
# 3 -0.016450 -0.005112 0.021938 0.000000 -0.016585 0.000000
# 4 0.000000 0.000000 0.000000 0.022217 0.000000 -0.005192
# 5 0.016984 0.002117 -0.016585 0.000000 0.036705 0.000000
# 6 0.000000 0.000000 0.000000 -0.005192 0.000000 0.035756
#
#
# Mechanical properties :
#
#
# Convention : Reuss Voigt Hill
#
# Bulk Modulus (GPa) = 76.25280 81.69719 78.97500
# Shear Modulus (GPa) = 25.42457 37.10466 31.26461
#
# Velocity S-wave (km/s) = 3.42900 4.14243 3.80249
# Velocity P-wave (km/s) = 7.13736 7.78859 7.47008
#
# Compressibility (1/GPa) = 0.01311427
#
# Stress axis : x y z
#
# Youngs Moduli (GPa) = 44.97306 89.37406 45.58336
#
# Poissons Ratio (x) = -0.03917 0.74986
# Poissons Ratio (y) = -0.01971 0.23301
# Poissons Ratio (z) = 0.73982 0.45687
#
# Static dielectric constant tensor:
#      x y z
#    x 3.493980 0.000000 0.191670 
#    y 0.000000 4.294630 0.000000 
#    z 0.191670 0.000000 4.215800 
# 
# 
# High freq. dielectric constant tensor:
#      x y z
#    x 1.822580 0.000000 0.015540 
#    y 0.000000 1.872690 0.000000 
#    z 0.015540 0.000000 1.856340 
# 
# From -- ./inp_files/27344.got.cif
#   From: 2010.03.12/outbox.cif.g09.slc.cpg/sg14_14_cif.got.tgz:27344.got - 2010.03.31 13:35:05.
