data_PCOD8127596
_publ_section_title
;
Structure prediction by ZEFSAII (Michael W. Deem and Ramdas Pophale) SiO2 
 PCOD8127596
Probable space group: P 21/C
;
_chemical_formula_sum "Si O2"
_cell_formula_units_Z 32
_cell_length_a 14.677271
_cell_length_b 5.190401
_cell_length_c 18.971666
_cell_angle_alpha 90.000000
_cell_angle_beta 60.396017
_cell_angle_gamma 90.000000
_cell_volume 1256.613140
_symmetry_space_group_name_H-M "P 21/C"
_symmetry_group_IT_number 14
_symmetry_cell_setting 'monoclinic'
loop_
_space_group_symop_operation_xyz
x,y,z
-x,1/2+y,1/2-z
-x,-y,-z
x,1/2-y,1/2+z
loop_
_atom_site_type_symbol
_atom_site_label
_atom_site_fract_x
_atom_site_fract_y
_atom_site_fract_z
Si Si1 0.156262 0.049008 0.837333
Si Si2 0.417572 0.672754 0.634328
Si Si3 0.365627 0.546218 0.440058
Si Si4 0.666031 0.179820 0.684607
Si Si5 0.706182 0.681446 0.841270
Si Si6 0.978248 0.063924 0.801057
Si Si7 0.209870 0.857748 0.571977
Si Si8 0.205196 0.180614 0.448471
O O1 0.229619 0.212356 0.755844
O O2 0.125085 0.206314 0.920733
O O3 0.048385 0.971211 0.840497
O O4 0.221947 0.797365 0.833537
O O5 0.537526 0.617240 0.565969
O O6 0.410393 0.630360 0.721134
O O7 0.343576 0.461569 0.623032
O O8 0.385537 0.964846 0.629395
O O9 0.393632 0.646307 0.350853
O O10 0.330355 0.772965 0.507893
O O11 0.256179 0.391785 0.480090
O O12 0.694640 0.914851 0.635291
O O13 0.784976 0.586632 0.872263
O O14 0.860645 0.126491 0.870838
O O15 0.027816 0.327751 0.750908
O O16 0.155918 0.966219 0.519801
#
# Coordination Sequence:
#
# PCOD8127596 Si02
#       8
#     4   4   4   4   4   4   4   4
#     4  10  22  45  72 107 140 185 247 300 368 435
#     4  11  25  41  71 105 138 203 244 289 353 434
#     4  10  25  41  68 104 149 195 242 298 365 431
#     4   9  21  40  67 102 145 184 241 302 351 421
#     4  11  25  43  71 103 148 190 245 303 352 432
#     4  12  29  47  81 109 137 192 250 304 374 452
#     4  11  27  47  69 105 150 189 239 312 374 429
#     4  10  22  44  70 100 150 189 231 309 363 426
#
# _framework density 25.465278000000001
#
# number of rings (size 3 to 8) (size 9 to 14) (size 15 to 20)
#    0.000    1.500    2.500    0.000   12.250    1.500 
#    0.000    5.625    0.000    0.000    0.000    0.000 
#    0.000    0.000    0.000    0.000    0.000    0.000 
#
# Total GULP energy -396655.426908 kJ/mol
# GULP energy per Si atom -12395.482091 kJ/mol
# Density = 2.540732 g / cm^3
# Si number density = 25.465278 Si / 1000 Ang^3
#
#
#
# Elastic Constant Matrix: (Units=GPa)
#
#
# Indices 1 2 3 4 5 6 
#
# 1 88.5921 -1.8199 18.9912 0.0000 0.2681 0.0000
# 2 -1.8199 71.6938 15.2898 0.0000 2.8412 0.0000
# 3 18.9912 15.2898 96.9834 0.0000 7.3618 0.0000
# 4 0.0000 0.0000 0.0000 30.6042 0.0000 4.1119
# 5 0.2681 2.8412 7.3618 0.0000 25.6846 0.0000
# 6 0.0000 0.0000 0.0000 4.1119 0.0000 28.1445
#
#
#
# Elastic Compliance Matrix: (Units=1/GPa)
#
#
# Indices 1 2 3 4 5 6 
#
# 1 0.011835 0.000810 -0.002483 0.000000 0.000499 0.000000
# 2 0.000810 0.014512 -0.002376 0.000000 -0.000933 0.000000
# 3 -0.002483 -0.002376 0.011398 0.000000 -0.002978 0.000000
# 4 0.000000 0.000000 0.000000 0.033330 0.000000 -0.004869
# 5 0.000499 -0.000933 -0.002978 0.000000 0.039885 0.000000
# 6 0.000000 0.000000 0.000000 -0.004869 0.000000 0.036242
#
#
# Mechanical properties :
#
#
# Convention : Reuss Voigt Hill
#
# Bulk Modulus (GPa) = 33.72898 35.79906 34.76402
# Shear Modulus (GPa) = 30.26949 31.87387 31.07168
#
# Velocity S-wave (km/s) = 3.45143 3.54172 3.49687
# Velocity P-wave (km/s) = 5.39972 5.55099 5.47588
#
# Compressibility (1/GPa) = 0.02964810
#
# Stress axis : x y z
#
# Youngs Moduli (GPa) = 84.49421 68.90648 87.73540
#
# Poissons Ratio (x) = -0.05583 0.21786
# Poissons Ratio (y) = -0.06846 0.20844
# Poissons Ratio (z) = 0.20981 0.16371
#
# Static dielectric constant tensor:
#      x y z
#    x 4.252990 0.000000 0.410930 
#    y 0.000000 4.516670 0.000000 
#    z 0.410930 0.000000 4.591020 
# 
# 
# High freq. dielectric constant tensor:
#      x y z
#    x 1.992860 0.000000 0.027320 
#    y 0.000000 2.016310 0.000000 
#    z 0.027320 0.000000 2.020230 
# 
# From -- ./inp_files/67833.got.cif
#   From: 2010.03.12/outbox.cif.g09.slc.cpg/sg14_34_cif.got.tgz:67833.got - 2010.03.31 13:35:05.
