data_PCOD8127052
_publ_section_title
;
Structure prediction by ZEFSAII (Michael W. Deem and Ramdas Pophale) SiO2 
 PCOD8127052
Probable space group: P 21/C
;
_chemical_formula_sum "Si O2"
_cell_formula_units_Z 28
_cell_length_a 16.478586
_cell_length_b 6.871893
_cell_length_c 13.678646
_cell_angle_alpha 90.000000
_cell_angle_beta 117.378314
_cell_angle_gamma 90.000000
_cell_volume 1375.457811
_symmetry_space_group_name_H-M "P 21/C"
_symmetry_group_IT_number 14
_symmetry_cell_setting 'monoclinic'
loop_
_space_group_symop_operation_xyz
x,y,z
-x,1/2+y,1/2-z
-x,-y,-z
x,1/2-y,1/2+z
loop_
_atom_site_type_symbol
_atom_site_label
_atom_site_fract_x
_atom_site_fract_y
_atom_site_fract_z
Si Si1 0.514719 0.283772 0.898717
Si Si2 0.374923 0.367778 0.975465
Si Si3 0.594338 0.579884 0.341049
Si Si4 0.909792 0.720335 0.868486
Si Si5 0.795700 0.503524 0.433055
Si Si6 0.114035 0.891189 0.499691
Si Si7 0.828689 0.797866 0.621033
O O1 0.427454 0.247451 0.920241
O O2 0.482536 0.393402 0.783042
O O3 0.562276 0.082028 0.899962
O O4 0.588451 0.411770 0.998834
O O5 0.267976 0.371060 0.890030
O O6 0.391669 0.277051 0.091178
O O7 0.690244 0.525850 0.342466
O O8 0.863374 0.912680 0.888080
O O9 0.892834 0.723448 0.743666
O O10 0.017673 0.720595 0.948590
O O11 0.869126 0.524979 0.895322
O O12 0.809206 0.273722 0.455946
O O13 0.814068 0.611711 0.544870
O O14 0.121792 0.025538 0.407902
#
# Coordination Sequence:
#
# PCOD8127052 Si02
#       7
#     4   4   4   4   4   4   4
#     4  11  21  37  61  83 116 158 192 244 295 351
#     4  10  22  39  56  85 121 148 201 245 287 350
#     4  11  21  38  59  87 115 157 196 238 300 347
#     4  10  22  40  61  90 121 154 195 246 300 349
#     4  10  22  39  60  88 122 153 199 247 293 358
#     4  10  22  40  62  88 120 155 198 242 295 361
#     4  10  22  39  60  88 119 158 197 247 295 352
#
# _framework density 20.356859
#
# number of rings (size 3 to 8) (size 9 to 14) (size 15 to 20)
#    0.000    1.714    1.429    2.571    2.000    1.143 
#    2.571    2.857    0.000    0.000    0.000    0.000 
#    0.000    0.000    0.000    0.000    0.000    0.000 
#
# Total GULP energy -347322.083202 kJ/mol
# GULP energy per Si atom -12404.360114 kJ/mol
# Density = 2.031053 g / cm^3
# Si number density = 20.356859 Si / 1000 Ang^3
#
#
#
# Elastic Constant Matrix: (Units=GPa)
#
#
# Indices 1 2 3 4 5 6 
#
# 1 94.7267 20.0867 0.0512 0.0000 -6.0895 0.0000
# 2 20.0867 71.9825 13.5926 0.0000 0.8120 0.0000
# 3 0.0512 13.5926 59.8942 0.0000 -4.2460 0.0000
# 4 0.0000 0.0000 0.0000 20.6834 0.0000 -2.9488
# 5 -6.0895 0.8120 -4.2460 0.0000 23.1555 0.0000
# 6 0.0000 0.0000 0.0000 -2.9488 0.0000 34.4462
#
#
#
# Elastic Compliance Matrix: (Units=1/GPa)
#
#
# Indices 1 2 3 4 5 6 
#
# 1 0.011499 -0.003436 0.001006 0.000000 0.003329 0.000000
# 2 -0.003436 0.015570 -0.003681 0.000000 -0.002125 0.000000
# 3 0.001006 -0.003681 0.017790 0.000000 0.003656 0.000000
# 4 0.000000 0.000000 0.000000 0.048945 0.000000 0.004190
# 5 0.003329 -0.002125 0.003656 0.000000 0.044807 0.000000
# 6 0.000000 0.000000 0.000000 0.004190 0.000000 0.029389
#
#
# Mechanical properties :
#
#
# Convention : Reuss Voigt Hill
#
# Bulk Modulus (GPa) = 30.64113 32.67384 31.65748
# Shear Modulus (GPa) = 26.16404 28.51520 27.33962
#
# Velocity S-wave (km/s) = 3.58895 3.74674 3.66870
# Velocity P-wave (km/s) = 5.67968 5.89939 5.79058
#
# Compressibility (1/GPa) = 0.03263587
#
# Stress axis : x y z
#
# Youngs Moduli (GPa) = 86.96555 64.22502 56.21188
#
# Poissons Ratio (x) = 0.22069 -0.05655
# Poissons Ratio (y) = 0.29884 0.20693
# Poissons Ratio (z) = -0.08749 0.23643
#
# Static dielectric constant tensor:
#      x y z
#    x 3.833930 0.000000 -0.027850 
#    y 0.000000 3.531980 0.000000 
#    z -0.027850 0.000000 3.441010 
# 
# 
# High freq. dielectric constant tensor:
#      x y z
#    x 1.808240 0.000000 -0.002300 
#    y 0.000000 1.791910 0.000000 
#    z -0.002300 0.000000 1.784920 
# 
# From -- ./inp_files/48057.got.cif
#   From: 2010.03.12/outbox.cif.g09.slc.cpg/sg14_25_cif.got.tgz:48057.got - 2010.03.31 13:35:05.
