data_PCOD8127772
_publ_section_title
;
Structure prediction by ZEFSAII (Michael W. Deem and Ramdas Pophale) SiO2 
 PCOD8127772
Probable space group: P 21/C
;
_chemical_formula_sum "Si O2"
_cell_formula_units_Z 32
_cell_length_a 6.252882
_cell_length_b 27.856026
_cell_length_c 8.646130
_cell_angle_alpha 90.000000
_cell_angle_beta 97.816110
_cell_angle_gamma 90.000000
_cell_volume 1491.995602
_symmetry_space_group_name_H-M "P 21/C"
_symmetry_group_IT_number 14
_symmetry_cell_setting 'monoclinic'
loop_
_space_group_symop_operation_xyz
x,y,z
-x,1/2+y,1/2-z
-x,-y,-z
x,1/2-y,1/2+z
loop_
_atom_site_type_symbol
_atom_site_label
_atom_site_fract_x
_atom_site_fract_y
_atom_site_fract_z
Si Si1 0.857117 0.956289 0.040254
Si Si2 0.759880 0.603217 0.075696
Si Si3 0.867348 0.278161 0.610962
Si Si4 0.069423 0.615442 0.360257
Si Si5 0.799196 0.983603 0.376706
Si Si6 0.471037 0.932592 0.794890
Si Si7 0.253293 0.292516 0.043510
Si Si8 0.450075 0.742812 0.670725
O O1 0.861721 0.957798 0.224086
O O2 0.626307 0.959935 0.931502
O O3 0.961224 0.905738 0.002956
O O4 0.000000 0.000000 0.000000
O O5 0.580299 0.606619 0.192720
O O6 0.799237 0.651670 0.982890
O O7 0.979681 0.591840 0.192039
O O8 0.686598 0.559182 0.961048
O O9 0.989283 0.328348 0.643124
O O10 0.748141 0.269321 0.762238
O O11 0.673895 0.287441 0.471046
O O12 0.038464 0.237432 0.571869
O O13 0.317633 0.600051 0.385905
O O14 0.639139 0.027054 0.323395
O O15 0.000000 0.000000 0.500000
O O16 0.364851 0.274936 0.894469
O O17 0.428871 0.291240 0.197083
#
# Coordination Sequence:
#
# PCOD8127772 Si02
#       8
#     4   4   4   4   4   4   4   4
#     4  11  24  43  66  96 132 175 223 265 330 400
#     4  11  24  40  66  97 126 173 218 269 336 393
#     4  11  23  42  68  94 133 175 217 280 334 398
#     4  11  23  42  67  94 128 175 223 262 335 399
#     4  12  23  44  65  97 133 170 220 276 328 391
#     4  11  23  45  67  91 136 176 218 275 333 395
#     4  11  23  43  65  94 138 168 220 284 329 398
#     4  10  23  41  64  95 130 172 224 261 342 400
#
# _framework density 21.447786000000001
#
# number of rings (size 3 to 8) (size 9 to 14) (size 15 to 20)
#    0.000    1.000    2.500    4.500    0.000    7.000 
#    2.250    0.000    0.000    0.000    0.000    0.000 
#    0.000    0.000    0.000    0.000    0.000    0.000 
#
# Total GULP energy -396533.989646 kJ/mol
# GULP energy per Si atom -12391.687176 kJ/mol
# Density = 2.139897 g / cm^3
# Si number density = 21.447786 Si / 1000 Ang^3
#
#
#
# Elastic Constant Matrix: (Units=GPa)
#
#
# Indices 1 2 3 4 5 6 
#
# 1 103.6544 34.7920 32.1156 0.0000 -3.5910 0.0000
# 2 34.7920 98.3778 28.1414 0.0000 -3.1632 0.0000
# 3 32.1156 28.1414 115.5187 0.0000 4.5137 0.0000
# 4 0.0000 0.0000 0.0000 30.2924 0.0000 -3.3255
# 5 -3.5910 -3.1632 4.5137 0.0000 43.1255 0.0000
# 6 0.0000 0.0000 0.0000 -3.3255 0.0000 31.6601
#
#
#
# Elastic Compliance Matrix: (Units=1/GPa)
#
#
# Indices 1 2 3 4 5 6 
#
# 1 0.011564 -0.003362 -0.002434 0.000000 0.000971 0.000000
# 2 -0.003362 0.011955 -0.002009 0.000000 0.000807 0.000000
# 3 -0.002434 -0.002009 0.009877 0.000000 -0.001384 0.000000
# 4 0.000000 0.000000 0.000000 0.033397 0.000000 0.003508
# 5 0.000971 0.000807 -0.001384 0.000000 0.023473 0.000000
# 6 0.000000 0.000000 0.000000 0.003508 0.000000 0.031954
#
#
# Mechanical properties :
#
#
# Convention : Reuss Voigt Hill
#
# Bulk Modulus (GPa) = 56.22697 56.40542 56.31620
# Shear Modulus (GPa) = 34.78092 35.84905 35.31499
#
# Velocity S-wave (km/s) = 4.03135 4.09278 4.06218
# Velocity P-wave (km/s) = 6.92399 6.97786 6.95098
#
# Compressibility (1/GPa) = 0.01778506
#
# Stress axis : x y z
#
# Youngs Moduli (GPa) = 86.47783 83.64973 101.24829
#
# Poissons Ratio (x) = 0.28124 0.24641
# Poissons Ratio (y) = 0.29075 0.20342
# Poissons Ratio (z) = 0.21046 0.16806
#
# Static dielectric constant tensor:
#      x y z
#    x 3.984210 0.000000 0.064800 
#    y 0.000000 3.629010 0.000000 
#    z 0.064800 0.000000 3.734710 
# 
# 
# High freq. dielectric constant tensor:
#      x y z
#    x 1.850380 0.000000 0.003040 
#    y 0.000000 1.831950 0.000000 
#    z 0.003040 0.000000 1.856780 
# 
# From -- ./inp_files/6793.got.cif
#   From: 2010.03.12/outbox.cif.g09.slc.cpg/sg14_4_cif.got.tgz:6793.got - 2010.03.31 13:35:05.
