data_PCOD8127622
_publ_section_title
;
Structure prediction by ZEFSAII (Michael W. Deem and Ramdas Pophale) SiO2 
 PCOD8127622
Probable space group: P 21/C
;
_chemical_formula_sum "Si O2"
_cell_formula_units_Z 28
_cell_length_a 4.942262
_cell_length_b 17.431858
_cell_length_c 14.695750
_cell_angle_alpha 90.000000
_cell_angle_beta 115.791334
_cell_angle_gamma 90.000000
_cell_volume 1139.959055
_symmetry_space_group_name_H-M "P 21/C"
_symmetry_group_IT_number 14
_symmetry_cell_setting 'monoclinic'
loop_
_space_group_symop_operation_xyz
x,y,z
-x,1/2+y,1/2-z
-x,-y,-z
x,1/2-y,1/2+z
loop_
_atom_site_type_symbol
_atom_site_label
_atom_site_fract_x
_atom_site_fract_y
_atom_site_fract_z
Si Si1 0.774442 0.006013 0.798524
Si Si2 0.674138 0.727553 0.723480
Si Si3 0.593102 0.445358 0.596240
Si Si4 0.948358 0.309188 0.582511
Si Si5 0.042287 0.859055 0.406769
Si Si6 0.046441 0.826141 0.115508
Si Si7 0.437916 0.453503 0.081495
O O1 0.816313 0.093433 0.833375
O O2 0.530713 0.996056 0.682337
O O3 0.665560 0.950629 0.865137
O O4 0.096539 0.974807 0.813768
O O5 0.767829 0.652005 0.795255
O O6 0.318318 0.735238 0.662751
O O7 0.813319 0.802091 0.797762
O O8 0.790560 0.712606 0.638489
O O9 0.500000 0.500000 0.500000
O O10 0.656496 0.358446 0.570493
O O11 0.079362 0.341648 0.505657
O O12 0.853641 0.222759 0.537551
O O13 0.906413 0.920416 0.460607
O O14 0.329355 0.883764 0.390964
O O15 0.500000 0.500000 0.000000
#
# Coordination Sequence:
#
# PCOD8127622 Si02
#       7
#     4   4   4   4   4   4   4
#     4  12  23  43  67  99 136 181 231 272 351 418
#     4  10  23  42  66  98 129 173 237 272 335 421
#     4  12  26  42  66 105 140 181 228 285 346 405
#     4  10  26  44  70  99 143 177 233 293 337 419
#     4  10  22  45  67  95 138 175 227 283 339 407
#     4  12  22  43  75  91 130 195 218 277 356 416
#     4  12  24  46  74  99 136 181 230 289 347 418
#
# _framework density 24.562287000000001
#
# number of rings (size 3 to 8) (size 9 to 14) (size 15 to 20)
#    0.857    0.000    4.286    2.571    0.000    4.571 
#    7.714    0.000    0.000    0.000    0.000    0.000 
#    0.000    0.000    0.000    0.000    0.000    0.000 
#
# Total GULP energy -346913.506713 kJ/mol
# GULP energy per Si atom -12389.768097 kJ/mol
# Density = 2.450638 g / cm^3
# Si number density = 24.562287 Si / 1000 Ang^3
#
#
#
# Elastic Constant Matrix: (Units=GPa)
#
#
# Indices 1 2 3 4 5 6 
#
# 1 75.5348 7.9264 1.8756 0.0000 -17.8558 0.0000
# 2 7.9264 77.7125 36.9010 0.0000 -2.5518 0.0000
# 3 1.8756 36.9010 120.5904 0.0000 -20.1842 0.0000
# 4 0.0000 0.0000 0.0000 33.9139 0.0000 4.0041
# 5 -17.8558 -2.5518 -20.1842 0.0000 34.0304 0.0000
# 6 0.0000 0.0000 0.0000 4.0041 0.0000 27.5583
#
#
#
# Elastic Compliance Matrix: (Units=1/GPa)
#
#
# Indices 1 2 3 4 5 6 
#
# 1 0.015596 -0.002228 0.001977 0.000000 0.009189 0.000000
# 2 -0.002228 0.015472 -0.005219 0.000000 -0.003104 0.000000
# 3 0.001977 -0.005219 0.011066 0.000000 0.007209 0.000000
# 4 0.000000 0.000000 0.000000 0.030001 0.000000 -0.004359
# 5 0.009189 -0.003104 0.007209 0.000000 0.038250 0.000000
# 6 0.000000 0.000000 0.000000 -0.004359 0.000000 0.036920
#
#
# Mechanical properties :
#
#
# Convention : Reuss Voigt Hill
#
# Bulk Modulus (GPa) = 32.05853 40.80486 36.43170
# Shear Modulus (GPa) = 29.64866 34.24284 31.94575
#
# Velocity S-wave (km/s) = 3.47808 3.73785 3.61030
# Velocity P-wave (km/s) = 5.40459 5.93949 5.67834
#
# Compressibility (1/GPa) = 0.03119295
#
# Stress axis : x y z
#
# Youngs Moduli (GPa) = 64.11995 64.63471 90.37032
#
# Poissons Ratio (x) = 0.14399 -0.17867
# Poissons Ratio (y) = 0.14285 0.47167
# Poissons Ratio (z) = -0.12677 0.33735
#
# Static dielectric constant tensor:
#      x y z
#    x 4.614260 0.000000 -0.020560 
#    y 0.000000 4.339650 0.000000 
#    z -0.020560 0.000000 4.455190 
# 
# 
# High freq. dielectric constant tensor:
#      x y z
#    x 1.981830 0.000000 -0.005570 
#    y 0.000000 1.963260 0.000000 
#    z -0.005570 0.000000 1.972890 
# 
# From -- ./inp_files/37576.got.cif
#   From: 2010.03.12/outbox.cif.g09.slc.cpg/sg14_19_cif.got.tgz:37576.got - 2010.03.31 13:35:05.
