data_PCOD8127133
_publ_section_title
;
Structure prediction by ZEFSAII (Michael W. Deem and Ramdas Pophale) SiO2 
 PCOD8127133
Probable space group: P 21/C
;
_chemical_formula_sum "Si O2"
_cell_formula_units_Z 28
_cell_length_a 8.953924
_cell_length_b 9.372892
_cell_length_c 17.761620
_cell_angle_alpha 90.000000
_cell_angle_beta 115.811293
_cell_angle_gamma 90.000000
_cell_volume 1341.913449
_symmetry_space_group_name_H-M "P 21/C"
_symmetry_group_IT_number 14
_symmetry_cell_setting 'monoclinic'
loop_
_space_group_symop_operation_xyz
x,y,z
-x,1/2+y,1/2-z
-x,-y,-z
x,1/2-y,1/2+z
loop_
_atom_site_type_symbol
_atom_site_label
_atom_site_fract_x
_atom_site_fract_y
_atom_site_fract_z
Si Si1 0.355327 0.733014 0.783989
Si Si2 0.072453 0.781617 0.432652
Si Si3 0.329014 0.270019 0.344721
Si Si4 0.854860 0.489712 0.185639
Si Si5 0.707404 0.658308 0.836413
Si Si6 0.177748 0.958259 0.847617
Si Si7 0.679201 0.164998 0.383008
O O1 0.299618 0.582468 0.805885
O O2 0.554200 0.749530 0.835977
O O3 0.268282 0.861026 0.806921
O O4 0.305031 0.731871 0.685238
O O5 0.135075 0.631049 0.412927
O O6 0.162370 0.810193 0.530526
O O7 0.876451 0.777182 0.407425
O O8 0.107485 0.913088 0.384658
O O9 0.195270 0.152256 0.340933
O O10 0.287428 0.325355 0.252156
O O11 0.297740 0.406711 0.392627
O O12 0.513751 0.206683 0.393679
O O13 0.011884 0.479225 0.274360
O O14 0.676085 0.495733 0.852665
#
# Coordination Sequence:
#
# PCOD8127133 Si02
#       7
#     4   4   4   4   4   4   4
#     4  10  22  39  67  89 121 165 214 248 304 384
#     4  11  24  39  67  93 128 156 212 266 316 362
#     4  11  21  38  67  88 125 164 214 255 304 380
#     4  11  20  41  67  91 116 171 217 249 299 387
#     4  11  20  39  63  93 121 165 211 252 307 383
#     4  11  21  41  65  93 119 170 213 253 304 380
#     4  11  23  39  63  99 125 159 205 271 318 360
#
# _framework density 20.865727
#
# number of rings (size 3 to 8) (size 9 to 14) (size 15 to 20)
#    0.000    1.143    5.714    1.286    0.000    1.143 
#    0.000    0.714    3.143    0.000    0.000    0.000 
#    0.000    0.000    0.000    0.000    0.000    0.000 
#
# Total GULP energy -347249.284752 kJ/mol
# GULP energy per Si atom -12401.760170 kJ/mol
# Density = 2.081824 g / cm^3
# Si number density = 20.865727 Si / 1000 Ang^3
#
#
#
# Elastic Constant Matrix: (Units=GPa)
#
#
# Indices 1 2 3 4 5 6 
#
# 1 103.9854 30.6570 29.6973 0.0000 20.7397 0.0000
# 2 30.6570 100.0083 8.2830 0.0000 2.3153 0.0000
# 3 29.6973 8.2830 97.2576 0.0000 16.6627 0.0000
# 4 0.0000 0.0000 0.0000 20.0047 0.0000 6.5515
# 5 20.7397 2.3153 16.6627 0.0000 26.8632 0.0000
# 6 0.0000 0.0000 0.0000 6.5515 0.0000 24.3573
#
#
#
# Elastic Compliance Matrix: (Units=1/GPa)
#
#
# Indices 1 2 3 4 5 6 
#
# 1 0.012975 -0.003600 -0.002229 0.000000 -0.008324 0.000000
# 2 -0.003600 0.011072 -0.000175 0.000000 0.001934 0.000000
# 3 -0.002229 -0.000175 0.011950 0.000000 -0.005676 0.000000
# 4 0.000000 0.000000 0.000000 0.054817 0.000000 -0.014744
# 5 -0.008324 0.001934 -0.005676 0.000000 0.047007 0.000000
# 6 0.000000 0.000000 0.000000 -0.014744 0.000000 0.045021
#
#
# Mechanical properties :
#
#
# Convention : Reuss Voigt Hill
#
# Bulk Modulus (GPa) = 41.68553 48.72511 45.20532
# Shear Modulus (GPa) = 24.64908 29.75263 27.20085
#
# Velocity S-wave (km/s) = 3.44076 3.78022 3.61448
# Velocity P-wave (km/s) = 5.98385 6.51581 6.25549
#
# Compressibility (1/GPa) = 0.02398914
#
# Stress axis : x y z
#
# Youngs Moduli (GPa) = 77.07121 90.31397 83.68187
#
# Poissons Ratio (x) = 0.32514 0.18653
# Poissons Ratio (y) = 0.27746 0.01465
# Poissons Ratio (z) = 0.17180 0.01581
#
# Static dielectric constant tensor:
#      x y z
#    x 4.030510 0.000000 0.192600 
#    y 0.000000 3.946350 0.000000 
#    z 0.192600 0.000000 3.464600 
# 
# 
# High freq. dielectric constant tensor:
#      x y z
#    x 1.831640 0.000000 0.018030 
#    y 0.000000 1.824740 0.000000 
#    z 0.018030 0.000000 1.787170 
# 
# From -- ./inp_files/65024.got.cif
#   From: 2010.03.12/outbox.cif.g09.slc.cpg/sg14_33_cif.got.tgz:65024.got - 2010.03.31 13:35:05.
