data_PCOD8127123
_publ_section_title
;
Structure prediction by ZEFSAII (Michael W. Deem and Ramdas Pophale) SiO2 
 PCOD8127123
Probable space group: P 21/C
;
_chemical_formula_sum "Si O2"
_cell_formula_units_Z 28
_cell_length_a 20.962340
_cell_length_b 7.985530
_cell_length_c 15.791013
_cell_angle_alpha 90.000000
_cell_angle_beta 151.388403
_cell_angle_gamma 90.000000
_cell_volume 1265.816423
_symmetry_space_group_name_H-M "P 21/C"
_symmetry_group_IT_number 14
_symmetry_cell_setting 'monoclinic'
loop_
_space_group_symop_operation_xyz
x,y,z
-x,1/2+y,1/2-z
-x,-y,-z
x,1/2-y,1/2+z
loop_
_atom_site_type_symbol
_atom_site_label
_atom_site_fract_x
_atom_site_fract_y
_atom_site_fract_z
Si Si1 0.160154 0.268369 0.925783
Si Si2 0.661416 0.675879 0.719290
Si Si3 0.635041 0.573277 0.949116
Si Si4 0.121688 0.587125 0.439762
Si Si5 0.642453 0.280382 0.389708
Si Si6 0.709142 0.031872 0.711623
Si Si7 0.382525 0.881167 0.951865
O O1 0.029145 0.356061 0.739077
O O2 0.130522 0.074371 0.892082
O O3 0.202164 0.335916 0.067703
O O4 0.283922 0.286100 0.006316
O O5 0.679202 0.552621 0.659042
O O6 0.542729 0.605263 0.639837
O O7 0.630116 0.872444 0.660560
O O8 0.488670 0.637964 0.806648
O O9 0.611718 0.414350 0.862393
O O10 0.728253 0.519698 0.136523
O O11 0.231064 0.710265 0.525521
O O12 0.153683 0.551647 0.575907
O O13 0.671902 0.362541 0.516209
O O14 0.643690 0.216954 0.637377
#
# Coordination Sequence:
#
# PCOD8127123 Si02
#       7
#     4   4   4   4   4   4   4
#     4  11  24  45  65  95 127 178 217 266 329 395
#     4  10  22  39  66  94 128 168 212 268 330 387
#     4  11  24  41  68  96 137 163 222 273 325 384
#     4  11  26  43  68  92 133 174 222 261 333 390
#     4  11  24  39  65 102 125 173 215 268 327 387
#     4  10  25  39  64  97 131 169 214 271 328 382
#     4  10  22  39  64  98 129 163 213 269 332 382
#
# _framework density 22.120111999999999
#
# number of rings (size 3 to 8) (size 9 to 14) (size 15 to 20)
#    0.000    1.429    1.429    2.143   16.000    0.571 
#    0.000    2.143    0.000    0.000    0.000    0.000 
#    0.000    0.000    0.000    0.000    0.000    0.000 
#
# Total GULP energy -347008.619231 kJ/mol
# GULP energy per Si atom -12393.164973 kJ/mol
# Density = 2.206977 g / cm^3
# Si number density = 22.120112 Si / 1000 Ang^3
#
#
#
# Elastic Constant Matrix: (Units=GPa)
#
#
# Indices 1 2 3 4 5 6 
#
# 1 39.4617 -1.3941 22.9151 0.0000 -5.8251 0.0000
# 2 -1.3941 82.1726 31.6872 0.0000 -6.3904 0.0000
# 3 22.9151 31.6872 123.2983 0.0000 -6.4963 0.0000
# 4 0.0000 0.0000 0.0000 13.9002 0.0000 -33.1554
# 5 -5.8251 -6.3904 -6.4963 0.0000 30.3797 0.0000
# 6 0.0000 0.0000 0.0000 -33.1554 0.0000 -22.5932
#
#
#
# Elastic Compliance Matrix: (Units=1/GPa)
#
#
# Indices 1 2 3 4 5 6 
#
# 1 0.029746 0.003251 -0.006096 0.000000 0.005084 0.000000
# 2 0.003251 0.014000 -0.004060 0.000000 0.002700 0.000000
# 3 -0.006096 -0.004060 0.010296 0.000000 0.000179 0.000000
# 4 0.000000 0.000000 0.000000 0.015986 0.000000 -0.023459
# 5 0.005084 0.002700 0.000179 0.000000 0.034498 0.000000
# 6 0.000000 0.000000 0.000000 -0.023459 0.000000 -0.009835
#
#
# Mechanical properties :
#
#
# Convention : Reuss Voigt Hill
#
# Bulk Modulus (GPa) = 24.85564 39.03879 31.94722
# Shear Modulus (GPa) = 41.01322 17.11895 29.06609
#
# Velocity S-wave (km/s) = 4.31061 2.78494 3.62886
# Velocity P-wave (km/s) = 6.00302 5.29415 5.65970
#
# Compressibility (1/GPa) = 0.04023231
#
# Stress axis : x y z
#
# Youngs Moduli (GPa) = 33.61778 71.42757 97.12382
#
# Poissons Ratio (x) = -0.23219 0.59206
# Poissons Ratio (y) = -0.10928 0.39431
# Poissons Ratio (z) = 0.20493 0.28999
#
# Static dielectric constant tensor:
#      x y z
#    x 4.019740 0.000000 -0.038390 
#    y 0.000000 4.229170 0.000000 
#    z -0.038390 0.000000 4.107470 
# 
# 
# High freq. dielectric constant tensor:
#      x y z
#    x 1.841040 0.000000 -0.026510 
#    y 0.000000 1.889530 0.000000 
#    z -0.026510 0.000000 1.868690 
# 
# From -- ./inp_files/50270.got.cif
#   From: 2010.03.12/outbox.cif.g09.slc.cpg/sg14_26_cif.got.tgz:50270.got - 2010.03.31 13:35:05.
