data_PCOD8127563
_publ_section_title
;
Structure prediction by ZEFSAII (Michael W. Deem and Ramdas Pophale) SiO2 
 PCOD8127563
Probable space group: P 21/C
;
_chemical_formula_sum "Si O2"
_cell_formula_units_Z 32
_cell_length_a 11.855962
_cell_length_b 14.094944
_cell_length_c 26.371855
_cell_angle_alpha 90.000000
_cell_angle_beta 159.218468
_cell_angle_gamma 90.000000
_cell_volume 1563.620400
_symmetry_space_group_name_H-M "P 21/C"
_symmetry_group_IT_number 14
_symmetry_cell_setting 'monoclinic'
loop_
_space_group_symop_operation_xyz
x,y,z
-x,1/2+y,1/2-z
-x,-y,-z
x,1/2-y,1/2+z
loop_
_atom_site_type_symbol
_atom_site_label
_atom_site_fract_x
_atom_site_fract_y
_atom_site_fract_z
Si Si1 0.673265 0.506258 0.389355
Si Si2 0.131335 0.680090 0.946019
Si Si3 0.564672 0.856174 0.139385
Si Si4 0.789613 0.577666 0.885888
Si Si5 0.266997 0.520346 0.357933
Si Si6 0.334827 0.338080 0.537898
Si Si7 0.372334 0.644817 0.804006
Si Si8 0.420419 0.481354 0.907730
O O1 0.673599 0.431078 0.435084
O O2 0.384581 0.481604 0.231249
O O3 0.669055 0.613013 0.408635
O O4 0.000000 0.500000 0.500000
O O5 0.810182 0.695209 0.779618
O O6 0.015138 0.659174 0.955226
O O7 0.337347 0.773958 0.023082
O O8 0.329855 0.591827 0.009363
O O9 0.768022 0.917788 0.184610
O O10 0.548287 0.621212 0.825173
O O11 0.000000 0.500000 0.000000
O O12 0.500000 0.500000 0.500000
O O13 0.395622 0.606203 0.379022
O O14 0.936561 0.558185 0.241694
O O15 0.458606 0.233394 0.598959
O O16 0.997765 0.338966 0.366170
O O17 0.420239 0.568612 0.868512
O O18 0.500000 0.500000 0.000000
#
# Coordination Sequence:
#
# PCOD8127563 Si02
#       8
#     4   4   4   4   4   4   4   4
#     4  10  22  44  65  94 137 184 221 275 331 399
#     4  11  25  43  67 101 135 177 220 281 331 404
#     4  10  25  41  65 100 133 171 229 270 340 394
#     4  11  24  43  70  99 140 181 224 275 338 402
#     4  11  24  46  69  95 133 180 229 282 338 400
#     4  11  27  44  68 103 140 176 231 286 342 408
#     4  12  27  44  70 107 136 182 230 278 349 410
#     4  12  26  47  70  97 138 179 228 284 341 401
#
# _framework density 20.465326000000001
#
# number of rings (size 3 to 8) (size 9 to 14) (size 15 to 20)
#    0.000    1.000    5.000    0.000    7.000    3.000 
#    0.000    0.000    0.000    0.000    0.000    0.000 
#    0.000    0.000    0.000    0.000    0.000    0.000 
#
# Total GULP energy -396585.329203 kJ/mol
# GULP energy per Si atom -12393.291538 kJ/mol
# Density = 2.041875 g / cm^3
# Si number density = 20.465326 Si / 1000 Ang^3
#
#
#
# Elastic Constant Matrix: (Units=GPa)
#
#
# Indices 1 2 3 4 5 6 
#
# 1 110.5863 31.6121 26.4942 0.0000 7.4619 0.0000
# 2 31.6121 103.1020 35.4168 0.0000 -0.2901 0.0000
# 3 26.4942 35.4168 91.5302 0.0000 8.4060 0.0000
# 4 0.0000 0.0000 0.0000 37.0406 0.0000 -3.6837
# 5 7.4619 -0.2901 8.4060 0.0000 41.8942 0.0000
# 6 0.0000 0.0000 0.0000 -3.6837 0.0000 15.3953
#
#
#
# Elastic Compliance Matrix: (Units=1/GPa)
#
#
# Indices 1 2 3 4 5 6 
#
# 1 0.010312 -0.002523 -0.001873 0.000000 -0.001478 0.000000
# 2 -0.002523 0.011841 -0.003974 0.000000 0.001329 0.000000
# 3 -0.001873 -0.003974 0.013221 0.000000 -0.002347 0.000000
# 4 0.000000 0.000000 0.000000 0.027655 0.000000 0.006617
# 5 -0.001478 0.001329 -0.002347 0.000000 0.024613 0.000000
# 6 0.000000 0.000000 0.000000 0.006617 0.000000 0.066538
#
#
# Mechanical properties :
#
#
# Convention : Reuss Voigt Hill
#
# Bulk Modulus (GPa) = 53.66120 54.69607 54.17864
# Shear Modulus (GPa) = 28.22755 32.97903 30.60329
#
# Velocity S-wave (km/s) = 3.71790 4.01865 3.87120
# Velocity P-wave (km/s) = 6.68640 6.95104 6.82000
#
# Compressibility (1/GPa) = 0.01863544
#
# Stress axis : x y z
#
# Youngs Moduli (GPa) = 96.97127 84.44982 75.63916
#
# Poissons Ratio (x) = 0.21303 0.14168
# Poissons Ratio (y) = 0.24462 0.30057
# Poissons Ratio (z) = 0.18164 0.33558
#
# Static dielectric constant tensor:
#      x y z
#    x 4.275100 0.000000 0.142880 
#    y 0.000000 3.682120 0.000000 
#    z 0.142880 0.000000 3.861200 
# 
# 
# High freq. dielectric constant tensor:
#      x y z
#    x 1.816740 0.000000 0.004870 
#    y 0.000000 1.795730 0.000000 
#    z 0.004870 0.000000 1.817060 
# 
# From -- ./inp_files/77275.got.cif
#   From: 2010.03.12/outbox.cif.g09.slc.cpg/sg14_39_cif.got.tgz:77275.got - 2010.03.31 13:35:05.
