data_PCOD8127765
_publ_section_title
;
Structure prediction by ZEFSAII (Michael W. Deem and Ramdas Pophale) SiO2 
 PCOD8127765
Probable space group: P 21/C
;
_chemical_formula_sum "Si O2"
_cell_formula_units_Z 28
_cell_length_a 8.325980
_cell_length_b 8.753243
_cell_length_c 20.513523
_cell_angle_alpha 90.000000
_cell_angle_beta 123.677181
_cell_angle_gamma 90.000000
_cell_volume 1244.111437
_symmetry_space_group_name_H-M "P 21/C"
_symmetry_group_IT_number 14
_symmetry_cell_setting 'monoclinic'
loop_
_space_group_symop_operation_xyz
x,y,z
-x,1/2+y,1/2-z
-x,-y,-z
x,1/2-y,1/2+z
loop_
_atom_site_type_symbol
_atom_site_label
_atom_site_fract_x
_atom_site_fract_y
_atom_site_fract_z
Si Si1 0.022394 0.680233 0.997771
Si Si2 0.647024 0.669135 0.387436
Si Si3 0.674091 0.758556 0.699162
Si Si4 0.671457 0.388380 0.192616
Si Si5 0.077112 0.741788 0.361089
Si Si6 0.643528 0.510182 0.592196
Si Si7 0.282038 0.638438 0.657638
O O1 0.824376 0.769404 0.970788
O O2 0.086618 0.704040 0.937679
O O3 0.000000 0.500000 0.000000
O O4 0.173621 0.754929 0.081427
O O5 0.541311 0.821163 0.338487
O O6 0.470012 0.583656 0.379913
O O7 0.738735 0.546032 0.357830
O O8 0.685560 0.678064 0.630355
O O9 0.504970 0.686804 0.704159
O O10 0.866626 0.733372 0.784501
O O11 0.636267 0.933528 0.676337
O O12 0.772397 0.336625 0.148869
O O13 0.794986 0.341558 0.285421
O O14 0.148730 0.565669 0.376236
O O15 0.500000 0.500000 0.500000
#
# Coordination Sequence:
#
# PCOD8127765 Si02
#       7
#     4   4   4   4   4   4   4
#     4  12  26  43  65  96 133 175 225 280 340 414
#     4  10  23  41  63  89 124 168 214 264 335 412
#     4  11  23  41  67  96 130 173 225 280 337 418
#     4  11  23  40  66  97 126 167 224 281 335 401
#     4  11  24  42  64  97 133 174 225 282 343 407
#     4  10  23  43  66  95 134 176 219 277 347 413
#     4  11  23  42  66  92 129 177 220 276 348 419
#
# _framework density 22.506021
#
# number of rings (size 3 to 8) (size 9 to 14) (size 15 to 20)
#    0.000    1.143    0.000    6.429    0.000    8.000 
#    0.000    3.571    0.000    0.000    0.000    0.000 
#    0.000    0.000    0.000    0.000    0.000    0.000 
#
# Total GULP energy -346902.572905 kJ/mol
# GULP energy per Si atom -12389.377604 kJ/mol
# Density = 2.245480 g / cm^3
# Si number density = 22.506021 Si / 1000 Ang^3
#
#
#
# Elastic Constant Matrix: (Units=GPa)
#
#
# Indices 1 2 3 4 5 6 
#
# 1 68.5432 40.4489 53.8779 0.0000 2.7670 0.0000
# 2 40.4489 160.2973 58.2721 0.0000 -5.7019 0.0000
# 3 53.8779 58.2721 156.2887 0.0000 -7.2561 0.0000
# 4 0.0000 0.0000 0.0000 36.3501 0.0000 4.0129
# 5 2.7670 -5.7019 -7.2561 0.0000 46.3907 0.0000
# 6 0.0000 0.0000 0.0000 4.0129 0.0000 25.8900
#
#
#
# Elastic Compliance Matrix: (Units=1/GPa)
#
#
# Indices 1 2 3 4 5 6 
#
# 1 0.021613 -0.003234 -0.006369 0.000000 -0.002683 0.000000
# 2 -0.003234 0.007711 -0.001720 0.000000 0.000872 0.000000
# 3 -0.006369 -0.001720 0.009311 0.000000 0.001625 0.000000
# 4 0.000000 0.000000 0.000000 0.027989 0.000000 -0.004338
# 5 -0.002683 0.000872 0.001625 0.000000 0.022077 0.000000
# 6 0.000000 0.000000 0.000000 -0.004338 0.000000 0.039297
#
#
# Mechanical properties :
#
#
# Convention : Reuss Voigt Hill
#
# Bulk Modulus (GPa) = 62.54544 76.70300 69.62422
# Shear Modulus (GPa) = 32.05688 37.22815 34.64252
#
# Velocity S-wave (km/s) = 3.77818 4.07153 3.92759
# Velocity P-wave (km/s) = 6.84717 7.50055 7.18129
#
# Compressibility (1/GPa) = 0.01598838
#
# Stress axis : x y z
#
# Youngs Moduli (GPa) = 46.26941 129.69309 107.40218
#
# Poissons Ratio (x) = 0.41938 0.68410
# Poissons Ratio (y) = 0.14962 0.18469
# Poissons Ratio (z) = 0.29471 0.22303
#
# Static dielectric constant tensor:
#      x y z
#    x 4.322270 0.000000 0.000480 
#    y 0.000000 4.438090 0.000000 
#    z 0.000480 0.000000 4.019470 
# 
# 
# High freq. dielectric constant tensor:
#      x y z
#    x 1.895340 0.000000 0.002890 
#    y 0.000000 1.898540 0.000000 
#    z 0.002890 0.000000 1.891510 
# 
# From -- ./inp_files/65014.got.cif
#   From: 2010.03.12/outbox.cif.g09.slc.cpg/sg14_33_cif.got.tgz:65014.got - 2010.03.31 13:35:05.
