data_PCOD8127082
_publ_section_title
;
Structure prediction by ZEFSAII (Michael W. Deem and Ramdas Pophale) SiO2 
 PCOD8127082
Probable space group: P 21/C
;
_chemical_formula_sum "Si O2"
_cell_formula_units_Z 20
_cell_length_a 9.504797
_cell_length_b 8.576624
_cell_length_c 12.566344
_cell_angle_alpha 90.000000
_cell_angle_beta 107.596248
_cell_angle_gamma 90.000000
_cell_volume 976.465634
_symmetry_space_group_name_H-M "P 21/C"
_symmetry_group_IT_number 14
_symmetry_cell_setting 'monoclinic'
loop_
_space_group_symop_operation_xyz
x,y,z
-x,1/2+y,1/2-z
-x,-y,-z
x,1/2-y,1/2+z
loop_
_atom_site_type_symbol
_atom_site_label
_atom_site_fract_x
_atom_site_fract_y
_atom_site_fract_z
Si Si1 0.173529 0.504071 0.044561
Si Si2 0.563037 0.538115 0.629103
Si Si3 0.156080 0.318069 0.235791
Si Si4 0.351139 0.744603 0.210954
Si Si5 0.839179 0.474219 0.193981
O O1 0.220415 0.361501 0.132715
O O2 0.227654 0.666227 0.107742
O O3 0.233208 0.487379 0.938028
O O4 0.000000 0.500000 0.000000
O O5 0.500000 0.500000 0.500000
O O6 0.728728 0.607889 0.653541
O O7 0.561570 0.382667 0.699961
O O8 0.466123 0.670440 0.661965
O O9 0.142123 0.133307 0.237218
O O10 0.997201 0.392766 0.220733
O O11 0.273668 0.864596 0.271732
#
# Coordination Sequence:
#
# PCOD8127082 Si02
#       5
#     4   4   4   4   4
#     4   9  20  39  60  87 119 153 195 246 295 343
#     4  11  24  42  60  88 124 159 195 243 298 356
#     4  10  22  39  61  89 120 157 201 242 294 355
#     4  11  23  40  62  90 119 157 202 241 293 358
#     4  11  21  40  64  88 119 156 198 252 293 342
#
# _framework density 20.482033000000001
#
# number of rings (size 3 to 8) (size 9 to 14) (size 15 to 20)
#    0.000    1.600    0.000    6.000    0.000    6.400 
#    0.000   13.000    0.000    0.000    0.000    0.000 
#    0.000    0.000    0.000    0.000    0.000    0.000 
#
# Total GULP energy -247983.797180 kJ/mol
# GULP energy per Si atom -12399.189859 kJ/mol
# Density = 2.043541 g / cm^3
# Si number density = 20.482033 Si / 1000 Ang^3
#
#
#
# Elastic Constant Matrix: (Units=GPa)
#
#
# Indices 1 2 3 4 5 6 
#
# 1 44.0679 23.9268 28.5997 0.0000 5.7114 0.0000
# 2 23.9268 151.1099 54.8635 0.0000 -3.6362 0.0000
# 3 28.5997 54.8635 122.4166 0.0000 6.4001 0.0000
# 4 0.0000 0.0000 0.0000 27.4249 0.0000 -3.5773
# 5 5.7114 -3.6362 6.4001 0.0000 33.2623 0.0000
# 6 0.0000 0.0000 0.0000 -3.5773 0.0000 39.2968
#
#
#
# Elastic Compliance Matrix: (Units=1/GPa)
#
#
# Indices 1 2 3 4 5 6 
#
# 1 0.028005 -0.002670 -0.005131 0.000000 -0.004113 0.000000
# 2 -0.002670 0.008240 -0.003172 0.000000 0.001970 0.000000
# 3 -0.005131 -0.003172 0.010870 0.000000 -0.001557 0.000000
# 4 0.000000 0.000000 0.000000 0.036901 0.000000 0.003359
# 5 -0.004113 0.001970 -0.001557 0.000000 0.031285 0.000000
# 6 0.000000 0.000000 0.000000 0.003359 0.000000 0.025753
#
#
# Mechanical properties :
#
#
# Convention : Reuss Voigt Hill
#
# Bulk Modulus (GPa) = 39.73154 59.15270 49.44212
# Shear Modulus (GPa) = 29.17306 34.01042 31.59174
#
# Velocity S-wave (km/s) = 3.77812 4.07934 3.93162
# Velocity P-wave (km/s) = 6.20263 7.15060 6.69342
#
# Compressibility (1/GPa) = 0.02516892
#
# Stress axis : x y z
#
# Youngs Moduli (GPa) = 35.70768 121.36630 91.99251
#
# Poissons Ratio (x) = 0.32410 0.47200
# Poissons Ratio (y) = 0.09536 0.29178
# Poissons Ratio (z) = 0.18321 0.38495
#
# Static dielectric constant tensor:
#      x y z
#    x 4.060650 0.000000 -0.877500 
#    y 0.000000 3.814880 0.000000 
#    z -0.877500 0.000000 7.311410 
# 
# 
# High freq. dielectric constant tensor:
#      x y z
#    x 1.802050 0.000000 0.007170 
#    y 0.000000 1.809650 0.000000 
#    z 0.007170 0.000000 1.810060 
# 
# From -- ./inp_files/22978.got.cif
#   From: 2010.03.12/outbox.cif.g09.slc.cpg/sg14_12_cif.got.tgz:22978.got - 2010.03.31 13:35:05.
