data_PCOD8127894
_publ_section_title
;
Structure prediction by ZEFSAII (Michael W. Deem and Ramdas Pophale) SiO2 
 PCOD8127894
Probable space group: P 21/C
;
_chemical_formula_sum "Si O2"
_cell_formula_units_Z 24
_cell_length_a 23.246668
_cell_length_b 7.971891
_cell_length_c 12.375507
_cell_angle_alpha 90.000000
_cell_angle_beta 29.952955
_cell_angle_gamma 90.000000
_cell_volume 1145.082673
_symmetry_space_group_name_H-M "P 21/C"
_symmetry_group_IT_number 14
_symmetry_cell_setting 'monoclinic'
loop_
_space_group_symop_operation_xyz
x,y,z
-x,1/2+y,1/2-z
-x,-y,-z
x,1/2-y,1/2+z
loop_
_atom_site_type_symbol
_atom_site_label
_atom_site_fract_x
_atom_site_fract_y
_atom_site_fract_z
Si Si1 0.192457 0.407867 0.666970
Si Si2 0.209002 0.743111 0.535772
Si Si3 0.031516 0.144761 0.031742
Si Si4 0.429068 0.541920 0.722357
Si Si5 0.394270 0.265047 0.949129
Si Si6 0.232877 0.441681 0.365132
O O1 0.186675 0.611853 0.672322
O O2 0.298558 0.371260 0.573948
O O3 0.213364 0.340700 0.509685
O O4 0.078518 0.314653 0.897318
O O5 0.300675 0.888921 0.410051
O O6 0.250583 0.639235 0.362918
O O7 0.084666 0.821159 0.712338
O O8 0.124870 0.076892 0.962780
O O9 0.000000 0.000000 0.000000
O O10 0.500000 0.500000 0.500000
O O11 0.420871 0.369380 0.799303
O O12 0.490751 0.678817 0.696227
O O13 0.349375 0.381528 0.119258
#
# Coordination Sequence:
#
# PCOD8127894 Si02
#       6
#     4   4   4   4   4   4
#     4   9  21  41  65  96 132 177 220 275 343 400
#     4  10  23  43  64  95 134 179 223 280 340 404
#     4  11  22  40  66 102 134 172 226 277 342 416
#     4  12  27  44  70 102 134 185 233 285 348 408
#     4  11  23  44  66  97 136 175 229 281 337 409
#     4   9  23  39  66  93 134 174 217 279 335 397
#
# _framework density 20.959185999999999
#
# number of rings (size 3 to 8) (size 9 to 14) (size 15 to 20)
#    1.000    0.667    0.000    4.500    4.667    0.667 
#    6.000    0.000    0.000    0.000    0.000    0.000 
#    0.000    0.000    0.000    0.000    0.000    0.000 
#
# Total GULP energy -297476.633198 kJ/mol
# GULP energy per Si atom -12394.859717 kJ/mol
# Density = 2.091148 g / cm^3
# Si number density = 20.959186 Si / 1000 Ang^3
#
#
#
# Elastic Constant Matrix: (Units=GPa)
#
#
# Indices 1 2 3 4 5 6 
#
# 1 66.4912 6.6304 13.6431 0.0000 -1.9543 0.0000
# 2 6.6304 67.1884 6.5394 0.0000 -5.9502 0.0000
# 3 13.6431 6.5394 75.9022 0.0000 -10.7854 0.0000
# 4 0.0000 0.0000 0.0000 36.1591 0.0000 7.3391
# 5 -1.9543 -5.9502 -10.7854 0.0000 34.8177 0.0000
# 6 0.0000 0.0000 0.0000 7.3391 0.0000 42.1884
#
#
#
# Elastic Compliance Matrix: (Units=1/GPa)
#
#
# Indices 1 2 3 4 5 6 
#
# 1 0.015726 -0.001302 -0.002741 0.000000 -0.000189 0.000000
# 2 -0.001302 0.015290 -0.000756 0.000000 0.002306 0.000000
# 3 -0.002741 -0.000756 0.014323 0.000000 0.004154 0.000000
# 4 0.000000 0.000000 0.000000 0.028668 0.000000 -0.004987
# 5 -0.000189 0.002306 0.004154 0.000000 0.030391 0.000000
# 6 0.000000 0.000000 0.000000 -0.004987 0.000000 0.024571
#
#
# Mechanical properties :
#
#
# Convention : Reuss Voigt Hill
#
# Bulk Modulus (GPa) = 27.97894 29.24528 28.61211
# Shear Modulus (GPa) = 33.22697 34.81766 34.02231
#
# Velocity S-wave (km/s) = 3.98592 4.08022 4.03335
# Velocity P-wave (km/s) = 5.87892 6.01509 5.94739
#
# Compressibility (1/GPa) = 0.03574116
#
# Stress axis : x y z
#
# Youngs Moduli (GPa) = 63.58756 65.40339 69.81802
#
# Poissons Ratio (x) = 0.08514 0.19140
# Poissons Ratio (y) = 0.08278 0.05276
# Poissons Ratio (z) = 0.17432 0.04942
#
# Static dielectric constant tensor:
#      x y z
#    x 3.778040 0.000000 -0.010110 
#    y 0.000000 3.817220 0.000000 
#    z -0.010110 0.000000 3.788170 
# 
# 
# High freq. dielectric constant tensor:
#      x y z
#    x 1.823980 0.000000 -0.007030 
#    y 0.000000 1.817690 0.000000 
#    z -0.007030 0.000000 1.822510 
# 
# From -- ./inp_files/35663.got.cif
#   From: 2010.03.12/outbox.cif.g09.slc.cpg/sg14_18_cif.got.tgz:35663.got - 2010.03.31 13:35:05.
