data_PCOD8127782
_publ_section_title
;
Structure prediction by ZEFSAII (Michael W. Deem and Ramdas Pophale) SiO2 
 PCOD8127782
Probable space group: P 21/C
;
_chemical_formula_sum "Si O2"
_cell_formula_units_Z 28
_cell_length_a 11.379183
_cell_length_b 7.698702
_cell_length_c 15.832086
_cell_angle_alpha 90.000000
_cell_angle_beta 72.061564
_cell_angle_gamma 90.000000
_cell_volume 1319.545599
_symmetry_space_group_name_H-M "P 21/C"
_symmetry_group_IT_number 14
_symmetry_cell_setting 'monoclinic'
loop_
_space_group_symop_operation_xyz
x,y,z
-x,1/2+y,1/2-z
-x,-y,-z
x,1/2-y,1/2+z
loop_
_atom_site_type_symbol
_atom_site_label
_atom_site_fract_x
_atom_site_fract_y
_atom_site_fract_z
Si Si1 0.328494 0.095609 0.250209
Si Si2 0.566311 0.949524 0.248939
Si Si3 0.368504 0.535995 0.564958
Si Si4 0.615270 0.426975 0.921632
Si Si5 0.760926 0.444981 0.577962
Si Si6 0.848474 0.397792 0.985091
Si Si7 0.107756 0.299124 0.902329
O O1 0.398303 0.254242 0.278794
O O2 0.187933 0.102739 0.312808
O O3 0.417496 0.947282 0.269831
O O4 0.328099 0.093550 0.148676
O O5 0.637939 0.065929 0.163017
O O6 0.617146 0.980500 0.331452
O O7 0.500000 0.500000 0.500000
O O8 0.386649 0.725176 0.599861
O O9 0.268889 0.514731 0.513217
O O10 0.739728 0.453331 0.946625
O O11 0.500000 0.500000 0.000000
O O12 0.815602 0.248294 0.564171
O O13 0.853834 0.596516 0.591133
O O14 0.963825 0.313929 0.907168
O O15 0.881235 0.585100 0.016211
#
# Coordination Sequence:
#
# PCOD8127782 Si02
#       7
#     4   4   4   4   4   4   4
#     4  11  23  38  62  93 129 159 215 259 328 381
#     4  11  23  37  62  95 123 167 205 272 322 381
#     4  11  22  38  60  95 126 163 206 264 331 375
#     4  11  24  38  63  93 127 162 207 270 320 382
#     4  10  23  41  66  91 127 165 218 265 319 387
#     4  10  23  43  65  91 125 167 216 256 330 378
#     4  10  23  42  66  90 124 172 209 264 316 394
#
# _framework density 21.219425999999999
#
# number of rings (size 3 to 8) (size 9 to 14) (size 15 to 20)
#    0.000    1.429    1.429    3.000   12.000    0.000 
#    0.000    7.143    0.000    0.000    0.000    0.000 
#    0.000    0.000    0.000    0.000    0.000    0.000 
#
# Total GULP energy -346898.582235 kJ/mol
# GULP energy per Si atom -12389.235080 kJ/mol
# Density = 2.117113 g / cm^3
# Si number density = 21.219426 Si / 1000 Ang^3
#
#
#
# Elastic Constant Matrix: (Units=GPa)
#
#
# Indices 1 2 3 4 5 6 
#
# 1 114.6251 10.7386 42.5957 0.0000 -10.6201 0.0000
# 2 10.7386 38.0885 11.3207 0.0000 -0.8953 0.0000
# 3 42.5957 11.3207 111.1117 0.0000 -9.6458 0.0000
# 4 0.0000 0.0000 0.0000 32.6832 0.0000 -2.2495
# 5 -10.6201 -0.8953 -9.6458 0.0000 35.3195 0.0000
# 6 0.0000 0.0000 0.0000 -2.2495 0.0000 28.2926
#
#
#
# Elastic Compliance Matrix: (Units=1/GPa)
#
#
# Indices 1 2 3 4 5 6 
#
# 1 0.010439 -0.001814 -0.003635 0.000000 0.002100 0.000000
# 2 -0.001814 0.027390 -0.002133 0.000000 -0.000434 0.000000
# 3 -0.003635 -0.002133 0.010766 0.000000 0.001793 0.000000
# 4 0.000000 0.000000 0.000000 0.030765 0.000000 0.002446
# 5 0.002100 -0.000434 0.001793 0.000000 0.029423 0.000000
# 6 0.000000 0.000000 0.000000 0.002446 0.000000 0.035539
#
#
# Mechanical properties :
#
#
# Convention : Reuss Voigt Hill
#
# Bulk Modulus (GPa) = 29.91093 43.68171 36.79632
# Shear Modulus (GPa) = 29.30309 32.53707 30.92008
#
# Velocity S-wave (km/s) = 3.72015 3.92007 3.82142
# Velocity P-wave (km/s) = 5.70783 6.41246 6.07038
#
# Compressibility (1/GPa) = 0.03343259
#
# Stress axis : x y z
#
# Youngs Moduli (GPa) = 95.79130 36.51002 92.88117
#
# Poissons Ratio (x) = 0.06621 0.33762
# Poissons Ratio (y) = 0.17372 0.19812
# Poissons Ratio (z) = 0.34819 0.07788
#
# Static dielectric constant tensor:
#      x y z
#    x 3.965310 0.000000 -0.310460 
#    y 0.000000 4.013310 0.000000 
#    z -0.310460 0.000000 3.545000 
# 
# 
# High freq. dielectric constant tensor:
#      x y z
#    x 1.825930 0.000000 -0.008730 
#    y 0.000000 1.845870 0.000000 
#    z -0.008730 0.000000 1.824290 
# 
# From -- ./inp_files/43083.got.cif
#   From: 2010.03.12/outbox.cif.g09.slc.cpg/sg14_22_cif.got.tgz:43083.got - 2010.03.31 13:35:05.
