data_PCOD8127170
_publ_section_title
;
Structure prediction by ZEFSAII (Michael W. Deem and Ramdas Pophale) SiO2 
 PCOD8127170
Probable space group: P 21/C
;
_chemical_formula_sum "Si O2"
_cell_formula_units_Z 28
_cell_length_a 8.432894
_cell_length_b 12.099496
_cell_length_c 15.859362
_cell_angle_alpha 90.000000
_cell_angle_beta 57.641987
_cell_angle_gamma 90.000000
_cell_volume 1366.918418
_symmetry_space_group_name_H-M "P 21/C"
_symmetry_group_IT_number 14
_symmetry_cell_setting 'monoclinic'
loop_
_space_group_symop_operation_xyz
x,y,z
-x,1/2+y,1/2-z
-x,-y,-z
x,1/2-y,1/2+z
loop_
_atom_site_type_symbol
_atom_site_label
_atom_site_fract_x
_atom_site_fract_y
_atom_site_fract_z
Si Si1 0.819324 0.392623 0.944698
Si Si2 0.252707 0.685829 0.639061
Si Si3 0.319831 0.614689 0.437273
Si Si4 0.033841 0.240491 0.005746
Si Si5 0.092444 0.128217 0.652796
Si Si6 0.467922 0.167169 0.643643
Si Si7 0.592698 0.626220 0.650019
O O1 0.808306 0.310133 0.867922
O O2 0.890871 0.510042 0.895395
O O3 0.965405 0.345731 0.971654
O O4 0.613749 0.402466 0.045438
O O5 0.274448 0.610966 0.549575
O O6 0.448439 0.693294 0.632859
O O7 0.099906 0.627968 0.741152
O O8 0.483557 0.703104 0.372704
O O9 0.392326 0.497816 0.386995
O O10 0.132004 0.649894 0.440221
O O11 0.209138 0.187373 0.908272
O O12 0.091299 0.276435 0.082929
O O13 0.260103 0.150265 0.668914
O O14 0.483110 0.121831 0.733682
#
# Coordination Sequence:
#
# PCOD8127170 Si02
#       7
#     4   4   4   4   4   4   4
#     4  10  23  43  61  88 125 155 197 252 298 352
#     4  10  23  40  59  91 120 157 204 241 295 365
#     4  10  23  43  61  88 125 155 197 252 298 352
#     4  10  22  40  62  92 118 154 204 244 294 362
#     4  12  23  40  65  88 121 162 197 248 300 348
#     4  10  23  40  59  91 120 157 204 241 295 365
#     4  12  23  40  65  88 121 162 197 248 300 348
#
# _framework density 20.484034000000001
#
# number of rings (size 3 to 8) (size 9 to 14) (size 15 to 20)
#    0.000    1.714    0.000    6.857    0.000    6.857 
#    0.000    0.000    0.000    0.000    0.000    0.000 
#    0.000    0.000    0.000    0.000    0.000    0.000 
#
# Total GULP energy -347349.449539 kJ/mol
# GULP energy per Si atom -12405.337484 kJ/mol
# Density = 2.043741 g / cm^3
# Si number density = 20.484034 Si / 1000 Ang^3
#
#
#
# Elastic Constant Matrix: (Units=GPa)
#
#
# Indices 1 2 3 4 5 6 
#
# 1 55.9526 23.3422 11.6792 0.0000 5.0738 0.0000
# 2 23.3422 45.7387 38.3926 0.0000 -4.3046 0.0000
# 3 11.6792 38.3926 95.5633 0.0000 3.5614 0.0000
# 4 0.0000 0.0000 0.0000 16.1790 0.0000 -7.8549
# 5 5.0738 -4.3046 3.5614 0.0000 37.9409 0.0000
# 6 0.0000 0.0000 0.0000 -7.8549 0.0000 14.3283
#
#
#
# Elastic Compliance Matrix: (Units=1/GPa)
#
#
# Indices 1 2 3 4 5 6 
#
# 1 0.024251 -0.015940 0.003641 0.000000 -0.005393 0.000000
# 2 -0.015940 0.044440 -0.016230 0.000000 0.008697 0.000000
# 3 0.003641 -0.016230 0.016685 0.000000 -0.003894 0.000000
# 4 0.000000 0.000000 0.000000 0.084226 0.000000 0.046173
# 5 -0.005393 0.008697 -0.003894 0.000000 0.028430 0.000000
# 6 0.000000 0.000000 0.000000 0.046173 0.000000 0.095104
#
#
# Mechanical properties :
#
#
# Convention : Reuss Voigt Hill
#
# Bulk Modulus (GPa) = 35.31307 38.23138 36.77223
# Shear Modulus (GPa) = 13.90307 21.94569 17.92438
#
# Velocity S-wave (km/s) = 2.60807 3.27671 2.96132
# Velocity P-wave (km/s) = 5.13284 5.74633 5.44823
#
# Compressibility (1/GPa) = 0.02831812
#
# Stress axis : x y z
#
# Youngs Moduli (GPa) = 41.23505 22.50240 59.93520
#
# Poissons Ratio (x) = 0.35869 -0.21823
# Poissons Ratio (y) = 0.65730 0.97273
# Poissons Ratio (z) = -0.15014 0.36521
#
# Static dielectric constant tensor:
#      x y z
#    x 3.836530 0.000000 0.016720 
#    y 0.000000 3.535140 0.000000 
#    z 0.016720 0.000000 3.781190 
# 
# 
# High freq. dielectric constant tensor:
#      x y z
#    x 1.818630 0.000000 0.001260 
#    y 0.000000 1.791540 0.000000 
#    z 0.001260 0.000000 1.809810 
# 
# From -- ./inp_files/40236.got.cif
#   From: 2010.03.12/outbox.cif.g09.slc.cpg/sg14_21_cif.got.tgz:40236.got - 2010.03.31 13:35:05.
