data_PCOD8127726
_publ_section_title
;
Structure prediction by ZEFSAII (Michael W. Deem and Ramdas Pophale) SiO2 
 PCOD8127726
Probable space group: P 21/C
;
_chemical_formula_sum "Si O2"
_cell_formula_units_Z 24
_cell_length_a 19.659767
_cell_length_b 7.932545
_cell_length_c 19.455330
_cell_angle_alpha 90.000000
_cell_angle_beta 21.304701
_cell_angle_gamma 90.000000
_cell_volume 1102.371532
_symmetry_space_group_name_H-M "P 21/C"
_symmetry_group_IT_number 14
_symmetry_cell_setting 'monoclinic'
loop_
_space_group_symop_operation_xyz
x,y,z
-x,1/2+y,1/2-z
-x,-y,-z
x,1/2-y,1/2+z
loop_
_atom_site_type_symbol
_atom_site_label
_atom_site_fract_x
_atom_site_fract_y
_atom_site_fract_z
Si Si1 0.967216 0.770966 0.811252
Si Si2 0.531124 0.508740 0.828871
Si Si3 0.814961 0.417969 0.008187
Si Si4 0.832429 0.431601 0.749741
Si Si5 0.876365 0.183472 0.066250
Si Si6 0.435369 0.196594 0.828773
O O1 0.915154 0.587063 0.889075
O O2 0.119619 0.767995 0.606138
O O3 0.049734 0.879110 0.795241
O O4 0.780720 0.857872 0.953854
O O5 0.723619 0.448043 0.680647
O O6 0.462655 0.382139 0.833435
O O7 0.550033 0.685842 0.769172
O O8 0.381198 0.529694 0.030284
O O9 0.870576 0.364123 0.033349
O O10 0.588494 0.427740 0.219563
O O11 0.839522 0.290418 0.682478
O O12 0.918872 0.603625 0.637766
#
# Coordination Sequence:
#
# PCOD8127726 Si02
#       6
#     4   4   4   4   4   4
#     4  12  22  37  62  87 122 151 202 251 300 353
#     4  11  21  38  59  88 119 156 200 244 295 350
#     4  11  24  38  60  91 118 157 198 253 301 349
#     4  11  22  40  61  88 119 163 199 241 299 357
#     4  10  23  40  61  85 124 160 199 242 296 361
#     4  11  21  35  58  88 118 151 194 247 298 344
#
# _framework density 21.771245
#
# number of rings (size 3 to 8) (size 9 to 14) (size 15 to 20)
#    0.000    1.000    5.000    2.500    2.333    0.667 
#    0.000    0.000    0.000    1.000    0.000    0.000 
#    0.000    0.000    0.000    0.000    0.000    0.000 
#
# Total GULP energy -297382.394589 kJ/mol
# GULP energy per Si atom -12390.933108 kJ/mol
# Density = 2.172169 g / cm^3
# Si number density = 21.771245 Si / 1000 Ang^3
#
#
#
# Elastic Constant Matrix: (Units=GPa)
#
#
# Indices 1 2 3 4 5 6 
#
# 1 63.0161 -12.8190 18.4195 0.0000 7.8616 0.0000
# 2 -12.8190 38.0596 10.2733 0.0000 6.3291 0.0000
# 3 18.4195 10.2733 87.1938 0.0000 10.8730 0.0000
# 4 0.0000 0.0000 0.0000 22.5367 0.0000 3.8895
# 5 7.8616 6.3291 10.8730 0.0000 31.3297 0.0000
# 6 0.0000 0.0000 0.0000 3.8895 0.0000 33.7720
#
#
#
# Elastic Compliance Matrix: (Units=1/GPa)
#
#
# Indices 1 2 3 4 5 6 
#
# 1 0.019590 0.008667 -0.004524 0.000000 -0.005097 0.000000
# 2 0.008667 0.031613 -0.004691 0.000000 -0.006933 0.000000
# 3 -0.004524 -0.004691 0.013293 0.000000 -0.002530 0.000000
# 4 0.000000 0.000000 0.000000 0.045272 0.000000 -0.005214
# 5 -0.005097 -0.006933 -0.002530 0.000000 0.035476 0.000000
# 6 0.000000 0.000000 0.000000 -0.005214 0.000000 0.030211
#
#
# Mechanical properties :
#
#
# Convention : Reuss Voigt Hill
#
# Bulk Modulus (GPa) = 15.77295 24.44632 20.10964
# Shear Modulus (GPa) = 25.29289 29.02073 27.15681
#
# Velocity S-wave (km/s) = 3.41215 3.65497 3.53564
# Velocity P-wave (km/s) = 4.77329 5.39118 5.09162
#
# Compressibility (1/GPa) = 0.06339968
#
# Stress axis : x y z
#
# Youngs Moduli (GPa) = 51.04584 31.63266 75.22966
#
# Poissons Ratio (x) = -0.27416 0.34034
# Poissons Ratio (y) = -0.44241 0.35290
# Poissons Ratio (z) = 0.23093 0.14839
#
# Static dielectric constant tensor:
#      x y z
#    x 4.072940 0.000000 -0.031650 
#    y 0.000000 3.629240 0.000000 
#    z -0.031650 0.000000 4.284530 
# 
# 
# High freq. dielectric constant tensor:
#      x y z
#    x 1.854370 0.000000 -0.007790 
#    y 0.000000 1.819820 0.000000 
#    z -0.007790 0.000000 1.874050 
# 
# From -- ./inp_files/69729.got.cif
#   From: 2010.03.12/outbox.cif.g09.slc.cpg/sg14_35_cif.got.tgz:69729.got - 2010.03.31 13:35:05.
