data_PCOD8127388
_publ_section_title
;
Structure prediction by ZEFSAII (Michael W. Deem and Ramdas Pophale) SiO2 
 PCOD8127388
Probable space group: P 21/C
;
_chemical_formula_sum "Si O2"
_cell_formula_units_Z 28
_cell_length_a 9.789824
_cell_length_b 7.635970
_cell_length_c 18.638369
_cell_angle_alpha 90.000000
_cell_angle_beta 124.837292
_cell_angle_gamma 90.000000
_cell_volume 1143.595627
_symmetry_space_group_name_H-M "P 21/C"
_symmetry_group_IT_number 14
_symmetry_cell_setting 'monoclinic'
loop_
_space_group_symop_operation_xyz
x,y,z
-x,1/2+y,1/2-z
-x,-y,-z
x,1/2-y,1/2+z
loop_
_atom_site_type_symbol
_atom_site_label
_atom_site_fract_x
_atom_site_fract_y
_atom_site_fract_z
Si Si1 0.293098 0.892729 0.487280
Si Si2 0.030068 0.991501 0.670280
Si Si3 0.366242 0.872608 0.733844
Si Si4 0.479432 0.812744 0.407504
Si Si5 0.304963 0.995664 0.008475
Si Si6 0.004266 0.415812 0.325940
Si Si7 0.719049 0.030030 0.842368
O O1 0.353938 0.912721 0.422919
O O2 0.359974 0.705737 0.534720
O O3 0.367674 0.049947 0.558996
O O4 0.091496 0.910604 0.422807
O O5 0.225201 0.020642 0.708026
O O6 0.993510 0.786485 0.653653
O O7 0.991945 0.060957 0.737871
O O8 0.383107 0.736994 0.806293
O O9 0.298589 0.741619 0.652161
O O10 0.538628 0.959049 0.763394
O O11 0.543120 0.628619 0.462018
O O12 0.231899 0.051697 0.065389
O O13 0.175007 0.001265 0.905069
O O14 0.856084 0.518010 0.323446
#
# Coordination Sequence:
#
# PCOD8127388 Si02
#       7
#     4   4   4   4   4   4   4
#     4  11  22  39  68  99 130 177 219 275 342 384
#     4  11  23  42  67  99 133 173 229 285 328 394
#     4  10  23  43  63  94 135 171 230 272 332 404
#     4  10  22  42  64  97 137 171 223 279 321 405
#     4  11  22  41  66  97 134 177 216 274 340 402
#     4  11  22  42  65  95 137 170 227 279 335 397
#     4  10  24  41  65  92 134 178 216 276 340 397
#
# _framework density 24.484179999999999
#
# number of rings (size 3 to 8) (size 9 to 14) (size 15 to 20)
#    0.000    1.429    1.429    4.286    2.000    3.429 
#    0.000    2.857    0.000    0.000    0.000    0.000 
#    0.000    0.000    0.000    0.000    0.000    0.000 
#
# Total GULP energy -347107.685237 kJ/mol
# GULP energy per Si atom -12396.703044 kJ/mol
# Density = 2.442845 g / cm^3
# Si number density = 24.484180 Si / 1000 Ang^3
#
#
#
# Elastic Constant Matrix: (Units=GPa)
#
#
# Indices 1 2 3 4 5 6 
#
# 1 47.2584 -13.5411 5.5359 0.0000 12.0551 0.0000
# 2 -13.5411 95.7591 9.1687 0.0000 13.1987 0.0000
# 3 5.5359 9.1687 65.6354 0.0000 25.7198 0.0000
# 4 0.0000 0.0000 0.0000 30.1301 0.0000 5.7037
# 5 12.0551 13.1987 25.7198 0.0000 28.6377 0.0000
# 6 0.0000 0.0000 0.0000 5.7037 0.0000 29.8110
#
#
#
# Elastic Compliance Matrix: (Units=1/GPa)
#
#
# Indices 1 2 3 4 5 6 
#
# 1 0.026804 0.005819 0.003701 0.000000 -0.017290 0.000000
# 2 0.005819 0.012436 0.001509 0.000000 -0.009536 0.000000
# 3 0.003701 0.001509 0.024065 0.000000 -0.023866 0.000000
# 4 0.000000 0.000000 0.000000 0.034437 0.000000 -0.006589
# 5 -0.017290 -0.009536 -0.023866 0.000000 0.068027 0.000000
# 6 0.000000 0.000000 0.000000 -0.006589 0.000000 0.034805
#
#
# Mechanical properties :
#
#
# Convention : Reuss Voigt Hill
#
# Bulk Modulus (GPa) = 11.71461 23.44221 17.57841
# Shear Modulus (GPa) = 24.15813 31.54839 27.85326
#
# Velocity S-wave (km/s) = 3.14456 3.59349 3.37650
# Velocity P-wave (km/s) = 4.24020 5.17811 4.73245
#
# Compressibility (1/GPa) = 0.08536349
#
# Stress axis : x y z
#
# Youngs Moduli (GPa) = 37.30728 80.41411 41.55415
#
# Poissons Ratio (x) = -0.46793 -0.15381
# Poissons Ratio (y) = -0.21709 -0.06270
# Poissons Ratio (z) = -0.13809 -0.12133
#
# Static dielectric constant tensor:
#      x y z
#    x 4.360740 0.000000 0.093800 
#    y 0.000000 4.335480 0.000000 
#    z 0.093800 0.000000 4.286610 
# 
# 
# High freq. dielectric constant tensor:
#      x y z
#    x 1.965270 0.000000 0.002690 
#    y 0.000000 1.971170 0.000000 
#    z 0.002690 0.000000 1.973160 
# 
# From -- ./inp_files/65017.got.cif
#   From: 2010.03.12/outbox.cif.g09.slc.cpg/sg14_33_cif.got.tgz:65017.got - 2010.03.31 13:35:05.
