data_PCOD8127522
_publ_section_title
;
Structure prediction by ZEFSAII (Michael W. Deem and Ramdas Pophale) SiO2 
 PCOD8127522
Probable space group: P 21/C
;
_chemical_formula_sum "Si O2"
_cell_formula_units_Z 28
_cell_length_a 8.193849
_cell_length_b 8.912107
_cell_length_c 27.558295
_cell_angle_alpha 90.000000
_cell_angle_beta 39.997531
_cell_angle_gamma 90.000000
_cell_volume 1293.498370
_symmetry_space_group_name_H-M "P 21/C"
_symmetry_group_IT_number 14
_symmetry_cell_setting 'monoclinic'
loop_
_space_group_symop_operation_xyz
x,y,z
-x,1/2+y,1/2-z
-x,-y,-z
x,1/2-y,1/2+z
loop_
_atom_site_type_symbol
_atom_site_label
_atom_site_fract_x
_atom_site_fract_y
_atom_site_fract_z
Si Si1 0.011784 0.157490 0.523710
Si Si2 0.836690 0.147992 0.816585
Si Si3 0.244124 0.090028 0.562490
Si Si4 0.879164 0.825640 0.670006
Si Si5 0.580586 0.163472 0.151051
Si Si6 0.202436 0.306289 0.659932
Si Si7 0.707453 0.659054 0.613023
O O1 0.238756 0.157235 0.509972
O O2 0.062789 0.289070 0.473634
O O3 0.762889 0.192367 0.613686
O O4 0.000000 0.000000 0.500000
O O5 0.560588 0.179932 0.855058
O O6 0.893472 0.236207 0.854053
O O7 0.031046 0.195337 0.730604
O O8 0.903104 0.976294 0.816126
O O9 0.241593 0.232002 0.598773
O O10 0.500000 0.000000 0.500000
O O11 0.000283 0.984311 0.627886
O O12 0.649597 0.846926 0.759468
O O13 0.742231 0.751088 0.654949
O O14 0.480578 0.179783 0.119145
O O15 0.747145 0.013275 0.118347
#
# Coordination Sequence:
#
# PCOD8127522 Si02
#       7
#     4   4   4   4   4   4   4
#     4  12  25  43  66  99 135 182 228 287 352 413
#     4  10  23  43  69 102 133 180 224 291 344 418
#     4  12  25  44  68  98 139 183 237 288 354 425
#     4  11  25  44  72 103 135 185 235 289 356 417
#     4  10  25  44  67 102 136 179 229 290 351 423
#     4  10  22  43  68  97 137 174 229 285 351 413
#     4  11  24  44  68  97 144 174 233 286 346 418
#
# _framework density 21.646722
#
# number of rings (size 3 to 8) (size 9 to 14) (size 15 to 20)
#    0.000    1.143    1.429    4.714    6.000    2.286 
#    0.000    2.143    0.000    0.000    0.000    0.000 
#    0.000    0.000    0.000    0.000    0.000    0.000 
#
# Total GULP energy -346886.107800 kJ/mol
# GULP energy per Si atom -12388.789564 kJ/mol
# Density = 2.159745 g / cm^3
# Si number density = 21.646722 Si / 1000 Ang^3
#
#
#
# Elastic Constant Matrix: (Units=GPa)
#
#
# Indices 1 2 3 4 5 6 
#
# 1 120.8233 42.6364 31.8338 0.0000 20.7024 0.0000
# 2 42.6364 116.2972 45.0026 0.0000 7.3566 0.0000
# 3 31.8338 45.0026 94.8308 0.0000 3.0094 0.0000
# 4 0.0000 0.0000 0.0000 38.3527 0.0000 -1.6984
# 5 20.7024 7.3566 3.0094 0.0000 38.2444 0.0000
# 6 0.0000 0.0000 0.0000 -1.6984 0.0000 41.9464
#
#
#
# Elastic Compliance Matrix: (Units=1/GPa)
#
#
# Indices 1 2 3 4 5 6 
#
# 1 0.010683 -0.002780 -0.002106 0.000000 -0.005083 0.000000
# 2 -0.002780 0.011360 -0.004447 0.000000 -0.000330 0.000000
# 3 -0.002106 -0.004447 0.013332 0.000000 0.000946 0.000000
# 4 0.000000 0.000000 0.000000 0.026121 0.000000 0.001058
# 5 -0.005083 -0.000330 0.000946 0.000000 0.028888 0.000000
# 6 0.000000 0.000000 0.000000 0.001058 0.000000 0.023883
#
#
# Mechanical properties :
#
#
# Convention : Reuss Voigt Hill
#
# Bulk Modulus (GPa) = 59.84661 63.43300 61.63981
# Shear Modulus (GPa) = 36.10050 37.87395 36.98722
#
# Velocity S-wave (km/s) = 4.08819 4.18741 4.13810
# Velocity P-wave (km/s) = 7.07046 7.26268 7.16721
#
# Compressibility (1/GPa) = 0.01670938
#
# Stress axis : x y z
#
# Youngs Moduli (GPa) = 93.60383 88.03053 75.00619
#
# Poissons Ratio (x) = 0.24476 0.15793
# Poissons Ratio (y) = 0.26026 0.33355
# Poissons Ratio (z) = 0.19709 0.39147
#
# Static dielectric constant tensor:
#      x y z
#    x 4.259340 0.000000 0.147680 
#    y 0.000000 3.433650 0.000000 
#    z 0.147680 0.000000 3.736910 
# 
# 
# High freq. dielectric constant tensor:
#      x y z
#    x 1.865010 0.000000 0.006050 
#    y 0.000000 1.858730 0.000000 
#    z 0.006050 0.000000 1.850160 
# 
# From -- ./inp_files/76438.got.cif
#   From: 2010.03.12/outbox.cif.g09.slc.cpg/sg14_39_cif.got.tgz:76438.got - 2010.03.31 13:35:05.
