data_PCOD8127914
_publ_section_title
;
Structure prediction by ZEFSAII (Michael W. Deem and Ramdas Pophale) SiO2 
 PCOD8127914
Probable space group: P 21/C
;
_chemical_formula_sum "Si O2"
_cell_formula_units_Z 28
_cell_length_a 6.845794
_cell_length_b 15.875280
_cell_length_c 14.490866
_cell_angle_alpha 90.000000
_cell_angle_beta 54.964613
_cell_angle_gamma 90.000000
_cell_volume 1289.484544
_symmetry_space_group_name_H-M "P 21/C"
_symmetry_group_IT_number 14
_symmetry_cell_setting 'monoclinic'
loop_
_space_group_symop_operation_xyz
x,y,z
-x,1/2+y,1/2-z
-x,-y,-z
x,1/2-y,1/2+z
loop_
_atom_site_type_symbol
_atom_site_label
_atom_site_fract_x
_atom_site_fract_y
_atom_site_fract_z
Si Si1 0.846622 0.036201 0.195484
Si Si2 0.139495 0.975572 0.278866
Si Si3 0.823380 0.821754 0.424913
Si Si4 0.411396 0.119460 0.809163
Si Si5 0.010342 0.677009 0.466852
Si Si6 0.646315 0.880473 0.668632
Si Si7 0.510236 0.250782 0.639608
O O1 0.618026 0.089939 0.288806
O O2 0.963233 0.081775 0.075744
O O3 0.775598 0.942180 0.188761
O O4 0.046905 0.032045 0.219934
O O5 0.390833 0.930298 0.183833
O O6 0.937576 0.906911 0.355701
O O7 0.190247 0.038394 0.350580
O O8 0.005048 0.742756 0.382067
O O9 0.746523 0.836243 0.551289
O O10 0.613933 0.787998 0.416386
O O11 0.560030 0.171486 0.693090
O O12 0.243184 0.182664 0.912188
O O13 0.242577 0.706171 0.462867
O O14 0.640777 0.819400 0.760233
#
# Coordination Sequence:
#
# PCOD8127914 Si02
#       7
#     4   4   4   4   4   4   4
#     4  10  23  43  66  97 132 177 223 273 331 400
#     4  11  23  41  67  95 137 173 221 273 330 401
#     4  12  23  40  69  98 130 182 221 269 340 390
#     4  11  22  43  66  93 135 173 217 283 328 391
#     4  11  24  42  67  98 133 173 226 276 333 393
#     4  10  24  43  64  96 137 172 222 278 326 395
#     4  11  23  44  64  97 133 172 222 275 327 393
#
# _framework density 21.714103000000001
#
# number of rings (size 3 to 8) (size 9 to 14) (size 15 to 20)
#    0.000    1.143    4.286    1.714    0.000    3.429 
#    5.143    0.000    0.000    0.000    0.000    0.000 
#    0.000    0.000    0.000    0.000    0.000    0.000 
#
# Total GULP energy -347034.661689 kJ/mol
# GULP energy per Si atom -12394.095060 kJ/mol
# Density = 2.166468 g / cm^3
# Si number density = 21.714103 Si / 1000 Ang^3
#
#
#
# Elastic Constant Matrix: (Units=GPa)
#
#
# Indices 1 2 3 4 5 6 
#
# 1 155.4967 53.2651 49.2134 0.0000 1.9947 0.0000
# 2 53.2651 113.4139 30.1834 0.0000 3.9589 0.0000
# 3 49.2134 30.1834 72.4505 0.0000 -3.5245 0.0000
# 4 0.0000 0.0000 0.0000 23.9065 0.0000 -1.6713
# 5 1.9947 3.9589 -3.5245 0.0000 21.2750 0.0000
# 6 0.0000 0.0000 0.0000 -1.6713 0.0000 48.1991
#
#
#
# Elastic Compliance Matrix: (Units=1/GPa)
#
#
# Indices 1 2 3 4 5 6 
#
# 1 0.009002 -0.002863 -0.004977 0.000000 -0.001136 0.000000
# 2 -0.002863 0.010967 -0.002732 0.000000 -0.002225 0.000000
# 3 -0.004977 -0.002732 0.018518 0.000000 0.004043 0.000000
# 4 0.000000 0.000000 0.000000 0.041931 0.000000 0.001454
# 5 -0.001136 -0.002225 0.004043 0.000000 0.048194 0.000000
# 6 0.000000 0.000000 0.000000 0.001454 0.000000 0.020798
#
#
# Mechanical properties :
#
#
# Convention : Reuss Voigt Hill
#
# Bulk Modulus (GPa) = 57.66420 67.40946 62.53683
# Shear Modulus (GPa) = 28.35523 32.58940 30.47231
#
# Velocity S-wave (km/s) = 3.61757 3.87827 3.75018
# Velocity P-wave (km/s) = 6.63798 7.15305 6.90032
#
# Compressibility (1/GPa) = 0.01734178
#
# Stress axis : x y z
#
# Youngs Moduli (GPa) = 111.09186 91.18394 54.00164
#
# Poissons Ratio (x) = 0.26110 0.26875
# Poissons Ratio (y) = 0.31811 0.14753
# Poissons Ratio (z) = 0.55288 0.24912
#
# Static dielectric constant tensor:
#      x y z
#    x 3.840780 0.000000 -0.139870 
#    y 0.000000 4.186510 0.000000 
#    z -0.139870 0.000000 3.576630 
# 
# 
# High freq. dielectric constant tensor:
#      x y z
#    x 1.854470 0.000000 -0.011300 
#    y 0.000000 1.884520 0.000000 
#    z -0.011300 0.000000 1.822340 
# 
# From -- ./inp_files/37629.got.cif
#   From: 2010.03.12/outbox.cif.g09.slc.cpg/sg14_19_cif.got.tgz:37629.got - 2010.03.31 13:35:05.
