data_PCOD8127079
_publ_section_title
;
Structure prediction by ZEFSAII (Michael W. Deem and Ramdas Pophale) SiO2 
 PCOD8127079
Probable space group: P 21/C
;
_chemical_formula_sum "Si O2"
_cell_formula_units_Z 32
_cell_length_a 8.221965
_cell_length_b 20.461100
_cell_length_c 13.409471
_cell_angle_alpha 90.000000
_cell_angle_beta 139.954323
_cell_angle_gamma 90.000000
_cell_volume 1451.429767
_symmetry_space_group_name_H-M "P 21/C"
_symmetry_group_IT_number 14
_symmetry_cell_setting 'monoclinic'
loop_
_space_group_symop_operation_xyz
x,y,z
-x,1/2+y,1/2-z
-x,-y,-z
x,1/2-y,1/2+z
loop_
_atom_site_type_symbol
_atom_site_label
_atom_site_fract_x
_atom_site_fract_y
_atom_site_fract_z
Si Si1 0.968975 0.450071 0.658834
Si Si2 0.497755 0.058378 0.314515
Si Si3 0.822611 0.694354 0.634287
Si Si4 0.109673 0.815770 0.799427
Si Si5 0.469527 0.435958 0.298523
Si Si6 0.434574 0.798259 0.126328
Si Si7 0.950349 0.073703 0.673771
Si Si8 0.506058 0.318162 0.693563
O O1 0.201683 0.429284 0.697120
O O2 0.946259 0.393054 0.731636
O O3 0.045143 0.518712 0.740298
O O4 0.697803 0.458415 0.478340
O O5 0.680958 0.069446 0.493687
O O6 0.578244 0.110831 0.268587
O O7 0.541306 0.984645 0.299092
O O8 0.870833 0.771552 0.662298
O O9 0.598886 0.681905 0.606590
O O10 0.760521 0.678071 0.489406
O O11 0.046609 0.645171 0.772390
O O12 0.301393 0.795683 0.801584
O O13 0.168361 0.794169 0.942962
O O14 0.536076 0.362589 0.289856
O O15 0.192928 0.438373 0.218008
O O16 0.499982 0.733619 0.218226
#
# Coordination Sequence:
#
# PCOD8127079 Si02
#       8
#     4   4   4   4   4   4   4   4
#     4  11  23  41  63  88 125 163 203 257 310 364
#     4  12  24  38  62  94 126 160 206 259 309 363
#     4  10  22  39  61  87 120 163 207 253 309 367
#     4  10  22  39  61  87 120 163 207 253 309 367
#     4  10  22  41  64  88 119 161 207 250 306 374
#     4   9  21  40  59  87 122 157 204 262 308 358
#     4  11  23  41  63  88 125 163 203 257 310 364
#     4  11  23  39  62  89 122 166 210 251 305 373
#
# _framework density 22.047225000000001
#
# number of rings (size 3 to 8) (size 9 to 14) (size 15 to 20)
#    0.000    1.500    0.000    5.250    0.000    8.000 
#    0.000    0.000    0.000    0.000    0.000    0.000 
#    0.000    0.000    0.000    0.000    0.000    0.000 
#
# Total GULP energy -396549.968493 kJ/mol
# GULP energy per Si atom -12392.186515 kJ/mol
# Density = 2.199704 g / cm^3
# Si number density = 22.047225 Si / 1000 Ang^3
#
#
#
# Elastic Constant Matrix: (Units=GPa)
#
#
# Indices 1 2 3 4 5 6 
#
# 1 50.0711 11.8451 15.7392 0.0000 -3.7686 0.0000
# 2 11.8451 94.3202 4.8694 0.0000 -9.4848 0.0000
# 3 15.7392 4.8694 47.2101 0.0000 4.3641 0.0000
# 4 0.0000 0.0000 0.0000 45.1080 0.0000 -8.2606
# 5 -3.7686 -9.4848 4.3641 0.0000 27.3033 0.0000
# 6 0.0000 0.0000 0.0000 -8.2606 0.0000 29.3128
#
#
#
# Elastic Compliance Matrix: (Units=1/GPa)
#
#
# Indices 1 2 3 4 5 6 
#
# 1 0.023231 -0.002137 -0.007868 0.000000 0.003722 0.000000
# 2 -0.002137 0.011289 -0.000799 0.000000 0.003755 0.000000
# 3 -0.007868 -0.000799 0.024374 0.000000 -0.005259 0.000000
# 4 0.000000 0.000000 0.000000 0.023375 0.000000 0.006587
# 5 0.003722 0.003755 -0.005259 0.000000 0.039284 0.000000
# 6 0.000000 0.000000 0.000000 0.006587 0.000000 0.035971
#
#
# Mechanical properties :
#
#
# Convention : Reuss Voigt Hill
#
# Bulk Modulus (GPa) = 26.82051 28.50099 27.66075
# Shear Modulus (GPa) = 26.10127 30.95464 28.52795
#
# Velocity S-wave (km/s) = 3.44449 3.75108 3.60105
# Velocity P-wave (km/s) = 5.29252 5.63171 5.46475
#
# Compressibility (1/GPa) = 0.03728490
#
# Stress axis : x y z
#
# Youngs Moduli (GPa) = 43.04670 88.57895 41.02779
#
# Poissons Ratio (x) = 0.18929 0.32282
# Poissons Ratio (y) = 0.09199 0.03278
# Poissons Ratio (z) = 0.33871 0.07078
#
# Static dielectric constant tensor:
#      x y z
#    x 3.723560 0.000000 0.077410 
#    y 0.000000 4.058950 0.000000 
#    z 0.077410 0.000000 4.031910 
# 
# 
# High freq. dielectric constant tensor:
#      x y z
#    x 1.851280 0.000000 0.002760 
#    y 0.000000 1.884000 0.000000 
#    z 0.002760 0.000000 1.867170 
# 
# From -- ./inp_files/42016.got.cif
#   From: 2010.03.12/outbox.cif.g09.slc.cpg/sg14_22_cif.got.tgz:42016.got - 2010.03.31 13:35:05.
