data_PCOD8127403
_publ_section_title
;
Structure prediction by ZEFSAII (Michael W. Deem and Ramdas Pophale) SiO2 
 PCOD8127403
Probable space group: P 21/C
;
_chemical_formula_sum "Si O2"
_cell_formula_units_Z 16
_cell_length_a 5.042667
_cell_length_b 10.903652
_cell_length_c 11.897273
_cell_angle_alpha 90.000000
_cell_angle_beta 94.919299
_cell_angle_gamma 90.000000
_cell_volume 651.743950
_symmetry_space_group_name_H-M "P 21/C"
_symmetry_group_IT_number 14
_symmetry_cell_setting 'monoclinic'
loop_
_space_group_symop_operation_xyz
x,y,z
-x,1/2+y,1/2-z
-x,-y,-z
x,1/2-y,1/2+z
loop_
_atom_site_type_symbol
_atom_site_label
_atom_site_fract_x
_atom_site_fract_y
_atom_site_fract_z
Si Si1 0.146077 0.826589 0.088984
Si Si2 0.285728 0.407407 0.579660
Si Si3 0.200551 0.654575 0.281854
Si Si4 0.259679 0.565868 0.050591
O O1 0.151512 0.787904 0.221046
O O2 0.248125 0.710904 0.017410
O O3 0.333638 0.944808 0.070168
O O4 0.840211 0.856126 0.041226
O O5 0.558487 0.339209 0.620345
O O6 0.068957 0.388445 0.669783
O O7 0.278035 0.555964 0.187271
O O8 0.500000 0.500000 0.000000
O O9 0.000000 0.500000 0.000000
#
# Coordination Sequence:
#
# PCOD8127403 Si02
#       4
#     4   4   4   4
#     4   9  26  43  69 102 136 179 232 275 351 401
#     4  11  23  46  68  97 142 181 222 291 332 412
#     4  10  25  40  68 102 131 184 225 275 342 405
#     4  10  22  42  65  96 133 169 226 278 332 397
#
# _framework density 24.549517000000002
#
# number of rings (size 3 to 8) (size 9 to 14) (size 15 to 20)
#    1.500    0.500    0.000    1.500    0.000   18.000 
#    0.000    0.000    0.000    0.000    0.000    0.000 
#    0.000    0.000    0.000    0.000    0.000    0.000 
#
# Total GULP energy -198300.936836 kJ/mol
# GULP energy per Si atom -12393.808552 kJ/mol
# Density = 2.449364 g / cm^3
# Si number density = 24.549517 Si / 1000 Ang^3
#
#
#
# Elastic Constant Matrix: (Units=GPa)
#
#
# Indices 1 2 3 4 5 6 
#
# 1 116.7243 58.3134 30.4188 0.0000 14.4803 0.0000
# 2 58.3134 167.5777 44.4151 0.0000 21.7161 0.0000
# 3 30.4188 44.4151 102.6790 0.0000 29.1571 0.0000
# 4 0.0000 0.0000 0.0000 48.8854 0.0000 2.5647
# 5 14.4803 21.7161 29.1571 0.0000 45.1527 0.0000
# 6 0.0000 0.0000 0.0000 2.5647 0.0000 37.6730
#
#
#
# Elastic Compliance Matrix: (Units=1/GPa)
#
#
# Indices 1 2 3 4 5 6 
#
# 1 0.010671 -0.003192 -0.001524 0.000000 -0.000903 0.000000
# 2 -0.003192 0.007799 -0.002025 0.000000 -0.001420 0.000000
# 3 -0.001524 -0.002025 0.013043 0.000000 -0.006960 0.000000
# 4 0.000000 0.000000 0.000000 0.020529 0.000000 -0.001398
# 5 -0.000903 -0.001420 -0.006960 0.000000 0.027614 0.000000
# 6 0.000000 0.000000 0.000000 -0.001398 0.000000 0.026639
#
#
# Mechanical properties :
#
#
# Convention : Reuss Voigt Hill
#
# Bulk Modulus (GPa) = 55.46161 72.58618 64.02390
# Shear Modulus (GPa) = 39.74958 43.26447 41.50702
#
# Velocity S-wave (km/s) = 4.02824 4.20257 4.11633
# Velocity P-wave (km/s) = 6.65405 7.29248 6.98057
#
# Compressibility (1/GPa) = 0.01803049
#
# Stress axis : x y z
#
# Youngs Moduli (GPa) = 93.70968 128.22399 76.67131
#
# Poissons Ratio (x) = 0.40935 0.11686
# Poissons Ratio (y) = 0.29916 0.15523
# Poissons Ratio (z) = 0.14282 0.25960
#
# Static dielectric constant tensor:
#      x y z
#    x 4.028640 0.000000 0.060990 
#    y 0.000000 4.473480 0.000000 
#    z 0.060990 0.000000 4.646720 
# 
# 
# High freq. dielectric constant tensor:
#      x y z
#    x 1.976640 0.000000 -0.001210 
#    y 0.000000 1.973470 0.000000 
#    z -0.001210 0.000000 1.988630 
# 
# From -- ./inp_files/20477.got.cif
#   From: 2010.03.12/outbox.cif.g09.slc.cpg/sg14_11_cif.got.tgz:20477.got - 2010.03.31 13:35:05.
