data_PCOD8127115
_publ_section_title
;
Structure prediction by ZEFSAII (Michael W. Deem and Ramdas Pophale) SiO2 
 PCOD8127115
Probable space group: P 21/C
;
_chemical_formula_sum "Si O2"
_cell_formula_units_Z 24
_cell_length_a 11.401509
_cell_length_b 10.479923
_cell_length_c 9.524651
_cell_angle_alpha 90.000000
_cell_angle_beta 112.161619
_cell_angle_gamma 90.000000
_cell_volume 1053.994620
_symmetry_space_group_name_H-M "P 21/C"
_symmetry_group_IT_number 14
_symmetry_cell_setting 'monoclinic'
loop_
_space_group_symop_operation_xyz
x,y,z
-x,1/2+y,1/2-z
-x,-y,-z
x,1/2-y,1/2+z
loop_
_atom_site_type_symbol
_atom_site_label
_atom_site_fract_x
_atom_site_fract_y
_atom_site_fract_z
Si Si1 0.422765 0.197474 0.397506
Si Si2 0.268007 0.438036 0.265952
Si Si3 0.588471 0.200835 0.208261
Si Si4 0.168507 0.730053 0.041032
Si Si5 0.221065 0.466872 0.935392
Si Si6 0.946101 0.101163 0.245191
O O1 0.333328 0.321357 0.374146
O O2 0.473699 0.179146 0.264018
O O3 0.540284 0.217015 0.555490
O O4 0.342719 0.070629 0.397037
O O5 0.356546 0.563962 0.315483
O O6 0.132945 0.469023 0.278207
O O7 0.239834 0.397135 0.093405
O O8 0.701995 0.283567 0.330404
O O9 0.212907 0.617694 0.956298
O O10 0.096528 0.834434 0.918611
O O11 0.076901 0.682335 0.123710
O O12 0.094571 0.423138 0.798631
#
# Coordination Sequence:
#
# PCOD8127115 Si02
#       6
#     4   4   4   4   4   4
#     4  12  22  41  63  96 122 164 208 253 308 372
#     4  10  22  42  62  93 121 167 204 257 315 351
#     4  10  22  39  64  90 126 158 205 253 306 371
#     4  10  22  43  61  93 119 170 203 254 316 355
#     4  10  23  39  66  90 126 166 200 259 311 362
#     4  10  22  41  67  87 126 162 209 256 304 373
#
# _framework density 22.770512
#
# number of rings (size 3 to 8) (size 9 to 14) (size 15 to 20)
#    0.000    2.000    1.667    4.500    4.667    2.667 
#    9.000    0.833    0.000    0.000    0.000    0.000 
#    0.000    0.000    0.000    0.000    0.000    0.000 
#
# Total GULP energy -297597.156665 kJ/mol
# GULP energy per Si atom -12399.881528 kJ/mol
# Density = 2.271869 g / cm^3
# Si number density = 22.770512 Si / 1000 Ang^3
#
#
#
# Elastic Constant Matrix: (Units=GPa)
#
#
# Indices 1 2 3 4 5 6 
#
# 1 69.1870 0.1181 6.8761 0.0000 22.2118 0.0000
# 2 0.1181 24.3348 11.7168 0.0000 17.0958 0.0000
# 3 6.8761 11.7168 69.8607 0.0000 23.1144 0.0000
# 4 0.0000 0.0000 0.0000 24.1304 0.0000 2.5937
# 5 22.2118 17.0958 23.1144 0.0000 38.5139 0.0000
# 6 0.0000 0.0000 0.0000 2.5937 0.0000 21.8051
#
#
#
# Elastic Compliance Matrix: (Units=1/GPa)
#
#
# Indices 1 2 3 4 5 6 
#
# 1 0.019941 0.011426 0.002002 0.000000 -0.017774 0.000000
# 2 0.011426 0.066397 -0.000410 0.000000 -0.035816 0.000000
# 3 0.002002 -0.000410 0.018102 0.000000 -0.011836 0.000000
# 4 0.000000 0.000000 0.000000 0.041978 0.000000 -0.004993
# 5 -0.017774 -0.035816 -0.011836 0.000000 0.059217 0.000000
# 6 0.000000 0.000000 0.000000 -0.004993 0.000000 0.046455
#
#
# Mechanical properties :
#
#
# Convention : Reuss Voigt Hill
#
# Bulk Modulus (GPa) = 7.66429 22.31163 14.98796
# Shear Modulus (GPa) = 18.54956 26.53466 22.54211
#
# Velocity S-wave (km/s) = 2.85727 3.41736 3.14979
# Velocity P-wave (km/s) = 3.77604 5.03894 4.45250
#
# Compressibility (1/GPa) = 0.13047529
#
# Stress axis : x y z
#
# Youngs Moduli (GPa) = 50.14750 15.06084 55.24177
#
# Poissons Ratio (x) = -0.17208 -0.11057
# Poissons Ratio (y) = -0.57298 0.02266
# Poissons Ratio (z) = -0.10038 0.00618
#
# Static dielectric constant tensor:
#      x y z
#    x 4.114790 0.000000 0.226070 
#    y 0.000000 3.752560 0.000000 
#    z 0.226070 0.000000 4.153890 
# 
# 
# High freq. dielectric constant tensor:
#      x y z
#    x 1.906030 0.000000 0.012570 
#    y 0.000000 1.868830 0.000000 
#    z 0.012570 0.000000 1.903040 
# 
# From -- ./inp_files/12365.got.cif
#   From: 2010.03.12/outbox.cif.g09.slc.cpg/sg14_7_cif.got.tgz:12365.got - 2010.03.31 13:35:05.
