data_PCOD8127188
_publ_section_title
;
Structure prediction by ZEFSAII (Michael W. Deem and Ramdas Pophale) SiO2 
 PCOD8127188
Probable space group: P 21/C
;
_chemical_formula_sum "Si O2"
_cell_formula_units_Z 28
_cell_length_a 10.752419
_cell_length_b 8.881559
_cell_length_c 14.871112
_cell_angle_alpha 90.000000
_cell_angle_beta 119.514875
_cell_angle_gamma 90.000000
_cell_volume 1235.867167
_symmetry_space_group_name_H-M "P 21/C"
_symmetry_group_IT_number 14
_symmetry_cell_setting 'monoclinic'
loop_
_space_group_symop_operation_xyz
x,y,z
-x,1/2+y,1/2-z
-x,-y,-z
x,1/2-y,1/2+z
loop_
_atom_site_type_symbol
_atom_site_label
_atom_site_fract_x
_atom_site_fract_y
_atom_site_fract_z
Si Si1 0.212079 0.778678 0.513051
Si Si2 0.689563 0.045964 0.294080
Si Si3 0.572078 0.446125 0.396509
Si Si4 0.947206 0.644072 0.839185
Si Si5 0.851749 0.906849 0.681697
Si Si6 0.304858 0.815276 0.340837
Si Si7 0.588204 0.735143 0.515158
O O1 0.285325 0.915692 0.592957
O O2 0.278859 0.628775 0.583048
O O3 0.241683 0.777883 0.416929
O O4 0.038908 0.792086 0.457689
O O5 0.731863 0.183000 0.242297
O O6 0.523565 0.001273 0.221327
O O7 0.787671 0.901645 0.308527
O O8 0.622831 0.579382 0.478257
O O9 0.481356 0.315052 0.414760
O O10 0.936439 0.778608 0.764154
O O11 0.029982 0.496253 0.833076
O O12 0.732315 0.830561 0.575389
O O13 0.766726 0.026692 0.715766
O O14 0.476099 0.830861 0.414778
#
# Coordination Sequence:
#
# PCOD8127188 Si02
#       7
#     4   4   4   4   4   4   4
#     4  10  22  40  63  93 132 158 215 259 310 385
#     4  11  21  44  66  91 131 170 210 263 318 374
#     4   9  19  38  62  93 117 166 209 266 315 366
#     4  11  23  37  62  94 131 172 210 257 320 378
#     4  11  21  36  63  95 126 167 213 257 314 384
#     4   9  21  40  66  97 119 166 212 261 318 373
#     4   9  17  35  66  89 123 156 216 261 315 366
#
# _framework density 22.656158000000001
#
# number of rings (size 3 to 8) (size 9 to 14) (size 15 to 20)
#    0.000    2.000    1.429    3.429    2.000    0.000 
#   15.429    0.714    0.000    0.000    0.000    0.000 
#    0.000    0.000    0.000    0.000    0.000    0.000 
#
# Total GULP energy -346895.455390 kJ/mol
# GULP energy per Si atom -12389.123407 kJ/mol
# Density = 2.260459 g / cm^3
# Si number density = 22.656158 Si / 1000 Ang^3
#
#
#
# Elastic Constant Matrix: (Units=GPa)
#
#
# Indices 1 2 3 4 5 6 
#
# 1 36.8541 41.2649 33.6312 0.0000 24.0812 0.0000
# 2 41.2649 93.0417 32.1168 0.0000 24.1073 0.0000
# 3 33.6312 32.1168 107.6899 0.0000 30.9520 0.0000
# 4 0.0000 0.0000 0.0000 38.0141 0.0000 18.0278
# 5 24.0812 24.1073 30.9520 0.0000 36.0678 0.0000
# 6 0.0000 0.0000 0.0000 18.0278 0.0000 40.2432
#
#
#
# Elastic Compliance Matrix: (Units=1/GPa)
#
#
# Indices 1 2 3 4 5 6 
#
# 1 0.087188 -0.027022 -0.010128 0.000000 -0.031461 0.000000
# 2 -0.027022 0.021651 0.001268 0.000000 0.002481 0.000000
# 3 -0.010128 0.001268 0.013766 0.000000 -0.005899 0.000000
# 4 0.000000 0.000000 0.000000 0.033402 0.000000 -0.014963
# 5 -0.031461 0.002481 -0.005899 0.000000 0.052135 0.000000
# 6 0.000000 0.000000 0.000000 -0.014963 0.000000 0.031552
#
#
# Mechanical properties :
#
#
# Convention : Reuss Voigt Hill
#
# Bulk Modulus (GPa) = 19.66777 50.17905 34.92341
# Shear Modulus (GPa) = 15.22511 31.56988 23.39750
#
# Velocity S-wave (km/s) = 2.59512 3.73692 3.21708
# Velocity P-wave (km/s) = 4.20469 6.38871 5.40810
#
# Compressibility (1/GPa) = 0.05084460
#
# Stress axis : x y z
#
# Youngs Moduli (GPa) = 11.46941 46.18629 72.64243
#
# Poissons Ratio (x) = 1.24802 0.73569
# Poissons Ratio (y) = 0.30992 -0.09214
# Poissons Ratio (z) = 0.11616 -0.05858
#
# Static dielectric constant tensor:
#      x y z
#    x 4.039890 0.000000 0.585640 
#    y 0.000000 4.342290 0.000000 
#    z 0.585640 0.000000 4.261260 
# 
# 
# High freq. dielectric constant tensor:
#      x y z
#    x 1.862620 0.000000 0.036720 
#    y 0.000000 1.898620 0.000000 
#    z 0.036720 0.000000 1.894980 
# 
# From -- ./inp_files/43532.got.cif
#   From: 2010.03.12/outbox.cif.g09.slc.cpg/sg14_22_cif.got.tgz:43532.got - 2010.03.31 13:35:05.
