data_PCOD8127406
_publ_section_title
;
Structure prediction by ZEFSAII (Michael W. Deem and Ramdas Pophale) SiO2 
 PCOD8127406
Probable space group: P 21/C
;
_chemical_formula_sum "Si O2"
_cell_formula_units_Z 32
_cell_length_a 13.342182
_cell_length_b 15.106405
_cell_length_c 18.510300
_cell_angle_alpha 90.000000
_cell_angle_beta 23.786960
_cell_angle_gamma 90.000000
_cell_volume 1504.768041
_symmetry_space_group_name_H-M "P 21/C"
_symmetry_group_IT_number 14
_symmetry_cell_setting 'monoclinic'
loop_
_space_group_symop_operation_xyz
x,y,z
-x,1/2+y,1/2-z
-x,-y,-z
x,1/2-y,1/2+z
loop_
_atom_site_type_symbol
_atom_site_label
_atom_site_fract_x
_atom_site_fract_y
_atom_site_fract_z
Si Si1 0.650978 0.977120 0.067016
Si Si2 0.290285 0.538808 0.920092
Si Si3 0.618356 0.354712 0.514210
Si Si4 0.538091 0.718427 0.780598
Si Si5 0.005176 0.855212 0.910148
Si Si6 0.197910 0.100153 0.187054
Si Si7 0.514886 0.347610 0.812366
Si Si8 0.932251 0.747124 0.821534
O O1 0.374888 0.947719 0.279331
O O2 0.649715 0.082747 0.063643
O O3 0.723764 0.942436 0.940437
O O4 0.856189 0.946339 0.990613
O O5 0.415301 0.623000 0.876122
O O6 0.390763 0.441791 0.874994
O O7 0.998928 0.544906 0.133618
O O8 0.485149 0.264984 0.626733
O O9 0.452510 0.400138 0.562900
O O10 0.892940 0.337355 0.303627
O O11 0.413690 0.782641 0.801503
O O12 0.828926 0.710123 0.571883
O O13 0.248037 0.873940 0.796129
O O14 0.062505 0.808118 0.796325
O O15 0.092237 0.197639 0.237381
O O16 0.336826 0.288127 0.979464
#
# Coordination Sequence:
#
# PCOD8127406 Si02
#       8
#     4   4   4   4   4   4   4   4
#     4  10  23  43  62  98 132 166 227 276 321 409
#     4  11  23  44  67  98 138 170 228 277 326 404
#     4  12  22  42  64  94 131 176 218 277 338 386
#     4  10  23  40  63  98 131 165 228 275 316 417
#     4   9  22  42  67  93 130 176 215 276 338 389
#     4  11  24  42  66  94 135 179 216 281 334 392
#     4  11  22  44  69  96 132 181 216 278 346 384
#     4  10  22  42  65  97 134 168 228 274 327 407
#
# _framework density 21.265734999999999
#
# number of rings (size 3 to 8) (size 9 to 14) (size 15 to 20)
#    0.000    1.500    2.500    2.625    1.750    2.500 
#    4.500    3.125    0.000    0.000    0.000    0.000 
#    0.000    0.000    0.000    0.000    0.000    0.000 
#
# Total GULP energy -396440.776155 kJ/mol
# GULP energy per Si atom -12388.774255 kJ/mol
# Density = 2.121733 g / cm^3
# Si number density = 21.265735 Si / 1000 Ang^3
#
#
#
# Elastic Constant Matrix: (Units=GPa)
#
#
# Indices 1 2 3 4 5 6 
#
# 1 53.4740 12.2034 36.2676 0.0000 -9.4275 0.0000
# 2 12.2034 92.8539 12.6766 0.0000 -3.3145 0.0000
# 3 36.2676 12.6766 104.0453 0.0000 13.4770 0.0000
# 4 0.0000 0.0000 0.0000 37.0645 0.0000 7.9825
# 5 -9.4275 -3.3145 13.4770 0.0000 32.8712 0.0000
# 6 0.0000 0.0000 0.0000 7.9825 0.0000 27.1246
#
#
#
# Elastic Compliance Matrix: (Units=1/GPa)
#
#
# Indices 1 2 3 4 5 6 
#
# 1 0.029340 -0.001794 -0.011696 0.000000 0.013029 0.000000
# 2 -0.001794 0.011157 -0.000859 0.000000 0.000962 0.000000
# 3 -0.011696 -0.000859 0.015037 0.000000 -0.009606 0.000000
# 4 0.000000 0.000000 0.000000 0.028806 0.000000 -0.008477
# 5 0.013029 0.000962 -0.009606 0.000000 0.038194 0.000000
# 6 0.000000 0.000000 0.000000 -0.008477 0.000000 0.039362
#
#
# Mechanical properties :
#
#
# Convention : Reuss Voigt Hill
#
# Bulk Modulus (GPa) = 37.26332 41.40759 39.33546
# Shear Modulus (GPa) = 25.05774 32.02709 28.54242
#
# Velocity S-wave (km/s) = 3.43638 3.88499 3.66755
# Velocity P-wave (km/s) = 5.77111 6.29587 6.03919
#
# Compressibility (1/GPa) = 0.02683604
#
# Stress axis : x y z
#
# Youngs Moduli (GPa) = 34.08316 89.63002 66.50196
#
# Poissons Ratio (x) = 0.16081 0.77783
# Poissons Ratio (y) = 0.06115 0.05710
# Poissons Ratio (z) = 0.39865 0.07696
#
# Static dielectric constant tensor:
#      x y z
#    x 3.611410 0.000000 0.246930 
#    y 0.000000 4.193410 0.000000 
#    z 0.246930 0.000000 3.956940 
# 
# 
# High freq. dielectric constant tensor:
#      x y z
#    x 1.809740 0.000000 0.023320 
#    y 0.000000 1.849100 0.000000 
#    z 0.023320 0.000000 1.842780 
# 
# From -- ./inp_files/68653.got.cif
#   From: 2010.03.12/outbox.cif.g09.slc.cpg/sg14_35_cif.got.tgz:68653.got - 2010.03.31 13:35:05.
