data_PCOD8127025
_publ_section_title
;
Structure prediction by ZEFSAII (Michael W. Deem and Ramdas Pophale) SiO2 
 PCOD8127025
Probable space group: P 21/C
;
_chemical_formula_sum "Si O2"
_cell_formula_units_Z 28
_cell_length_a 10.792530
_cell_length_b 8.569263
_cell_length_c 14.086025
_cell_angle_alpha 90.000000
_cell_angle_beta 111.796273
_cell_angle_gamma 90.000000
_cell_volume 1209.599973
_symmetry_space_group_name_H-M "P 21/C"
_symmetry_group_IT_number 14
_symmetry_cell_setting 'monoclinic'
loop_
_space_group_symop_operation_xyz
x,y,z
-x,1/2+y,1/2-z
-x,-y,-z
x,1/2-y,1/2+z
loop_
_atom_site_type_symbol
_atom_site_label
_atom_site_fract_x
_atom_site_fract_y
_atom_site_fract_z
Si Si1 0.848755 0.580526 0.632547
Si Si2 0.026531 0.744284 0.322897
Si Si3 0.141290 0.534015 0.994928
Si Si4 0.536811 0.801607 0.354863
Si Si5 0.391860 0.848985 0.660164
Si Si6 0.813719 0.707599 0.429848
Si Si7 0.447924 0.161330 0.945313
O O1 0.956764 0.700281 0.706637
O O2 0.853585 0.576420 0.518376
O O3 0.704862 0.632649 0.630622
O O4 0.886456 0.406859 0.677613
O O5 0.918186 0.709179 0.374542
O O6 0.124641 0.881471 0.388591
O O7 0.235224 0.642617 0.088382
O O8 0.203662 0.362374 0.006887
O O9 0.000000 0.500000 0.000000
O O10 0.406717 0.718055 0.271354
O O11 0.662391 0.698260 0.348007
O O12 0.533213 0.790347 0.467470
O O13 0.539934 0.982596 0.328307
O O14 0.467490 0.719864 0.618979
O O15 0.500000 0.000000 0.000000
#
# Coordination Sequence:
#
# PCOD8127025 Si02
#       7
#     4   4   4   4   4   4   4
#     4  11  23  38  60  89 121 161 210 257 313 377
#     4  11  21  38  60  87 121 162 205 257 313 374
#     4   9  20  38  61  86 118 157 200 248 303 367
#     4  10  22  38  62  90 119 160 206 257 319 380
#     4  11  21  40  63  91 127 163 205 259 319 376
#     4   9  20  40  60  83 118 156 202 259 311 369
#     4  11  23  40  61  90 125 163 209 265 317 377
#
# _framework density 23.148149
#
# number of rings (size 3 to 8) (size 9 to 14) (size 15 to 20)
#    0.000    1.714    0.000    4.286    0.000    3.429 
#    0.000   10.000    0.000    0.000    0.000    0.000 
#    0.000    0.000    0.000    0.000    0.000    0.000 
#
# Total GULP energy -347049.774582 kJ/mol
# GULP energy per Si atom -12394.634807 kJ/mol
# Density = 2.309546 g / cm^3
# Si number density = 23.148149 Si / 1000 Ang^3
#
#
#
# Elastic Constant Matrix: (Units=GPa)
#
#
# Indices 1 2 3 4 5 6 
#
# 1 73.3174 13.7668 30.1599 0.0000 15.8734 0.0000
# 2 13.7668 100.5858 35.8433 0.0000 13.2567 0.0000
# 3 30.1599 35.8433 102.7488 0.0000 30.1863 0.0000
# 4 0.0000 0.0000 0.0000 47.4442 0.0000 3.6102
# 5 15.8734 13.2567 30.1863 0.0000 37.0253 0.0000
# 6 0.0000 0.0000 0.0000 3.6102 0.0000 30.6532
#
#
#
# Elastic Compliance Matrix: (Units=1/GPa)
#
#
# Indices 1 2 3 4 5 6 
#
# 1 0.015963 -0.000467 -0.003368 0.000000 -0.003931 0.000000
# 2 -0.000467 0.011401 -0.003550 0.000000 -0.000988 0.000000
# 3 -0.003368 -0.003550 0.014677 0.000000 -0.009251 0.000000
# 4 0.000000 0.000000 0.000000 0.021268 0.000000 -0.002505
# 5 -0.003931 -0.000988 -0.009251 0.000000 0.036590 0.000000
# 6 0.000000 0.000000 0.000000 -0.002505 0.000000 0.032918
#
#
# Mechanical properties :
#
#
# Convention : Reuss Voigt Hill
#
# Bulk Modulus (GPa) = 36.66735 48.46578 42.56656
# Shear Modulus (GPa) = 31.91261 36.15000 34.03130
#
# Velocity S-wave (km/s) = 3.71701 3.95610 3.83842
# Velocity P-wave (km/s) = 5.85630 6.46918 6.17035
#
# Compressibility (1/GPa) = 0.02727222
#
# Stress axis : x y z
#
# Youngs Moduli (GPa) = 62.64297 87.71305 68.13181
#
# Poissons Ratio (x) = 0.04092 0.22948
# Poissons Ratio (y) = 0.02923 0.24187
# Poissons Ratio (z) = 0.21099 0.31138
#
# Static dielectric constant tensor:
#      x y z
#    x 4.140130 0.000000 0.462990 
#    y 0.000000 4.584130 0.000000 
#    z 0.462990 0.000000 4.600150 
# 
# 
# High freq. dielectric constant tensor:
#      x y z
#    x 1.895010 0.000000 0.024360 
#    y 0.000000 1.916710 0.000000 
#    z 0.024360 0.000000 1.926220 
# 
# From -- ./inp_files/43822.got.cif
#   From: 2010.03.12/outbox.cif.g09.slc.cpg/sg14_22_cif.got.tgz:43822.got - 2010.03.31 13:35:05.
