data_PCOD8127021
_publ_section_title
;
Structure prediction by ZEFSAII (Michael W. Deem and Ramdas Pophale) SiO2 
 PCOD8127021
Probable space group: P 21/C
;
_chemical_formula_sum "Si O2"
_cell_formula_units_Z 28
_cell_length_a 8.386714
_cell_length_b 11.880599
_cell_length_c 16.265989
_cell_angle_alpha 90.000000
_cell_angle_beta 59.032864
_cell_angle_gamma 90.000000
_cell_volume 1389.715240
_symmetry_space_group_name_H-M "P 21/C"
_symmetry_group_IT_number 14
_symmetry_cell_setting 'monoclinic'
loop_
_space_group_symop_operation_xyz
x,y,z
-x,1/2+y,1/2-z
-x,-y,-z
x,1/2-y,1/2+z
loop_
_atom_site_type_symbol
_atom_site_label
_atom_site_fract_x
_atom_site_fract_y
_atom_site_fract_z
Si Si1 0.395398 0.829853 0.252193
Si Si2 0.162598 0.876331 0.755105
Si Si3 0.764544 0.637064 0.749540
Si Si4 0.929555 0.382488 0.049560
Si Si5 0.184090 0.248353 0.092969
Si Si6 0.879264 0.241582 0.400137
Si Si7 0.462015 0.884143 0.054187
O O1 0.321912 0.704843 0.250057
O O2 0.567002 0.820982 0.268624
O O3 0.228032 0.898803 0.339206
O O4 0.455591 0.897998 0.154628
O O5 0.146326 0.855448 0.661743
O O6 0.961591 0.851164 0.848358
O O7 0.218342 0.002751 0.762051
O O8 0.787576 0.669456 0.837921
O O9 0.918718 0.701103 0.655147
O O10 0.108857 0.320323 0.037365
O O11 0.842041 0.312163 0.998219
O O12 0.000000 0.500000 0.000000
O O13 0.380517 0.202838 0.012637
O O14 0.735248 0.341618 0.424938
O O15 0.500000 0.000000 0.000000
#
# Coordination Sequence:
#
# PCOD8127021 Si02
#       7
#     4   4   4   4   4   4   4
#     4  10  24  40  58  88 118 156 204 240 290 358
#     4   9  21  41  60  86 122 153 193 247 294 346
#     4  11  21  39  64  88 122 159 191 243 296 344
#     4  11  23  41  62  87 121 157 196 247 296 346
#     4  10  22  38  61  91 117 153 201 238 291 362
#     4  10  22  38  61  91 117 153 201 238 291 362
#     4  11  23  41  62  87 121 157 196 247 296 346
#
# _framework density 20.148012000000001
#
# number of rings (size 3 to 8) (size 9 to 14) (size 15 to 20)
#    0.000    1.714    0.000    4.286    0.000    9.143 
#    0.000   10.000    0.000    0.000    0.000    0.000 
#    0.000    0.000    0.000    0.000    0.000    0.000 
#
# Total GULP energy -347322.378048 kJ/mol
# GULP energy per Si atom -12404.370645 kJ/mol
# Density = 2.010215 g / cm^3
# Si number density = 20.148012 Si / 1000 Ang^3
#
#
#
# Elastic Constant Matrix: (Units=GPa)
#
#
# Indices 1 2 3 4 5 6 
#
# 1 95.6509 25.5674 6.9026 0.0000 -0.4978 0.0000
# 2 25.5674 85.9174 37.2617 0.0000 1.2431 0.0000
# 3 6.9026 37.2617 96.0751 0.0000 0.6162 0.0000
# 4 0.0000 0.0000 0.0000 26.7496 0.0000 0.4575
# 5 -0.4978 1.2431 0.6162 0.0000 39.9048 0.0000
# 6 0.0000 0.0000 0.0000 0.4575 0.0000 20.2805
#
#
#
# Elastic Compliance Matrix: (Units=1/GPa)
#
#
# Indices 1 2 3 4 5 6 
#
# 1 0.011389 -0.003651 0.000596 0.000000 0.000247 0.000000
# 2 -0.003651 0.015168 -0.005618 0.000000 -0.000431 0.000000
# 3 0.000596 -0.005618 0.012545 0.000000 -0.000011 0.000000
# 4 0.000000 0.000000 0.000000 0.037398 0.000000 -0.000844
# 5 0.000247 -0.000431 -0.000011 0.000000 0.025076 0.000000
# 6 0.000000 0.000000 0.000000 -0.000844 0.000000 0.049327
#
#
# Mechanical properties :
#
#
# Convention : Reuss Voigt Hill
#
# Bulk Modulus (GPa) = 45.96393 46.34521 46.15457
# Shear Modulus (GPa) = 28.48981 31.24775 29.86878
#
# Velocity S-wave (km/s) = 3.76443 3.94243 3.85446
# Velocity P-wave (km/s) = 6.46199 6.61634 6.53962
#
# Compressibility (1/GPa) = 0.02175619
#
# Stress axis : x y z
#
# Youngs Moduli (GPa) = 87.80459 65.92711 79.71597
#
# Poissons Ratio (x) = 0.24072 -0.04753
# Poissons Ratio (y) = 0.32060 0.44782
# Poissons Ratio (z) = -0.05236 0.37036
#
# Static dielectric constant tensor:
#      x y z
#    x 0.029040 0.000000 1.786890 
#    y 0.000000 3.440880 0.000000 
#    z 1.786890 0.000000 3.173370 
# 
# 
# High freq. dielectric constant tensor:
#      x y z
#    x 1.801860 0.000000 -0.000040 
#    y 0.000000 1.777240 0.000000 
#    z -0.000040 0.000000 1.800010 
# 
# From -- ./inp_files/36196.got.cif
#   From: 2010.03.12/outbox.cif.g09.slc.cpg/sg14_19_cif.got.tgz:36196.got - 2010.03.31 13:35:05.
