data_PCOD8127832
_publ_section_title
;
Structure prediction by ZEFSAII (Michael W. Deem and Ramdas Pophale) SiO2 
 PCOD8127832
Probable space group: P 21/C
;
_chemical_formula_sum "Si O2"
_cell_formula_units_Z 28
_cell_length_a 5.165340
_cell_length_b 29.564881
_cell_length_c 8.883460
_cell_angle_alpha 90.000000
_cell_angle_beta 56.450598
_cell_angle_gamma 90.000000
_cell_volume 1130.617511
_symmetry_space_group_name_H-M "P 21/C"
_symmetry_group_IT_number 14
_symmetry_cell_setting 'monoclinic'
loop_
_space_group_symop_operation_xyz
x,y,z
-x,1/2+y,1/2-z
-x,-y,-z
x,1/2-y,1/2+z
loop_
_atom_site_type_symbol
_atom_site_label
_atom_site_fract_x
_atom_site_fract_y
_atom_site_fract_z
Si Si1 0.982141 0.884569 0.073296
Si Si2 0.188509 0.044869 0.099105
Si Si3 0.863545 0.591321 0.083964
Si Si4 0.896573 0.213534 0.014953
Si Si5 0.690879 0.737234 0.879828
Si Si6 0.174479 0.955965 0.233316
Si Si7 0.527807 0.139624 0.539235
O O1 0.152908 0.840267 0.953639
O O2 0.637376 0.871213 0.246061
O O3 0.147032 0.906998 0.163334
O O4 0.016816 0.919781 0.926033
O O5 0.301441 0.069887 0.216665
O O6 0.002429 0.998535 0.204257
O O7 0.463631 0.031020 0.895153
O O8 0.056647 0.550445 0.941382
O O9 0.106033 0.630606 0.055246
O O10 0.601308 0.608853 0.054613
O O11 0.006978 0.223249 0.810434
O O12 0.170765 0.231469 0.033886
O O13 0.559120 0.236079 0.143100
O O14 0.519916 0.691841 0.994483
#
# Coordination Sequence:
#
# PCOD8127832 Si02
#       7
#     4   4   4   4   4   4   4
#     4  10  23  42  66  90 131 178 213 270 329 397
#     4  11  23  40  68  95 127 176 222 269 326 392
#     4  11  23  42  68  99 130 178 216 270 321 400
#     4  11  25  42  70  93 137 169 227 263 341 387
#     4  11  24  44  65 100 129 180 209 283 324 398
#     4  10  23  44  62  95 136 169 217 278 328 384
#     4  10  23  44  66  90 139 170 214 268 336 377
#
# _framework density 24.765226999999999
#
# number of rings (size 3 to 8) (size 9 to 14) (size 15 to 20)
#    0.000    1.429    1.429    2.571    4.000    5.714 
#    0.000    2.143    0.000    0.000    0.000    0.000 
#    0.000    0.000    0.000    0.000    0.000    0.000 
#
# Total GULP energy -347082.181371 kJ/mol
# GULP energy per Si atom -12395.792192 kJ/mol
# Density = 2.470886 g / cm^3
# Si number density = 24.765227 Si / 1000 Ang^3
#
#
#
# Elastic Constant Matrix: (Units=GPa)
#
#
# Indices 1 2 3 4 5 6 
#
# 1 82.0396 21.7920 3.6349 0.0000 13.2743 0.0000
# 2 21.7920 133.8761 -5.0409 0.0000 12.9089 0.0000
# 3 3.6349 -5.0409 42.1686 0.0000 13.7046 0.0000
# 4 0.0000 0.0000 0.0000 29.3344 0.0000 9.3455
# 5 13.2743 12.9089 13.7046 0.0000 26.1530 0.0000
# 6 0.0000 0.0000 0.0000 9.3455 0.0000 33.5452
#
#
#
# Elastic Compliance Matrix: (Units=1/GPa)
#
#
# Indices 1 2 3 4 5 6 
#
# 1 0.013629 -0.001558 0.000768 0.000000 -0.006551 0.000000
# 2 -0.001558 0.008274 0.002644 0.000000 -0.004679 0.000000
# 3 0.000768 0.002644 0.029547 0.000000 -0.017178 0.000000
# 4 0.000000 0.000000 0.000000 0.037410 0.000000 -0.010422
# 5 -0.006551 -0.004679 -0.017178 0.000000 0.052872 0.000000
# 6 0.000000 0.000000 0.000000 -0.010422 0.000000 0.032714
#
#
# Mechanical properties :
#
#
# Convention : Reuss Voigt Hill
#
# Bulk Modulus (GPa) = 18.12981 33.20627 25.66804
# Shear Modulus (GPa) = 26.43767 33.65307 30.04537
#
# Velocity S-wave (km/s) = 3.27086 3.69030 3.48689
# Velocity P-wave (km/s) = 4.64771 5.62097 5.15735
#
# Compressibility (1/GPa) = 0.05515777
#
# Stress axis : x y z
#
# Youngs Moduli (GPa) = 73.37288 120.86248 33.84452
#
# Poissons Ratio (x) = 0.18829 -0.02599
# Poissons Ratio (y) = 0.11431 -0.08948
# Poissons Ratio (z) = -0.05635 -0.31954
#
# Static dielectric constant tensor:
#      x y z
#    x 3.919690 0.000000 0.041270 
#    y 0.000000 4.806660 0.000000 
#    z 0.041270 0.000000 4.542830 
# 
# 
# High freq. dielectric constant tensor:
#      x y z
#    x 1.958210 0.000000 0.005770 
#    y 0.000000 1.997550 0.000000 
#    z 0.005770 0.000000 1.989610 
# 
# From -- ./inp_files/6721.got.cif
#   From: 2010.03.12/outbox.cif.g09.slc.cpg/sg14_4_cif.got.tgz:6721.got - 2010.03.31 13:35:05.
