data_PCOD8127955
_publ_section_title
;
Structure prediction by ZEFSAII (Michael W. Deem and Ramdas Pophale) SiO2 
 PCOD8127955
Probable space group: P 21/C
;
_chemical_formula_sum "Si O2"
_cell_formula_units_Z 32
_cell_length_a 13.849183
_cell_length_b 4.957298
_cell_length_c 21.780575
_cell_angle_alpha 90.000000
_cell_angle_beta 68.597726
_cell_angle_gamma 90.000000
_cell_volume 1392.218766
_symmetry_space_group_name_H-M "P 21/C"
_symmetry_group_IT_number 14
_symmetry_cell_setting 'monoclinic'
loop_
_space_group_symop_operation_xyz
x,y,z
-x,1/2+y,1/2-z
-x,-y,-z
x,1/2-y,1/2+z
loop_
_atom_site_type_symbol
_atom_site_label
_atom_site_fract_x
_atom_site_fract_y
_atom_site_fract_z
Si Si1 0.283558 0.568251 0.235720
Si Si2 0.648458 0.673091 0.450068
Si Si3 0.233231 0.689190 0.115222
Si Si4 0.869000 0.730998 0.547674
Si Si5 0.523435 0.627709 0.157309
Si Si6 0.555385 0.134352 0.073056
Si Si7 0.715916 0.583603 0.185783
Si Si8 0.909434 0.239543 0.460264
O O1 0.215593 0.601155 0.189627
O O2 0.405475 0.537090 0.193317
O O3 0.245240 0.286433 0.271250
O O4 0.259575 0.787680 0.294024
O O5 0.705014 0.469140 0.390682
O O6 0.531213 0.715769 0.456316
O O7 0.649893 0.518927 0.516066
O O8 0.702696 0.964910 0.438673
O O9 0.128269 0.749071 0.101905
O O10 0.773183 0.843356 0.609059
O O11 0.845434 0.448263 0.518590
O O12 0.968722 0.687160 0.568631
O O13 0.894746 0.938782 0.487854
O O14 0.584219 0.419436 0.097530
O O15 0.591693 0.619654 0.203664
O O16 0.516406 0.931115 0.134290
#
# Coordination Sequence:
#
# PCOD8127955 Si02
#       8
#     4   4   4   4   4   4   4   4
#     4  12  24  44  58  92 131 175 222 259 302 380
#     4  11  22  37  57  91 132 166 207 259 327 386
#     4  12  23  40  66  92 128 173 206 262 330 389
#     4  10  23  46  68  99 130 156 211 270 324 393
#     4  12  23  40  61  88 126 174 220 265 313 365
#     4  11  22  37  57  90 127 167 209 274 312 374
#     4  12  26  41  66  89 126 180 218 261 312 379
#     4  10  23  43  72  99 127 159 201 273 342 385
#
# _framework density 22.984895999999999
#
# number of rings (size 3 to 8) (size 9 to 14) (size 15 to 20)
#    0.000    0.750    2.500    5.250    5.250    2.000 
#    0.000    1.250    0.000    0.000    0.000    0.000 
#    0.000    0.000    0.000    0.000    0.000    0.000 
#
# Total GULP energy -396782.470005 kJ/mol
# GULP energy per Si atom -12399.452188 kJ/mol
# Density = 2.293258 g / cm^3
# Si number density = 22.984896 Si / 1000 Ang^3
#
#
#
# Elastic Constant Matrix: (Units=GPa)
#
#
# Indices 1 2 3 4 5 6 
#
# 1 86.4825 17.2315 25.2670 0.0000 29.4752 0.0000
# 2 17.2315 88.3900 2.4997 0.0000 7.7376 0.0000
# 3 25.2670 2.4997 64.4043 0.0000 20.0013 0.0000
# 4 0.0000 0.0000 0.0000 44.6853 0.0000 -1.2819
# 5 29.4752 7.7376 20.0013 0.0000 34.2604 0.0000
# 6 0.0000 0.0000 0.0000 -1.2819 0.0000 18.3905
#
#
#
# Elastic Compliance Matrix: (Units=1/GPa)
#
#
# Indices 1 2 3 4 5 6 
#
# 1 0.017087 -0.002148 -0.002694 0.000000 -0.012643 0.000000
# 2 -0.002148 0.011822 0.000781 0.000000 -0.001278 0.000000
# 3 -0.002694 0.000781 0.019407 0.000000 -0.009189 0.000000
# 4 0.000000 0.000000 0.000000 0.022424 0.000000 0.001563
# 5 -0.012643 -0.001278 -0.009189 0.000000 0.045718 0.000000
# 6 0.000000 0.000000 0.000000 0.001563 0.000000 0.054485
#
#
# Mechanical properties :
#
#
# Convention : Reuss Voigt Hill
#
# Bulk Modulus (GPa) = 24.87978 36.58593 30.73286
# Shear Modulus (GPa) = 25.97903 32.41915 29.19909
#
# Velocity S-wave (km/s) = 3.36559 3.75968 3.56808
# Velocity P-wave (km/s) = 5.09420 5.89905 5.51134
#
# Compressibility (1/GPa) = 0.04019328
#
# Stress axis : x y z
#
# Youngs Moduli (GPa) = 58.52397 84.58776 51.52767
#
# Poissons Ratio (x) = 0.18171 0.13881
# Poissons Ratio (y) = 0.12572 -0.04023
# Poissons Ratio (z) = 0.15766 -0.06604
#
# Static dielectric constant tensor:
#      x y z
#    x 3.995870 0.000000 0.208440 
#    y 0.000000 4.302300 0.000000 
#    z 0.208440 0.000000 4.032200 
# 
# 
# High freq. dielectric constant tensor:
#      x y z
#    x 1.885910 0.000000 0.026600 
#    y 0.000000 1.930820 0.000000 
#    z 0.026600 0.000000 1.886750 
# 
# From -- ./inp_files/67842.got.cif
#   From: 2010.03.12/outbox.cif.g09.slc.cpg/sg14_34_cif.got.tgz:67842.got - 2010.03.31 13:35:05.
