data_PCOD8127973
_publ_section_title
;
Structure prediction by ZEFSAII (Michael W. Deem and Ramdas Pophale) SiO2 
 PCOD8127973
Probable space group: P 21/C
;
_chemical_formula_sum "Si O2"
_cell_formula_units_Z 32
_cell_length_a 9.213536
_cell_length_b 11.266679
_cell_length_c 30.124409
_cell_angle_alpha 90.000000
_cell_angle_beta 149.702006
_cell_angle_gamma 90.000000
_cell_volume 1577.610258
_symmetry_space_group_name_H-M "P 21/C"
_symmetry_group_IT_number 14
_symmetry_cell_setting 'monoclinic'
loop_
_space_group_symop_operation_xyz
x,y,z
-x,1/2+y,1/2-z
-x,-y,-z
x,1/2-y,1/2+z
loop_
_atom_site_type_symbol
_atom_site_label
_atom_site_fract_x
_atom_site_fract_y
_atom_site_fract_z
Si Si1 0.818285 0.879565 0.234918
Si Si2 0.678508 0.760034 0.390205
Si Si3 0.789353 0.240504 0.912687
Si Si4 0.118884 0.214203 0.912855
Si Si5 0.659258 0.273816 0.610108
Si Si6 0.072428 0.022193 0.828825
Si Si7 0.579018 0.485719 0.827051
Si Si8 0.288870 0.596340 0.233739
O O1 0.506432 0.822264 0.154688
O O2 0.047082 0.797545 0.321329
O O3 0.907995 0.889216 0.207506
O O4 0.819712 0.009190 0.256732
O O5 0.457808 0.762028 0.372704
O O6 0.566727 0.670279 0.323133
O O7 0.992947 0.717603 0.489131
O O8 0.705987 0.889915 0.376482
O O9 0.754514 0.381619 0.897509
O O10 0.915302 0.183545 0.900942
O O11 0.976019 0.315489 0.845093
O O12 0.157623 0.094365 0.895228
O O13 0.427617 0.261554 0.011320
O O14 0.707622 0.414524 0.619886
O O15 0.752828 0.971142 0.748202
O O16 0.618890 0.478196 0.784749
#
# Coordination Sequence:
#
# PCOD8127973 Si02
#       8
#     4   4   4   4   4   4   4   4
#     4  12  24  41  64  94 128 165 211 258 315 384
#     4  11  22  45  66  92 130 169 208 270 317 372
#     4  10  24  43  66  97 124 166 220 256 316 385
#     4  10  23  44  65  93 131 164 209 264 314 381
#     4  11  23  42  67  95 127 168 209 262 324 373
#     4  12  22  42  68  92 129 167 206 263 323 373
#     4  11  22  40  71  90 125 170 213 265 317 375
#     4  11  24  41  64  94 126 171 212 258 323 372
#
# _framework density 20.283844999999999
#
# number of rings (size 3 to 8) (size 9 to 14) (size 15 to 20)
#    0.000    1.000    5.000    1.500    1.750    1.000 
#    6.750    0.000    0.000    0.000    0.000    0.000 
#    0.000    0.000    0.000    0.000    0.000    0.000 
#
# Total GULP energy -396994.995512 kJ/mol
# GULP energy per Si atom -12406.093610 kJ/mol
# Density = 2.023768 g / cm^3
# Si number density = 20.283845 Si / 1000 Ang^3
#
#
#
# Elastic Constant Matrix: (Units=GPa)
#
#
# Indices 1 2 3 4 5 6 
#
# 1 84.4093 43.8902 50.1631 0.0000 -7.5304 0.0000
# 2 43.8902 111.8181 57.1632 0.0000 -12.3683 0.0000
# 3 50.1631 57.1632 160.9778 0.0000 1.6907 0.0000
# 4 0.0000 0.0000 0.0000 12.5393 0.0000 -5.3046
# 5 -7.5304 -12.3683 1.6907 0.0000 30.2206 0.0000
# 6 0.0000 0.0000 0.0000 -5.3046 0.0000 38.2946
#
#
#
# Elastic Compliance Matrix: (Units=1/GPa)
#
#
# Indices 1 2 3 4 5 6 
#
# 1 0.016481 -0.004337 -0.003622 0.000000 0.002534 0.000000
# 2 -0.004337 0.012776 -0.003231 0.000000 0.004329 0.000000
# 3 -0.003622 -0.003231 0.008516 0.000000 -0.002701 0.000000
# 4 0.000000 0.000000 0.000000 0.084713 0.000000 0.011734
# 5 0.002534 0.004329 -0.002701 0.000000 0.035644 0.000000
# 6 0.000000 0.000000 0.000000 0.011734 0.000000 0.027739
#
#
# Mechanical properties :
#
#
# Convention : Reuss Voigt Hill
#
# Bulk Modulus (GPa) = 64.96330 73.29311 69.12820
# Shear Modulus (GPa) = 23.43238 29.94349 26.68794
#
# Velocity S-wave (km/s) = 3.40255 3.84633 3.63123
# Velocity P-wave (km/s) = 6.89442 7.47916 7.19274
#
# Compressibility (1/GPa) = 0.01539331
#
# Stress axis : x y z
#
# Youngs Moduli (GPa) = 60.67654 78.27309 117.42079
#
# Poissons Ratio (x) = 0.33946 0.42533
# Poissons Ratio (y) = 0.26315 0.37935
# Poissons Ratio (z) = 0.21979 0.25288
#
# Static dielectric constant tensor:
#      x y z
#    x 3.633270 0.000000 -0.074090 
#    y 0.000000 3.626470 0.000000 
#    z -0.074090 0.000000 3.784780 
# 
# 
# High freq. dielectric constant tensor:
#      x y z
#    x 1.790270 0.000000 -0.003970 
#    y 0.000000 1.796230 0.000000 
#    z -0.003970 0.000000 1.804120 
# 
# From -- ./inp_files/55623.got.cif
#   From: 2010.03.12/outbox.cif.g09.slc.cpg/sg14_28_cif.got.tgz:55623.got - 2010.03.31 13:35:05.
