data_PCOD8127321
_publ_section_title
;
Structure prediction by ZEFSAII (Michael W. Deem and Ramdas Pophale) SiO2 
 PCOD8127321
Probable space group: P 21/C
;
_chemical_formula_sum "Si O2"
_cell_formula_units_Z 24
_cell_length_a 11.554805
_cell_length_b 11.887002
_cell_length_c 10.447107
_cell_angle_alpha 90.000000
_cell_angle_beta 52.666854
_cell_angle_gamma 90.000000
_cell_volume 1140.946275
_symmetry_space_group_name_H-M "P 21/C"
_symmetry_group_IT_number 14
_symmetry_cell_setting 'monoclinic'
loop_
_space_group_symop_operation_xyz
x,y,z
-x,1/2+y,1/2-z
-x,-y,-z
x,1/2-y,1/2+z
loop_
_atom_site_type_symbol
_atom_site_label
_atom_site_fract_x
_atom_site_fract_y
_atom_site_fract_z
Si Si1 0.594790 0.755379 0.012015
Si Si2 0.965941 0.470563 0.725899
Si Si3 0.695408 0.527202 0.046256
Si Si4 0.818862 0.898371 0.721984
Si Si5 0.549034 0.858534 0.296052
Si Si6 0.892247 0.658327 0.585241
O O1 0.695687 0.859227 0.904016
O O2 0.500599 0.716668 0.951678
O O3 0.697662 0.652511 0.987276
O O4 0.500267 0.793891 0.198323
O O5 0.970858 0.586411 0.643208
O O6 0.071517 0.481277 0.777979
O O7 0.019024 0.365174 0.604938
O O8 0.803709 0.450168 0.889388
O O9 0.745188 0.529570 0.159602
O O10 0.532975 0.477318 0.143894
O O11 0.904054 0.790032 0.608207
O O12 0.722847 0.878019 0.182594
#
# Coordination Sequence:
#
# PCOD8127321 Si02
#       6
#     4   4   4   4   4   4
#     4  11  21  44  68  90 129 173 206 253 331 381
#     4  11  22  40  64  97 123 166 216 262 313 381
#     4  12  23  40  69  94 126 166 215 268 309 381
#     4  11  21  42  68  90 127 174 212 249 327 386
#     4  11  23  43  69  93 124 174 215 257 322 380
#     4  10  22  41  68  88 128 173 206 257 329 384
#
# _framework density 21.035171999999999
#
# number of rings (size 3 to 8) (size 9 to 14) (size 15 to 20)
#    0.000    1.000    8.333    1.000    0.000    0.667 
#    3.000    0.000    0.000    0.000    0.000    0.000 
#    0.000    0.000    0.000    0.000    0.000    0.000 
#
# Total GULP energy -297529.548411 kJ/mol
# GULP energy per Si atom -12397.064517 kJ/mol
# Density = 2.098729 g / cm^3
# Si number density = 21.035172 Si / 1000 Ang^3
#
#
#
# Elastic Constant Matrix: (Units=GPa)
#
#
# Indices 1 2 3 4 5 6 
#
# 1 87.2228 41.2880 62.9804 0.0000 16.1093 0.0000
# 2 41.2880 48.0681 27.1265 0.0000 -0.4312 0.0000
# 3 62.9804 27.1265 96.7073 0.0000 23.5926 0.0000
# 4 0.0000 0.0000 0.0000 25.7174 0.0000 3.6518
# 5 16.1093 -0.4312 23.5926 0.0000 36.7861 0.0000
# 6 0.0000 0.0000 0.0000 3.6518 0.0000 33.3197
#
#
#
# Elastic Compliance Matrix: (Units=1/GPa)
#
#
# Indices 1 2 3 4 5 6 
#
# 1 0.031623 -0.019361 -0.013905 0.000000 -0.005157 0.000000
# 2 -0.019361 0.037589 -0.000131 0.000000 0.009003 0.000000
# 3 -0.013905 -0.000131 0.021277 0.000000 -0.007558 0.000000
# 4 0.000000 0.000000 0.000000 0.039499 0.000000 -0.004329
# 5 -0.005157 0.009003 -0.007558 0.000000 0.034395 0.000000
# 6 0.000000 0.000000 0.000000 -0.004329 0.000000 0.030487
#
#
# Mechanical properties :
#
#
# Convention : Reuss Voigt Hill
#
# Bulk Modulus (GPa) = 42.20645 54.97645 48.59145
# Shear Modulus (GPa) = 18.54853 25.87152 22.21003
#
# Velocity S-wave (km/s) = 2.97271 3.51082 3.25291
# Velocity P-wave (km/s) = 5.64721 6.52891 6.10400
#
# Compressibility (1/GPa) = 0.02369306
#
# Stress axis : x y z
#
# Youngs Moduli (GPa) = 31.62275 26.60347 46.99944
#
# Poissons Ratio (x) = 0.51508 0.65354
# Poissons Ratio (y) = 0.61226 0.00617
# Poissons Ratio (z) = 0.43972 0.00349
#
# Static dielectric constant tensor:
#      x y z
#    x 3.855170 0.000000 0.463600 
#    y 0.000000 3.498750 0.000000 
#    z 0.463600 0.000000 4.057720 
# 
# 
# High freq. dielectric constant tensor:
#      x y z
#    x 1.820690 0.000000 0.036520 
#    y 0.000000 1.796080 0.000000 
#    z 0.036520 0.000000 1.830700 
# 
# From -- ./inp_files/28988.got.cif
#   From: 2010.03.12/outbox.cif.g09.slc.cpg/sg14_15_cif.got.tgz:28988.got - 2010.03.31 13:35:05.
