data_PCOD8127701
_publ_section_title
;
Structure prediction by ZEFSAII (Michael W. Deem and Ramdas Pophale) SiO2 
 PCOD8127701
Probable space group: P 21/C
;
_chemical_formula_sum "Si O2"
_cell_formula_units_Z 16
_cell_length_a 7.109362
_cell_length_b 9.032863
_cell_length_c 11.322831
_cell_angle_alpha 90.000000
_cell_angle_beta 108.522823
_cell_angle_gamma 90.000000
_cell_volume 689.461055
_symmetry_space_group_name_H-M "P 21/C"
_symmetry_group_IT_number 14
_symmetry_cell_setting 'monoclinic'
loop_
_space_group_symop_operation_xyz
x,y,z
-x,1/2+y,1/2-z
-x,-y,-z
x,1/2-y,1/2+z
loop_
_atom_site_type_symbol
_atom_site_label
_atom_site_fract_x
_atom_site_fract_y
_atom_site_fract_z
Si Si1 0.426142 0.715400 0.983469
Si Si2 0.279071 0.042834 0.593498
Si Si3 0.856578 0.448062 0.682249
Si Si4 0.856104 0.756628 0.620332
O O1 0.503202 0.618417 0.885432
O O2 0.316678 0.862941 0.920041
O O3 0.276822 0.619356 0.033037
O O4 0.619970 0.756665 0.100642
O O5 0.112630 0.145550 0.493085
O O6 0.233689 0.029112 0.720951
O O7 0.937176 0.587718 0.620673
O O8 0.034597 0.337033 0.748836
#
# Coordination Sequence:
#
# PCOD8127701 Si02
#       4
#     4   4   4   4
#     4   9  22  41  61  93 126 154 216 251 292 383
#     4   9  22  41  63  88 129 154 211 252 303 360
#     4  12  22  41  68  85 130 170 191 259 322 338
#     4  10  23  39  60  96 122 158 215 247 292 388
#
# _framework density 23.206533
#
# number of rings (size 3 to 8) (size 9 to 14) (size 15 to 20)
#    1.500    0.500    0.000    3.000    3.500    0.000 
#    0.000    5.000    0.000    0.000    0.000    0.000 
#    0.000    0.000    0.000    0.000    0.000    0.000 
#
# Total GULP energy -198244.924366 kJ/mol
# GULP energy per Si atom -12390.307773 kJ/mol
# Density = 2.315371 g / cm^3
# Si number density = 23.206533 Si / 1000 Ang^3
#
#
#
# Elastic Constant Matrix: (Units=GPa)
#
#
# Indices 1 2 3 4 5 6 
#
# 1 46.9197 26.0459 32.5060 0.0000 24.8913 0.0000
# 2 26.0459 185.5832 54.4367 0.0000 28.8470 0.0000
# 3 32.5060 54.4367 69.4852 0.0000 27.2784 0.0000
# 4 0.0000 0.0000 0.0000 51.6133 0.0000 20.6035
# 5 24.8913 28.8470 27.2784 0.0000 37.6178 0.0000
# 6 0.0000 0.0000 0.0000 20.6035 0.0000 22.0085
#
#
#
# Elastic Compliance Matrix: (Units=1/GPa)
#
#
# Indices 1 2 3 4 5 6 
#
# 1 0.038183 0.000756 -0.011615 0.000000 -0.017422 0.000000
# 2 0.000756 0.007114 -0.005018 0.000000 -0.002318 0.000000
# 3 -0.011615 -0.005018 0.026881 0.000000 -0.007959 0.000000
# 4 0.000000 0.000000 0.000000 0.030936 0.000000 -0.028961
# 5 -0.017422 -0.002318 -0.007959 0.000000 0.045660 0.000000
# 6 0.000000 0.000000 0.000000 -0.028961 0.000000 0.072549
#
#
# Mechanical properties :
#
#
# Convention : Reuss Voigt Hill
#
# Bulk Modulus (GPa) = 24.73714 58.66279 41.69996
# Shear Modulus (GPa) = 18.75815 34.84790 26.80302
#
# Velocity S-wave (km/s) = 2.84617 3.87931 3.40218
# Velocity P-wave (km/s) = 4.63504 6.73786 5.78284
#
# Compressibility (1/GPa) = 0.04042505
#
# Stress axis : x y z
#
# Youngs Moduli (GPa) = 26.18974 140.56203 37.20129
#
# Poissons Ratio (x) = -0.10632 0.43211
# Poissons Ratio (y) = -0.01981 0.18666
# Poissons Ratio (z) = 0.30420 0.70528
#
# Static dielectric constant tensor:
#      x y z
#    x 3.713070 0.000000 0.211960 
#    y 0.000000 4.400230 0.000000 
#    z 0.211960 0.000000 3.824040 
# 
# 
# High freq. dielectric constant tensor:
#      x y z
#    x 1.889930 0.000000 0.022330 
#    y 0.000000 1.938870 0.000000 
#    z 0.022330 0.000000 1.894720 
# 
# From -- ./inp_files/22629.got.cif
#   From: 2010.03.12/outbox.cif.g09.slc.cpg/sg14_12_cif.got.tgz:22629.got - 2010.03.31 13:35:05.
