data_PCOD8127625
_publ_section_title
;
Structure prediction by ZEFSAII (Michael W. Deem and Ramdas Pophale) SiO2 
 PCOD8127625
Probable space group: P 21/C
;
_chemical_formula_sum "Si O2"
_cell_formula_units_Z 28
_cell_length_a 20.117549
_cell_length_b 11.072644
_cell_length_c 17.349297
_cell_angle_alpha 90.000000
_cell_angle_beta 19.292636
_cell_angle_gamma 90.000000
_cell_volume 1276.848111
_symmetry_space_group_name_H-M "P 21/C"
_symmetry_group_IT_number 14
_symmetry_cell_setting 'monoclinic'
loop_
_space_group_symop_operation_xyz
x,y,z
-x,1/2+y,1/2-z
-x,-y,-z
x,1/2-y,1/2+z
loop_
_atom_site_type_symbol
_atom_site_label
_atom_site_fract_x
_atom_site_fract_y
_atom_site_fract_z
Si Si1 0.243700 0.567574 0.629711
Si Si2 0.987639 0.444045 0.271004
Si Si3 0.659533 0.693936 0.466985
Si Si4 0.185436 0.385800 0.428536
Si Si5 0.960317 0.253576 0.541340
Si Si6 0.370366 0.294614 0.836429
Si Si7 0.307665 0.858133 0.789046
O O1 0.361777 0.448286 0.531005
O O2 0.112419 0.628880 0.840542
O O3 0.404677 0.660210 0.419978
O O4 0.089664 0.533751 0.730547
O O5 0.975874 0.570854 0.330132
O O6 0.851544 0.343864 0.465705
O O7 0.219625 0.405505 0.016037
O O8 0.632269 0.704855 0.588286
O O9 0.506640 0.781388 0.589056
O O10 0.882391 0.729646 0.198442
O O11 0.309748 0.273045 0.324384
O O12 0.341831 0.496414 0.240520
O O13 0.056874 0.347002 0.495694
O O14 0.770419 0.313088 0.707767
#
# Coordination Sequence:
#
# PCOD8127625 Si02
#       7
#     4   4   4   4   4   4   4
#     4  12  27  43  69 107 136 187 237 285 347 425
#     4  10  22  45  68 101 134 178 236 288 338 409
#     4  12  25  47  71 101 142 188 227 291 355 420
#     4  10  23  46  70 102 134 181 234 297 343 413
#     4  12  26  45  69 103 148 180 228 288 365 417
#     4  12  23  44  73  99 133 184 236 288 345 409
#     4  10  24  45  68 102 136 178 230 289 347 414
#
# _framework density 21.928998
#
# number of rings (size 3 to 8) (size 9 to 14) (size 15 to 20)
#    0.857    0.000    5.714    0.857    2.000    4.571 
#    2.571    0.000    0.000    0.000    0.000    0.000 
#    0.000    0.000    0.000    0.000    0.000    0.000 
#
# Total GULP energy -347114.063978 kJ/mol
# GULP energy per Si atom -12396.930856 kJ/mol
# Density = 2.187909 g / cm^3
# Si number density = 21.928998 Si / 1000 Ang^3
#
#
#
# Elastic Constant Matrix: (Units=GPa)
#
#
# Indices 1 2 3 4 5 6 
#
# 1 76.6130 22.5015 5.0370 0.0000 -15.4189 0.0000
# 2 22.5015 98.8723 14.4392 0.0000 -5.2634 0.0000
# 3 5.0370 14.4392 75.0187 0.0000 -3.7379 0.0000
# 4 0.0000 0.0000 0.0000 28.8944 0.0000 -0.0223
# 5 -15.4189 -5.2634 -3.7379 0.0000 18.9802 0.0000
# 6 0.0000 0.0000 0.0000 -0.0223 0.0000 28.1719
#
#
#
# Elastic Compliance Matrix: (Units=1/GPa)
#
#
# Indices 1 2 3 4 5 6 
#
# 1 0.016482 -0.003100 0.000115 0.000000 0.012552 0.000000
# 2 -0.003100 0.011110 -0.001921 0.000000 0.000185 0.000000
# 3 0.000115 -0.001921 0.013806 0.000000 0.002280 0.000000
# 4 0.000000 0.000000 0.000000 0.034609 0.000000 0.000027
# 5 0.012552 0.000185 0.002280 0.000000 0.063384 0.000000
# 6 0.000000 0.000000 0.000000 0.000027 0.000000 0.035496
#
#
# Mechanical properties :
#
#
# Convention : Reuss Voigt Hill
#
# Bulk Modulus (GPa) = 31.65896 37.16214 34.41055
# Shear Modulus (GPa) = 25.61141 29.11104 27.36122
#
# Velocity S-wave (km/s) = 3.42120 3.64746 3.53614
# Velocity P-wave (km/s) = 5.48402 5.89253 5.69194
#
# Compressibility (1/GPa) = 0.03158664
#
# Stress axis : x y z
#
# Youngs Moduli (GPa) = 60.67359 90.01039 72.43433
#
# Poissons Ratio (x) = 0.27899 -0.00836
# Poissons Ratio (y) = 0.18806 0.13915
# Poissons Ratio (z) = -0.00700 0.17291
#
# Static dielectric constant tensor:
#      x y z
#    x 3.912120 0.000000 0.096500 
#    y 0.000000 3.913850 0.000000 
#    z 0.096500 0.000000 3.780670 
# 
# 
# High freq. dielectric constant tensor:
#      x y z
#    x 1.869010 0.000000 0.006110 
#    y 0.000000 1.859660 0.000000 
#    z 0.006110 0.000000 1.852950 
# 
# From -- ./inp_files/61254.got.cif
#   From: 2010.03.12/outbox.cif.g09.slc.cpg/sg14_31_cif.got.tgz:61254.got - 2010.03.31 13:35:05.
