data_PCOD8127345
_publ_section_title
;
Structure prediction by ZEFSAII (Michael W. Deem and Ramdas Pophale) SiO2 
 PCOD8127345
Probable space group: P 21/C
;
_chemical_formula_sum "Si O2"
_cell_formula_units_Z 28
_cell_length_a 5.485766
_cell_length_b 10.931474
_cell_length_c 24.179784
_cell_angle_alpha 90.000000
_cell_angle_beta 129.504113
_cell_angle_gamma 90.000000
_cell_volume 1118.790515
_symmetry_space_group_name_H-M "P 21/C"
_symmetry_group_IT_number 14
_symmetry_cell_setting 'monoclinic'
loop_
_space_group_symop_operation_xyz
x,y,z
-x,1/2+y,1/2-z
-x,-y,-z
x,1/2-y,1/2+z
loop_
_atom_site_type_symbol
_atom_site_label
_atom_site_fract_x
_atom_site_fract_y
_atom_site_fract_z
Si Si1 0.010193 0.833494 0.103425
Si Si2 0.103166 0.386574 0.832938
Si Si3 0.945594 0.783747 0.786280
Si Si4 0.102707 0.297182 0.531969
Si Si5 0.256147 0.922816 0.918644
Si Si6 0.487240 0.600427 0.865656
Si Si7 0.553551 0.938986 0.254071
O O1 0.926934 0.707591 0.121449
O O2 0.281034 0.915430 0.170275
O O3 0.713455 0.931438 0.062783
O O4 0.103208 0.794976 0.054414
O O5 0.772685 0.449154 0.765281
O O6 0.219189 0.312664 0.795940
O O7 0.341622 0.496483 0.885713
O O8 0.725893 0.690322 0.787118
O O9 0.992300 0.903114 0.831700
O O10 0.279812 0.719948 0.825289
O O11 0.414788 0.372642 0.558162
O O12 0.188804 0.156696 0.562579
O O13 0.884793 0.354512 0.547752
O O14 0.478083 0.526779 0.806420
#
# Coordination Sequence:
#
# PCOD8127345 Si02
#       7
#     4   4   4   4   4   4   4
#     4  12  27  43  72 108 141 186 243 302 359 439
#     4  11  26  42  67 110 138 186 247 307 364 432
#     4  10  22  41  70  99 137 183 237 291 361 430
#     4  11  26  50  74 105 143 196 241 294 368 438
#     4  11  25  47  75 101 146 190 238 294 365 437
#     4  10  22  45  69  92 142 189 234 295 367 427
#     4  11  24  44  68 102 142 186 238 303 369 427
#
# _framework density 25.027027
#
# number of rings (size 3 to 8) (size 9 to 14) (size 15 to 20)
#    0.000    1.143    2.857    1.714   10.000    1.714 
#    0.000    0.714    0.000    0.000    0.000    0.000 
#    0.000    0.000    0.000    0.000    0.000    0.000 
#
# Total GULP energy -346908.925233 kJ/mol
# GULP energy per Si atom -12389.604473 kJ/mol
# Density = 2.497006 g / cm^3
# Si number density = 25.027027 Si / 1000 Ang^3
#
#
#
# Elastic Constant Matrix: (Units=GPa)
#
#
# Indices 1 2 3 4 5 6 
#
# 1 68.0235 10.4596 15.5172 0.0000 -1.9685 0.0000
# 2 10.4596 113.9072 20.5414 0.0000 4.5007 0.0000
# 3 15.5172 20.5414 88.7899 0.0000 -29.0227 0.0000
# 4 0.0000 0.0000 0.0000 28.1561 0.0000 -9.3505
# 5 -1.9685 4.5007 -29.0227 0.0000 22.8622 0.0000
# 6 0.0000 0.0000 0.0000 -9.3505 0.0000 12.0693
#
#
#
# Elastic Compliance Matrix: (Units=1/GPa)
#
#
# Indices 1 2 3 4 5 6 
#
# 1 0.015526 -0.000664 -0.003555 0.000000 -0.003046 0.000000
# 2 -0.000664 0.010053 -0.004915 0.000000 -0.008275 0.000000
# 3 -0.003555 -0.004915 0.022626 0.000000 0.029384 0.000000
# 4 0.000000 0.000000 0.000000 0.047819 0.000000 0.037047
# 5 -0.003046 -0.008275 0.029384 0.000000 0.082409 0.000000
# 6 0.000000 0.000000 0.000000 0.037047 0.000000 0.111556
#
#
# Mechanical properties :
#
#
# Convention : Reuss Voigt Hill
#
# Bulk Modulus (GPa) = 33.40416 40.41746 36.91081
# Shear Modulus (GPa) = 15.71162 27.56435 21.63798
#
# Velocity S-wave (km/s) = 2.50828 3.32231 2.94357
# Velocity P-wave (km/s) = 4.66528 5.55892 5.13159
#
# Compressibility (1/GPa) = 0.02993639
#
# Stress axis : x y z
#
# Youngs Moduli (GPa) = 64.40898 99.46947 44.19790
#
# Poissons Ratio (x) = 0.06607 0.15713
# Poissons Ratio (y) = 0.04278 0.21722
# Poissons Ratio (z) = 0.22899 0.48886
#
# Static dielectric constant tensor:
#      x y z
#    x 4.470790 0.000000 0.066580 
#    y 0.000000 4.537150 0.000000 
#    z 0.066580 0.000000 4.799250 
# 
# 
# High freq. dielectric constant tensor:
#      x y z
#    x 1.991850 0.000000 -0.008200 
#    y 0.000000 2.010900 0.000000 
#    z -0.008200 0.000000 1.993960 
# 
# From -- ./inp_files/63615.got.cif
#   From: 2010.03.12/outbox.cif.g09.slc.cpg/sg14_32_cif.got.tgz:63615.got - 2010.03.31 13:35:05.
