data_PCOD8127820
_publ_section_title
;
Structure prediction by ZEFSAII (Michael W. Deem and Ramdas Pophale) SiO2 
 PCOD8127820
Probable space group: P 21/C
;
_chemical_formula_sum "Si O2"
_cell_formula_units_Z 32
_cell_length_a 21.696462
_cell_length_b 8.553656
_cell_length_c 19.628117
_cell_angle_alpha 90.000000
_cell_angle_beta 154.778998
_cell_angle_gamma 90.000000
_cell_volume 1552.179752
_symmetry_space_group_name_H-M "P 21/C"
_symmetry_group_IT_number 14
_symmetry_cell_setting 'monoclinic'
loop_
_space_group_symop_operation_xyz
x,y,z
-x,1/2+y,1/2-z
-x,-y,-z
x,1/2-y,1/2+z
loop_
_atom_site_type_symbol
_atom_site_label
_atom_site_fract_x
_atom_site_fract_y
_atom_site_fract_z
Si Si1 0.153222 0.264551 0.850553
Si Si2 0.026217 0.841309 0.066101
Si Si3 0.034079 0.891614 0.227014
Si Si4 0.814513 0.831247 0.265357
Si Si5 0.314509 0.831246 0.863674
Si Si6 0.346769 0.735447 0.044109
Si Si7 0.526226 0.658695 0.986349
Si Si8 0.534081 0.608391 0.841153
O O1 0.068776 0.426837 0.768894
O O2 0.122724 0.179550 0.748186
O O3 0.093757 0.150741 0.849240
O O4 0.323976 0.288436 0.032874
O O5 0.973906 0.857451 0.091432
O O6 0.196307 0.804715 0.235356
O O7 0.941244 0.698456 0.946301
O O8 0.000000 0.000000 0.000000
O O9 0.176017 0.788438 0.384922
O O10 0.750003 0.000004 0.215769
O O11 0.696313 0.695288 0.157273
O O12 0.441236 0.801537 0.936187
O O13 0.377265 0.820457 0.002736
O O14 0.431219 0.573158 0.131331
O O15 0.406249 0.849250 0.161739
O O16 0.473914 0.642559 0.856393
O O17 0.500000 0.500000 0.000000
#
# Coordination Sequence:
#
# PCOD8127820 Si02
#       8
#     4   4   4   4   4   4   4   4
#     4  10  23  42  65  93 130 167 213 263 322 384
#     4  11  22  44  67  93 129 175 216 265 328 390
#     4  10  23  42  64  95 128 170 214 265 320 388
#     4  11  24  42  66  95 133 167 215 274 323 380
#     4  11  24  42  66  95 133 167 215 274 323 380
#     4  10  23  42  65  93 130 167 213 263 322 384
#     4  11  22  44  67  93 129 175 216 265 328 390
#     4  10  23  42  64  95 128 170 214 265 320 388
#
# _framework density 20.616168999999999
#
# number of rings (size 3 to 8) (size 9 to 14) (size 15 to 20)
#    0.000    1.500    2.500    1.500    7.000    2.000 
#    9.000    0.000    0.000    0.000    0.000    0.000 
#    0.000    0.000    0.000    0.000    0.000    0.000 
#
# Total GULP energy -397008.293946 kJ/mol
# GULP energy per Si atom -12406.509186 kJ/mol
# Density = 2.056925 g / cm^3
# Si number density = 20.616169 Si / 1000 Ang^3
#
#
#
# Elastic Constant Matrix: (Units=GPa)
#
#
# Indices 1 2 3 4 5 6 
#
# 1 151.1234 37.6984 49.5021 0.0000 -14.3350 0.0000
# 2 37.6984 87.4453 27.7536 0.0000 -9.0137 0.0000
# 3 49.5021 27.7536 101.5970 0.0000 -30.5683 0.0000
# 4 0.0000 0.0000 0.0000 37.4186 0.0000 -0.7430
# 5 -14.3350 -9.0137 -30.5683 0.0000 28.1832 0.0000
# 6 0.0000 0.0000 0.0000 -0.7430 0.0000 38.2376
#
#
#
# Elastic Compliance Matrix: (Units=1/GPa)
#
#
# Indices 1 2 3 4 5 6 
#
# 1 0.008357 -0.002533 -0.003481 0.000000 -0.000335 0.000000
# 2 -0.002533 0.013292 -0.002235 0.000000 0.000539 0.000000
# 3 -0.003481 -0.002235 0.016925 0.000000 0.015872 0.000000
# 4 0.000000 0.000000 0.000000 0.026735 0.000000 0.000520
# 5 -0.000335 0.000539 0.015872 0.000000 0.052699 0.000000
# 6 0.000000 0.000000 0.000000 0.000520 0.000000 0.026162
#
#
# Mechanical properties :
#
#
# Convention : Reuss Voigt Hill
#
# Bulk Modulus (GPa) = 45.29456 63.34153 54.31804
# Shear Modulus (GPa) = 29.75703 35.78198 32.76951
#
# Velocity S-wave (km/s) = 3.80331 4.17061 3.99119
# Velocity P-wave (km/s) = 6.42690 7.34730 6.90246
#
# Compressibility (1/GPa) = 0.02207771
#
# Stress axis : x y z
#
# Youngs Moduli (GPa) = 119.65528 75.23059 59.08480
#
# Poissons Ratio (x) = 0.19053 0.20566
# Poissons Ratio (y) = 0.30304 0.13205
# Poissons Ratio (z) = 0.41650 0.16814
#
# Static dielectric constant tensor:
#      x y z
#    x 3.831150 0.000000 0.009860 
#    y 0.000000 3.658490 0.000000 
#    z 0.009860 0.000000 3.841820 
# 
# 
# High freq. dielectric constant tensor:
#      x y z
#    x 1.810490 0.000000 -0.005730 
#    y 0.000000 1.815540 0.000000 
#    z -0.005730 0.000000 1.804160 
# 
# From -- ./inp_files/61152.got.cif
#   From: 2010.03.12/outbox.cif.g09.slc.cpg/sg14_31_cif.got.tgz:61152.got - 2010.03.31 13:35:05.
