data_PCOD8127845
_publ_section_title
;
Structure prediction by ZEFSAII (Michael W. Deem and Ramdas Pophale) SiO2 
 PCOD8127845
Probable space group: P 21/C
;
_chemical_formula_sum "Si O2"
_cell_formula_units_Z 20
_cell_length_a 10.789683
_cell_length_b 10.529960
_cell_length_c 7.529248
_cell_angle_alpha 90.000000
_cell_angle_beta 82.824292
_cell_angle_gamma 90.000000
_cell_volume 848.735007
_symmetry_space_group_name_H-M "P 21/C"
_symmetry_group_IT_number 14
_symmetry_cell_setting 'monoclinic'
loop_
_space_group_symop_operation_xyz
x,y,z
-x,1/2+y,1/2-z
-x,-y,-z
x,1/2-y,1/2+z
loop_
_atom_site_type_symbol
_atom_site_label
_atom_site_fract_x
_atom_site_fract_y
_atom_site_fract_z
Si Si1 0.534344 0.906966 0.734249
Si Si2 0.165017 0.559865 0.580345
Si Si3 0.097446 0.390177 0.282993
Si Si4 0.560849 0.159297 0.886949
Si Si5 0.192983 0.131581 0.384136
O O1 0.434561 0.808578 0.666590
O O2 0.661153 0.887609 0.605291
O O3 0.513002 0.061620 0.737628
O O4 0.539892 0.865773 0.939863
O O5 0.143578 0.514978 0.381584
O O6 0.297763 0.628903 0.576695
O O7 0.149184 0.443367 0.718760
O O8 0.047344 0.648667 0.653219
O O9 0.180972 0.278528 0.344177
O O10 0.117518 0.413903 0.070474
#
# Coordination Sequence:
#
# PCOD8127845 Si02
#       5
#     4   4   4   4   4
#     4  10  23  42  67  96 132 174 222 271 330 397
#     4  10  24  43  60  95 132 168 217 277 329 388
#     4  11  22  39  66  92 125 170 220 269 326 401
#     4  10  23  45  64  98 138 169 225 274 331 397
#     4  11  21  41  66  92 125 176 216 267 340 398
#
# _framework density 23.564482999999999
#
# number of rings (size 3 to 8) (size 9 to 14) (size 15 to 20)
#    0.000    1.600    2.000    1.800    5.600    2.400 
#    7.200    0.000    0.000    0.000    0.000    0.000 
#    0.000    0.000    0.000    0.000    0.000    0.000 
#
# Total GULP energy -247784.891711 kJ/mol
# GULP energy per Si atom -12389.244586 kJ/mol
# Density = 2.351085 g / cm^3
# Si number density = 23.564483 Si / 1000 Ang^3
#
#
#
# Elastic Constant Matrix: (Units=GPa)
#
#
# Indices 1 2 3 4 5 6 
#
# 1 56.3351 26.6224 19.0814 0.0000 1.9909 0.0000
# 2 26.6224 46.5534 22.2005 0.0000 3.6766 0.0000
# 3 19.0814 22.2005 99.9377 0.0000 -15.7796 0.0000
# 4 0.0000 0.0000 0.0000 33.2677 0.0000 0.5083
# 5 1.9909 3.6766 -15.7796 0.0000 26.6407 0.0000
# 6 0.0000 0.0000 0.0000 0.5083 0.0000 22.4021
#
#
#
# Elastic Compliance Matrix: (Units=1/GPa)
#
#
# Indices 1 2 3 4 5 6 
#
# 1 0.024632 -0.013035 -0.002001 0.000000 -0.001227 0.000000
# 2 -0.013035 0.032224 -0.005756 0.000000 -0.006882 0.000000
# 3 -0.002001 -0.005756 0.013035 0.000000 0.008665 0.000000
# 4 0.000000 0.000000 0.000000 0.030070 0.000000 -0.000682
# 5 -0.001227 -0.006882 0.008665 0.000000 0.043710 0.000000
# 6 0.000000 0.000000 0.000000 -0.000682 0.000000 0.044654
#
#
# Mechanical properties :
#
#
# Convention : Reuss Voigt Hill
#
# Bulk Modulus (GPa) = 35.32812 37.62609 36.47710
# Shear Modulus (GPa) = 20.89034 25.45689 23.17362
#
# Velocity S-wave (km/s) = 2.98068 3.29037 3.13934
# Velocity P-wave (km/s) = 5.18368 5.51700 5.35294
#
# Compressibility (1/GPa) = 0.02830606
#
# Stress axis : x y z
#
# Youngs Moduli (GPa) = 40.59735 31.03319 76.71580
#
# Poissons Ratio (x) = 0.40452 0.15352
# Poissons Ratio (y) = 0.52919 0.44158
# Poissons Ratio (z) = 0.08124 0.17863
#
# Static dielectric constant tensor:
#      x y z
#    x 4.073270 0.000000 -0.219520 
#    y 0.000000 4.308610 0.000000 
#    z -0.219520 0.000000 4.371130 
# 
# 
# High freq. dielectric constant tensor:
#      x y z
#    x 1.923070 0.000000 -0.016190 
#    y 0.000000 1.922680 0.000000 
#    z -0.016190 0.000000 1.943830 
# 
# From -- ./inp_files/12046.got.cif
#   From: 2010.03.12/outbox.cif.g09.slc.cpg/sg14_7_cif.got.tgz:12046.got - 2010.03.31 13:35:05.
