data_PCOD8127506
_publ_section_title
;
Structure prediction by ZEFSAII (Michael W. Deem and Ramdas Pophale) SiO2 
 PCOD8127506
Probable space group: P 21/C
;
_chemical_formula_sum "Si O2"
_cell_formula_units_Z 28
_cell_length_a 11.976555
_cell_length_b 10.275852
_cell_length_c 22.068503
_cell_angle_alpha 90.000000
_cell_angle_beta 27.902698
_cell_angle_gamma 90.000000
_cell_volume 1270.989513
_symmetry_space_group_name_H-M "P 21/C"
_symmetry_group_IT_number 14
_symmetry_cell_setting 'monoclinic'
loop_
_space_group_symop_operation_xyz
x,y,z
-x,1/2+y,1/2-z
-x,-y,-z
x,1/2-y,1/2+z
loop_
_atom_site_type_symbol
_atom_site_label
_atom_site_fract_x
_atom_site_fract_y
_atom_site_fract_z
Si Si1 0.334032 0.636836 0.768046
Si Si2 0.561760 0.132864 0.643195
Si Si3 0.621732 0.673836 0.976975
Si Si4 0.030064 0.976585 0.629684
Si Si5 0.745401 0.409053 0.753945
Si Si6 0.394795 0.318286 0.631282
Si Si7 0.290721 0.444133 0.503194
O O1 0.348137 0.654892 0.832635
O O2 0.252772 0.772648 0.779864
O O3 0.588036 0.586506 0.620185
O O4 0.126444 0.537612 0.849332
O O5 0.782577 0.117080 0.491877
O O6 0.421194 0.260329 0.686704
O O7 0.398616 0.005429 0.720386
O O8 0.851720 0.589018 0.885386
O O9 0.590855 0.690507 0.919430
O O10 0.650977 0.822672 0.982594
O O11 0.383857 0.606873 0.118461
O O12 0.861083 0.888870 0.753384
O O13 0.009325 0.465502 0.633791
O O14 0.601015 0.424639 0.519521
#
# Coordination Sequence:
#
# PCOD8127506 Si02
#       7
#     4   4   4   4   4   4   4
#     4  10  22  43  69  96 132 177 224 268 331 397
#     4  11  26  41  65 102 138 172 220 276 333 393
#     4  10  22  46  68  95 130 179 223 265 334 397
#     4  10  23  46  67  97 133 180 220 272 338 386
#     4  10  23  42  68  96 130 181 220 272 334 391
#     4  11  26  42  67 103 134 172 221 278 328 392
#     4  10  22  43  67  98 130 172 226 270 326 385
#
# _framework density 22.030080000000002
#
# number of rings (size 3 to 8) (size 9 to 14) (size 15 to 20)
#    0.000    1.714    1.429    0.857    6.000    6.286 
#    0.000    0.000    0.000    0.000    0.000    0.000 
#    0.000    0.000    0.000    0.000    0.000    0.000 
#
# Total GULP energy -347246.556519 kJ/mol
# GULP energy per Si atom -12401.662733 kJ/mol
# Density = 2.197994 g / cm^3
# Si number density = 22.030080 Si / 1000 Ang^3
#
#
#
# Elastic Constant Matrix: (Units=GPa)
#
#
# Indices 1 2 3 4 5 6 
#
# 1 109.7165 24.0036 54.4928 0.0000 4.7793 0.0000
# 2 24.0036 70.0479 28.4210 0.0000 2.0045 0.0000
# 3 54.4928 28.4210 114.4596 0.0000 -20.7524 0.0000
# 4 0.0000 0.0000 0.0000 23.1991 0.0000 -16.1895
# 5 4.7793 2.0045 -20.7524 0.0000 30.2428 0.0000
# 6 0.0000 0.0000 0.0000 -16.1895 0.0000 8.6169
#
#
#
# Elastic Compliance Matrix: (Units=1/GPa)
#
#
# Indices 1 2 3 4 5 6 
#
# 1 0.013340 -0.001422 -0.007267 0.000000 -0.007000 0.000000
# 2 -0.001422 0.016530 -0.004095 0.000000 -0.003681 0.000000
# 3 -0.007267 -0.004095 0.015385 0.000000 0.011977 0.000000
# 4 0.000000 0.000000 0.000000 -0.138546 0.000000 -0.260301
# 5 -0.007000 -0.003681 0.011977 0.000000 0.042634 0.000000
# 6 0.000000 0.000000 0.000000 -0.260301 0.000000 -0.373004
#
#
# Mechanical properties :
#
#
# Convention : Reuss Voigt Hill
#
# Bulk Modulus (GPa) = 50.79634 56.45097 53.62365
# Shear Modulus (GPa) = -12.77039 24.89889 6.06425
#
# Velocity S-wave (km/s) = -2.41027 3.36553 1.66093
# Velocity P-wave (km/s) = 3.91943 6.38612 5.29832
#
# Compressibility (1/GPa) = 0.01968646
#
# Stress axis : x y z
#
# Youngs Moduli (GPa) = 74.96380 60.49595 65.00033
#
# Poissons Ratio (x) = 0.08605 0.47235
# Poissons Ratio (y) = 0.10663 0.26615
# Poissons Ratio (z) = 0.54476 0.24771
#
# Static dielectric constant tensor:
#      x y z
#    x 3.847590 0.000000 -0.062010 
#    y 0.000000 4.054870 0.000000 
#    z -0.062010 0.000000 4.052800 
# 
# 
# High freq. dielectric constant tensor:
#      x y z
#    x 1.858960 0.000000 -0.009710 
#    y 0.000000 1.884620 0.000000 
#    z -0.009710 0.000000 1.864280 
# 
# From -- ./inp_files/67328.got.cif
#   From: 2010.03.12/outbox.cif.g09.slc.cpg/sg14_34_cif.got.tgz:67328.got - 2010.03.31 13:35:05.
