data_PCOD8127395
_publ_section_title
;
Structure prediction by ZEFSAII (Michael W. Deem and Ramdas Pophale) SiO2 
 PCOD8127395
Probable space group: P 21/C
;
_chemical_formula_sum "Si O2"
_cell_formula_units_Z 16
_cell_length_a 9.441880
_cell_length_b 12.134444
_cell_length_c 9.047633
_cell_angle_alpha 90.000000
_cell_angle_beta 44.446504
_cell_angle_gamma 90.000000
_cell_volume 725.875464
_symmetry_space_group_name_H-M "P 21/C"
_symmetry_group_IT_number 14
_symmetry_cell_setting 'monoclinic'
loop_
_space_group_symop_operation_xyz
x,y,z
-x,1/2+y,1/2-z
-x,-y,-z
x,1/2-y,1/2+z
loop_
_atom_site_type_symbol
_atom_site_label
_atom_site_fract_x
_atom_site_fract_y
_atom_site_fract_z
Si Si1 0.821296 0.127725 0.165882
Si Si2 0.050808 0.445785 0.226489
Si Si3 0.550810 0.554215 0.226488
Si Si4 0.321297 0.627725 0.665881
O O1 0.632737 0.052702 0.253019
O O2 0.750000 0.250000 0.250000
O O3 0.908480 0.071355 0.249101
O O4 0.992779 0.130043 0.910723
O O5 0.867261 0.447299 0.246983
O O6 0.249999 0.396034 0.000000
O O7 0.492780 0.630043 0.410722
O O8 0.591519 0.428645 0.250899
#
# Coordination Sequence:
#
# PCOD8127395 Si02
#       4
#     4   4   4   4
#     4  10  23  43  65  95 129 165 210 264 311 372
#     4  10  22  42  65  94 128 163 215 260 307 383
#     4  10  22  42  65  94 128 163 215 260 307 383
#     4  10  23  43  65  95 129 165 210 264 311 372
#
# _framework density 22.042349999999999
#
# number of rings (size 3 to 8) (size 9 to 14) (size 15 to 20)
#    0.000    2.000    0.000    1.500    7.000    2.000 
#   18.000    0.000    0.000    0.000    0.000    0.000 
#    0.000    0.000    0.000    0.000    0.000    0.000 
#
# Total GULP energy -198387.130276 kJ/mol
# GULP energy per Si atom -12399.195642 kJ/mol
# Density = 2.199218 g / cm^3
# Si number density = 22.042350 Si / 1000 Ang^3
#
#
#
# Elastic Constant Matrix: (Units=GPa)
#
#
# Indices 1 2 3 4 5 6 
#
# 1 126.4498 69.0272 33.4183 0.0000 -7.9141 0.0000
# 2 69.0272 169.6862 56.1646 0.0000 0.7191 0.0000
# 3 33.4183 56.1646 199.5273 0.0000 -26.7809 0.0000
# 4 0.0000 0.0000 0.0000 28.7965 0.0000 -7.9567
# 5 -7.9141 0.7191 -26.7809 0.0000 24.3797 0.0000
# 6 0.0000 0.0000 0.0000 -7.9567 0.0000 33.5197
#
#
#
# Elastic Compliance Matrix: (Units=1/GPa)
#
#
# Indices 1 2 3 4 5 6 
#
# 1 0.010461 -0.004236 -0.000102 0.000000 0.003409 0.000000
# 2 -0.004236 0.008356 -0.002182 0.000000 -0.004018 0.000000
# 3 -0.000102 -0.002182 0.006624 0.000000 0.007308 0.000000
# 4 0.000000 0.000000 0.000000 0.037164 0.000000 0.008822
# 5 0.003409 -0.004018 0.007308 0.000000 0.050270 0.000000
# 6 0.000000 0.000000 0.000000 0.008822 0.000000 0.031927
#
#
# Mechanical properties :
#
#
# Convention : Reuss Voigt Hill
#
# Bulk Modulus (GPa) = 80.64294 90.32042 85.48168
# Shear Modulus (GPa) = 30.86884 39.80940 35.33912
#
# Velocity S-wave (km/s) = 3.74630 4.25436 4.00839
# Velocity P-wave (km/s) = 7.44163 8.07451 7.76452
#
# Compressibility (1/GPa) = 0.01240034
#
# Stress axis : x y z
#
# Youngs Moduli (GPa) = 95.59277 119.67927 150.96696
#
# Poissons Ratio (x) = 0.50697 0.01543
# Poissons Ratio (y) = 0.40494 0.32939
# Poissons Ratio (z) = 0.00977 0.26113
#
# Static dielectric constant tensor:
#      x y z
#    x 4.143970 0.000000 0.002840 
#    y 0.000000 3.466140 0.000000 
#    z 0.002840 0.000000 4.417480 
# 
# 
# High freq. dielectric constant tensor:
#      x y z
#    x 1.868740 0.000000 0.000610 
#    y 0.000000 1.828660 0.000000 
#    z 0.000610 0.000000 1.894300 
# 
# From -- ./inp_files/7767.got.cif
#   From: 2010.03.12/outbox.cif.g09.slc.cpg/sg14_4_cif.got.tgz:7767.got - 2010.03.31 13:35:05.
