data_PCOD8127993
_publ_section_title
;
Structure prediction by ZEFSAII (Michael W. Deem and Ramdas Pophale) SiO2 
 PCOD8127993
Probable space group: P 21/C
;
_chemical_formula_sum "Si O2"
_cell_formula_units_Z 32
_cell_length_a 15.890054
_cell_length_b 5.346671
_cell_length_c 22.186736
_cell_angle_alpha 90.000000
_cell_angle_beta 53.775762
_cell_angle_gamma 90.000000
_cell_volume 1520.617215
_symmetry_space_group_name_H-M "P 21/C"
_symmetry_group_IT_number 14
_symmetry_cell_setting 'monoclinic'
loop_
_space_group_symop_operation_xyz
x,y,z
-x,1/2+y,1/2-z
-x,-y,-z
x,1/2-y,1/2+z
loop_
_atom_site_type_symbol
_atom_site_label
_atom_site_fract_x
_atom_site_fract_y
_atom_site_fract_z
Si Si1 0.887381 0.173814 0.006112
Si Si2 0.559798 0.566121 0.295710
Si Si3 0.227917 0.183486 0.242223
Si Si4 0.834703 0.931159 0.345434
Si Si5 0.066277 0.700897 0.772814
Si Si6 0.899514 0.001489 0.126060
Si Si7 0.784868 0.659489 0.001024
Si Si8 0.563751 0.928807 0.652996
O O1 0.862604 0.188275 0.088377
O O2 0.860427 0.443414 0.991832
O O3 0.011110 0.165540 0.942703
O O4 0.825454 0.936085 0.002592
O O5 0.666382 0.538092 0.288311
O O6 0.499730 0.316025 0.339419
O O7 0.586092 0.569288 0.214291
O O8 0.496018 0.816563 0.341172
O O9 0.242462 0.319278 0.172150
O O10 0.206275 0.360430 0.309139
O O11 0.120595 0.029944 0.282390
O O12 0.779575 0.879380 0.431499
O O13 0.952205 0.822360 0.292677
O O14 0.855049 0.217420 0.315095
O O15 0.050336 0.893135 0.834249
O O16 0.671626 0.594703 0.072991
#
# Coordination Sequence:
#
# PCOD8127993 Si02
#       8
#     4   4   4   4   4   4   4   4
#     4  11  25  39  64  97 140 170 215 262 334 405
#     4  10  23  44  69  97 123 164 218 276 344 386
#     4  11  24  40  68  90 129 178 226 269 316 394
#     4  11  24  39  62  94 131 181 223 259 313 385
#     4  11  22  40  63  90 135 177 225 264 309 386
#     4  10  24  38  60 100 131 174 213 275 323 392
#     4  12  25  43  67  95 133 180 215 268 336 391
#     4  10  23  44  69  95 128 159 215 287 337 396
#
# _framework density 21.044084000000002
#
# number of rings (size 3 to 8) (size 9 to 14) (size 15 to 20)
#    0.000    1.250    2.500    2.250   10.500    2.000 
#    0.000    1.250    0.000    0.000    0.000    0.000 
#    0.000    0.000    0.000    0.000    0.000    0.000 
#
# Total GULP energy -396505.377214 kJ/mol
# GULP energy per Si atom -12390.793038 kJ/mol
# Density = 2.099619 g / cm^3
# Si number density = 21.044084 Si / 1000 Ang^3
#
#
#
# Elastic Constant Matrix: (Units=GPa)
#
#
# Indices 1 2 3 4 5 6 
#
# 1 48.4340 1.9795 -3.3885 0.0000 9.1362 0.0000
# 2 1.9795 74.3381 -6.6062 0.0000 3.4680 0.0000
# 3 -3.3885 -6.6062 73.5720 0.0000 10.2067 0.0000
# 4 0.0000 0.0000 0.0000 15.5162 0.0000 -13.3928
# 5 9.1362 3.4680 10.2067 0.0000 26.5347 0.0000
# 6 0.0000 0.0000 0.0000 -13.3928 0.0000 -6.5170
#
#
#
# Elastic Compliance Matrix: (Units=1/GPa)
#
#
# Indices 1 2 3 4 5 6 
#
# 1 0.022419 0.000000 0.002222 0.000000 -0.008574 0.000000
# 2 0.000000 0.013702 0.001562 0.000000 -0.002392 0.000000
# 3 0.002222 0.001562 0.014757 0.000000 -0.006645 0.000000
# 4 0.000000 0.000000 0.000000 0.023235 0.000000 -0.047749
# 5 -0.008574 -0.002392 -0.006645 0.000000 0.043508 0.000000
# 6 0.000000 0.000000 0.000000 -0.047749 0.000000 -0.055319
#
#
# Mechanical properties :
#
#
# Convention : Reuss Voigt Hill
#
# Bulk Modulus (GPa) = 17.10917 20.03486 18.57202
# Shear Modulus (GPa) = 67.37183 20.73073 44.05128
#
# Velocity S-wave (km/s) = 5.66428 3.14205 4.58021
# Velocity P-wave (km/s) = 7.13629 4.76491 6.06758
#
# Compressibility (1/GPa) = 0.05844819
#
# Stress axis : x y z
#
# Youngs Moduli (GPa) = 44.60414 72.97962 67.76597
#
# Poissons Ratio (x) = -0.00003 -0.15058
# Poissons Ratio (y) = -0.00002 -0.10587
# Poissons Ratio (z) = -0.09911 -0.11401
#
# Static dielectric constant tensor:
#      x y z
#    x 3.795190 0.000000 0.222400 
#    y 0.000000 4.073520 0.000000 
#    z 0.222400 0.000000 3.802700 
# 
# 
# High freq. dielectric constant tensor:
#      x y z
#    x 1.822210 0.000000 0.012710 
#    y 0.000000 1.829740 0.000000 
#    z 0.012710 0.000000 1.818780 
# 
# From -- ./inp_files/73559.got.cif
#   From: 2010.03.12/outbox.cif.g09.slc.cpg/sg14_37_cif.got.tgz:73559.got - 2010.03.31 13:35:05.
