data_PCOD8127978
_publ_section_title
;
Structure prediction by ZEFSAII (Michael W. Deem and Ramdas Pophale) SiO2 
 PCOD8127978
Probable space group: P 21/C
;
_chemical_formula_sum "Si O2"
_cell_formula_units_Z 28
_cell_length_a 5.421463
_cell_length_b 8.763240
_cell_length_c 24.778597
_cell_angle_alpha 90.000000
_cell_angle_beta 98.659375
_cell_angle_gamma 90.000000
_cell_volume 1163.801501
_symmetry_space_group_name_H-M "P 21/C"
_symmetry_group_IT_number 14
_symmetry_cell_setting 'monoclinic'
loop_
_space_group_symop_operation_xyz
x,y,z
-x,1/2+y,1/2-z
-x,-y,-z
x,1/2-y,1/2+z
loop_
_atom_site_type_symbol
_atom_site_label
_atom_site_fract_x
_atom_site_fract_y
_atom_site_fract_z
Si Si1 0.861085 0.734187 0.224896
Si Si2 0.839218 0.061795 0.909593
Si Si3 0.298719 0.025814 0.565727
Si Si4 0.331574 0.679640 0.163736
Si Si5 0.445216 0.820047 0.911187
Si Si6 0.121335 0.945991 0.818014
Si Si7 0.863541 0.233843 0.507078
O O1 0.606051 0.651142 0.198168
O O2 0.111502 0.693552 0.200175
O O3 0.917826 0.671248 0.286921
O O4 0.819881 0.918026 0.222718
O O5 0.638330 0.166979 0.871064
O O6 0.699569 0.914122 0.929808
O O7 0.966584 0.160777 0.961531
O O8 0.044142 0.018389 0.872530
O O9 0.533848 0.137441 0.579192
O O10 0.072519 0.132254 0.540963
O O11 0.248652 0.960814 0.623802
O O12 0.340898 0.886151 0.525019
O O13 0.362098 0.850784 0.846243
O O14 0.247179 0.854639 0.952844
#
# Coordination Sequence:
#
# PCOD8127978 Si02
#       7
#     4   4   4   4   4   4   4
#     4  11  26  47  74 103 140 188 234 301 354 425
#     4  10  23  46  66  98 141 183 232 293 351 428
#     4  10  24  42  69 103 142 184 238 288 353 426
#     4  10  24  47  74 102 142 184 235 293 360 415
#     4  12  23  40  67 104 136 185 235 294 347 431
#     4  11  27  44  70 102 141 179 240 288 364 417
#     4  10  23  44  66 101 139 190 234 290 353 421
#
# _framework density 24.059086000000001
#
# number of rings (size 3 to 8) (size 9 to 14) (size 15 to 20)
#    0.000    1.429    1.429    1.714    6.000    4.571 
#    5.143    0.000    0.000    0.000    0.000    0.000 
#    0.000    0.000    0.000    0.000    0.000    0.000 
#
# Total GULP energy -346979.518750 kJ/mol
# GULP energy per Si atom -12392.125670 kJ/mol
# Density = 2.400433 g / cm^3
# Si number density = 24.059086 Si / 1000 Ang^3
#
#
#
# Elastic Constant Matrix: (Units=GPa)
#
#
# Indices 1 2 3 4 5 6 
#
# 1 75.4309 10.8302 22.5273 0.0000 11.0718 0.0000
# 2 10.8302 112.8040 60.8376 0.0000 16.1430 0.0000
# 3 22.5273 60.8376 84.5085 0.0000 22.8186 0.0000
# 4 0.0000 0.0000 0.0000 46.3978 0.0000 5.7152
# 5 11.0718 16.1430 22.8186 0.0000 37.0180 0.0000
# 6 0.0000 0.0000 0.0000 5.7152 0.0000 31.2011
#
#
#
# Elastic Compliance Matrix: (Units=1/GPa)
#
#
# Indices 1 2 3 4 5 6 
#
# 1 0.014662 0.001135 -0.004088 0.000000 -0.002360 0.000000
# 2 0.001135 0.014580 -0.010785 0.000000 -0.000049 0.000000
# 3 -0.004088 -0.010785 0.022898 0.000000 -0.008189 0.000000
# 4 0.000000 0.000000 0.000000 0.022050 0.000000 -0.004039
# 5 -0.002360 -0.000049 -0.008189 0.000000 0.032789 0.000000
# 6 0.000000 0.000000 0.000000 -0.004039 0.000000 0.032790
#
#
# Mechanical properties :
#
#
# Convention : Reuss Voigt Hill
#
# Bulk Modulus (GPa) = 40.54676 51.23706 45.89191
# Shear Modulus (GPa) = 28.49550 34.82658 31.66104
#
# Velocity S-wave (km/s) = 3.44524 3.80879 3.63157
# Velocity P-wave (km/s) = 5.71977 6.37848 6.05809
#
# Compressibility (1/GPa) = 0.02466288
#
# Stress axis : x y z
#
# Youngs Moduli (GPa) = 68.20569 68.58862 43.67155
#
# Poissons Ratio (x) = -0.07784 0.17853
# Poissons Ratio (y) = -0.07740 0.47100
# Poissons Ratio (z) = 0.27883 0.73974
#
# Static dielectric constant tensor:
#      x y z
#    x 3.873670 0.000000 0.161960 
#    y 0.000000 4.758890 0.000000 
#    z 0.161960 0.000000 4.506760 
# 
# 
# High freq. dielectric constant tensor:
#      x y z
#    x 1.928940 0.000000 0.013510 
#    y 0.000000 1.968790 0.000000 
#    z 0.013510 0.000000 1.964530 
# 
# From -- ./inp_files/75702.got.cif
#   From: 2010.03.12/outbox.cif.g09.slc.cpg/sg14_38_cif.got.tgz:75702.got - 2010.03.31 13:35:05.
