data_PCOD8127893
_publ_section_title
;
Structure prediction by ZEFSAII (Michael W. Deem and Ramdas Pophale) SiO2 
 PCOD8127893
Probable space group: P 21/C
;
_chemical_formula_sum "Si O2"
_cell_formula_units_Z 20
_cell_length_a 11.954090
_cell_length_b 12.007384
_cell_length_c 14.705318
_cell_angle_alpha 90.000000
_cell_angle_beta 25.997938
_cell_angle_gamma 90.000000
_cell_volume 925.229041
_symmetry_space_group_name_H-M "P 21/C"
_symmetry_group_IT_number 14
_symmetry_cell_setting 'monoclinic'
loop_
_space_group_symop_operation_xyz
x,y,z
-x,1/2+y,1/2-z
-x,-y,-z
x,1/2-y,1/2+z
loop_
_atom_site_type_symbol
_atom_site_label
_atom_site_fract_x
_atom_site_fract_y
_atom_site_fract_z
Si Si1 0.581212 0.743791 0.857668
Si Si2 0.404521 0.404179 0.505389
Si Si3 0.176326 0.940968 0.607892
Si Si4 0.013479 0.068813 0.899525
Si Si5 0.546006 0.555049 0.252738
O O1 0.496078 0.790299 0.020055
O O2 0.846561 0.682197 0.678120
O O3 0.653185 0.846182 0.737840
O O4 0.364338 0.664475 0.975359
O O5 0.500000 0.500000 0.500000
O O6 0.523954 0.434044 0.319772
O O7 0.098528 0.398479 0.722485
O O8 0.171600 0.000325 0.708828
O O9 0.275307 0.034180 0.464349
O O10 0.732996 0.098026 0.070301
O O11 0.000000 0.000000 0.000000
#
# Coordination Sequence:
#
# PCOD8127893 Si02
#       5
#     4   4   4   4   4
#     4  11  22  41  66  94 126 173 202 260 331 362
#     4   9  22  43  62  92 129 158 212 260 309 377
#     4  11  23  43  65  91 127 167 211 260 315 379
#     4  11  23  44  61  92 130 162 214 264 307 380
#     4  10  23  43  64  95 128 162 217 264 306 389
#
# _framework density 21.616268999999999
#
# number of rings (size 3 to 8) (size 9 to 14) (size 15 to 20)
#    0.000    1.600    2.000    1.800    0.000    4.800 
#   14.400    0.000    0.000    0.000    0.000    0.000 
#    0.000    0.000    0.000    0.000    0.000    0.000 
#
# Total GULP energy -247921.762672 kJ/mol
# GULP energy per Si atom -12396.088134 kJ/mol
# Density = 2.156707 g / cm^3
# Si number density = 21.616269 Si / 1000 Ang^3
#
#
#
# Elastic Constant Matrix: (Units=GPa)
#
#
# Indices 1 2 3 4 5 6 
#
# 1 117.4937 51.6149 33.8092 0.0000 16.0811 0.0000
# 2 51.6149 108.2097 24.9377 0.0000 17.9064 0.0000
# 3 33.8092 24.9377 61.7991 0.0000 33.8306 0.0000
# 4 0.0000 0.0000 0.0000 26.1334 0.0000 2.8638
# 5 16.0811 17.9064 33.8306 0.0000 39.3703 0.0000
# 6 0.0000 0.0000 0.0000 2.8638 0.0000 51.5515
#
#
#
# Elastic Compliance Matrix: (Units=1/GPa)
#
#
# Indices 1 2 3 4 5 6 
#
# 1 0.011976 -0.004736 -0.005933 0.000000 0.002360 0.000000
# 2 -0.004736 0.012152 -0.000654 0.000000 -0.003031 0.000000
# 3 -0.005933 -0.000654 0.034369 0.000000 -0.026812 0.000000
# 4 0.000000 0.000000 0.000000 0.038500 0.000000 -0.002139
# 5 0.002360 -0.003031 -0.026812 0.000000 0.048854 0.000000
# 6 0.000000 0.000000 0.000000 -0.002139 0.000000 0.019517
#
#
# Mechanical properties :
#
#
# Convention : Reuss Voigt Hill
#
# Bulk Modulus (GPa) = 27.89218 56.46955 42.18087
# Shear Modulus (GPa) = 25.00480 35.22046 30.11263
#
# Velocity S-wave (km/s) = 3.40481 4.04090 3.73641
# Velocity P-wave (km/s) = 5.32806 6.92475 6.17821
#
# Compressibility (1/GPa) = 0.03585234
#
# Stress axis : x y z
#
# Youngs Moduli (GPa) = 83.50363 82.28854 29.09628
#
# Poissons Ratio (x) = 0.38968 0.17262
# Poissons Ratio (y) = 0.39543 0.01902
# Poissons Ratio (z) = 0.49541 0.05380
#
# Static dielectric constant tensor:
#      x y z
#    x 5.454660 0.000000 -0.347820 
#    y 0.000000 4.003630 0.000000 
#    z -0.347820 0.000000 3.972850 
# 
# 
# High freq. dielectric constant tensor:
#      x y z
#    x 1.878680 0.000000 -0.001910 
#    y 0.000000 1.845080 0.000000 
#    z -0.001910 0.000000 1.835010 
# 
# From -- ./inp_files/44211.got.cif
#   From: 2010.03.12/outbox.cif.g09.slc.cpg/sg14_23_cif.got.tgz:44211.got - 2010.03.31 13:35:05.
