data_PCOD8127114
_publ_section_title
;
Structure prediction by ZEFSAII (Michael W. Deem and Ramdas Pophale) SiO2 
 PCOD8127114
Probable space group: P 21/C
;
_chemical_formula_sum "Si O2"
_cell_formula_units_Z 28
_cell_length_a 19.160928
_cell_length_b 7.636905
_cell_length_c 25.244046
_cell_angle_alpha 90.000000
_cell_angle_beta 20.373648
_cell_angle_gamma 90.000000
_cell_volume 1286.020737
_symmetry_space_group_name_H-M "P 21/C"
_symmetry_group_IT_number 14
_symmetry_cell_setting 'monoclinic'
loop_
_space_group_symop_operation_xyz
x,y,z
-x,1/2+y,1/2-z
-x,-y,-z
x,1/2-y,1/2+z
loop_
_atom_site_type_symbol
_atom_site_label
_atom_site_fract_x
_atom_site_fract_y
_atom_site_fract_z
Si Si1 0.705195 0.205096 0.157540
Si Si2 0.141731 0.857938 0.648282
Si Si3 0.675134 0.239464 0.795184
Si Si4 0.915399 0.547157 0.658909
Si Si5 0.022539 0.799564 0.336080
Si Si6 0.648910 0.057124 0.597644
Si Si7 0.770344 0.724323 0.861279
O O1 0.694468 0.314862 0.219953
O O2 0.636153 0.332036 0.159922
O O3 0.560762 0.037644 0.262654
O O4 0.933006 0.140037 0.989153
O O5 0.139196 0.711738 0.696404
O O6 0.301434 0.813693 0.487515
O O7 0.921724 0.868564 0.777266
O O8 0.204047 0.046170 0.624927
O O9 0.735302 0.447008 0.756270
O O10 0.824939 0.128238 0.726863
O O11 0.453028 0.204374 0.974002
O O12 0.037564 0.402375 0.607017
O O13 0.819016 0.695426 0.764863
O O14 0.824310 0.913008 0.475342
#
# Coordination Sequence:
#
# PCOD8127114 Si02
#       7
#     4   4   4   4   4   4   4
#     4  12  23  40  65  92 129 170 213 258 319 377
#     4  11  20  38  66  93 124 159 217 264 309 368
#     4  10  22  39  64  89 131 167 207 262 318 382
#     4   9  21  37  63  92 121 167 213 256 310 379
#     4   9  22  39  63  91 127 162 212 263 312 374
#     4  12  24  41  64  96 129 171 214 264 316 380
#     4  11  20  39  67  92 123 169 210 269 312 371
#
# _framework density 21.772589
#
# number of rings (size 3 to 8) (size 9 to 14) (size 15 to 20)
#    0.857    0.571    4.286    1.714    0.000    1.714 
#    0.000    0.714    3.143    0.000    0.000    0.000 
#    0.000    0.000    0.000    0.000    0.000    0.000 
#
# Total GULP energy -347016.691823 kJ/mol
# GULP energy per Si atom -12393.453279 kJ/mol
# Density = 2.172303 g / cm^3
# Si number density = 21.772589 Si / 1000 Ang^3
#
#
#
# Elastic Constant Matrix: (Units=GPa)
#
#
# Indices 1 2 3 4 5 6 
#
# 1 87.5121 -0.9978 41.9692 0.0000 31.0252 0.0000
# 2 -0.9978 19.3207 4.7974 0.0000 10.3974 0.0000
# 3 41.9692 4.7974 130.2740 0.0000 22.9091 0.0000
# 4 0.0000 0.0000 0.0000 26.8987 0.0000 0.3334
# 5 31.0252 10.3974 22.9091 0.0000 30.6808 0.0000
# 6 0.0000 0.0000 0.0000 0.3334 0.0000 26.4942
#
#
#
# Elastic Compliance Matrix: (Units=1/GPa)
#
#
# Indices 1 2 3 4 5 6 
#
# 1 0.022080 0.015478 -0.003263 0.000000 -0.025136 0.000000
# 2 0.015478 0.074465 -0.000620 0.000000 -0.040424 0.000000
# 3 -0.003263 -0.000620 0.009362 0.000000 -0.003481 0.000000
# 4 0.000000 0.000000 0.000000 0.037182 0.000000 -0.000468
# 5 -0.025136 -0.040424 -0.003481 0.000000 0.074311 0.000000
# 6 0.000000 0.000000 0.000000 -0.000468 0.000000 0.037750
#
#
# Mechanical properties :
#
#
# Convention : Reuss Voigt Hill
#
# Bulk Modulus (GPa) = 7.74611 36.51607 22.13109
# Shear Modulus (GPa) = 18.18226 29.57059 23.87643
#
# Velocity S-wave (km/s) = 2.89294 3.68932 3.31513
# Velocity P-wave (km/s) = 3.83722 5.91236 4.98399
#
# Compressibility (1/GPa) = 0.12909702
#
# Stress axis : x y z
#
# Youngs Moduli (GPa) = 45.29028 13.42909 106.81128
#
# Poissons Ratio (x) = -0.20785 0.34851
# Poissons Ratio (y) = -0.70098 0.06620
# Poissons Ratio (z) = 0.14778 0.00832
#
# Static dielectric constant tensor:
#      x y z
#    x 4.134950 0.000000 0.259490 
#    y 0.000000 3.582160 0.000000 
#    z 0.259490 0.000000 3.949510 
# 
# 
# High freq. dielectric constant tensor:
#      x y z
#    x 1.864970 0.000000 0.014540 
#    y 0.000000 1.820390 0.000000 
#    z 0.014540 0.000000 1.855630 
# 
# From -- ./inp_files/77910.got.cif
#   From: 2010.03.12/outbox.cif.g09.slc.cpg/sg14_39_cif.got.tgz:77910.got - 2010.03.31 13:35:05.
