data_PCOD8127939
_publ_section_title
;
Structure prediction by ZEFSAII (Michael W. Deem and Ramdas Pophale) SiO2 
 PCOD8127939
Probable space group: P 21/C
;
_chemical_formula_sum "Si O2"
_cell_formula_units_Z 28
_cell_length_a 5.372758
_cell_length_b 13.655351
_cell_length_c 16.735219
_cell_angle_alpha 90.000000
_cell_angle_beta 60.135339
_cell_angle_gamma 90.000000
_cell_volume 1064.762729
_symmetry_space_group_name_H-M "P 21/C"
_symmetry_group_IT_number 14
_symmetry_cell_setting 'monoclinic'
loop_
_space_group_symop_operation_xyz
x,y,z
-x,1/2+y,1/2-z
-x,-y,-z
x,1/2-y,1/2+z
loop_
_atom_site_type_symbol
_atom_site_label
_atom_site_fract_x
_atom_site_fract_y
_atom_site_fract_z
Si Si1 0.978883 0.186070 0.119860
Si Si2 0.870808 0.840057 0.285113
Si Si3 0.342887 0.610519 0.957490
Si Si4 0.722748 0.886396 0.537920
Si Si5 0.399334 0.214720 0.289009
Si Si6 0.172715 0.517144 0.630812
Si Si7 0.733475 0.615276 0.579881
O O1 0.636505 0.179078 0.187316
O O2 0.048338 0.293714 0.143120
O O3 0.137506 0.099527 0.144639
O O4 0.082361 0.179371 0.011922
O O5 0.547766 0.881406 0.347520
O O6 0.876440 0.751990 0.217959
O O7 0.069300 0.931143 0.229275
O O8 0.264449 0.498915 0.990259
O O9 0.490141 0.661027 0.013242
O O10 0.043048 0.662674 0.981324
O O11 0.642519 0.876026 0.644419
O O12 0.461672 0.310200 0.335836
O O13 0.512171 0.544215 0.567325
O O14 0.965130 0.551626 0.591751
#
# Coordination Sequence:
#
# PCOD8127939 Si02
#       7
#     4   4   4   4   4   4   4
#     4  12  26  45  76 101 141 196 235 289 362 417
#     4  11  26  43  69 106 143 184 239 290 353 418
#     4  10  23  43  70 100 137 182 229 290 350 413
#     4  10  23  44  69 100 138 182 230 287 351 415
#     4  11  26  43  67 106 139 186 232 292 345 424
#     4  11  26  49  69 106 145 184 237 298 343 422
#     4  11  26  47  72 102 146 181 241 288 350 417
#
# _framework density 26.296935999999999
#
# number of rings (size 3 to 8) (size 9 to 14) (size 15 to 20)
#    0.000    1.143    1.429    2.571   10.000    1.143 
#    2.571    0.000    0.000    0.000    0.000    0.000 
#    0.000    0.000    0.000    0.000    0.000    0.000 
#
# Total GULP energy -346935.107845 kJ/mol
# GULP energy per Si atom -12390.539566 kJ/mol
# Density = 2.623708 g / cm^3
# Si number density = 26.296936 Si / 1000 Ang^3
#
#
#
# Elastic Constant Matrix: (Units=GPa)
#
#
# Indices 1 2 3 4 5 6 
#
# 1 142.9716 12.1699 19.5558 0.0000 1.4697 0.0000
# 2 12.1699 54.0828 -1.7722 0.0000 3.4259 0.0000
# 3 19.5558 -1.7722 100.2312 0.0000 4.7774 0.0000
# 4 0.0000 0.0000 0.0000 41.8304 0.0000 3.3227
# 5 1.4697 3.4259 4.7774 0.0000 34.4235 0.0000
# 6 0.0000 0.0000 0.0000 3.3227 0.0000 33.5817
#
#
#
# Elastic Compliance Matrix: (Units=1/GPa)
#
#
# Indices 1 2 3 4 5 6 
#
# 1 0.007339 -0.001703 -0.001465 0.000000 0.000059 0.000000
# 2 -0.001703 0.019020 0.000760 0.000000 -0.001926 0.000000
# 3 -0.001465 0.000760 0.010345 0.000000 -0.001449 0.000000
# 4 0.000000 0.000000 0.000000 0.024095 0.000000 -0.002384
# 5 0.000059 -0.001926 -0.001449 0.000000 0.029440 0.000000
# 6 0.000000 0.000000 0.000000 -0.002384 0.000000 0.030014
#
#
# Mechanical properties :
#
#
# Convention : Reuss Voigt Hill
#
# Bulk Modulus (GPa) = 31.35846 39.68806 35.52326
# Shear Modulus (GPa) = 36.84613 39.78926 38.31770
#
# Velocity S-wave (km/s) = 3.74726 3.89405 3.82136
# Velocity P-wave (km/s) = 5.53835 5.94501 5.74528
#
# Compressibility (1/GPa) = 0.03188932
#
# Stress axis : x y z
#
# Youngs Moduli (GPa) = 136.25593 52.57529 96.66278
#
# Poissons Ratio (x) = 0.08955 0.14160
# Poissons Ratio (y) = 0.23208 -0.07350
# Poissons Ratio (z) = 0.19960 -0.03998
#
# Static dielectric constant tensor:
#      x y z
#    x 4.861910 0.000000 -0.032400 
#    y 0.000000 4.682750 0.000000 
#    z -0.032400 0.000000 4.761990 
# 
# 
# High freq. dielectric constant tensor:
#      x y z
#    x 2.054320 0.000000 0.001430 
#    y 0.000000 2.052820 0.000000 
#    z 0.001430 0.000000 2.059490 
# 
# From -- ./inp_files/53271.got.cif
#   From: 2010.03.12/outbox.cif.g09.slc.cpg/sg14_27_cif.got.tgz:53271.got - 2010.03.31 13:35:05.
