data_PCOD8127910
_publ_section_title
;
Structure prediction by ZEFSAII (Michael W. Deem and Ramdas Pophale) SiO2 
 PCOD8127910
Probable space group: P 21/C
;
_chemical_formula_sum "Si O2"
_cell_formula_units_Z 20
_cell_length_a 11.088556
_cell_length_b 16.771976
_cell_length_c 4.960342
_cell_angle_alpha 90.000000
_cell_angle_beta 65.174689
_cell_angle_gamma 90.000000
_cell_volume 837.262328
_symmetry_space_group_name_H-M "P 21/C"
_symmetry_group_IT_number 14
_symmetry_cell_setting 'monoclinic'
loop_
_space_group_symop_operation_xyz
x,y,z
-x,1/2+y,1/2-z
-x,-y,-z
x,1/2-y,1/2+z
loop_
_atom_site_type_symbol
_atom_site_label
_atom_site_fract_x
_atom_site_fract_y
_atom_site_fract_z
Si Si1 0.058564 0.196520 0.576419
Si Si2 0.664537 0.804398 0.320905
Si Si3 0.135109 0.598824 0.485528
Si Si4 0.133714 0.422057 0.596638
Si Si5 0.637753 0.301570 0.955323
O O1 0.089194 0.271865 0.353331
O O2 0.136031 0.118249 0.393014
O O3 0.904892 0.166444 0.751812
O O4 0.697370 0.769559 0.587853
O O5 0.512813 0.832395 0.438895
O O6 0.752770 0.882946 0.196300
O O7 0.165767 0.515278 0.603398
O O8 0.010676 0.590375 0.400270
O O9 0.264571 0.625680 0.200870
O O10 0.661327 0.274073 0.238560
#
# Coordination Sequence:
#
# PCOD8127910 Si02
#       5
#     4   4   4   4   4
#     4  12  23  40  63  90 124 168 214 258 311 368
#     4  10  23  43  66  93 125 168 220 264 311 378
#     4  11  25  42  64  99 136 168 210 264 326 385
#     4  11  25  42  64  99 136 168 210 264 326 385
#     4  10  23  43  66  93 125 168 220 264 311 378
#
# _framework density 23.887377000000001
#
# number of rings (size 3 to 8) (size 9 to 14) (size 15 to 20)
#    0.000    1.200    2.000    3.000    5.600    0.800 
#    0.000    0.000    0.000    7.200    0.000    0.000 
#    0.000    0.000    0.000    0.000    0.000    0.000 
#
# Total GULP energy -247896.202655 kJ/mol
# GULP energy per Si atom -12394.810133 kJ/mol
# Density = 2.383301 g / cm^3
# Si number density = 23.887377 Si / 1000 Ang^3
#
#
#
# Elastic Constant Matrix: (Units=GPa)
#
#
# Indices 1 2 3 4 5 6 
#
# 1 96.6669 35.5882 41.1306 0.0000 -19.7825 0.0000
# 2 35.5882 96.8355 34.0035 0.0000 -18.7028 0.0000
# 3 41.1306 34.0035 121.4087 0.0000 -15.4977 0.0000
# 4 0.0000 0.0000 0.0000 35.0635 0.0000 -6.0706
# 5 -19.7825 -18.7028 -15.4977 0.0000 46.0106 0.0000
# 6 0.0000 0.0000 0.0000 -6.0706 0.0000 24.9896
#
#
#
# Elastic Compliance Matrix: (Units=1/GPa)
#
#
# Indices 1 2 3 4 5 6 
#
# 1 0.013621 -0.003186 -0.003281 0.000000 0.003456 0.000000
# 2 -0.003186 0.012848 -0.002118 0.000000 0.003139 0.000000
# 3 -0.003281 -0.002118 0.010085 0.000000 0.001125 0.000000
# 4 0.000000 0.000000 0.000000 0.029772 0.000000 0.007232
# 5 0.003456 0.003139 0.001125 0.000000 0.024875 0.000000
# 6 0.000000 0.000000 0.000000 0.007232 0.000000 0.041774
#
#
# Mechanical properties :
#
#
# Convention : Reuss Voigt Hill
#
# Bulk Modulus (GPa) = 51.59131 59.59507 55.59319
# Shear Modulus (GPa) = 31.92713 34.82533 33.37623
#
# Velocity S-wave (km/s) = 3.65988 3.82238 3.74201
# Velocity P-wave (km/s) = 6.28524 6.66958 6.48026
#
# Compressibility (1/GPa) = 0.01938311
#
# Stress axis : x y z
#
# Youngs Moduli (GPa) = 73.41526 77.83390 99.15663
#
# Poissons Ratio (x) = 0.24800 0.32533
# Poissons Ratio (y) = 0.23392 0.21003
# Poissons Ratio (z) = 0.24087 0.16487
#
# Static dielectric constant tensor:
#      x y z
#    x 4.348790 0.000000 -0.285500 
#    y 0.000000 4.420960 0.000000 
#    z -0.285500 0.000000 4.777970 
# 
# 
# High freq. dielectric constant tensor:
#      x y z
#    x 1.944890 0.000000 -0.010710 
#    y 0.000000 1.931630 0.000000 
#    z -0.010710 0.000000 1.974070 
# 
# From -- ./inp_files/2592.got.cif
#   From: 2010.03.12/outbox.cif.g09.slc.cpg/sg14_2_cif.got.tgz:2592.got - 2010.03.31 13:35:05.
