data_PCOD8127890
_publ_section_title
;
Structure prediction by ZEFSAII (Michael W. Deem and Ramdas Pophale) SiO2 
 PCOD8127890
Probable space group: P 21/C
;
_chemical_formula_sum "Si O2"
_cell_formula_units_Z 24
_cell_length_a 9.408689
_cell_length_b 19.429137
_cell_length_c 9.069490
_cell_angle_alpha 90.000000
_cell_angle_beta 42.044973
_cell_angle_gamma 90.000000
_cell_volume 1110.336669
_symmetry_space_group_name_H-M "P 21/C"
_symmetry_group_IT_number 14
_symmetry_cell_setting 'monoclinic'
loop_
_space_group_symop_operation_xyz
x,y,z
-x,1/2+y,1/2-z
-x,-y,-z
x,1/2-y,1/2+z
loop_
_atom_site_type_symbol
_atom_site_label
_atom_site_fract_x
_atom_site_fract_y
_atom_site_fract_z
Si Si1 0.942672 0.465960 0.697131
Si Si2 0.814834 0.254104 0.023683
Si Si3 0.677462 0.034583 0.962059
Si Si4 0.367505 0.425642 0.949651
Si Si5 0.334677 0.658923 0.111761
Si Si6 0.026084 0.843581 0.346362
O O1 0.883018 0.386137 0.725674
O O2 0.143762 0.476229 0.649363
O O3 0.000000 0.500000 0.500000
O O4 0.736071 0.502917 0.923276
O O5 0.650965 0.298869 0.051287
O O6 0.966124 0.303231 0.004962
O O7 0.957468 0.207834 0.805416
O O8 0.673115 0.208829 0.241453
O O9 0.783750 0.100552 0.802145
O O10 0.799177 0.880112 0.512895
O O11 0.576281 0.059702 0.192767
O O12 0.500000 0.000000 0.000000
O O13 0.452830 0.386427 0.030509
#
# Coordination Sequence:
#
# PCOD8127890 Si02
#       6
#     4   4   4   4   4   4
#     4  11  23  41  67  98 130 164 214 278 325 386
#     4  10  23  43  64  89 133 176 211 268 307 394
#     4  11  25  41  66  99 130 165 218 275 332 381
#     4  11  23  41  69  96 128 169 216 274 330 384
#     4  11  22  42  66  94 129 170 220 258 329 383
#     4  10  23  44  64  94 133 164 222 263 321 388
#
# _framework density 21.615065000000001
#
# number of rings (size 3 to 8) (size 9 to 14) (size 15 to 20)
#    0.000    1.333    3.333    1.500    4.667    2.667 
#    0.000    0.000    0.000    0.000    0.000    0.000 
#    0.000    0.000    0.000    0.000    0.000    0.000 
#
# Total GULP energy -297652.861917 kJ/mol
# GULP energy per Si atom -12402.202580 kJ/mol
# Density = 2.156587 g / cm^3
# Si number density = 21.615065 Si / 1000 Ang^3
#
#
#
# Elastic Constant Matrix: (Units=GPa)
#
#
# Indices 1 2 3 4 5 6 
#
# 1 130.7514 70.7644 41.2586 0.0000 3.4097 0.0000
# 2 70.7644 111.9837 35.2500 0.0000 6.9053 0.0000
# 3 41.2586 35.2500 70.0952 0.0000 9.2746 0.0000
# 4 0.0000 0.0000 0.0000 18.9035 0.0000 15.6054
# 5 3.4097 6.9053 9.2746 0.0000 39.2164 0.0000
# 6 0.0000 0.0000 0.0000 15.6054 0.0000 40.6575
#
#
#
# Elastic Compliance Matrix: (Units=1/GPa)
#
#
# Indices 1 2 3 4 5 6 
#
# 1 0.012555 -0.006688 -0.004169 0.000000 0.001072 0.000000
# 2 -0.006688 0.014186 -0.003039 0.000000 -0.001198 0.000000
# 3 -0.004169 -0.003039 0.018715 0.000000 -0.003529 0.000000
# 4 0.000000 0.000000 0.000000 0.077437 0.000000 -0.029722
# 5 0.001072 -0.001198 -0.003529 0.000000 0.026452 0.000000
# 6 0.000000 0.000000 0.000000 -0.029722 0.000000 0.036004
#
#
# Mechanical properties :
#
#
# Convention : Reuss Voigt Hill
#
# Bulk Modulus (GPa) = 56.60735 67.48628 62.04682
# Shear Modulus (GPa) = 22.82798 30.79262 26.81030
#
# Velocity S-wave (km/s) = 3.25332 3.77847 3.52568
# Velocity P-wave (km/s) = 6.35278 7.09404 6.73362
#
# Compressibility (1/GPa) = 0.01766555
#
# Stress axis : x y z
#
# Youngs Moduli (GPa) = 79.64957 70.48979 53.43205
#
# Poissons Ratio (x) = 0.47141 0.22274
# Poissons Ratio (y) = 0.53266 0.16240
# Poissons Ratio (z) = 0.33203 0.21424
#
# Static dielectric constant tensor:
#      x y z
#    x 3.464580 0.000000 -0.337250 
#    y 0.000000 7.457990 0.000000 
#    z -0.337250 0.000000 3.286100 
# 
# 
# High freq. dielectric constant tensor:
#      x y z
#    x 1.857260 0.000000 0.013710 
#    y 0.000000 1.860970 0.000000 
#    z 0.013710 0.000000 1.833180 
# 
# From -- ./inp_files/16493.got.cif
#   From: 2010.03.12/outbox.cif.g09.slc.cpg/sg14_9_cif.got.tgz:16493.got - 2010.03.31 13:35:05.
