data_PCOD8127536
_publ_section_title
;
Structure prediction by ZEFSAII (Michael W. Deem and Ramdas Pophale) SiO2 
 PCOD8127536
Probable space group: P 21/C
;
_chemical_formula_sum "Si O2"
_cell_formula_units_Z 32
_cell_length_a 13.503049
_cell_length_b 11.775762
_cell_length_c 14.591195
_cell_angle_alpha 90.000000
_cell_angle_beta 139.855993
_cell_angle_gamma 90.000000
_cell_volume 1495.811169
_symmetry_space_group_name_H-M "P 21/C"
_symmetry_group_IT_number 14
_symmetry_cell_setting 'monoclinic'
loop_
_space_group_symop_operation_xyz
x,y,z
-x,1/2+y,1/2-z
-x,-y,-z
x,1/2-y,1/2+z
loop_
_atom_site_type_symbol
_atom_site_label
_atom_site_fract_x
_atom_site_fract_y
_atom_site_fract_z
Si Si1 0.789300 0.760515 0.821478
Si Si2 0.858443 0.999691 0.832544
Si Si3 0.478728 0.966643 0.381949
Si Si4 0.538199 0.280591 0.635865
Si Si5 0.241786 0.829510 0.865418
Si Si6 0.551416 0.306915 0.853130
Si Si7 0.969472 0.689819 0.633084
Si Si8 0.750074 0.599200 0.632014
O O1 0.822883 0.868986 0.778603
O O2 0.617280 0.764126 0.739204
O O3 0.811094 0.649169 0.772793
O O4 0.904039 0.765908 0.989236
O O5 0.702465 0.041329 0.772997
O O6 0.909852 0.083506 0.787586
O O7 0.000000 0.000000 0.000000
O O8 0.547790 0.841382 0.417096
O O9 0.500000 0.000000 0.500000
O O10 0.572976 0.060372 0.392755
O O11 0.688504 0.276128 0.678365
O O12 0.587327 0.313553 0.771759
O O13 0.427581 0.369680 0.507579
O O14 0.064137 0.792626 0.744883
O O15 0.240540 0.964638 0.862406
O O16 0.329142 0.778613 0.015252
O O17 0.835065 0.652444 0.605096
#
# Coordination Sequence:
#
# PCOD8127536 Si02
#       8
#     4   4   4   4   4   4   4   4
#     4  10  22  43  70  99 139 179 230 283 342 409
#     4   9  19  37  68  92 129 168 225 282 325 395
#     4  11  20  42  68  97 132 178 230 283 327 399
#     4  12  24  43  72 102 138 182 229 288 339 408
#     4  12  27  47  69 104 145 175 236 288 349 411
#     4  11  24  41  71 107 133 186 234 276 343 409
#     4  11  24  46  67 103 134 183 232 283 346 420
#     4  12  27  44  71 100 143 188 220 291 360 407
#
# _framework density 21.393073999999999
#
# number of rings (size 3 to 8) (size 9 to 14) (size 15 to 20)
#    0.000    1.000    5.000    1.125    3.500    1.500 
#    0.000    0.000    0.000    0.000    0.000    0.000 
#    0.000    0.000    0.000    0.000    0.000    0.000 
#
# Total GULP energy -396644.806994 kJ/mol
# GULP energy per Si atom -12395.150219 kJ/mol
# Density = 2.134438 g / cm^3
# Si number density = 21.393074 Si / 1000 Ang^3
#
#
#
# Elastic Constant Matrix: (Units=GPa)
#
#
# Indices 1 2 3 4 5 6 
#
# 1 55.5474 9.1669 23.7233 0.0000 -16.8013 0.0000
# 2 9.1669 135.9040 41.1444 0.0000 -6.6006 0.0000
# 3 23.7233 41.1444 117.8589 0.0000 -7.2419 0.0000
# 4 0.0000 0.0000 0.0000 29.7110 0.0000 1.2978
# 5 -16.8013 -6.6006 -7.2419 0.0000 35.3427 0.0000
# 6 0.0000 0.0000 0.0000 1.2978 0.0000 27.5767
#
#
#
# Elastic Compliance Matrix: (Units=1/GPa)
#
#
# Indices 1 2 3 4 5 6 
#
# 1 0.022717 0.000170 -0.004017 0.000000 0.010008 0.000000
# 2 0.000170 0.008261 -0.002854 0.000000 0.001039 0.000000
# 3 -0.004017 -0.002854 0.010269 0.000000 -0.000339 0.000000
# 4 0.000000 0.000000 0.000000 0.033727 0.000000 -0.001587
# 5 0.010008 0.001039 -0.000339 0.000000 0.033177 0.000000
# 6 0.000000 0.000000 0.000000 -0.001587 0.000000 0.036337
#
#
# Mechanical properties :
#
#
# Convention : Reuss Voigt Hill
#
# Bulk Modulus (GPa) = 35.91373 50.81997 43.36685
# Shear Modulus (GPa) = 29.90917 34.21112 32.06015
#
# Velocity S-wave (km/s) = 3.74314 4.00330 3.87540
# Velocity P-wave (km/s) = 5.95865 6.72127 6.35141
#
# Compressibility (1/GPa) = 0.02784450
#
# Stress axis : x y z
#
# Youngs Moduli (GPa) = 44.01933 121.04661 97.38097
#
# Poissons Ratio (x) = -0.02057 0.39118
# Poissons Ratio (y) = -0.00748 0.27796
# Poissons Ratio (z) = 0.17683 0.34551
#
# Static dielectric constant tensor:
#      x y z
#    x 3.595780 0.000000 -0.002080 
#    y 0.000000 4.044300 0.000000 
#    z -0.002080 0.000000 3.750100 
# 
# 
# High freq. dielectric constant tensor:
#      x y z
#    x 1.824280 0.000000 0.003750 
#    y 0.000000 1.850480 0.000000 
#    z 0.003750 0.000000 1.842360 
# 
# From -- ./inp_files/47159.got.cif
#   From: 2010.03.12/outbox.cif.g09.slc.cpg/sg14_24_cif.got.tgz:47159.got - 2010.03.31 13:35:05.
