data_PCOD8127233
_publ_section_title
;
Structure prediction by ZEFSAII (Michael W. Deem and Ramdas Pophale) SiO2 
 PCOD8127233
Probable space group: P 21/C
;
_chemical_formula_sum "Si O2"
_cell_formula_units_Z 32
_cell_length_a 17.767627
_cell_length_b 8.989246
_cell_length_c 18.696295
_cell_angle_alpha 90.000000
_cell_angle_beta 149.917441
_cell_angle_gamma 90.000000
_cell_volume 1496.788175
_symmetry_space_group_name_H-M "P 21/C"
_symmetry_group_IT_number 14
_symmetry_cell_setting 'monoclinic'
loop_
_space_group_symop_operation_xyz
x,y,z
-x,1/2+y,1/2-z
-x,-y,-z
x,1/2-y,1/2+z
loop_
_atom_site_type_symbol
_atom_site_label
_atom_site_fract_x
_atom_site_fract_y
_atom_site_fract_z
Si Si1 0.390482 0.277866 0.489665
Si Si2 0.857614 0.300043 0.998079
Si Si3 0.364816 0.063000 0.112624
Si Si4 0.271079 0.752992 0.760866
Si Si5 0.597729 0.218316 0.387285
Si Si6 0.129697 0.003789 0.737895
Si Si7 0.736630 0.049586 0.622241
Si Si8 0.945331 0.032208 0.161745
O O1 0.407224 0.323920 0.585281
O O2 0.554608 0.300883 0.590733
O O3 0.264000 0.375397 0.346160
O O4 0.347174 0.105833 0.451511
O O5 0.954587 0.184442 0.125074
O O6 0.973609 0.432335 0.078322
O O7 0.791881 0.231749 0.870852
O O8 0.716508 0.353203 0.929143
O O9 0.443225 0.128971 0.247431
O O10 0.416886 0.895249 0.135441
O O11 0.186686 0.067764 0.981593
O O12 0.249058 0.595197 0.782992
O O13 0.171042 0.872828 0.719092
O O14 0.643440 0.180204 0.505955
O O15 0.102105 0.939715 0.794917
O O16 0.897019 0.048943 0.714526
#
# Coordination Sequence:
#
# PCOD8127233 Si02
#       8
#     4   4   4   4   4   4   4   4
#     4  11  23  44  66  93 137 178 222 272 336 395
#     4  11  22  44  66  95 141 167 218 278 332 395
#     4  10  22  40  68 101 131 168 221 284 327 392
#     4  12  26  42  64  98 135 179 218 277 337 403
#     4  11  22  42  68 101 130 171 223 276 331 396
#     4  11  23  43  72  97 128 177 228 274 334 399
#     4  12  24  43  69  95 133 177 227 271 335 399
#     4  10  23  42  70  97 127 172 223 276 326 393
#
# _framework density 21.379111999999999
#
# number of rings (size 3 to 8) (size 9 to 14) (size 15 to 20)
#    0.000    1.000    3.750    4.125    1.750    0.500 
#    2.250    0.000    0.000    0.000    0.000    0.000 
#    0.000    0.000    0.000    0.000    0.000    0.000 
#
# Total GULP energy -396813.421075 kJ/mol
# GULP energy per Si atom -12400.419409 kJ/mol
# Density = 2.133045 g / cm^3
# Si number density = 21.379112 Si / 1000 Ang^3
#
#
#
# Elastic Constant Matrix: (Units=GPa)
#
#
# Indices 1 2 3 4 5 6 
#
# 1 84.2778 27.2442 30.6701 0.0000 -0.4370 0.0000
# 2 27.2442 104.7677 37.4621 0.0000 -6.5590 0.0000
# 3 30.6701 37.4621 99.1533 0.0000 -5.0494 0.0000
# 4 0.0000 0.0000 0.0000 33.9774 0.0000 -5.6792
# 5 -0.4370 -6.5590 -5.0494 0.0000 34.3992 0.0000
# 6 0.0000 0.0000 0.0000 -5.6792 0.0000 31.3312
#
#
#
# Elastic Compliance Matrix: (Units=1/GPa)
#
#
# Indices 1 2 3 4 5 6 
#
# 1 0.013893 -0.002441 -0.003415 0.000000 -0.000790 0.000000
# 2 -0.002441 0.011542 -0.003522 0.000000 0.001653 0.000000
# 3 -0.003415 -0.003522 0.012530 0.000000 0.001124 0.000000
# 4 0.000000 0.000000 0.000000 0.030351 0.000000 0.005501
# 5 -0.000790 0.001653 0.001124 0.000000 0.029541 0.000000
# 6 0.000000 0.000000 0.000000 0.005501 0.000000 0.032914
#
#
# Mechanical properties :
#
#
# Convention : Reuss Voigt Hill
#
# Bulk Modulus (GPa) = 52.05881 53.21686 52.63783
# Shear Modulus (GPa) = 32.06546 32.79640 32.43093
#
# Velocity S-wave (km/s) = 3.87699 3.92093 3.89902
# Velocity P-wave (km/s) = 6.66668 6.74124 6.70406
#
# Compressibility (1/GPa) = 0.01920904
#
# Stress axis : x y z
#
# Youngs Moduli (GPa) = 71.97612 86.63651 79.81037
#
# Poissons Ratio (x) = 0.21149 0.27259
# Poissons Ratio (y) = 0.17570 0.28107
# Poissons Ratio (z) = 0.24583 0.30511
#
# Static dielectric constant tensor:
#      x y z
#    x 3.767790 0.000000 0.062290 
#    y 0.000000 3.708270 0.000000 
#    z 0.062290 0.000000 4.073230 
# 
# 
# High freq. dielectric constant tensor:
#      x y z
#    x 1.828150 0.000000 0.003010 
#    y 0.000000 1.833400 0.000000 
#    z 0.003010 0.000000 1.856120 
# 
# From -- ./inp_files/69176.got.cif
#   From: 2010.03.12/outbox.cif.g09.slc.cpg/sg14_35_cif.got.tgz:69176.got - 2010.03.31 13:35:05.
