data_PCOD8127128
_publ_section_title
;
Structure prediction by ZEFSAII (Michael W. Deem and Ramdas Pophale) SiO2 
 PCOD8127128
Probable space group: P 21/C
;
_chemical_formula_sum "Si O2"
_cell_formula_units_Z 32
_cell_length_a 6.198870
_cell_length_b 27.589756
_cell_length_c 9.965978
_cell_angle_alpha 90.000000
_cell_angle_beta 115.198893
_cell_angle_gamma 90.000000
_cell_volume 1542.232452
_symmetry_space_group_name_H-M "P 21/C"
_symmetry_group_IT_number 14
_symmetry_cell_setting 'monoclinic'
loop_
_space_group_symop_operation_xyz
x,y,z
-x,1/2+y,1/2-z
-x,-y,-z
x,1/2-y,1/2+z
loop_
_atom_site_type_symbol
_atom_site_label
_atom_site_fract_x
_atom_site_fract_y
_atom_site_fract_z
Si Si1 0.710344 0.910711 0.232475
Si Si2 0.992980 0.454795 0.400245
Si Si3 0.777484 0.361118 0.463083
Si Si4 0.942056 0.173646 0.295963
Si Si5 0.820397 0.129656 0.530526
Si Si6 0.646303 0.233043 0.796515
Si Si7 0.455881 0.209892 0.478405
Si Si8 0.441703 0.546788 0.901677
O O1 0.772981 0.950013 0.132541
O O2 0.494525 0.879037 0.118907
O O3 0.655977 0.936235 0.360954
O O4 0.940387 0.876852 0.318410
O O5 0.000000 0.500000 0.500000
O O6 0.956622 0.403930 0.468300
O O7 0.774311 0.467286 0.249023
O O8 0.798020 0.315753 0.366395
O O9 0.845361 0.344777 0.629421
O O10 0.227737 0.179069 0.372227
O O11 0.873691 0.132376 0.385848
O O12 0.830830 0.225499 0.302630
O O13 0.699727 0.179400 0.542572
O O14 0.630343 0.087499 0.509762
O O15 0.441396 0.227588 0.628237
O O16 0.493535 0.245332 0.888277
O O17 0.500000 0.500000 0.000000
#
# Coordination Sequence:
#
# PCOD8127128 Si02
#       8
#     4   4   4   4   4   4   4   4
#     4  10  22  43  68  90 132 178 213 278 331 389
#     4  10  24  41  65  98 134 176 224 276 337 407
#     4  11  24  43  65  98 134 177 226 274 349 398
#     4  11  25  40  65  97 131 175 214 284 331 402
#     4  10  22  42  63  95 128 171 222 266 335 393
#     4  11  23  42  60  96 126 176 223 265 340 405
#     4  11  24  40  65  91 130 168 221 268 330 397
#     4  10  22  39  65  96 127 172 219 271 332 394
#
# _framework density 20.749141000000002
#
# number of rings (size 3 to 8) (size 9 to 14) (size 15 to 20)
#    0.000    1.500    1.250    3.750    1.750   12.000 
#    0.000    0.000    0.000    0.000    0.000    0.000 
#    0.000    0.000    0.000    0.000    0.000    0.000 
#
# Total GULP energy -396745.474538 kJ/mol
# GULP energy per Si atom -12398.296079 kJ/mol
# Density = 2.070192 g / cm^3
# Si number density = 20.749141 Si / 1000 Ang^3
#
#
#
# Elastic Constant Matrix: (Units=GPa)
#
#
# Indices 1 2 3 4 5 6 
#
# 1 105.8828 48.2529 43.4094 0.0000 -11.2392 0.0000
# 2 48.2529 126.6596 65.4167 0.0000 -15.2865 0.0000
# 3 43.4094 65.4167 149.8193 0.0000 -17.1753 0.0000
# 4 0.0000 0.0000 0.0000 46.9742 0.0000 -9.2827
# 5 -11.2392 -15.2865 -17.1753 0.0000 27.0271 0.0000
# 6 0.0000 0.0000 0.0000 -9.2827 0.0000 22.7734
#
#
#
# Elastic Compliance Matrix: (Units=1/GPa)
#
#
# Indices 1 2 3 4 5 6 
#
# 1 0.011916 -0.003407 -0.001745 0.000000 0.001920 0.000000
# 2 -0.003407 0.011426 -0.003692 0.000000 0.002699 0.000000
# 3 -0.001745 -0.003692 0.009136 0.000000 0.002991 0.000000
# 4 0.000000 0.000000 0.000000 0.023153 0.000000 0.009438
# 5 0.001920 0.002699 0.002991 0.000000 0.041226 0.000000
# 6 0.000000 0.000000 0.000000 0.009438 0.000000 0.047758
#
#
# Mechanical properties :
#
#
# Convention : Reuss Voigt Hill
#
# Bulk Modulus (GPa) = 67.61750 77.39106 72.50428
# Shear Modulus (GPa) = 29.89853 34.37378 32.13616
#
# Velocity S-wave (km/s) = 3.80011 4.07460 3.93974
# Velocity P-wave (km/s) = 7.20509 7.71465 7.46422
#
# Compressibility (1/GPa) = 0.01478907
#
# Stress axis : x y z
#
# Youngs Moduli (GPa) = 83.92024 87.52102 109.46277
#
# Poissons Ratio (x) = 0.29815 0.19102
# Poissons Ratio (y) = 0.28589 0.40418
# Poissons Ratio (z) = 0.14645 0.32317
#
# Static dielectric constant tensor:
#      x y z
#    x 3.508780 0.000000 0.644730 
#    y 0.000000 3.749770 0.000000 
#    z 0.644730 0.000000 1.903850 
# 
# 
# High freq. dielectric constant tensor:
#      x y z
#    x 1.812730 0.000000 -0.009710 
#    y 0.000000 1.808920 0.000000 
#    z -0.009710 0.000000 1.824920 
# 
# From -- ./inp_files/7001.got.cif
#   From: 2010.03.12/outbox.cif.g09.slc.cpg/sg14_4_cif.got.tgz:7001.got - 2010.03.31 13:35:05.
