data_PCOD8127811
_publ_section_title
;
Structure prediction by ZEFSAII (Michael W. Deem and Ramdas Pophale) SiO2 
 PCOD8127811
Probable space group: P 21/C
;
_chemical_formula_sum "Si O2"
_cell_formula_units_Z 20
_cell_length_a 4.812530
_cell_length_b 8.566566
_cell_length_c 23.780924
_cell_angle_alpha 90.000000
_cell_angle_beta 130.464238
_cell_angle_gamma 90.000000
_cell_volume 745.908963
_symmetry_space_group_name_H-M "P 21/C"
_symmetry_group_IT_number 14
_symmetry_cell_setting 'monoclinic'
loop_
_space_group_symop_operation_xyz
x,y,z
-x,1/2+y,1/2-z
-x,-y,-z
x,1/2-y,1/2+z
loop_
_atom_site_type_symbol
_atom_site_label
_atom_site_fract_x
_atom_site_fract_y
_atom_site_fract_z
Si Si1 0.468115 0.040419 0.646568
Si Si2 0.491752 0.810326 0.120709
Si Si3 0.798155 0.812264 0.953585
Si Si4 0.962439 0.441292 0.627210
Si Si5 0.227992 0.336267 0.226392
O O1 0.195063 0.135921 0.569453
O O2 0.286250 0.039122 0.684346
O O3 0.838540 0.136328 0.703854
O O4 0.559334 0.874120 0.632146
O O5 0.470728 0.865697 0.184424
O O6 0.836800 0.888969 0.134100
O O7 0.113451 0.840573 0.039601
O O8 0.411337 0.842706 0.932766
O O9 0.836958 0.940115 0.907560
O O10 0.221543 0.344894 0.704737
#
# Coordination Sequence:
#
# PCOD8127811 Si02
#       5
#     4   4   4   4   4
#     4  10  24  43  62  93 132 169 213 271 328 387
#     4  12  23  40  70  96 121 173 223 263 323 396
#     4  10  23  43  63  93 131 166 210 270 327 385
#     4  10  23  42  62  91 131 165 208 267 325 386
#     4  10  24  42  61  91 133 169 211 271 328 384
#
# _framework density 26.812925
#
# number of rings (size 3 to 8) (size 9 to 14) (size 15 to 20)
#    0.000    1.600    0.000    3.000    0.000   12.800 
#    0.000    6.000    0.000    0.000    0.000    0.000 
#    0.000    0.000    0.000    0.000    0.000    0.000 
#
# Total GULP energy -247999.874389 kJ/mol
# GULP energy per Si atom -12399.993719 kJ/mol
# Density = 2.675190 g / cm^3
# Si number density = 26.812925 Si / 1000 Ang^3
#
#
#
# Elastic Constant Matrix: (Units=GPa)
#
#
# Indices 1 2 3 4 5 6 
#
# 1 78.1548 -6.1961 25.1898 0.0000 -3.5907 0.0000
# 2 -6.1961 166.3958 56.1935 0.0000 -9.0767 0.0000
# 3 25.1898 56.1935 178.1598 0.0000 18.4633 0.0000
# 4 0.0000 0.0000 0.0000 45.2216 0.0000 1.9475
# 5 -3.5907 -9.0767 18.4633 0.0000 25.9297 0.0000
# 6 0.0000 0.0000 0.0000 1.9475 0.0000 38.7179
#
#
#
# Elastic Compliance Matrix: (Units=1/GPa)
#
#
# Indices 1 2 3 4 5 6 
#
# 1 0.014150 0.001826 -0.003072 0.000000 0.004786 0.000000
# 2 0.001826 0.007408 -0.003120 0.000000 0.005067 0.000000
# 3 -0.003072 -0.003120 0.007761 0.000000 -0.007044 0.000000
# 4 0.000000 0.000000 0.000000 0.022161 0.000000 -0.001115
# 5 0.004786 0.005067 -0.007044 0.000000 0.046018 0.000000
# 6 0.000000 0.000000 0.000000 -0.001115 0.000000 0.025884
#
#
# Mechanical properties :
#
#
# Convention : Reuss Voigt Hill
#
# Bulk Modulus (GPa) = 48.57702 63.67609 56.12655
# Shear Modulus (GPa) = 35.97698 45.14203 40.55950
#
# Velocity S-wave (km/s) = 3.66700 4.10761 3.89354
# Velocity P-wave (km/s) = 6.00712 6.80415 6.41802
#
# Compressibility (1/GPa) = 0.02058587
#
# Stress axis : x y z
#
# Youngs Moduli (GPa) = 70.67119 134.99416 128.84362
#
# Poissons Ratio (x) = -0.24645 0.39587
# Poissons Ratio (y) = -0.12902 0.40196
# Poissons Ratio (z) = 0.21714 0.42115
#
# Static dielectric constant tensor:
#      x y z
#    x 4.661300 0.000000 0.040510 
#    y 0.000000 5.038140 0.000000 
#    z 0.040510 0.000000 4.879120 
# 
# 
# High freq. dielectric constant tensor:
#      x y z
#    x 2.080400 0.000000 0.002880 
#    y 0.000000 2.095690 0.000000 
#    z 0.002880 0.000000 2.085360 
# 
# From -- ./inp_files/62888.got.cif
#   From: 2010.03.12/outbox.cif.g09.slc.cpg/sg14_32_cif.got.tgz:62888.got - 2010.03.31 13:35:05.
