data_PCOD8127663
_publ_section_title
;
Structure prediction by ZEFSAII (Michael W. Deem and Ramdas Pophale) SiO2 
 PCOD8127663
Probable space group: P 21/C
;
_chemical_formula_sum "Si O2"
_cell_formula_units_Z 20
_cell_length_a 18.253386
_cell_length_b 8.099719
_cell_length_c 13.518725
_cell_angle_alpha 90.000000
_cell_angle_beta 21.057126
_cell_angle_gamma 90.000000
_cell_volume 718.132582
_symmetry_space_group_name_H-M "P 21/C"
_symmetry_group_IT_number 14
_symmetry_cell_setting 'monoclinic'
loop_
_space_group_symop_operation_xyz
x,y,z
-x,1/2+y,1/2-z
-x,-y,-z
x,1/2-y,1/2+z
loop_
_atom_site_type_symbol
_atom_site_label
_atom_site_fract_x
_atom_site_fract_y
_atom_site_fract_z
Si Si1 0.614265 0.641980 0.693279
Si Si2 0.915225 0.677516 0.001439
Si Si3 0.271689 0.650192 0.706686
Si Si4 0.921379 0.085444 0.909788
Si Si5 0.733873 0.882642 0.386465
O O1 0.798369 0.575050 0.528336
O O2 0.702609 0.702614 0.476863
O O3 0.502021 0.800120 0.884424
O O4 0.467573 0.488935 0.860039
O O5 0.748103 0.530610 0.222214
O O6 0.805520 0.843402 0.183742
O O7 0.124866 0.652039 0.796389
O O8 0.971311 0.685817 0.814970
O O9 0.217148 0.786120 0.857128
O O10 0.096222 0.017967 0.764492
#
# Coordination Sequence:
#
# PCOD8127663 Si02
#       5
#     4   4   4   4   4
#     4  12  25  46  72 105 143 184 237 291 347 419
#     4  10  22  46  72 101 143 186 232 289 352 415
#     4  10  23  43  71 104 140 185 235 288 345 416
#     4  11  24  43  70 101 139 185 229 283 350 413
#     4  11  27  46  72 105 141 186 234 292 352 416
#
# _framework density 27.850010000000001
#
# number of rings (size 3 to 8) (size 9 to 14) (size 15 to 20)
#    0.000    1.200    0.000    6.600    0.000   14.400 
#    0.000    3.000    0.000    0.000    0.000    0.000 
#    0.000    0.000    0.000    0.000    0.000    0.000 
#
# Total GULP energy -248030.803079 kJ/mol
# GULP energy per Si atom -12401.540154 kJ/mol
# Density = 2.778662 g / cm^3
# Si number density = 27.850010 Si / 1000 Ang^3
#
#
#
# Elastic Constant Matrix: (Units=GPa)
#
#
# Indices 1 2 3 4 5 6 
#
# 1 93.1791 32.6999 18.3457 0.0000 16.3093 0.0000
# 2 32.6999 81.3617 26.8069 0.0000 -26.6981 0.0000
# 3 18.3457 26.8069 96.3398 0.0000 -2.0085 0.0000
# 4 0.0000 0.0000 0.0000 45.5699 0.0000 -13.6947
# 5 16.3093 -26.6981 -2.0085 0.0000 46.0279 0.0000
# 6 0.0000 0.0000 0.0000 -13.6947 0.0000 52.3372
#
#
#
# Elastic Compliance Matrix: (Units=1/GPa)
#
#
# Indices 1 2 3 4 5 6 
#
# 1 0.016574 -0.010409 -0.000508 0.000000 -0.011933 0.000000
# 2 -0.010409 0.023474 -0.004193 0.000000 0.017121 0.000000
# 3 -0.000508 -0.004193 0.011607 0.000000 -0.001745 0.000000
# 4 0.000000 0.000000 0.000000 0.023817 0.000000 0.006232
# 5 -0.011933 0.017121 -0.001745 0.000000 0.035809 0.000000
# 6 0.000000 0.000000 0.000000 0.006232 0.000000 0.020738
#
#
# Mechanical properties :
#
#
# Convention : Reuss Voigt Hill
#
# Bulk Modulus (GPa) = 46.65449 47.39838 47.02644
# Shear Modulus (GPa) = 29.51890 41.65555 35.58722
#
# Velocity S-wave (km/s) = 3.25918 3.87164 3.57854
# Velocity P-wave (km/s) = 5.56340 6.08623 5.83068
#
# Compressibility (1/GPa) = 0.02143416
#
# Stress axis : x y z
#
# Youngs Moduli (GPa) = 60.33677 42.60068 86.15523
#
# Poissons Ratio (x) = 0.44343 0.04381
# Poissons Ratio (y) = 0.62805 0.36121
# Poissons Ratio (z) = 0.03068 0.17861
#
# Static dielectric constant tensor:
#      x y z
#    x 5.230080 0.000000 0.186240 
#    y 0.000000 5.050440 0.000000 
#    z 0.186240 0.000000 5.291980 
# 
# 
# High freq. dielectric constant tensor:
#      x y z
#    x 2.139690 0.000000 0.013380 
#    y 0.000000 2.143190 0.000000 
#    z 0.013380 0.000000 2.135590 
# 
# From -- ./inp_files/49994.got.cif
#   From: 2010.03.12/outbox.cif.g09.slc.cpg/sg14_25_cif.got.tgz:49994.got - 2010.03.31 13:35:05.
