data_PCOD8127497
_publ_section_title
;
Structure prediction by ZEFSAII (Michael W. Deem and Ramdas Pophale) SiO2 
 PCOD8127497
Probable space group: P 21/C
;
_chemical_formula_sum "Si O2"
_cell_formula_units_Z 20
_cell_length_a 12.532680
_cell_length_b 5.135984
_cell_length_c 13.766802
_cell_angle_alpha 90.000000
_cell_angle_beta 92.876022
_cell_angle_gamma 90.000000
_cell_volume 885.020470
_symmetry_space_group_name_H-M "P 21/C"
_symmetry_group_IT_number 14
_symmetry_cell_setting 'monoclinic'
loop_
_space_group_symop_operation_xyz
x,y,z
-x,1/2+y,1/2-z
-x,-y,-z
x,1/2-y,1/2+z
loop_
_atom_site_type_symbol
_atom_site_label
_atom_site_fract_x
_atom_site_fract_y
_atom_site_fract_z
Si Si1 0.067413 0.924235 0.737942
Si Si2 0.531415 0.232336 0.693826
Si Si3 0.341572 0.141526 0.064916
Si Si4 0.778370 0.150061 0.418578
Si Si5 0.743441 0.377468 0.612594
O O1 0.110409 0.833564 0.634480
O O2 0.165536 0.990312 0.813961
O O3 0.999133 0.687538 0.778156
O O4 0.502800 0.446733 0.773175
O O5 0.465728 0.301682 0.591893
O O6 0.656318 0.226604 0.673191
O O7 0.272688 0.373325 0.107428
O O8 0.303471 0.878786 0.119584
O O9 0.317773 0.112049 0.948138
O O10 0.798356 0.185339 0.535428
#
# Coordination Sequence:
#
# PCOD8127497 Si02
#       5
#     4   4   4   4   4
#     4  12  27  45  68  97 132 173 227 280 332 381
#     4  12  25  40  70 101 138 175 215 263 330 396
#     4  10  22  43  66  99 134 170 215 262 328 397
#     4  10  24  44  70  94 136 167 224 269 332 388
#     4  10  27  43  71  96 137 174 223 269 328 392
#
# _framework density 22.598344999999998
#
# number of rings (size 3 to 8) (size 9 to 14) (size 15 to 20)
#    1.200    0.000    0.000    5.400    5.600    2.400 
#    0.000    0.000    0.000    0.000    0.000    0.000 
#    0.000    0.000    0.000    0.000    0.000    0.000 
#
# Total GULP energy -247942.652807 kJ/mol
# GULP energy per Si atom -12397.132640 kJ/mol
# Density = 2.254691 g / cm^3
# Si number density = 22.598345 Si / 1000 Ang^3
#
#
#
# Elastic Constant Matrix: (Units=GPa)
#
#
# Indices 1 2 3 4 5 6 
#
# 1 93.4100 0.9662 38.5602 0.0000 4.8759 0.0000
# 2 0.9662 97.4126 2.0912 0.0000 5.0998 0.0000
# 3 38.5602 2.0912 91.5976 0.0000 4.6031 0.0000
# 4 0.0000 0.0000 0.0000 17.1934 0.0000 -3.6764
# 5 4.8759 5.0998 4.6031 0.0000 30.3878 0.0000
# 6 0.0000 0.0000 0.0000 -3.6764 0.0000 33.1378
#
#
#
# Elastic Compliance Matrix: (Units=1/GPa)
#
#
# Indices 1 2 3 4 5 6 
#
# 1 0.013006 0.000054 -0.005412 0.000000 -0.001276 0.000000
# 2 0.000054 0.010359 -0.000173 0.000000 -0.001721 0.000000
# 3 -0.005412 -0.000173 0.013255 0.000000 -0.001111 0.000000
# 4 0.000000 0.000000 0.000000 0.059575 0.000000 0.006609
# 5 -0.001276 -0.001721 -0.001111 0.000000 0.033570 0.000000
# 6 0.000000 0.000000 0.000000 0.006609 0.000000 0.030910
#
#
# Mechanical properties :
#
#
# Convention : Reuss Voigt Hill
#
# Bulk Modulus (GPa) = 39.12637 40.62838 39.87737
# Shear Modulus (GPa) = 27.73828 32.19732 29.96780
#
# Velocity S-wave (km/s) = 3.50730 3.77870 3.64552
# Velocity P-wave (km/s) = 5.80972 6.08733 5.95015
#
# Compressibility (1/GPa) = 0.02555821
#
# Stress axis : x y z
#
# Youngs Moduli (GPa) = 76.88926 96.53548 75.44068
#
# Poissons Ratio (x) = -0.00521 0.40830
# Poissons Ratio (y) = -0.00415 0.01303
# Poissons Ratio (z) = 0.41614 0.01668
#
# Static dielectric constant tensor:
#      x y z
#    x 3.899280 0.000000 0.018280 
#    y 0.000000 3.900260 0.000000 
#    z 0.018280 0.000000 3.920970 
# 
# 
# High freq. dielectric constant tensor:
#      x y z
#    x 1.882600 0.000000 -0.001480 
#    y 0.000000 1.889800 0.000000 
#    z -0.001480 0.000000 1.888500 
# 
# From -- ./inp_files/42444.got.cif
#   From: 2010.03.12/outbox.cif.g09.slc.cpg/sg14_22_cif.got.tgz:42444.got - 2010.03.31 13:35:05.
