data_PCOD8127383
_publ_section_title
;
Structure prediction by ZEFSAII (Michael W. Deem and Ramdas Pophale) SiO2 
 PCOD8127383
Probable space group: P 21/C
;
_chemical_formula_sum "Si O2"
_cell_formula_units_Z 28
_cell_length_a 6.782257
_cell_length_b 16.119228
_cell_length_c 14.714241
_cell_angle_alpha 90.000000
_cell_angle_beta 59.249057
_cell_angle_gamma 90.000000
_cell_volume 1382.453978
_symmetry_space_group_name_H-M "P 21/C"
_symmetry_group_IT_number 14
_symmetry_cell_setting 'monoclinic'
loop_
_space_group_symop_operation_xyz
x,y,z
-x,1/2+y,1/2-z
-x,-y,-z
x,1/2-y,1/2+z
loop_
_atom_site_type_symbol
_atom_site_label
_atom_site_fract_x
_atom_site_fract_y
_atom_site_fract_z
Si Si1 0.513410 0.208747 0.349916
Si Si2 0.777850 0.807146 0.409182
Si Si3 0.431669 0.142933 0.729728
Si Si4 0.650397 0.912138 0.759140
Si Si5 0.180593 0.510431 0.377268
Si Si6 0.006668 0.655600 0.300371
Si Si7 0.896163 0.050858 0.607439
O O1 0.417523 0.215586 0.473186
O O2 0.487333 0.292652 0.297449
O O3 0.393295 0.132703 0.326292
O O4 0.775857 0.185163 0.308704
O O5 0.680834 0.811605 0.329697
O O6 0.957656 0.731706 0.380225
O O7 0.901926 0.892750 0.401992
O O8 0.665963 0.101767 0.636395
O O9 0.253504 0.075512 0.812416
O O10 0.409905 0.943022 0.859263
O O11 0.774533 0.849045 0.796728
O O12 0.824842 0.987987 0.703840
O O13 0.050884 0.568068 0.336373
O O14 0.000000 0.500000 0.500000
O O15 0.000000 0.000000 0.500000
#
# Coordination Sequence:
#
# PCOD8127383 Si02
#       7
#     4   4   4   4   4   4   4
#     4  11  23  41  64  95 132 170 216 273 327 386
#     4  12  24  40  69  99 131 178 219 270 339 392
#     4  11  24  44  65 100 134 171 228 273 323 409
#     4  10  22  42  64  92 133 169 212 273 321 394
#     4  10  23  44  67  92 132 175 221 273 329 394
#     4  11  23  43  63  96 132 167 221 270 328 395
#     4  11  23  41  66  96 135 171 216 273 334 394
#
# _framework density 20.253837999999998
#
# number of rings (size 3 to 8) (size 9 to 14) (size 15 to 20)
#    0.000    1.143    4.286    1.714    2.000    1.143 
#    2.571    0.000    0.000    0.000    0.000    0.000 
#    0.000    0.000    0.000    0.000    0.000    0.000 
#
# Total GULP energy -347113.221883 kJ/mol
# GULP energy per Si atom -12396.900782 kJ/mol
# Density = 2.020774 g / cm^3
# Si number density = 20.253838 Si / 1000 Ang^3
#
#
#
# Elastic Constant Matrix: (Units=GPa)
#
#
# Indices 1 2 3 4 5 6 
#
# 1 97.5426 39.5157 54.8358 0.0000 -7.7689 0.0000
# 2 39.5157 109.3343 45.3961 0.0000 -2.3549 0.0000
# 3 54.8358 45.3961 144.1483 0.0000 -16.6390 0.0000
# 4 0.0000 0.0000 0.0000 37.3816 0.0000 -7.5174
# 5 -7.7689 -2.3549 -16.6390 0.0000 26.3251 0.0000
# 6 0.0000 0.0000 0.0000 -7.5174 0.0000 37.4059
#
#
#
# Elastic Compliance Matrix: (Units=1/GPa)
#
#
# Indices 1 2 3 4 5 6 
#
# 1 0.014027 -0.003320 -0.004150 0.000000 0.001220 0.000000
# 2 -0.003320 0.011346 -0.002487 0.000000 -0.001537 0.000000
# 3 -0.004150 -0.002487 0.009851 0.000000 0.004779 0.000000
# 4 0.000000 0.000000 0.000000 0.027878 0.000000 0.005603
# 5 0.001220 -0.001537 0.004779 0.000000 0.041230 0.000000
# 6 0.000000 0.000000 0.000000 0.005603 0.000000 0.027860
#
#
# Mechanical properties :
#
#
# Convention : Reuss Voigt Hill
#
# Bulk Modulus (GPa) = 65.32114 70.05781 67.68947
# Shear Modulus (GPa) = 31.80476 34.30769 33.05622
#
# Velocity S-wave (km/s) = 3.96701 4.12015 4.04430
# Velocity P-wave (km/s) = 7.30097 7.56962 7.43651
#
# Compressibility (1/GPa) = 0.01530898
#
# Stress axis : x y z
#
# Youngs Moduli (GPa) = 71.29100 88.13643 101.51389
#
# Poissons Ratio (x) = 0.29265 0.42124
# Poissons Ratio (y) = 0.23672 0.25251
# Poissons Ratio (z) = 0.29583 0.21924
#
# Static dielectric constant tensor:
#      x y z
#    x 3.737320 0.000000 -0.317450 
#    y 0.000000 3.949530 0.000000 
#    z -0.317450 0.000000 3.624360 
# 
# 
# High freq. dielectric constant tensor:
#      x y z
#    x 1.788370 0.000000 -0.020080 
#    y 0.000000 1.815850 0.000000 
#    z -0.020080 0.000000 1.786380 
# 
# From -- ./inp_files/37805.got.cif
#   From: 2010.03.12/outbox.cif.g09.slc.cpg/sg14_19_cif.got.tgz:37805.got - 2010.03.31 13:35:05.
