data_PCOD8127984
_publ_section_title
;
Structure prediction by ZEFSAII (Michael W. Deem and Ramdas Pophale) SiO2 
 PCOD8127984
Probable space group: P 21/C
;
_chemical_formula_sum "Si O2"
_cell_formula_units_Z 20
_cell_length_a 13.394102
_cell_length_b 10.952880
_cell_length_c 7.604009
_cell_angle_alpha 90.000000
_cell_angle_beta 126.320944
_cell_angle_gamma 90.000000
_cell_volume 898.802538
_symmetry_space_group_name_H-M "P 21/C"
_symmetry_group_IT_number 14
_symmetry_cell_setting 'monoclinic'
loop_
_space_group_symop_operation_xyz
x,y,z
-x,1/2+y,1/2-z
-x,-y,-z
x,1/2-y,1/2+z
loop_
_atom_site_type_symbol
_atom_site_label
_atom_site_fract_x
_atom_site_fract_y
_atom_site_fract_z
Si Si1 0.887584 0.630661 0.516231
Si Si2 0.158149 0.550845 0.844040
Si Si3 0.480298 0.138599 0.846584
Si Si4 0.788945 0.880384 0.291536
Si Si5 0.417826 0.883697 0.692684
O O1 0.838898 0.545237 0.310519
O O2 0.868627 0.767028 0.437252
O O3 0.812327 0.592020 0.611323
O O4 0.034709 0.629225 0.702356
O O5 0.162346 0.491254 0.040523
O O6 0.283089 0.633187 0.962087
O O7 0.354551 0.147846 0.827146
O O8 0.497348 0.268132 0.768681
O O9 0.473251 0.021022 0.704868
O O10 0.591021 0.116283 0.102513
#
# Coordination Sequence:
#
# PCOD8127984 Si02
#       5
#     4   4   4   4   4
#     4  11  22  40  68  94 126 177 221 271 339 406
#     4  10  24  43  62  99 131 170 226 278 338 394
#     4  10  23  44  67 101 133 182 227 274 344 402
#     4  11  21  42  67  92 132 175 221 275 339 414
#     4  10  23  45  66  97 139 171 229 279 336 408
#
# _framework density 22.251829000000001
#
# number of rings (size 3 to 8) (size 9 to 14) (size 15 to 20)
#    0.000    1.600    2.000    1.800    2.800    2.400 
#   10.800    0.000    0.000    0.000    0.000    0.000 
#    0.000    0.000    0.000    0.000    0.000    0.000 
#
# Total GULP energy -247885.590603 kJ/mol
# GULP energy per Si atom -12394.279530 kJ/mol
# Density = 2.220118 g / cm^3
# Si number density = 22.251829 Si / 1000 Ang^3
#
#
#
# Elastic Constant Matrix: (Units=GPa)
#
#
# Indices 1 2 3 4 5 6 
#
# 1 83.3039 56.0731 27.7062 0.0000 -7.7862 0.0000
# 2 56.0731 136.7203 23.4041 0.0000 10.4054 0.0000
# 3 27.7062 23.4041 108.5532 0.0000 12.7730 0.0000
# 4 0.0000 0.0000 0.0000 26.7366 0.0000 3.8159
# 5 -7.7862 10.4054 12.7730 0.0000 39.3313 0.0000
# 6 0.0000 0.0000 0.0000 3.8159 0.0000 29.3551
#
#
#
# Elastic Compliance Matrix: (Units=1/GPa)
#
#
# Indices 1 2 3 4 5 6 
#
# 1 0.019246 -0.007740 -0.004089 0.000000 0.007186 0.000000
# 2 -0.007740 0.010798 0.000170 0.000000 -0.004444 0.000000
# 3 -0.004089 0.000170 0.010729 0.000000 -0.004339 0.000000
# 4 0.000000 0.000000 0.000000 0.038109 0.000000 -0.004954
# 5 0.007186 -0.004444 -0.004339 0.000000 0.029432 0.000000
# 6 0.000000 0.000000 0.000000 -0.004954 0.000000 0.034710
#
#
# Mechanical properties :
#
#
# Convention : Reuss Voigt Hill
#
# Bulk Modulus (GPa) = 57.28726 60.32715 58.80721
# Shear Modulus (GPa) = 29.04277 33.84419 31.44348
#
# Velocity S-wave (km/s) = 3.61666 3.90418 3.76317
# Velocity P-wave (km/s) = 6.57580 6.89155 6.73552
#
# Compressibility (1/GPa) = 0.01745589
#
# Stress axis : x y z
#
# Youngs Moduli (GPa) = 51.95927 92.61176 93.20123
#
# Poissons Ratio (x) = 0.71684 0.38109
# Poissons Ratio (y) = 0.40218 -0.01589
# Poissons Ratio (z) = 0.21245 -0.01579
#
# Static dielectric constant tensor:
#      x y z
#    x 3.928860 0.000000 0.088950 
#    y 0.000000 4.218350 0.000000 
#    z 0.088950 0.000000 4.348860 
# 
# 
# High freq. dielectric constant tensor:
#      x y z
#    x 1.853000 0.000000 0.008410 
#    y 0.000000 1.877520 0.000000 
#    z 0.008410 0.000000 1.901140 
# 
# From -- ./inp_files/12265.got.cif
#   From: 2010.03.12/outbox.cif.g09.slc.cpg/sg14_7_cif.got.tgz:12265.got - 2010.03.31 13:35:05.
