data_PCOD8127303
_publ_section_title
;
Structure prediction by ZEFSAII (Michael W. Deem and Ramdas Pophale) SiO2 
 PCOD8127303
Probable space group: P 21/C
;
_chemical_formula_sum "Si O2"
_cell_formula_units_Z 24
_cell_length_a 13.156842
_cell_length_b 9.310608
_cell_length_c 8.701663
_cell_angle_alpha 90.000000
_cell_angle_beta 78.140123
_cell_angle_gamma 90.000000
_cell_volume 1043.183616
_symmetry_space_group_name_H-M "P 21/C"
_symmetry_group_IT_number 14
_symmetry_cell_setting 'monoclinic'
loop_
_space_group_symop_operation_xyz
x,y,z
-x,1/2+y,1/2-z
-x,-y,-z
x,1/2-y,1/2+z
loop_
_atom_site_type_symbol
_atom_site_label
_atom_site_fract_x
_atom_site_fract_y
_atom_site_fract_z
Si Si1 0.533673 0.023710 0.815161
Si Si2 0.636775 0.168014 0.230292
Si Si3 0.780068 0.197846 0.899950
Si Si4 0.993460 0.643972 0.594056
Si Si5 0.248436 0.079152 0.280319
Si Si6 0.856193 0.813215 0.405680
O O1 0.568099 0.185814 0.762774
O O2 0.439092 0.969997 0.734234
O O3 0.627618 0.913667 0.758674
O O4 0.500000 0.000000 0.000000
O O5 0.726206 0.164304 0.334162
O O6 0.698817 0.149563 0.053022
O O7 0.896038 0.226448 0.924608
O O8 0.791835 0.073187 0.769236
O O9 0.918309 0.743901 0.524903
O O10 0.940707 0.605225 0.774216
O O11 0.000000 0.500000 0.500000
O O12 0.207427 0.203091 0.179944
O O13 0.218596 0.084463 0.471326
#
# Coordination Sequence:
#
# PCOD8127303 Si02
#       6
#     4   4   4   4   4   4
#     4  11  24  46  70 101 143 180 236 296 352 419
#     4  11  24  45  72 100 141 188 231 298 353 415
#     4  11  23  44  64 102 140 178 232 288 350 426
#     4  11  22  44  69  98 138 181 230 287 352 425
#     4  10  22  41  65  96 137 172 234 286 341 422
#     4  10  23  42  67  98 129 186 231 283 355 411
#
# _framework density 23.006497
#
# number of rings (size 3 to 8) (size 9 to 14) (size 15 to 20)
#    0.000    1.333    5.000    1.000    2.333    1.333 
#   12.000    0.000    0.000    0.000    0.000    0.000 
#    0.000    0.000    0.000    0.000    0.000    0.000 
#
# Total GULP energy -297377.541462 kJ/mol
# GULP energy per Si atom -12390.730894 kJ/mol
# Density = 2.295413 g / cm^3
# Si number density = 23.006497 Si / 1000 Ang^3
#
#
#
# Elastic Constant Matrix: (Units=GPa)
#
#
# Indices 1 2 3 4 5 6 
#
# 1 115.9277 23.1120 44.7384 0.0000 -11.0165 0.0000
# 2 23.1120 36.9876 23.1286 0.0000 -9.3429 0.0000
# 3 44.7384 23.1286 153.9594 0.0000 -30.9723 0.0000
# 4 0.0000 0.0000 0.0000 35.4368 0.0000 -0.1115
# 5 -11.0165 -9.3429 -30.9723 0.0000 40.6350 0.0000
# 6 0.0000 0.0000 0.0000 -0.1115 0.0000 28.7243
#
#
#
# Elastic Compliance Matrix: (Units=1/GPa)
#
#
# Indices 1 2 3 4 5 6 
#
# 1 0.010536 -0.005165 -0.002303 0.000000 -0.000087 0.000000
# 2 -0.005165 0.032952 -0.002606 0.000000 0.004189 0.000000
# 3 -0.002303 -0.002606 0.008634 0.000000 0.005357 0.000000
# 4 0.000000 0.000000 0.000000 0.028220 0.000000 0.000110
# 5 -0.000087 0.004189 0.005357 0.000000 0.029632 0.000000
# 6 0.000000 0.000000 0.000000 0.000110 0.000000 0.034814
#
#
# Mechanical properties :
#
#
# Convention : Reuss Voigt Hill
#
# Bulk Modulus (GPa) = 31.27754 54.31476 42.79615
# Shear Modulus (GPa) = 28.47454 35.35225 31.91340
#
# Velocity S-wave (km/s) = 3.52188 3.92423 3.72848
# Velocity P-wave (km/s) = 5.49206 6.64774 6.09734
#
# Compressibility (1/GPa) = 0.03197182
#
# Stress axis : x y z
#
# Youngs Moduli (GPa) = 94.90819 30.34736 115.82496
#
# Poissons Ratio (x) = 0.15676 0.26677
# Poissons Ratio (y) = 0.49025 0.30189
# Poissons Ratio (z) = 0.21859 0.07910
#
# Static dielectric constant tensor:
#      x y z
#    x 4.768150 0.000000 -0.134480 
#    y 0.000000 3.949770 0.000000 
#    z -0.134480 0.000000 4.588590 
# 
# 
# High freq. dielectric constant tensor:
#      x y z
#    x 1.927120 0.000000 -0.007820 
#    y 0.000000 1.880380 0.000000 
#    z -0.007820 0.000000 1.928400 
# 
# From -- ./inp_files/12217.got.cif
#   From: 2010.03.12/outbox.cif.g09.slc.cpg/sg14_7_cif.got.tgz:12217.got - 2010.03.31 13:35:05.
