data_PCOD8127614
_publ_section_title
;
Structure prediction by ZEFSAII (Michael W. Deem and Ramdas Pophale) SiO2 
 PCOD8127614
Probable space group: P 21/C
;
_chemical_formula_sum "Si O2"
_cell_formula_units_Z 16
_cell_length_a 6.849117
_cell_length_b 18.924780
_cell_length_c 5.004317
_cell_angle_alpha 90.000000
_cell_angle_beta 81.059783
_cell_angle_gamma 90.000000
_cell_volume 640.769296
_symmetry_space_group_name_H-M "P 21/C"
_symmetry_group_IT_number 14
_symmetry_cell_setting 'monoclinic'
loop_
_space_group_symop_operation_xyz
x,y,z
-x,1/2+y,1/2-z
-x,-y,-z
x,1/2-y,1/2+z
loop_
_atom_site_type_symbol
_atom_site_label
_atom_site_fract_x
_atom_site_fract_y
_atom_site_fract_z
Si Si1 0.876912 0.704229 0.921701
Si Si2 0.962962 0.553630 0.770642
Si Si3 0.454684 0.109848 0.655862
Si Si4 0.356529 0.941646 0.910216
O O1 0.923910 0.733148 0.204984
O O2 0.646169 0.682231 0.924494
O O3 0.009819 0.634150 0.857206
O O4 0.118957 0.540636 0.489699
O O5 0.000000 0.500000 0.000000
O O6 0.726694 0.552101 0.745469
O O7 0.584080 0.122587 0.896252
O O8 0.599500 0.078603 0.401765
O O9 0.500000 0.000000 0.000000
#
# Coordination Sequence:
#
# PCOD8127614 Si02
#       4
#     4   4   4   4
#     4  10  22  45  66  91 134 177 218 272 333 394
#     4  10  24  42  71  97 136 174 219 277 335 384
#     4  10  25  40  65  94 132 172 216 268 331 380
#     4  12  22  41  65 103 132 170 218 273 331 400
#
# _framework density 24.969985999999999
#
# number of rings (size 3 to 8) (size 9 to 14) (size 15 to 20)
#    1.500    0.000    2.500    2.250    0.000    5.000 
#    0.000    7.500    0.000    0.000    0.000    0.000 
#    0.000    0.000    0.000    0.000    0.000    0.000 
#
# Total GULP energy -198311.915922 kJ/mol
# GULP energy per Si atom -12394.494745 kJ/mol
# Density = 2.491315 g / cm^3
# Si number density = 24.969986 Si / 1000 Ang^3
#
#
#
# Elastic Constant Matrix: (Units=GPa)
#
#
# Indices 1 2 3 4 5 6 
#
# 1 130.6314 30.6291 43.7649 0.0000 -21.4896 0.0000
# 2 30.6291 100.4694 30.1536 0.0000 -15.2377 0.0000
# 3 43.7649 30.1536 130.2946 0.0000 -33.1532 0.0000
# 4 0.0000 0.0000 0.0000 29.2345 0.0000 5.3023
# 5 -21.4896 -15.2377 -33.1532 0.0000 50.5044 0.0000
# 6 0.0000 0.0000 0.0000 5.3023 0.0000 40.5993
#
#
#
# Elastic Compliance Matrix: (Units=1/GPa)
#
#
# Indices 1 2 3 4 5 6 
#
# 1 0.009123 -0.001846 -0.002150 0.000000 0.001913 0.000000
# 2 -0.001846 0.011228 -0.001580 0.000000 0.001565 0.000000
# 3 -0.002150 -0.001580 0.010095 0.000000 0.005235 0.000000
# 4 0.000000 0.000000 0.000000 0.035036 0.000000 -0.004576
# 5 0.001913 0.001565 0.005235 0.000000 0.024523 0.000000
# 6 0.000000 0.000000 0.000000 -0.004576 0.000000 0.025229
#
#
# Mechanical properties :
#
#
# Convention : Reuss Voigt Hill
#
# Bulk Modulus (GPa) = 51.83225 63.38781 57.61003
# Shear Modulus (GPa) = 37.64586 41.19084 39.41835
#
# Velocity S-wave (km/s) = 3.88705 4.06595 3.97751
# Velocity P-wave (km/s) = 6.39910 6.89081 6.64950
#
# Compressibility (1/GPa) = 0.01929301
#
# Stress axis : x y z
#
# Youngs Moduli (GPa) = 109.61210 89.06662 99.05945
#
# Poissons Ratio (x) = 0.16439 0.21301
# Poissons Ratio (y) = 0.20231 0.15654
# Poissons Ratio (z) = 0.23571 0.14075
#
# Static dielectric constant tensor:
#      x y z
#    x 4.937330 0.000000 0.228750 
#    y 0.000000 4.617640 0.000000 
#    z 0.228750 0.000000 4.788220 
# 
# 
# High freq. dielectric constant tensor:
#      x y z
#    x 2.004860 0.000000 0.003670 
#    y 0.000000 1.994770 0.000000 
#    z 0.003670 0.000000 2.005890 
# 
# From -- ./inp_files/266.got.cif
#   From: 2010.03.12/outbox.cif.g09.slc.cpg/sg14_1_cif.got.tgz:266.got - 2010.03.31 13:35:05.
