data_PCOD8127066
_publ_section_title
;
Structure prediction by ZEFSAII (Michael W. Deem and Ramdas Pophale) SiO2 
 PCOD8127066
Probable space group: P 21/C
;
_chemical_formula_sum "Si O2"
_cell_formula_units_Z 16
_cell_length_a 7.788537
_cell_length_b 16.839474
_cell_length_c 7.452624
_cell_angle_alpha 90.000000
_cell_angle_beta 53.920671
_cell_angle_gamma 90.000000
_cell_volume 789.975742
_symmetry_space_group_name_H-M "P 21/C"
_symmetry_group_IT_number 14
_symmetry_cell_setting 'monoclinic'
loop_
_space_group_symop_operation_xyz
x,y,z
-x,1/2+y,1/2-z
-x,-y,-z
x,1/2-y,1/2+z
loop_
_atom_site_type_symbol
_atom_site_label
_atom_site_fract_x
_atom_site_fract_y
_atom_site_fract_z
Si Si1 0.377048 0.155946 0.787092
Si Si2 0.768020 0.828235 0.516538
Si Si3 0.790326 0.942571 0.805267
Si Si4 0.817399 0.104139 0.630995
O O1 0.337413 0.143309 0.602287
O O2 0.629226 0.157287 0.667153
O O3 0.276305 0.236633 0.921127
O O4 0.267113 0.082566 0.957983
O O5 0.673190 0.882555 0.736031
O O6 0.024904 0.839839 0.348988
O O7 0.046478 0.936065 0.615460
O O8 0.718679 0.033558 0.815099
#
# Coordination Sequence:
#
# PCOD8127066 Si02
#       4
#     4   4   4   4
#     4  12  21  39  64  86 119 161 194 244 302 344
#     4  10  22  39  59  91 118 151 205 236 293 362
#     4   9  21  45  57  90 126 143 208 246 282 369
#     4   9  22  43  60  88 124 153 193 256 288 346
#
# _framework density 20.253786000000002
#
# number of rings (size 3 to 8) (size 9 to 14) (size 15 to 20)
#    1.500    0.500    2.500    0.750    0.000    6.000 
#    4.500    0.000    0.000    0.000    0.000    0.000 
#    0.000    0.000    0.000    0.000    0.000    0.000 
#
# Total GULP energy -198331.697210 kJ/mol
# GULP energy per Si atom -12395.731076 kJ/mol
# Density = 2.020769 g / cm^3
# Si number density = 20.253786 Si / 1000 Ang^3
#
#
#
# Elastic Constant Matrix: (Units=GPa)
#
#
# Indices 1 2 3 4 5 6 
#
# 1 127.5055 41.9926 16.8687 0.0000 -6.7485 0.0000
# 2 41.9926 70.7050 6.2145 0.0000 -6.9402 0.0000
# 3 16.8687 6.2145 33.6836 0.0000 12.4675 0.0000
# 4 0.0000 0.0000 0.0000 24.4352 0.0000 -2.7833
# 5 -6.7485 -6.9402 12.4675 0.0000 28.8159 0.0000
# 6 0.0000 0.0000 0.0000 -2.7833 0.0000 29.3615
#
#
#
# Elastic Compliance Matrix: (Units=1/GPa)
#
#
# Indices 1 2 3 4 5 6 
#
# 1 0.010564 -0.005427 -0.005622 0.000000 0.003599 0.000000
# 2 -0.005427 0.017932 -0.002047 0.000000 0.003933 0.000000
# 3 -0.005622 -0.002047 0.039948 0.000000 -0.019093 0.000000
# 4 0.000000 0.000000 0.000000 0.041371 0.000000 0.003922
# 5 0.003599 0.003933 -0.019093 0.000000 0.044754 0.000000
# 6 0.000000 0.000000 0.000000 0.003922 0.000000 0.034430
#
#
# Mechanical properties :
#
#
# Convention : Reuss Voigt Hill
#
# Bulk Modulus (GPa) = 23.66609 40.22730 31.94669
# Shear Modulus (GPa) = 21.80789 27.64375 24.72582
#
# Velocity S-wave (km/s) = 3.28492 3.69842 3.49779
# Velocity P-wave (km/s) = 5.10859 6.17596 5.66746
#
# Compressibility (1/GPa) = 0.04225456
#
# Stress axis : x y z
#
# Youngs Moduli (GPa) = 94.65842 55.76514 25.03257
#
# Poissons Ratio (x) = 0.30263 0.14072
# Poissons Ratio (y) = 0.51370 0.05123
# Poissons Ratio (z) = 0.53213 0.11413
#
# Static dielectric constant tensor:
#      x y z
#    x 3.523870 0.000000 0.008300 
#    y 0.000000 3.551020 0.000000 
#    z 0.008300 0.000000 3.469540 
# 
# 
# High freq. dielectric constant tensor:
#      x y z
#    x 1.776020 0.000000 -0.004540 
#    y 0.000000 1.792820 0.000000 
#    z -0.004540 0.000000 1.779640 
# 
# From -- ./inp_files/5238.got.cif
#   From: 2010.03.12/outbox.cif.g09.slc.cpg/sg14_3_cif.got.tgz:5238.got - 2010.03.31 13:35:05.
