data_PCOD8127206
_publ_section_title
;
Structure prediction by ZEFSAII (Michael W. Deem and Ramdas Pophale) SiO2 
 PCOD8127206
Probable space group: P 21/C
;
_chemical_formula_sum "Si O2"
_cell_formula_units_Z 32
_cell_length_a 25.639830
_cell_length_b 7.513558
_cell_length_c 13.972585
_cell_angle_alpha 90.000000
_cell_angle_beta 27.444782
_cell_angle_gamma 90.000000
_cell_volume 1240.618291
_symmetry_space_group_name_H-M "P 21/C"
_symmetry_group_IT_number 14
_symmetry_cell_setting 'monoclinic'
loop_
_space_group_symop_operation_xyz
x,y,z
-x,1/2+y,1/2-z
-x,-y,-z
x,1/2-y,1/2+z
loop_
_atom_site_type_symbol
_atom_site_label
_atom_site_fract_x
_atom_site_fract_y
_atom_site_fract_z
Si Si1 0.644108 0.338011 0.898508
Si Si2 0.349804 0.041754 0.342096
Si Si3 0.851138 0.401663 0.281340
Si Si4 0.399753 0.647743 0.236615
Si Si5 0.077705 0.314438 0.978437
Si Si6 0.463317 0.235565 0.325327
Si Si7 0.288542 0.066848 0.236740
Si Si8 0.830785 0.043861 0.216605
O O1 0.580023 0.411852 0.906702
O O2 0.745145 0.470347 0.764820
O O3 0.698916 0.145968 0.786879
O O4 0.575061 0.344771 0.111934
O O5 0.431997 0.160889 0.272049
O O6 0.329113 0.139371 0.273826
O O7 0.417841 0.860344 0.211555
O O8 0.228867 0.012859 0.587400
O O9 0.727045 0.406984 0.528399
O O10 0.871554 0.590160 0.198435
O O11 0.871362 0.246630 0.167823
O O12 0.946876 0.372524 0.207985
O O13 0.494069 0.586958 0.163545
O O14 0.157636 0.372964 0.936482
O O15 0.073764 0.101106 0.964334
O O16 0.361632 0.353153 0.530729
#
# Coordination Sequence:
#
# PCOD8127206 Si02
#       8
#     4   4   4   4   4   4   4   4
#     4  11  23  41  67  97 136 180 228 280 348 403
#     4  10  22  40  64  98 133 180 228 274 347 402
#     4  10  22  44  70  98 134 182 220 281 346 395
#     4  10  22  43  67  95 136 180 228 284 340 410
#     4  11  22  42  71 100 134 175 231 277 335 412
#     4  12  20  38  68  99 133 182 226 280 344 411
#     4  11  23  41  68  96 138 180 224 286 343 408
#     4  11  21  45  67  97 136 178 225 283 329 413
#
# _framework density 25.793590999999999
#
# number of rings (size 3 to 8) (size 9 to 14) (size 15 to 20)
#    0.000    1.250    5.000    1.875    0.000    2.000 
#    2.250    5.625    0.000    0.000    0.000    0.000 
#    0.000    0.000    0.000    0.000    0.000    0.000 
#
# Total GULP energy -396644.105516 kJ/mol
# GULP energy per Si atom -12395.128297 kJ/mol
# Density = 2.573488 g / cm^3
# Si number density = 25.793591 Si / 1000 Ang^3
#
#
#
# Elastic Constant Matrix: (Units=GPa)
#
#
# Indices 1 2 3 4 5 6 
#
# 1 195.1264 16.8254 39.5960 0.0000 -4.1615 0.0000
# 2 16.8254 54.7550 -19.7934 0.0000 10.3263 0.0000
# 3 39.5960 -19.7934 31.6455 0.0000 -5.5385 0.0000
# 4 0.0000 0.0000 0.0000 19.2149 0.0000 -4.0418
# 5 -4.1615 10.3263 -5.5385 0.0000 35.6532 0.0000
# 6 0.0000 0.0000 0.0000 -4.0418 0.0000 40.1616
#
#
#
# Elastic Compliance Matrix: (Units=1/GPa)
#
#
# Indices 1 2 3 4 5 6 
#
# 1 0.009589 -0.009595 -0.017801 0.000000 0.001133 0.000000
# 2 -0.009595 0.033981 0.032217 0.000000 -0.005957 0.000000
# 3 -0.017801 0.032217 0.074040 0.000000 0.000093 0.000000
# 4 0.000000 0.000000 0.000000 0.053169 0.000000 0.005351
# 5 0.001133 -0.005957 0.000093 0.000000 0.029920 0.000000
# 6 0.000000 0.000000 0.000000 0.005351 0.000000 0.025438
#
#
# Mechanical properties :
#
#
# Convention : Reuss Voigt Hill
#
# Bulk Modulus (GPa) = 7.85834 39.42034 23.63934
# Shear Modulus (GPa) = 19.31165 35.33251 27.32208
#
# Velocity S-wave (km/s) = 2.73921 3.70512 3.25816
# Velocity P-wave (km/s) = 3.61353 5.79828 4.83103
#
# Compressibility (1/GPa) = 0.12725337
#
# Stress axis : x y z
#
# Youngs Moduli (GPa) = 104.29056 29.42802 13.50617
#
# Poissons Ratio (x) = 0.28236 0.24042
# Poissons Ratio (y) = 1.00065 -0.43513
# Poissons Ratio (z) = 1.85644 -0.94809
#
# Static dielectric constant tensor:
#      x y z
#    x 5.148470 0.000000 -0.331480 
#    y 0.000000 4.677440 0.000000 
#    z -0.331480 0.000000 4.343610 
# 
# 
# High freq. dielectric constant tensor:
#      x y z
#    x 2.049800 0.000000 -0.019170 
#    y 0.000000 2.038300 0.000000 
#    z -0.019170 0.000000 2.002840 
# 
# From -- ./inp_files/51233.got.cif
#   From: 2010.03.12/outbox.cif.g09.slc.cpg/sg14_26_cif.got.tgz:51233.got - 2010.03.31 13:35:05.
