data_PCOD8127035
_publ_section_title
;
Structure prediction by ZEFSAII (Michael W. Deem and Ramdas Pophale) SiO2 
 PCOD8127035
Probable space group: P 21/C
;
_chemical_formula_sum "Si O2"
_cell_formula_units_Z 32
_cell_length_a 23.233626
_cell_length_b 8.107486
_cell_length_c 15.796577
_cell_angle_alpha 90.000000
_cell_angle_beta 29.074746
_cell_angle_gamma 90.000000
_cell_volume 1445.965595
_symmetry_space_group_name_H-M "P 21/C"
_symmetry_group_IT_number 14
_symmetry_cell_setting 'monoclinic'
loop_
_space_group_symop_operation_xyz
x,y,z
-x,1/2+y,1/2-z
-x,-y,-z
x,1/2-y,1/2+z
loop_
_atom_site_type_symbol
_atom_site_label
_atom_site_fract_x
_atom_site_fract_y
_atom_site_fract_z
Si Si1 0.186857 0.472556 0.246215
Si Si2 0.401203 0.659012 0.043318
Si Si3 0.405167 0.397225 0.753875
Si Si4 0.535959 0.043913 0.246612
Si Si5 0.984309 0.610470 0.389669
Si Si6 0.744527 0.823491 0.960194
Si Si7 0.907724 0.089071 0.830371
Si Si8 0.328789 0.757190 0.314840
O O1 0.283936 0.615451 0.139792
O O2 0.095958 0.561546 0.302048
O O3 0.228737 0.303425 0.148929
O O4 0.133986 0.411897 0.403495
O O5 0.371700 0.649487 0.179891
O O6 0.465580 0.836553 0.944618
O O7 0.497983 0.528357 0.887021
O O8 0.423688 0.435447 0.830325
O O9 0.353789 0.549654 0.766200
O O10 0.297627 0.264569 0.896967
O O11 0.597227 0.215482 0.195040
O O12 0.632544 0.932198 0.073893
O O13 0.999609 0.801622 0.342537
O O14 0.979371 0.490138 0.315522
O O15 0.855214 0.941685 0.839899
O O16 0.808148 0.215478 0.993325
#
# Coordination Sequence:
#
# PCOD8127035 Si02
#       8
#     4   4   4   4   4   4   4   4
#     4  11  23  44  67  96 136 178 219 280 334 388
#     4  11  22  39  63  97 139 176 214 267 330 392
#     4  11  22  38  64 101 135 173 217 261 321 413
#     4  10  22  38  63  96 132 175 218 258 327 398
#     4  11  25  44  69  93 130 173 233 283 333 387
#     4  10  22  39  65  96 129 173 225 265 335 395
#     4  11  24  44  70  95 128 177 229 284 337 388
#     4  11  22  40  64  97 135 178 216 274 326 397
#
# _framework density 22.130541000000001
#
# number of rings (size 3 to 8) (size 9 to 14) (size 15 to 20)
#    0.000    1.250    2.500    3.750    3.500    0.500 
#    0.000    2.500    0.000    0.000    0.000    0.000 
#    0.000    0.000    0.000    0.000    0.000    0.000 
#
# Total GULP energy -396501.957909 kJ/mol
# GULP energy per Si atom -12390.686185 kJ/mol
# Density = 2.208017 g / cm^3
# Si number density = 22.130541 Si / 1000 Ang^3
#
#
#
# Elastic Constant Matrix: (Units=GPa)
#
#
# Indices 1 2 3 4 5 6 
#
# 1 73.5859 29.9558 18.1651 0.0000 0.2256 0.0000
# 2 29.9558 104.5931 40.0114 0.0000 -2.5337 0.0000
# 3 18.1651 40.0114 78.5982 0.0000 7.0906 0.0000
# 4 0.0000 0.0000 0.0000 29.6801 0.0000 -9.3601
# 5 0.2256 -2.5337 7.0906 0.0000 26.3893 0.0000
# 6 0.0000 0.0000 0.0000 -9.3601 0.0000 32.7617
#
#
#
# Elastic Compliance Matrix: (Units=1/GPa)
#
#
# Indices 1 2 3 4 5 6 
#
# 1 0.015553 -0.003828 -0.001640 0.000000 -0.000060 0.000000
# 2 -0.003828 0.013026 -0.006007 0.000000 0.002897 0.000000
# 3 -0.001640 -0.006007 0.016614 0.000000 -0.005027 0.000000
# 4 0.000000 0.000000 0.000000 0.037029 0.000000 0.010579
# 5 -0.000060 0.002897 -0.005027 0.000000 0.039523 0.000000
# 6 0.000000 0.000000 0.000000 0.010579 0.000000 0.033546
#
#
# Mechanical properties :
#
#
# Convention : Reuss Voigt Hill
#
# Bulk Modulus (GPa) = 44.96362 48.11573 46.53968
# Shear Modulus (GPa) = 26.93149 29.00924 27.97036
#
# Velocity S-wave (km/s) = 3.49225 3.62446 3.55897
# Velocity P-wave (km/s) = 6.05166 6.26934 6.16146
#
# Compressibility (1/GPa) = 0.02224020
#
# Stress axis : x y z
#
# Youngs Moduli (GPa) = 64.29561 76.77171 60.19154
#
# Poissons Ratio (x) = 0.29392 0.09873
# Poissons Ratio (y) = 0.24615 0.36160
# Poissons Ratio (z) = 0.10546 0.46120
#
# Static dielectric constant tensor:
#      x y z
#    x 3.730880 0.000000 -0.036280 
#    y 0.000000 4.061410 0.000000 
#    z -0.036280 0.000000 4.105710 
# 
# 
# High freq. dielectric constant tensor:
#      x y z
#    x 1.858370 0.000000 -0.005950 
#    y 0.000000 1.875360 0.000000 
#    z -0.005950 0.000000 1.873150 
# 
# From -- ./inp_files/51238.got.cif
#   From: 2010.03.12/outbox.cif.g09.slc.cpg/sg14_26_cif.got.tgz:51238.got - 2010.03.31 13:35:05.
