data_PCOD8127072
_publ_section_title
;
Structure prediction by ZEFSAII (Michael W. Deem and Ramdas Pophale) SiO2 
 PCOD8127072
Probable space group: P 21/C
;
_chemical_formula_sum "Si O2"
_cell_formula_units_Z 28
_cell_length_a 16.036791
_cell_length_b 6.603254
_cell_length_c 13.681051
_cell_angle_alpha 90.000000
_cell_angle_beta 65.206863
_cell_angle_gamma 90.000000
_cell_volume 1315.219900
_symmetry_space_group_name_H-M "P 21/C"
_symmetry_group_IT_number 14
_symmetry_cell_setting 'monoclinic'
loop_
_space_group_symop_operation_xyz
x,y,z
-x,1/2+y,1/2-z
-x,-y,-z
x,1/2-y,1/2+z
loop_
_atom_site_type_symbol
_atom_site_label
_atom_site_fract_x
_atom_site_fract_y
_atom_site_fract_z
Si Si1 0.591689 0.765127 0.277056
Si Si2 0.709936 0.994619 0.583031
Si Si3 0.124619 0.497405 0.626488
Si Si4 0.608274 0.390778 0.620537
Si Si5 0.689013 0.680539 0.429855
Si Si6 0.989450 0.134868 0.354600
Si Si7 0.105320 0.191086 0.475690
O O1 0.626101 0.588440 0.188990
O O2 0.484244 0.735526 0.348952
O O3 0.645528 0.755183 0.351491
O O4 0.609241 0.985978 0.221760
O O5 0.694124 0.234929 0.578045
O O6 0.714443 0.884583 0.475813
O O7 0.805960 0.949221 0.590734
O O8 0.220375 0.456541 0.635362
O O9 0.040922 0.400414 0.727828
O O10 0.134136 0.398928 0.514088
O O11 0.102518 0.734739 0.621810
O O12 0.616962 0.545706 0.526200
O O13 0.056718 0.250144 0.397788
O O14 0.963009 0.923310 0.416763
#
# Coordination Sequence:
#
# PCOD8127072 Si02
#       7
#     4   4   4   4   4   4   4
#     4  11  22  41  63  92 124 164 210 259 314 372
#     4  10  22  41  61  91 126 159 208 258 310 374
#     4  11  21  40  60  90 125 155 207 251 307 369
#     4  11  22  41  64  90 125 166 206 260 313 373
#     4  10  24  39  63  91 125 163 206 263 310 371
#     4  11  21  37  63  88 119 165 198 250 308 366
#     4  10  22  39  60  88 122 158 205 250 306 367
#
# _framework density 21.289214999999999
#
# number of rings (size 3 to 8) (size 9 to 14) (size 15 to 20)
#    0.000    1.429    2.857    2.571    0.000    1.714 
#    0.000    5.714    0.000    0.000    0.000    0.000 
#    0.000    0.000    0.000    0.000    0.000    0.000 
#
# Total GULP energy -347291.437355 kJ/mol
# GULP energy per Si atom -12403.265620 kJ/mol
# Density = 2.124076 g / cm^3
# Si number density = 21.289215 Si / 1000 Ang^3
#
#
#
# Elastic Constant Matrix: (Units=GPa)
#
#
# Indices 1 2 3 4 5 6 
#
# 1 105.5231 25.6043 29.1490 0.0000 6.7058 0.0000
# 2 25.6043 84.8080 24.1900 0.0000 10.7296 0.0000
# 3 29.1490 24.1900 51.0332 0.0000 4.7964 0.0000
# 4 0.0000 0.0000 0.0000 29.6269 0.0000 -10.2275
# 5 6.7058 10.7296 4.7964 0.0000 35.6447 0.0000
# 6 0.0000 0.0000 0.0000 -10.2275 0.0000 30.8508
#
#
#
# Elastic Compliance Matrix: (Units=1/GPa)
#
#
# Indices 1 2 3 4 5 6 
#
# 1 0.011523 -0.001751 -0.005669 0.000000 -0.000878 0.000000
# 2 -0.001751 0.014289 -0.005469 0.000000 -0.003236 0.000000
# 3 -0.005669 -0.005469 0.025493 0.000000 -0.000718 0.000000
# 4 0.000000 0.000000 0.000000 0.038115 0.000000 0.012636
# 5 -0.000878 -0.003236 -0.000718 0.000000 0.029290 0.000000
# 6 0.000000 0.000000 0.000000 0.012636 0.000000 0.036603
#
#
# Mechanical properties :
#
#
# Convention : Reuss Voigt Hill
#
# Bulk Modulus (GPa) = 39.17397 44.36121 41.76759
# Shear Modulus (GPa) = 26.37103 30.05254 28.21178
#
# Velocity S-wave (km/s) = 3.52334 3.76125 3.64423
# Velocity P-wave (km/s) = 5.91546 6.30438 6.11302
#
# Compressibility (1/GPa) = 0.02552715
#
# Stress axis : x y z
#
# Youngs Moduli (GPa) = 86.78071 69.98254 39.22624
#
# Poissons Ratio (x) = 0.12253 0.22239
# Poissons Ratio (y) = 0.15194 0.21453
# Poissons Ratio (z) = 0.49200 0.38274
#
# Static dielectric constant tensor:
#      x y z
#    x 3.814070 0.000000 -0.111210 
#    y 0.000000 3.699990 0.000000 
#    z -0.111210 0.000000 3.798740 
# 
# 
# High freq. dielectric constant tensor:
#      x y z
#    x 1.834030 0.000000 -0.011150 
#    y 0.000000 1.827220 0.000000 
#    z -0.011150 0.000000 1.837380 
# 
# From -- ./inp_files/48085.got.cif
#   From: 2010.03.12/outbox.cif.g09.slc.cpg/sg14_25_cif.got.tgz:48085.got - 2010.03.31 13:35:05.
