data_PCOD8127269
_publ_section_title
;
Structure prediction by ZEFSAII (Michael W. Deem and Ramdas Pophale) SiO2 
 PCOD8127269
Probable space group: P 21/C
;
_chemical_formula_sum "Si O2"
_cell_formula_units_Z 28
_cell_length_a 9.038470
_cell_length_b 13.113878
_cell_length_c 15.304736
_cell_angle_alpha 90.000000
_cell_angle_beta 49.215555
_cell_angle_gamma 90.000000
_cell_volume 1373.557012
_symmetry_space_group_name_H-M "P 21/C"
_symmetry_group_IT_number 14
_symmetry_cell_setting 'monoclinic'
loop_
_space_group_symop_operation_xyz
x,y,z
-x,1/2+y,1/2-z
-x,-y,-z
x,1/2-y,1/2+z
loop_
_atom_site_type_symbol
_atom_site_label
_atom_site_fract_x
_atom_site_fract_y
_atom_site_fract_z
Si Si1 0.448728 0.887020 0.492680
Si Si2 0.532825 0.174180 0.333008
Si Si3 0.546128 0.945232 0.275463
Si Si4 0.002383 0.830618 0.669553
Si Si5 0.821197 0.705931 0.592312
Si Si6 0.877756 0.026190 0.633787
Si Si7 0.950817 0.242617 0.661687
O O1 0.527471 0.814620 0.540467
O O2 0.541560 0.868274 0.361403
O O3 0.218715 0.871796 0.573141
O O4 0.500000 0.000000 0.500000
O O5 0.349898 0.209403 0.346943
O O6 0.719032 0.243331 0.242172
O O7 0.594633 0.059363 0.286085
O O8 0.722021 0.904163 0.147257
O O9 0.341265 0.941344 0.304791
O O10 0.963062 0.740241 0.615705
O O11 0.964356 0.785722 0.780337
O O12 0.867426 0.929610 0.703125
O O13 0.941995 0.696298 0.456793
O O14 0.986981 0.121045 0.638906
O O15 0.000000 0.000000 0.500000
#
# Coordination Sequence:
#
# PCOD8127269 Si02
#       7
#     4   4   4   4   4   4   4
#     4   9  20  37  63  96 120 163 218 275 318 375
#     4  10  22  41  62  94 133 169 222 273 331 389
#     4  11  21  38  67  95 127 173 221 275 331 392
#     4  11  24  40  67 100 129 170 220 277 331 386
#     4  12  24  40  66  96 130 180 217 273 338 395
#     4  12  20  42  72  94 124 174 232 278 319 385
#     4  11  25  42  64  98 135 165 222 275 331 407
#
# _framework density 20.38503
#
# number of rings (size 3 to 8) (size 9 to 14) (size 15 to 20)
#    0.000    1.143    5.714    0.000    4.000    2.857 
#    0.000    0.714    0.000    0.000    0.000    0.000 
#    0.000    0.000    0.000    0.000    0.000    0.000 
#
# Total GULP energy -347144.090245 kJ/mol
# GULP energy per Si atom -12398.003223 kJ/mol
# Density = 2.033863 g / cm^3
# Si number density = 20.385030 Si / 1000 Ang^3
#
#
#
# Elastic Constant Matrix: (Units=GPa)
#
#
# Indices 1 2 3 4 5 6 
#
# 1 102.2156 25.4761 33.0033 0.0000 18.4048 0.0000
# 2 25.4761 79.1901 28.0777 0.0000 17.5323 0.0000
# 3 33.0033 28.0777 96.7456 0.0000 28.1659 0.0000
# 4 0.0000 0.0000 0.0000 33.7853 0.0000 -1.2901
# 5 18.4048 17.5323 28.1659 0.0000 27.9948 0.0000
# 6 0.0000 0.0000 0.0000 -1.2901 0.0000 34.1935
#
#
#
# Elastic Compliance Matrix: (Units=1/GPa)
#
#
# Indices 1 2 3 4 5 6 
#
# 1 0.011768 -0.002074 -0.002175 0.000000 -0.004249 0.000000
# 2 -0.002074 0.015377 -0.001907 0.000000 -0.006348 0.000000
# 3 -0.002175 -0.001907 0.015370 0.000000 -0.012839 0.000000
# 4 0.000000 0.000000 0.000000 0.029641 0.000000 0.001118
# 5 -0.004249 -0.006348 -0.012839 0.000000 0.055408 0.000000
# 6 0.000000 0.000000 0.000000 0.001118 0.000000 0.029288
#
#
# Mechanical properties :
#
#
# Convention : Reuss Voigt Hill
#
# Bulk Modulus (GPa) = 33.11101 50.14061 41.62581
# Shear Modulus (GPa) = 27.89705 31.96765 29.93235
#
# Velocity S-wave (km/s) = 3.70335 3.96434 3.83606
# Velocity P-wave (km/s) = 5.87915 6.75313 6.33124
#
# Compressibility (1/GPa) = 0.03020143
#
# Stress axis : x y z
#
# Youngs Moduli (GPa) = 84.97931 65.03423 65.06190
#
# Poissons Ratio (x) = 0.13486 0.14154
# Poissons Ratio (y) = 0.17622 0.12408
# Poissons Ratio (z) = 0.18487 0.12403
#
# Static dielectric constant tensor:
#      x y z
#    x 3.258650 0.000000 -0.027280 
#    y 0.000000 3.667110 0.000000 
#    z -0.027280 0.000000 3.693250 
# 
# 
# High freq. dielectric constant tensor:
#      x y z
#    x 1.813370 0.000000 0.005510 
#    y 0.000000 1.785060 0.000000 
#    z 0.005510 0.000000 1.785590 
# 
# From -- ./inp_files/41124.got.cif
#   From: 2010.03.12/outbox.cif.g09.slc.cpg/sg14_21_cif.got.tgz:41124.got - 2010.03.31 13:35:05.
