data_PCOD8127100
_publ_section_title
;
Structure prediction by ZEFSAII (Michael W. Deem and Ramdas Pophale) SiO2 
 PCOD8127100
Probable space group: P 21/C
;
_chemical_formula_sum "Si O2"
_cell_formula_units_Z 32
_cell_length_a 11.561918
_cell_length_b 8.988242
_cell_length_c 15.361132
_cell_angle_alpha 90.000000
_cell_angle_beta 74.442463
_cell_angle_gamma 90.000000
_cell_volume 1537.861398
_symmetry_space_group_name_H-M "P 21/C"
_symmetry_group_IT_number 14
_symmetry_cell_setting 'monoclinic'
loop_
_space_group_symop_operation_xyz
x,y,z
-x,1/2+y,1/2-z
-x,-y,-z
x,1/2-y,1/2+z
loop_
_atom_site_type_symbol
_atom_site_label
_atom_site_fract_x
_atom_site_fract_y
_atom_site_fract_z
Si Si1 0.777254 0.715539 0.877798
Si Si2 0.514117 0.877421 0.184137
Si Si3 0.293775 0.851267 0.442457
Si Si4 0.880323 0.874774 0.705730
Si Si5 0.154035 0.610270 0.136904
Si Si6 0.248549 0.680388 0.758399
Si Si7 0.730733 0.801668 0.575316
Si Si8 0.527161 0.785133 0.855923
O O1 0.881485 0.779050 0.794414
O O2 0.771487 0.539417 0.862629
O O3 0.650046 0.793779 0.884242
O O4 0.805997 0.744856 0.973902
O O5 0.382151 0.812198 0.191124
O O6 0.613214 0.802564 0.102117
O O7 0.548561 0.834718 0.275442
O O8 0.511712 0.055133 0.174302
O O9 0.203162 0.811541 0.538980
O O10 0.246535 0.777853 0.361510
O O11 0.421897 0.777033 0.439655
O O12 0.310725 0.027264 0.423945
O O13 0.816679 0.780564 0.641438
O O14 0.013356 0.920265 0.649983
O O15 0.802609 0.017199 0.743830
O O16 0.166592 0.708461 0.220347
#
# Coordination Sequence:
#
# PCOD8127100 Si02
#       8
#     4   4   4   4   4   4   4   4
#     4  11  24  40  64  98 120 173 213 258 316 382
#     4  11  21  39  64  93 129 166 196 269 321 378
#     4   9  23  40  59  97 121 165 208 260 318 376
#     4  11  22  46  60  91 128 168 213 260 317 376
#     4  11  25  39  67  89 127 167 218 263 305 381
#     4  10  22  39  63  89 123 164 210 255 317 376
#     4  10  23  40  66  91 128 165 205 263 321 373
#     4  11  22  38  65  92 134 157 211 256 324 382
#
# _framework density 20.808119000000001
#
# number of rings (size 3 to 8) (size 9 to 14) (size 15 to 20)
#    0.000    1.500    2.500    2.250    7.000    8.000 
#    0.000    0.000    0.000    3.750    0.000    0.000 
#    0.000    0.000    0.000    0.000    0.000    0.000 
#
# Total GULP energy -396767.665762 kJ/mol
# GULP energy per Si atom -12398.989555 kJ/mol
# Density = 2.076076 g / cm^3
# Si number density = 20.808119 Si / 1000 Ang^3
#
#
#
# Elastic Constant Matrix: (Units=GPa)
#
#
# Indices 1 2 3 4 5 6 
#
# 1 92.2818 24.7322 41.1586 0.0000 -9.0697 0.0000
# 2 24.7322 62.3305 45.9031 0.0000 4.6758 0.0000
# 3 41.1586 45.9031 128.5078 0.0000 -16.7664 0.0000
# 4 0.0000 0.0000 0.0000 27.8052 0.0000 2.4069
# 5 -9.0697 4.6758 -16.7664 0.0000 23.1971 0.0000
# 6 0.0000 0.0000 0.0000 2.4069 0.0000 24.2813
#
#
#
# Elastic Compliance Matrix: (Units=1/GPa)
#
#
# Indices 1 2 3 4 5 6 
#
# 1 0.013343 -0.003921 -0.002306 0.000000 0.004340 0.000000
# 2 -0.003921 0.025831 -0.009772 0.000000 -0.013803 0.000000
# 3 -0.002306 -0.009772 0.013415 0.000000 0.010764 0.000000
# 4 0.000000 0.000000 0.000000 0.036276 0.000000 -0.003596
# 5 0.004340 -0.013803 0.010764 0.000000 0.055368 0.000000
# 6 0.000000 0.000000 0.000000 -0.003596 0.000000 0.041540
#
#
# Mechanical properties :
#
#
# Convention : Reuss Voigt Hill
#
# Bulk Modulus (GPa) = 48.56729 56.30088 52.43409
# Shear Modulus (GPa) = 22.25826 26.47850 24.36838
#
# Velocity S-wave (km/s) = 3.27416 3.57109 3.42585
# Velocity P-wave (km/s) = 6.13879 6.64225 6.39548
#
# Compressibility (1/GPa) = 0.02058999
#
# Stress axis : x y z
#
# Youngs Moduli (GPa) = 74.94826 38.71264 74.54170
#
# Poissons Ratio (x) = 0.15180 0.17193
# Poissons Ratio (y) = 0.29388 0.72842
# Poissons Ratio (z) = 0.17287 0.37830
#
# Static dielectric constant tensor:
#      x y z
#    x 3.699660 0.000000 -0.059480 
#    y 0.000000 3.607280 0.000000 
#    z -0.059480 0.000000 3.938370 
# 
# 
# High freq. dielectric constant tensor:
#      x y z
#    x 1.807550 0.000000 -0.008050 
#    y 0.000000 1.801810 0.000000 
#    z -0.008050 0.000000 1.821170 
# 
# From -- ./inp_files/43423.got.cif
#   From: 2010.03.12/outbox.cif.g09.slc.cpg/sg14_22_cif.got.tgz:43423.got - 2010.03.31 13:35:05.
