data_PCOD8127613
_publ_section_title
;
Structure prediction by ZEFSAII (Michael W. Deem and Ramdas Pophale) SiO2 
 PCOD8127613
Probable space group: P 21/C
;
_chemical_formula_sum "Si O2"
_cell_formula_units_Z 28
_cell_length_a 9.223685
_cell_length_b 19.470909
_cell_length_c 8.911259
_cell_angle_alpha 90.000000
_cell_angle_beta 125.197173
_cell_angle_gamma 90.000000
_cell_volume 1307.807866
_symmetry_space_group_name_H-M "P 21/C"
_symmetry_group_IT_number 14
_symmetry_cell_setting 'monoclinic'
loop_
_space_group_symop_operation_xyz
x,y,z
-x,1/2+y,1/2-z
-x,-y,-z
x,1/2-y,1/2+z
loop_
_atom_site_type_symbol
_atom_site_label
_atom_site_fract_x
_atom_site_fract_y
_atom_site_fract_z
Si Si1 0.031268 0.179977 0.545922
Si Si2 0.623785 0.324009 0.792458
Si Si3 0.601556 0.316975 0.130208
Si Si4 0.162966 0.451427 0.627167
Si Si5 0.291943 0.418891 0.032687
Si Si6 0.492406 0.527078 0.328905
Si Si7 0.012417 0.179134 0.886918
O O1 0.154257 0.120810 0.554434
O O2 0.052908 0.183818 0.736214
O O3 0.085734 0.252196 0.506990
O O4 0.829929 0.164582 0.380394
O O5 0.547893 0.257686 0.661054
O O6 0.528039 0.391229 0.674352
O O7 0.581894 0.313903 0.941118
O O8 0.471040 0.374783 0.117187
O O9 0.804177 0.334301 0.297742
O O10 0.328167 0.490193 0.652016
O O11 0.131369 0.379370 0.529036
O O12 0.000000 0.500000 0.500000
O O13 0.196226 0.439130 0.822164
O O14 0.335582 0.490020 0.143375
O O15 0.500000 0.500000 0.500000
#
# Coordination Sequence:
#
# PCOD8127613 Si02
#       7
#     4   4   4   4   4   4   4
#     4  10  23  41  72  98 135 174 227 284 336 408
#     4  10  24  44  70  98 137 178 226 279 345 407
#     4  10  23  44  71  99 135 180 229 287 336 411
#     4  12  27  44  70  99 140 181 230 285 346 414
#     4  12  26  44  71 101 138 182 231 289 347 411
#     4  12  28  46  67 103 139 184 230 283 353 422
#     4  10  22  45  66 100 133 179 228 279 345 405
#
# _framework density 21.409873999999999
#
# number of rings (size 3 to 8) (size 9 to 14) (size 15 to 20)
#    0.000    1.143    1.429    3.000   10.000    2.857 
#    0.000    0.000    0.000    0.000    0.000    0.000 
#    0.000    0.000    0.000    0.000    0.000    0.000 
#
# Total GULP energy -347361.415100 kJ/mol
# GULP energy per Si atom -12405.764825 kJ/mol
# Density = 2.136114 g / cm^3
# Si number density = 21.409874 Si / 1000 Ang^3
#
#
#
# Elastic Constant Matrix: (Units=GPa)
#
#
# Indices 1 2 3 4 5 6 
#
# 1 88.9328 27.9343 22.6550 0.0000 -7.7873 0.0000
# 2 27.9343 110.3264 53.7306 0.0000 -5.8676 0.0000
# 3 22.6550 53.7306 120.7007 0.0000 -15.5814 0.0000
# 4 0.0000 0.0000 0.0000 51.8671 0.0000 3.6366
# 5 -7.7873 -5.8676 -15.5814 0.0000 30.4296 0.0000
# 6 0.0000 0.0000 0.0000 3.6366 0.0000 32.5071
#
#
#
# Elastic Compliance Matrix: (Units=1/GPa)
#
#
# Indices 1 2 3 4 5 6 
#
# 1 0.012487 -0.002607 -0.000895 0.000000 0.002235 0.000000
# 2 -0.002607 0.012123 -0.005024 0.000000 -0.000902 0.000000
# 3 -0.000895 -0.005024 0.011280 0.000000 0.004578 0.000000
# 4 0.000000 0.000000 0.000000 0.019432 0.000000 -0.002174
# 5 0.002235 -0.000902 0.004578 0.000000 0.035605 0.000000
# 6 0.000000 0.000000 0.000000 -0.002174 0.000000 0.031006
#
#
# Mechanical properties :
#
#
# Convention : Reuss Voigt Hill
#
# Bulk Modulus (GPa) = 53.08106 58.73330 55.90718
# Shear Modulus (GPa) = 34.42023 37.33677 35.87850
#
# Velocity S-wave (km/s) = 4.01394 4.18054 4.09809
# Velocity P-wave (km/s) = 6.80653 7.12705 6.96864
#
# Compressibility (1/GPa) = 0.01883911
#
# Stress axis : x y z
#
# Youngs Moduli (GPa) = 80.08365 82.48985 88.65105
#
# Poissons Ratio (x) = 0.21506 0.07932
# Poissons Ratio (y) = 0.20878 0.44535
# Poissons Ratio (z) = 0.07165 0.41439
#
# Static dielectric constant tensor:
#      x y z
#    x 4.039890 0.000000 0.029390 
#    y 0.000000 4.234600 0.000000 
#    z 0.029390 0.000000 3.879440 
# 
# 
# High freq. dielectric constant tensor:
#      x y z
#    x 1.853310 0.000000 -0.001380 
#    y 0.000000 1.852330 0.000000 
#    z -0.001380 0.000000 1.847580 
# 
# From -- ./inp_files/10428.got.cif
#   From: 2010.03.12/outbox.cif.g09.slc.cpg/sg14_6_cif.got.tgz:10428.got - 2010.03.31 13:35:05.
