data_PCOD8127294
_publ_section_title
;
Structure prediction by ZEFSAII (Michael W. Deem and Ramdas Pophale) SiO2 
 PCOD8127294
Probable space group: P 21/C
;
_chemical_formula_sum "Si O2"
_cell_formula_units_Z 20
_cell_length_a 8.123561
_cell_length_b 5.051457
_cell_length_c 21.248643
_cell_angle_alpha 90.000000
_cell_angle_beta 99.579845
_cell_angle_gamma 90.000000
_cell_volume 859.795737
_symmetry_space_group_name_H-M "P 21/C"
_symmetry_group_IT_number 14
_symmetry_cell_setting 'monoclinic'
loop_
_space_group_symop_operation_xyz
x,y,z
-x,1/2+y,1/2-z
-x,-y,-z
x,1/2-y,1/2+z
loop_
_atom_site_type_symbol
_atom_site_label
_atom_site_fract_x
_atom_site_fract_y
_atom_site_fract_z
Si Si1 0.455312 0.067297 0.709039
Si Si2 0.099947 0.454843 0.401971
Si Si3 0.888209 0.970002 0.375053
Si Si4 0.735451 0.660514 0.989524
Si Si5 0.604358 0.202248 0.591367
O O1 0.473108 0.363070 0.736266
O O2 0.259711 0.014241 0.684861
O O3 0.560920 0.040949 0.651560
O O4 0.140275 0.392281 0.478437
O O5 0.278053 0.546932 0.383447
O O6 0.962108 0.676506 0.381769
O O7 0.026216 0.188510 0.364893
O O8 0.819067 0.022903 0.441351
O O9 0.703692 0.482593 0.049128
O O10 0.567987 0.799148 0.951975
#
# Coordination Sequence:
#
# PCOD8127294 Si02
#       5
#     4   4   4   4   4
#     4  11  26  50  71  89 127 182 237 277 324 397
#     4  12  22  41  64 105 137 168 208 273 339 398
#     4  11  25  40  69 101 132 175 215 270 342 396
#     4  10  22  41  65 103 140 173 209 264 336 416
#     4  10  24  41  69  99 133 177 222 266 332 398
#
# _framework density 23.261337999999999
#
# number of rings (size 3 to 8) (size 9 to 14) (size 15 to 20)
#    0.000    1.200    2.000    3.000    5.600    0.000 
#    0.000    4.000    0.000    0.000    0.000    0.000 
#    0.000    0.000    0.000    0.000    0.000    0.000 
#
# Total GULP energy -247934.279827 kJ/mol
# GULP energy per Si atom -12396.713991 kJ/mol
# Density = 2.320839 g / cm^3
# Si number density = 23.261338 Si / 1000 Ang^3
#
#
#
# Elastic Constant Matrix: (Units=GPa)
#
#
# Indices 1 2 3 4 5 6 
#
# 1 79.0518 36.4647 16.8309 0.0000 40.6782 0.0000
# 2 36.4647 103.0618 24.2584 0.0000 16.9886 0.0000
# 3 16.8309 24.2584 73.1959 0.0000 24.5466 0.0000
# 4 0.0000 0.0000 0.0000 27.5421 0.0000 7.8025
# 5 40.6782 16.9886 24.5466 0.0000 37.9746 0.0000
# 6 0.0000 0.0000 0.0000 7.8025 0.0000 47.7607
#
#
#
# Elastic Compliance Matrix: (Units=1/GPa)
#
#
# Indices 1 2 3 4 5 6 
#
# 1 0.034031 -0.007536 0.007363 0.000000 -0.037842 0.000000
# 2 -0.007536 0.012493 -0.004137 0.000000 0.005158 0.000000
# 3 0.007363 -0.004137 0.019617 0.000000 -0.018716 0.000000
# 4 0.000000 0.000000 0.000000 0.038070 0.000000 -0.006219
# 5 -0.037842 0.005158 -0.018716 0.000000 0.076660 0.000000
# 6 0.000000 0.000000 0.000000 -0.006219 0.000000 0.021954
#
#
# Mechanical properties :
#
#
# Convention : Reuss Voigt Hill
#
# Bulk Modulus (GPa) = 17.38540 45.60195 31.49367
# Shear Modulus (GPa) = 21.68094 34.50585 28.09340
#
# Velocity S-wave (km/s) = 3.05628 3.85567 3.47901
# Velocity P-wave (km/s) = 4.46594 6.28238 5.45036
#
# Compressibility (1/GPa) = 0.05751954
#
# Stress axis : x y z
#
# Youngs Moduli (GPa) = 29.38516 80.04614 50.97719
#
# Poissons Ratio (x) = 0.60321 -0.37533
# Poissons Ratio (y) = 0.22144 0.21090
# Poissons Ratio (z) = -0.21635 0.33117
#
# Static dielectric constant tensor:
#      x y z
#    x 4.445100 0.000000 0.234000 
#    y 0.000000 3.989440 0.000000 
#    z 0.234000 0.000000 4.036750 
# 
# 
# High freq. dielectric constant tensor:
#      x y z
#    x 1.934260 0.000000 0.027460 
#    y 0.000000 1.913290 0.000000 
#    z 0.027460 0.000000 1.900640 
# 
# From -- ./inp_files/64039.got.cif
#   From: 2010.03.12/outbox.cif.g09.slc.cpg/sg14_33_cif.got.tgz:64039.got - 2010.03.31 13:35:05.
