data_PCOD8127435
_publ_section_title
;
Structure prediction by ZEFSAII (Michael W. Deem and Ramdas Pophale) SiO2 
 PCOD8127435
Probable space group: P 21/C
;
_chemical_formula_sum "Si O2"
_cell_formula_units_Z 32
_cell_length_a 10.946930
_cell_length_b 14.757089
_cell_length_c 14.284717
_cell_angle_alpha 90.000000
_cell_angle_beta 39.990016
_cell_angle_gamma 90.000000
_cell_volume 1483.002798
_symmetry_space_group_name_H-M "P 21/C"
_symmetry_group_IT_number 14
_symmetry_cell_setting 'monoclinic'
loop_
_space_group_symop_operation_xyz
x,y,z
-x,1/2+y,1/2-z
-x,-y,-z
x,1/2-y,1/2+z
loop_
_atom_site_type_symbol
_atom_site_label
_atom_site_fract_x
_atom_site_fract_y
_atom_site_fract_z
Si Si1 0.071693 0.311681 0.539485
Si Si2 0.105761 0.862357 0.405533
Si Si3 0.491266 0.180214 0.746227
Si Si4 0.831510 0.555921 0.200650
Si Si5 0.422839 0.979058 0.441040
Si Si6 0.939470 0.423936 0.463207
Si Si7 0.031113 0.545234 0.255659
Si Si8 0.492577 0.892940 0.777195
O O1 0.296667 0.328947 0.420520
O O2 0.950211 0.375939 0.678587
O O3 0.994919 0.210905 0.603761
O O4 0.012481 0.329855 0.464581
O O5 0.325582 0.840720 0.298201
O O6 0.973040 0.868434 0.575124
O O7 0.086798 0.955958 0.363329
O O8 0.480131 0.109646 0.664847
O O9 0.498673 0.285252 0.713688
O O10 0.839160 0.566026 0.308855
O O11 0.621610 0.564096 0.282488
O O12 0.202635 0.954002 0.580986
O O13 0.500000 0.000000 0.500000
O O14 0.444730 0.068095 0.361843
O O15 0.029993 0.447819 0.309227
O O16 0.715675 0.427774 0.579905
O O17 0.000000 0.500000 0.500000
#
# Coordination Sequence:
#
# PCOD8127435 Si02
#       8
#     4   4   4   4   4   4   4   4
#     4  11  23  44  69 101 137 179 230 284 345 415
#     4  11  22  45  71  93 137 190 223 273 353 418
#     4  12  24  44  73 102 137 191 231 280 355 427
#     4  11  23  45  69  96 139 185 227 280 349 424
#     4  12  24  45  71 103 140 179 241 293 342 418
#     4  10  22  42  68  96 136 179 224 285 349 414
#     4  11  24  43  67 103 137 176 229 291 345 407
#     4  12  24  45  72 102 138 194 232 278 366 420
#
# _framework density 21.577843000000001
#
# number of rings (size 3 to 8) (size 9 to 14) (size 15 to 20)
#    0.000    0.750    5.000    4.500    0.000    0.500 
#    6.750    0.000    0.000    0.000    0.000    0.000 
#    0.000    0.000    0.000    0.000    0.000    0.000 
#
# Total GULP energy -396558.366039 kJ/mol
# GULP energy per Si atom -12392.448939 kJ/mol
# Density = 2.152873 g / cm^3
# Si number density = 21.577843 Si / 1000 Ang^3
#
#
#
# Elastic Constant Matrix: (Units=GPa)
#
#
# Indices 1 2 3 4 5 6 
#
# 1 109.5783 25.2509 17.0395 0.0000 -7.9798 0.0000
# 2 25.2509 124.0234 29.1464 0.0000 6.5399 0.0000
# 3 17.0395 29.1464 68.7852 0.0000 -19.5241 0.0000
# 4 0.0000 0.0000 0.0000 27.0373 0.0000 -6.9136
# 5 -7.9798 6.5399 -19.5241 0.0000 43.3645 0.0000
# 6 0.0000 0.0000 0.0000 -6.9136 0.0000 30.2748
#
#
#
# Elastic Compliance Matrix: (Units=1/GPa)
#
#
# Indices 1 2 3 4 5 6 
#
# 1 0.009843 -0.001791 -0.001248 0.000000 0.001519 0.000000
# 2 -0.001791 0.009771 -0.004825 0.000000 -0.003976 0.000000
# 3 -0.001248 -0.004825 0.019529 0.000000 0.009290 0.000000
# 4 0.000000 0.000000 0.000000 0.039280 0.000000 0.008970
# 5 0.001519 -0.003976 0.009290 0.000000 0.028122 0.000000
# 6 0.000000 0.000000 0.000000 0.008970 0.000000 0.035079
#
#
# Mechanical properties :
#
#
# Convention : Reuss Voigt Hill
#
# Bulk Modulus (GPa) = 42.70809 49.47337 46.09073
# Shear Modulus (GPa) = 30.27405 35.53201 32.90303
#
# Velocity S-wave (km/s) = 3.74975 4.06234 3.90917
# Velocity P-wave (km/s) = 6.21152 6.70680 6.46391
#
# Compressibility (1/GPa) = 0.02341476
#
# Stress axis : x y z
#
# Youngs Moduli (GPa) = 101.59171 102.34160 51.20632
#
# Poissons Ratio (x) = 0.18328 0.06392
# Poissons Ratio (y) = 0.18193 0.24708
# Poissons Ratio (z) = 0.12682 0.49382
#
# Static dielectric constant tensor:
#      x y z
#    x 2.343320 0.000000 0.269890 
#    y 0.000000 4.155450 0.000000 
#    z 0.269890 0.000000 3.802280 
# 
# 
# High freq. dielectric constant tensor:
#      x y z
#    x 1.856230 0.000000 -0.018960 
#    y 0.000000 1.854690 0.000000 
#    z -0.018960 0.000000 1.831780 
# 
# From -- ./inp_files/45075.got.cif
#   From: 2010.03.12/outbox.cif.g09.slc.cpg/sg14_23_cif.got.tgz:45075.got - 2010.03.31 13:35:05.
