data_PCOD8127528
_publ_section_title
;
Structure prediction by ZEFSAII (Michael W. Deem and Ramdas Pophale) SiO2 
 PCOD8127528
Probable space group: P 21/C
;
_chemical_formula_sum "Si O2"
_cell_formula_units_Z 28
_cell_length_a 10.592209
_cell_length_b 7.574293
_cell_length_c 25.814054
_cell_angle_alpha 90.000000
_cell_angle_beta 147.829214
_cell_angle_gamma 90.000000
_cell_volume 1102.705157
_symmetry_space_group_name_H-M "P 21/C"
_symmetry_group_IT_number 14
_symmetry_cell_setting 'monoclinic'
loop_
_space_group_symop_operation_xyz
x,y,z
-x,1/2+y,1/2-z
-x,-y,-z
x,1/2-y,1/2+z
loop_
_atom_site_type_symbol
_atom_site_label
_atom_site_fract_x
_atom_site_fract_y
_atom_site_fract_z
Si Si1 0.455731 0.334556 0.704650
Si Si2 0.282972 0.224226 0.475533
Si Si3 0.505936 0.451061 0.141834
Si Si4 0.594639 0.189859 0.853922
Si Si5 0.200725 0.834361 0.879438
Si Si6 0.014146 0.303423 0.292496
Si Si7 0.937980 0.417327 0.559530
O O1 0.392229 0.159771 0.649860
O O2 0.644750 0.277138 0.814534
O O3 0.549256 0.503113 0.702900
O O4 0.220288 0.413216 0.650896
O O5 0.324311 0.066771 0.530615
O O6 0.541689 0.264090 0.542673
O O7 0.162263 0.387391 0.464050
O O8 0.114502 0.158016 0.369049
O O9 0.551204 0.658944 0.166323
O O10 0.756197 0.360319 0.220549
O O11 0.833664 0.154040 0.968981
O O12 0.994406 0.758593 0.769601
O O13 0.130145 0.796447 0.914464
O O14 0.206952 0.042502 0.868021
#
# Coordination Sequence:
#
# PCOD8127528 Si02
#       7
#     4   4   4   4   4   4   4
#     4  12  26  45  66 101 139 180 231 284 341 407
#     4  10  22  43  70  97 139 180 224 286 345 402
#     4  11  25  44  67 104 133 181 232 278 344 407
#     4  12  25  45  69  96 138 180 229 287 337 411
#     4  10  23  41  68 102 132 182 224 280 348 403
#     4  10  22  43  69  98 144 171 226 289 335 413
#     4  11  24  43  68  98 141 179 227 287 342 406
#
# _framework density 25.392099000000002
#
# number of rings (size 3 to 8) (size 9 to 14) (size 15 to 20)
#    0.000    1.143    2.857    3.857    0.000    6.286 
#    2.571    2.857    0.000    0.000    0.000    0.000 
#    0.000    0.000    0.000    0.000    0.000    0.000 
#
# Total GULP energy -346886.571457 kJ/mol
# GULP energy per Si atom -12388.806123 kJ/mol
# Density = 2.533431 g / cm^3
# Si number density = 25.392099 Si / 1000 Ang^3
#
#
#
# Elastic Constant Matrix: (Units=GPa)
#
#
# Indices 1 2 3 4 5 6 
#
# 1 74.0144 27.5204 35.4395 0.0000 -10.9776 0.0000
# 2 27.5204 95.7678 41.9484 0.0000 -20.1428 0.0000
# 3 35.4395 41.9484 162.3684 0.0000 -46.2958 0.0000
# 4 0.0000 0.0000 0.0000 35.5728 0.0000 -13.6337
# 5 -10.9776 -20.1428 -46.2958 0.0000 40.2091 0.0000
# 6 0.0000 0.0000 0.0000 -13.6337 0.0000 16.2469
#
#
#
# Elastic Compliance Matrix: (Units=1/GPa)
#
#
# Indices 1 2 3 4 5 6 
#
# 1 0.016057 -0.003525 -0.002751 0.000000 -0.000549 0.000000
# 2 -0.003525 0.012902 -0.001482 0.000000 0.003795 0.000000
# 3 -0.002751 -0.001482 0.009999 0.000000 0.010019 0.000000
# 4 0.000000 0.000000 0.000000 0.041439 0.000000 0.034774
# 5 -0.000549 0.003795 0.010019 0.000000 0.038157 0.000000
# 6 0.000000 0.000000 0.000000 0.034774 0.000000 0.090731
#
#
# Mechanical properties :
#
#
# Convention : Reuss Voigt Hill
#
# Bulk Modulus (GPa) = 42.65643 60.21857 51.43750
# Shear Modulus (GPa) = 21.49491 33.55526 27.52508
#
# Velocity S-wave (km/s) = 2.91266 3.63917 3.29599
# Velocity P-wave (km/s) = 5.30537 6.43623 5.89797
#
# Compressibility (1/GPa) = 0.02344312
#
# Stress axis : x y z
#
# Youngs Moduli (GPa) = 62.27753 77.50651 100.01245
#
# Poissons Ratio (x) = 0.27321 0.27509
# Poissons Ratio (y) = 0.21952 0.14821
# Poissons Ratio (z) = 0.17130 0.11486
#
# Static dielectric constant tensor:
#      x y z
#    x 4.579480 0.000000 -0.731080 
#    y 0.000000 4.776440 0.000000 
#    z -0.731080 0.000000 5.078510 
# 
# 
# High freq. dielectric constant tensor:
#      x y z
#    x 1.998720 0.000000 -0.032770 
#    y 0.000000 1.999470 0.000000 
#    z -0.032770 0.000000 2.031100 
# 
# From -- ./inp_files/77147.got.cif
#   From: 2010.03.12/outbox.cif.g09.slc.cpg/sg14_39_cif.got.tgz:77147.got - 2010.03.31 13:35:05.
