data_PCOD8127085
_publ_section_title
;
Structure prediction by ZEFSAII (Michael W. Deem and Ramdas Pophale) SiO2 
 PCOD8127085
Probable space group: P 21/C
;
_chemical_formula_sum "Si O2"
_cell_formula_units_Z 16
_cell_length_a 11.105611
_cell_length_b 11.153598
_cell_length_c 5.084628
_cell_angle_alpha 90.000000
_cell_angle_beta 107.386677
_cell_angle_gamma 90.000000
_cell_volume 601.043674
_symmetry_space_group_name_H-M "P 21/C"
_symmetry_group_IT_number 14
_symmetry_cell_setting 'monoclinic'
loop_
_space_group_symop_operation_xyz
x,y,z
-x,1/2+y,1/2-z
-x,-y,-z
x,1/2-y,1/2+z
loop_
_atom_site_type_symbol
_atom_site_label
_atom_site_fract_x
_atom_site_fract_y
_atom_site_fract_z
Si Si1 0.293243 0.180444 0.111502
Si Si2 0.461356 0.573429 0.225949
Si Si3 0.959114 0.829627 0.683554
Si Si4 0.193714 0.971755 0.703211
O O1 0.247411 0.212041 0.382736
O O2 0.446621 0.189793 0.212918
O O3 0.243395 0.447655 0.480822
O O4 0.500000 0.500000 0.500000
O O5 0.311148 0.596883 0.137728
O O6 0.500000 0.500000 0.000000
O O7 0.933218 0.715464 0.469842
O O8 0.878954 0.948750 0.560736
O O9 0.105341 0.867022 0.759134
#
# Coordination Sequence:
#
# PCOD8127085 Si02
#       4
#     4   4   4   4
#     4  11  22  38  64  97 131 169 211 257 318 391
#     4  10  22  39  61  92 128 168 211 262 321 380
#     4  11  26  44  67  97 129 174 226 274 325 385
#     4  10  24  44  68  95 135 174 217 274 329 386
#
# _framework density 26.620359000000001
#
# number of rings (size 3 to 8) (size 9 to 14) (size 15 to 20)
#    0.000    1.500    0.000    4.500    0.000   16.000 
#    0.000    0.000    0.000    0.000    0.000    0.000 
#    0.000    0.000    0.000    0.000    0.000    0.000 
#
# Total GULP energy -198318.008465 kJ/mol
# GULP energy per Si atom -12394.875529 kJ/mol
# Density = 2.655977 g / cm^3
# Si number density = 26.620359 Si / 1000 Ang^3
#
#
#
# Elastic Constant Matrix: (Units=GPa)
#
#
# Indices 1 2 3 4 5 6 
#
# 1 203.8565 25.8413 72.0087 0.0000 -0.5024 0.0000
# 2 25.8413 56.9967 33.8880 0.0000 -2.4691 0.0000
# 3 72.0087 33.8880 133.8876 0.0000 -24.9617 0.0000
# 4 0.0000 0.0000 0.0000 20.8947 0.0000 -2.2565
# 5 -0.5024 -2.4691 -24.9617 0.0000 61.5449 0.0000
# 6 0.0000 0.0000 0.0000 -2.2565 0.0000 66.3032
#
#
#
# Elastic Compliance Matrix: (Units=1/GPa)
#
#
# Indices 1 2 3 4 5 6 
#
# 1 0.006202 -0.000868 -0.003367 0.000000 -0.001350 0.000000
# 2 -0.000868 0.020886 -0.005046 0.000000 -0.001216 0.000000
# 3 -0.003367 -0.005046 0.011374 0.000000 0.004383 0.000000
# 4 0.000000 0.000000 0.000000 0.048036 0.000000 0.001635
# 5 -0.001350 -0.001216 0.004383 0.000000 0.017966 0.000000
# 6 0.000000 0.000000 0.000000 0.001635 0.000000 0.015138
#
#
# Mechanical properties :
#
#
# Convention : Reuss Voigt Hill
#
# Bulk Modulus (GPa) = 50.25425 73.13519 61.69472
# Shear Modulus (GPa) = 34.53080 47.28206 40.90643
#
# Velocity S-wave (km/s) = 3.60551 4.21903 3.92428
# Velocity P-wave (km/s) = 6.02097 7.16007 6.61509
#
# Compressibility (1/GPa) = 0.01989882
#
# Stress axis : x y z
#
# Youngs Moduli (GPa) = 161.24916 47.87881 87.91606
#
# Poissons Ratio (x) = 0.04156 0.29605
# Poissons Ratio (y) = 0.13998 0.44364
# Poissons Ratio (z) = 0.54298 0.24161
#
# Static dielectric constant tensor:
#      x y z
#    x 8.065460 0.000000 -0.291560 
#    y 0.000000 4.662440 0.000000 
#    z -0.291560 0.000000 5.528470 
# 
# 
# High freq. dielectric constant tensor:
#      x y z
#    x 2.131740 0.000000 0.010200 
#    y 0.000000 2.022200 0.000000 
#    z 0.010200 0.000000 2.083630 
# 
# From -- ./inp_files/2408.got.cif
#   From: 2010.03.12/outbox.cif.g09.slc.cpg/sg14_2_cif.got.tgz:2408.got - 2010.03.31 13:35:05.
