data_PCOD8127964
_publ_section_title
;
Structure prediction by ZEFSAII (Michael W. Deem and Ramdas Pophale) SiO2 
 PCOD8127964
Probable space group: P 21/C
;
_chemical_formula_sum "Si O2"
_cell_formula_units_Z 20
_cell_length_a 12.213962
_cell_length_b 7.419077
_cell_length_c 9.184573
_cell_angle_alpha 90.000000
_cell_angle_beta 64.629522
_cell_angle_gamma 90.000000
_cell_volume 752.004737
_symmetry_space_group_name_H-M "P 21/C"
_symmetry_group_IT_number 14
_symmetry_cell_setting 'monoclinic'
loop_
_space_group_symop_operation_xyz
x,y,z
-x,1/2+y,1/2-z
-x,-y,-z
x,1/2-y,1/2+z
loop_
_atom_site_type_symbol
_atom_site_label
_atom_site_fract_x
_atom_site_fract_y
_atom_site_fract_z
Si Si1 0.422639 0.230565 0.081022
Si Si2 0.446990 0.904708 0.741751
Si Si3 0.949409 0.382338 0.186013
Si Si4 0.174961 0.600706 0.441565
Si Si5 0.852261 0.756158 0.224154
O O1 0.492903 0.073806 0.131283
O O2 0.451148 0.409318 0.156011
O O3 0.279937 0.190035 0.148487
O O4 0.475005 0.254836 0.889688
O O5 0.310537 0.831008 0.835729
O O6 0.919397 0.221390 0.094072
O O7 0.853273 0.381313 0.372984
O O8 0.932173 0.582495 0.122707
O O9 0.083895 0.354739 0.174975
O O10 0.157943 0.393031 0.404297
#
# Coordination Sequence:
#
# PCOD8127964 Si02
#       5
#     4   4   4   4   4
#     4  10  24  41  69  95 136 173 227 275 345 407
#     4  10  23  44  64 100 132 173 222 284 337 414
#     4  12  26  46  74 101 144 186 234 295 346 412
#     4  11  26  47  70 107 139 183 238 287 353 419
#     4  11  26  44  71 103 140 187 234 287 345 416
#
# _framework density 26.595578
#
# number of rings (size 3 to 8) (size 9 to 14) (size 15 to 20)
#    0.000    1.200    2.000    1.800    8.400    3.200 
#    0.000    0.000    0.000    0.000    0.000    0.000 
#    0.000    0.000    0.000    0.000    0.000    0.000 
#
# Total GULP energy -248145.439397 kJ/mol
# GULP energy per Si atom -12407.271970 kJ/mol
# Density = 2.653505 g / cm^3
# Si number density = 26.595578 Si / 1000 Ang^3
#
#
#
# Elastic Constant Matrix: (Units=GPa)
#
#
# Indices 1 2 3 4 5 6 
#
# 1 168.9933 26.1493 13.2106 0.0000 -13.0437 0.0000
# 2 26.1493 76.3702 -0.9206 0.0000 4.6592 0.0000
# 3 13.2106 -0.9206 55.7484 0.0000 11.9125 0.0000
# 4 0.0000 0.0000 0.0000 30.6550 0.0000 9.2556
# 5 -13.0437 4.6592 11.9125 0.0000 40.2019 0.0000
# 6 0.0000 0.0000 0.0000 9.2556 0.0000 27.4881
#
#
#
# Elastic Compliance Matrix: (Units=1/GPa)
#
#
# Indices 1 2 3 4 5 6 
#
# 1 0.006733 -0.002526 -0.002313 0.000000 0.003163 0.000000
# 2 -0.002526 0.014153 0.001450 0.000000 -0.002890 0.000000
# 3 -0.002313 0.001450 0.019971 0.000000 -0.006836 0.000000
# 4 0.000000 0.000000 0.000000 0.036313 0.000000 -0.012227
# 5 0.003163 -0.002890 -0.006836 0.000000 0.028261 0.000000
# 6 0.000000 0.000000 0.000000 -0.012227 0.000000 0.040496
#
#
# Mechanical properties :
#
#
# Convention : Reuss Voigt Hill
#
# Bulk Modulus (GPa) = 29.34491 41.99894 35.67193
# Shear Modulus (GPa) = 30.47568 37.18053 33.82810
#
# Velocity S-wave (km/s) = 3.38878 3.74304 3.57030
# Velocity P-wave (km/s) = 5.13512 5.87422 5.51706
#
# Compressibility (1/GPa) = 0.03407746
#
# Stress axis : x y z
#
# Youngs Moduli (GPa) = 148.51661 70.65692 50.07370
#
# Poissons Ratio (x) = 0.17850 0.11583
# Poissons Ratio (y) = 0.37520 -0.07260
# Poissons Ratio (z) = 0.34354 -0.10244
#
# Static dielectric constant tensor:
#      x y z
#    x 4.903060 0.000000 -0.063030 
#    y 0.000000 4.912230 0.000000 
#    z -0.063030 0.000000 5.123610 
# 
# 
# High freq. dielectric constant tensor:
#      x y z
#    x 2.073070 0.000000 -0.002340 
#    y 0.000000 2.077990 0.000000 
#    z -0.002340 0.000000 2.092290 
# 
# From -- ./inp_files/11792.got.cif
#   From: 2010.03.12/outbox.cif.g09.slc.cpg/sg14_6_cif.got.tgz:11792.got - 2010.03.31 13:35:05.
