data_PCOD8127552
_publ_section_title
;
Structure prediction by ZEFSAII (Michael W. Deem and Ramdas Pophale) SiO2 
 PCOD8127552
Probable space group: P 21/C
;
_chemical_formula_sum "Si O2"
_cell_formula_units_Z 28
_cell_length_a 12.489139
_cell_length_b 11.605734
_cell_length_c 14.666021
_cell_angle_alpha 90.000000
_cell_angle_beta 35.674911
_cell_angle_gamma 90.000000
_cell_volume 1239.721614
_symmetry_space_group_name_H-M "P 21/C"
_symmetry_group_IT_number 14
_symmetry_cell_setting 'monoclinic'
loop_
_space_group_symop_operation_xyz
x,y,z
-x,1/2+y,1/2-z
-x,-y,-z
x,1/2-y,1/2+z
loop_
_atom_site_type_symbol
_atom_site_label
_atom_site_fract_x
_atom_site_fract_y
_atom_site_fract_z
Si Si1 0.207596 0.199609 0.752175
Si Si2 0.067033 0.213149 0.044176
Si Si3 0.269714 0.446219 0.620357
Si Si4 0.452577 0.178788 0.848417
Si Si5 0.918022 0.492355 0.763775
Si Si6 0.583450 0.141595 0.560578
Si Si7 0.298535 0.814707 0.164050
O O1 0.279176 0.321876 0.663643
O O2 0.378965 0.119770 0.664325
O O3 0.090154 0.126123 0.760867
O O4 0.077920 0.216773 0.928076
O O5 0.984364 0.090670 0.135264
O O6 0.919161 0.310366 0.170195
O O7 0.265774 0.248341 0.950200
O O8 0.374873 0.437306 0.450314
O O9 0.642310 0.449667 0.381495
O O10 0.058270 0.479725 0.750069
O O11 0.576856 0.152480 0.674713
O O12 0.582909 0.242086 0.834207
O O13 0.715889 0.461969 0.940936
O O14 0.659569 0.258450 0.462658
#
# Coordination Sequence:
#
# PCOD8127552 Si02
#       7
#     4   4   4   4   4   4   4
#     4  11  22  43  66  94 136 172 220 280 321 398
#     4   9  23  42  68  96 130 175 226 261 338 393
#     4  11  25  40  64 100 134 171 218 273 340 383
#     4  10  22  44  62 101 133 171 221 272 329 393
#     4  10  23  41  66  95 130 174 221 273 327 395
#     4  10  23  43  68  95 129 177 228 263 337 392
#     4  11  23  43  69  96 137 173 218 277 330 397
#
# _framework density 22.585716000000001
#
# number of rings (size 3 to 8) (size 9 to 14) (size 15 to 20)
#    0.000    1.714    1.429    1.286    8.000    0.571 
#    2.571    1.429    0.000    0.000    0.000    0.000 
#    0.000    0.000    0.000    0.000    0.000    0.000 
#
# Total GULP energy -346991.235846 kJ/mol
# GULP energy per Si atom -12392.544137 kJ/mol
# Density = 2.253431 g / cm^3
# Si number density = 22.585716 Si / 1000 Ang^3
#
#
#
# Elastic Constant Matrix: (Units=GPa)
#
#
# Indices 1 2 3 4 5 6 
#
# 1 109.9194 27.6835 51.4856 0.0000 9.3538 0.0000
# 2 27.6835 77.2531 32.1094 0.0000 15.1337 0.0000
# 3 51.4856 32.1094 139.6500 0.0000 26.1625 0.0000
# 4 0.0000 0.0000 0.0000 18.2856 0.0000 -5.1561
# 5 9.3538 15.1337 26.1625 0.0000 33.6436 0.0000
# 6 0.0000 0.0000 0.0000 -5.1561 0.0000 28.9641
#
#
#
# Elastic Compliance Matrix: (Units=1/GPa)
#
#
# Indices 1 2 3 4 5 6 
#
# 1 0.011475 -0.002731 -0.003787 0.000000 0.000983 0.000000
# 2 -0.002731 0.015580 -0.001644 0.000000 -0.004970 0.000000
# 3 -0.003787 -0.001644 0.010066 0.000000 -0.006035 0.000000
# 4 0.000000 0.000000 0.000000 0.057578 0.000000 0.010250
# 5 0.000983 -0.004970 -0.006035 0.000000 0.036379 0.000000
# 6 0.000000 0.000000 0.000000 0.010250 0.000000 0.036350
#
#
# Mechanical properties :
#
#
# Convention : Reuss Voigt Hill
#
# Bulk Modulus (GPa) = 48.08373 61.04218 54.56296
# Shear Modulus (GPa) = 26.22125 30.54825 28.38475
#
# Velocity S-wave (km/s) = 3.41099 3.68169 3.54892
# Velocity P-wave (km/s) = 6.07032 6.72002 6.40342
#
# Compressibility (1/GPa) = 0.02079706
#
# Stress axis : x y z
#
# Youngs Moduli (GPa) = 87.14229 64.18417 99.34830
#
# Poissons Ratio (x) = 0.17527 0.37623
# Poissons Ratio (y) = 0.23796 0.16337
# Poissons Ratio (z) = 0.33001 0.10554
#
# Static dielectric constant tensor:
#      x y z
#    x 4.197780 0.000000 -0.138080 
#    y 0.000000 3.661220 0.000000 
#    z -0.138080 0.000000 4.301660 
# 
# 
# High freq. dielectric constant tensor:
#      x y z
#    x 1.900450 0.000000 -0.014040 
#    y 0.000000 1.851890 0.000000 
#    z -0.014040 0.000000 1.911560 
# 
# From -- ./inp_files/55643.got.cif
#   From: 2010.03.12/outbox.cif.g09.slc.cpg/sg14_28_cif.got.tgz:55643.got - 2010.03.31 13:35:05.
