data_PCOD8127375
_publ_section_title
;
Structure prediction by ZEFSAII (Michael W. Deem and Ramdas Pophale) SiO2 
 PCOD8127375
Probable space group: P 21/C
;
_chemical_formula_sum "Si O2"
_cell_formula_units_Z 20
_cell_length_a 4.970887
_cell_length_b 18.688160
_cell_length_c 10.326576
_cell_angle_alpha 90.000000
_cell_angle_beta 98.372198
_cell_angle_gamma 90.000000
_cell_volume 949.081941
_symmetry_space_group_name_H-M "P 21/C"
_symmetry_group_IT_number 14
_symmetry_cell_setting 'monoclinic'
loop_
_space_group_symop_operation_xyz
x,y,z
-x,1/2+y,1/2-z
-x,-y,-z
x,1/2-y,1/2+z
loop_
_atom_site_type_symbol
_atom_site_label
_atom_site_fract_x
_atom_site_fract_y
_atom_site_fract_z
Si Si1 0.831935 0.703747 0.321393
Si Si2 0.279171 0.489085 0.091554
Si Si3 0.299145 0.359817 0.275211
Si Si4 0.133546 0.863932 0.054341
Si Si5 0.712530 0.387829 0.702931
O O1 0.823886 0.784301 0.273835
O O2 0.541932 0.665759 0.312983
O O3 0.985989 0.703894 0.472910
O O4 0.021344 0.658023 0.234551
O O5 0.309530 0.409977 0.150842
O O6 0.332568 0.544536 0.210583
O O7 0.500000 0.500000 0.000000
O O8 0.000000 0.500000 0.000000
O O9 0.600118 0.343463 0.347064
O O10 0.095071 0.396868 0.365630
O O11 0.228777 0.915916 0.941680
#
# Coordination Sequence:
#
# PCOD8127375 Si02
#       5
#     4   4   4   4   4
#     4  10  22  42  64 102 130 173 212 278 332 381
#     4  12  28  46  65 101 135 183 218 272 343 393
#     4  12  24  42  70 100 131 172 231 269 325 408
#     4  10  22  42  66 102 122 173 228 266 340 372
#     4  10  22  46  66  95 133 175 217 270 339 383
#
# _framework density 21.072994999999999
#
# number of rings (size 3 to 8) (size 9 to 14) (size 15 to 20)
#    1.200    0.000    2.000    3.600    0.000    6.400 
#    3.600    0.000    0.000    0.000    0.000    0.000 
#    0.000    0.000    0.000    0.000    0.000    0.000 
#
# Total GULP energy -247762.701571 kJ/mol
# GULP energy per Si atom -12388.135079 kJ/mol
# Density = 2.102503 g / cm^3
# Si number density = 21.072995 Si / 1000 Ang^3
#
#
#
# Elastic Constant Matrix: (Units=GPa)
#
#
# Indices 1 2 3 4 5 6 
#
# 1 158.8304 14.0728 40.7812 0.0000 -7.7858 0.0000
# 2 14.0728 50.5365 11.2852 0.0000 3.5699 0.0000
# 3 40.7812 11.2852 91.0430 0.0000 2.0701 0.0000
# 4 0.0000 0.0000 0.0000 19.5023 0.0000 -5.4318
# 5 -7.7858 3.5699 2.0701 0.0000 43.9045 0.0000
# 6 0.0000 0.0000 0.0000 -5.4318 0.0000 21.2063
#
#
#
# Elastic Compliance Matrix: (Units=1/GPa)
#
#
# Indices 1 2 3 4 5 6 
#
# 1 0.007304 -0.001446 -0.003128 0.000000 0.001560 0.000000
# 2 -0.001446 0.020741 -0.001881 0.000000 -0.001854 0.000000
# 3 -0.003128 -0.001881 0.012641 0.000000 -0.000998 0.000000
# 4 0.000000 0.000000 0.000000 0.055215 0.000000 0.014143
# 5 0.001560 -0.001854 -0.000998 0.000000 0.023251 0.000000
# 6 0.000000 0.000000 0.000000 0.014143 0.000000 0.050778
#
#
# Mechanical properties :
#
#
# Convention : Reuss Voigt Hill
#
# Bulk Modulus (GPa) = 36.00191 48.07648 42.03919
# Shear Modulus (GPa) = 26.02831 32.54067 29.28449
#
# Velocity S-wave (km/s) = 3.51828 3.93388 3.73187
# Velocity P-wave (km/s) = 5.79878 6.59528 6.20981
#
# Compressibility (1/GPa) = 0.02777631
#
# Stress axis : x y z
#
# Youngs Moduli (GPa) = 136.91700 48.21298 79.10908
#
# Poissons Ratio (x) = 0.06970 0.24744
# Poissons Ratio (y) = 0.19792 0.14883
# Poissons Ratio (z) = 0.42826 0.09070
#
# Static dielectric constant tensor:
#      x y z
#    x 4.090710 0.000000 -0.130310 
#    y 0.000000 3.433700 0.000000 
#    z -0.130310 0.000000 3.946090 
# 
# 
# High freq. dielectric constant tensor:
#      x y z
#    x 1.857040 0.000000 -0.003990 
#    y 0.000000 1.792530 0.000000 
#    z -0.003990 0.000000 1.829870 
# 
# From -- ./inp_files/5548.got.cif
#   From: 2010.03.12/outbox.cif.g09.slc.cpg/sg14_3_cif.got.tgz:5548.got - 2010.03.31 13:35:05.
