data_PCOD8127105
_publ_section_title
;
Structure prediction by ZEFSAII (Michael W. Deem and Ramdas Pophale) SiO2 
 PCOD8127105
Probable space group: P 21/C
;
_chemical_formula_sum "Si O2"
_cell_formula_units_Z 24
_cell_length_a 7.507514
_cell_length_b 13.903021
_cell_length_c 9.479545
_cell_angle_alpha 90.000000
_cell_angle_beta 89.343308
_cell_angle_gamma 90.000000
_cell_volume 989.382663
_symmetry_space_group_name_H-M "P 21/C"
_symmetry_group_IT_number 14
_symmetry_cell_setting 'monoclinic'
loop_
_space_group_symop_operation_xyz
x,y,z
-x,1/2+y,1/2-z
-x,-y,-z
x,1/2-y,1/2+z
loop_
_atom_site_type_symbol
_atom_site_label
_atom_site_fract_x
_atom_site_fract_y
_atom_site_fract_z
Si Si1 0.595076 0.357024 0.770623
Si Si2 0.158897 0.940541 0.215788
Si Si3 0.553150 0.930142 0.219740
Si Si4 0.666173 0.185908 0.580993
Si Si5 0.868482 0.674087 0.568802
Si Si6 0.820863 0.846903 0.750336
O O1 0.649178 0.468761 0.753625
O O2 0.669617 0.295397 0.638634
O O3 0.385231 0.348269 0.786198
O O4 0.679913 0.312819 0.912568
O O5 0.359876 0.947435 0.145450
O O6 0.164726 0.871331 0.353547
O O7 0.023272 0.902221 0.100299
O O8 0.096652 0.046574 0.264933
O O9 0.514734 0.869506 0.364427
O O10 0.677578 0.866808 0.119267
O O11 0.917469 0.775080 0.641464
O O12 0.857536 0.694228 0.404650
#
# Coordination Sequence:
#
# PCOD8127105 Si02
#       6
#     4   4   4   4   4   4
#     4  11  21  39  67  94 126 171 212 260 321 376
#     4   9  24  43  62  96 131 163 216 266 312 379
#     4   9  23  40  68  91 128 170 208 264 317 378
#     4  10  22  39  63  94 128 165 212 262 314 377
#     4  12  24  44  65  99 125 172 216 259 327 381
#     4  11  24  40  69  93 133 167 214 271 312 385
#
# _framework density 24.257549000000001
#
# number of rings (size 3 to 8) (size 9 to 14) (size 15 to 20)
#    1.000    0.667    1.667    2.000    0.000    6.667 
#    0.000    1.667    0.000    0.000    0.000    0.000 
#    0.000    0.000    0.000    0.000    0.000    0.000 
#
# Total GULP energy -297548.641844 kJ/mol
# GULP energy per Si atom -12397.860077 kJ/mol
# Density = 2.420234 g / cm^3
# Si number density = 24.257549 Si / 1000 Ang^3
#
#
#
# Elastic Constant Matrix: (Units=GPa)
#
#
# Indices 1 2 3 4 5 6 
#
# 1 51.3664 11.1390 2.7332 0.0000 7.9564 0.0000
# 2 11.1390 140.3067 12.0973 0.0000 -0.8420 0.0000
# 3 2.7332 12.0973 92.2099 0.0000 20.2921 0.0000
# 4 0.0000 0.0000 0.0000 26.4437 0.0000 6.0508
# 5 7.9564 -0.8420 20.2921 0.0000 9.7472 0.0000
# 6 0.0000 0.0000 0.0000 6.0508 0.0000 16.6565
#
#
#
# Elastic Compliance Matrix: (Units=1/GPa)
#
#
# Indices 1 2 3 4 5 6 
#
# 1 0.025481 -0.002926 0.007864 0.000000 -0.037424 0.000000
# 2 -0.002926 0.007668 -0.002935 0.000000 0.009161 0.000000
# 3 0.007864 -0.002935 0.023005 0.000000 -0.054565 0.000000
# 4 0.000000 0.000000 0.000000 0.041245 0.000000 -0.014983
# 5 -0.037424 0.009161 -0.054565 0.000000 0.247528 0.000000
# 6 0.000000 0.000000 0.000000 -0.014983 0.000000 0.065480
#
#
# Mechanical properties :
#
#
# Convention : Reuss Voigt Hill
#
# Bulk Modulus (GPa) = 16.62239 37.31356 26.96797
# Shear Modulus (GPa) = 11.72465 27.76371 19.74418
#
# Velocity S-wave (km/s) = 2.20089 3.38677 2.85606
# Velocity P-wave (km/s) = 3.65046 5.54160 4.69229
#
# Compressibility (1/GPa) = 0.06015984
#
# Stress axis : x y z
#
# Youngs Moduli (GPa) = 39.24522 130.41962 43.46971
#
# Poissons Ratio (x) = 0.38155 -0.34186
# Poissons Ratio (y) = 0.11482 0.12759
# Poissons Ratio (z) = -0.30864 0.38281
#
# Static dielectric constant tensor:
#      x y z
#    x 3.988870 0.000000 0.196580 
#    y 0.000000 4.817080 0.000000 
#    z 0.196580 0.000000 3.992300 
# 
# 
# High freq. dielectric constant tensor:
#      x y z
#    x 1.937820 0.000000 0.017190 
#    y 0.000000 1.985130 0.000000 
#    z 0.017190 0.000000 1.944900 
# 
# From -- ./inp_files/25021.got.cif
#   From: 2010.03.12/outbox.cif.g09.slc.cpg/sg14_13_cif.got.tgz:25021.got - 2010.03.31 13:35:05.
