data_PCOD8127532
_publ_section_title
;
Structure prediction by ZEFSAII (Michael W. Deem and Ramdas Pophale) SiO2 
 PCOD8127532
Probable space group: P 21/C
;
_chemical_formula_sum "Si O2"
_cell_formula_units_Z 32
_cell_length_a 11.958857
_cell_length_b 16.878620
_cell_length_c 9.107497
_cell_angle_alpha 90.000000
_cell_angle_beta 126.786916
_cell_angle_gamma 90.000000
_cell_volume 1472.267291
_symmetry_space_group_name_H-M "P 21/C"
_symmetry_group_IT_number 14
_symmetry_cell_setting 'monoclinic'
loop_
_space_group_symop_operation_xyz
x,y,z
-x,1/2+y,1/2-z
-x,-y,-z
x,1/2-y,1/2+z
loop_
_atom_site_type_symbol
_atom_site_label
_atom_site_fract_x
_atom_site_fract_y
_atom_site_fract_z
Si Si1 0.671610 0.835327 0.307602
Si Si2 0.043357 0.719096 0.931216
Si Si3 0.093118 0.010071 0.210842
Si Si4 0.653151 0.563909 0.246644
Si Si5 0.558512 0.389734 0.153549
Si Si6 0.258095 0.313210 0.447042
Si Si7 0.960507 0.580314 0.044866
Si Si8 0.163728 0.833276 0.245374
O O1 0.531824 0.861008 0.279837
O O2 0.636486 0.812763 0.109802
O O3 0.726765 0.757660 0.429515
O O4 0.794074 0.901457 0.399767
O O5 0.157983 0.719464 0.890286
O O6 0.896769 0.697399 0.739535
O O7 0.054391 0.800543 0.034666
O O8 0.062169 0.649790 0.068108
O O9 0.131239 0.920260 0.285143
O O10 0.228528 0.062718 0.284548
O O11 0.006765 0.061055 0.260064
O O12 0.000000 0.000000 0.000000
O O13 0.613925 0.474027 0.254462
O O14 0.711330 0.606209 0.438819
O O15 0.524163 0.607289 0.066327
O O16 0.685819 0.330542 0.215916
O O17 0.000000 0.500000 0.000000
#
# Coordination Sequence:
#
# PCOD8127532 Si02
#       8
#     4   4   4   4   4   4   4   4
#     4  11  24  41  69  98 141 178 236 282 345 411
#     4  11  24  43  65  98 139 172 227 292 353 411
#     4  11  23  38  68  97 128 167 224 283 338 407
#     4  10  22  43  70  96 133 181 230 277 346 408
#     4  10  23  45  68  98 135 184 232 281 337 418
#     4  11  24  42  69 100 132 183 228 293 345 410
#     4  11  23  41  65  99 132 175 219 286 349 402
#     4  11  25  42  63  95 133 178 217 277 348 406
#
# _framework density 21.735185000000001
#
# number of rings (size 3 to 8) (size 9 to 14) (size 15 to 20)
#    0.000    1.250    2.500    3.000    5.250    2.500 
#    0.000    0.000    0.000    0.000    0.000    0.000 
#    0.000    0.000    0.000    0.000    0.000    0.000 
#
# Total GULP energy -396496.813772 kJ/mol
# GULP energy per Si atom -12390.525430 kJ/mol
# Density = 2.168571 g / cm^3
# Si number density = 21.735185 Si / 1000 Ang^3
#
#
#
# Elastic Constant Matrix: (Units=GPa)
#
#
# Indices 1 2 3 4 5 6 
#
# 1 134.3440 52.0095 46.4732 0.0000 -24.5639 0.0000
# 2 52.0095 79.6590 52.6238 0.0000 -15.3571 0.0000
# 3 46.4732 52.6238 118.9863 0.0000 -22.5689 0.0000
# 4 0.0000 0.0000 0.0000 43.8447 0.0000 -4.5610
# 5 -24.5639 -15.3571 -22.5689 0.0000 41.3442 0.0000
# 6 0.0000 0.0000 0.0000 -4.5610 0.0000 34.3181
#
#
#
# Elastic Compliance Matrix: (Units=1/GPa)
#
#
# Indices 1 2 3 4 5 6 
#
# 1 0.010616 -0.005569 -0.000981 0.000000 0.003703 0.000000
# 2 -0.005569 0.020906 -0.006944 0.000000 0.000666 0.000000
# 3 -0.000981 -0.006944 0.012559 0.000000 0.003694 0.000000
# 4 0.000000 0.000000 0.000000 0.023128 0.000000 0.003074
# 5 0.003703 0.000666 0.003694 0.000000 0.028651 0.000000
# 6 0.000000 0.000000 0.000000 0.003074 0.000000 0.029548
#
#
# Mechanical properties :
#
#
# Convention : Reuss Voigt Hill
#
# Bulk Modulus (GPa) = 58.50740 70.57802 64.54271
# Shear Modulus (GPa) = 31.62685 36.02693 33.82689
#
# Velocity S-wave (km/s) = 3.81871 4.07571 3.94930
# Velocity P-wave (km/s) = 6.81323 7.39532 7.11024
#
# Compressibility (1/GPa) = 0.01709186
#
# Stress axis : x y z
#
# Youngs Moduli (GPa) = 94.19656 47.83399 79.62244
#
# Poissons Ratio (x) = 0.26641 0.07809
# Poissons Ratio (y) = 0.52462 0.55293
# Poissons Ratio (z) = 0.09239 0.33218
#
# Static dielectric constant tensor:
#      x y z
#    x 3.653630 0.000000 -0.206420 
#    y 0.000000 1.171260 0.000000 
#    z -0.206420 0.000000 4.143190 
# 
# 
# High freq. dielectric constant tensor:
#      x y z
#    x 1.858390 0.000000 -0.024850 
#    y 0.000000 1.858000 0.000000 
#    z -0.024850 0.000000 1.844190 
# 
# From -- ./inp_files/13903.got.cif
#   From: 2010.03.12/outbox.cif.g09.slc.cpg/sg14_7_cif.got.tgz:13903.got - 2010.03.31 13:35:05.
