data_PCOD8127568
_publ_section_title
;
Structure prediction by ZEFSAII (Michael W. Deem and Ramdas Pophale) SiO2 
 PCOD8127568
Probable space group: P 21/C
;
_chemical_formula_sum "Si O2"
_cell_formula_units_Z 24
_cell_length_a 19.132760
_cell_length_b 5.067920
_cell_length_c 13.285329
_cell_angle_alpha 90.000000
_cell_angle_beta 134.193364
_cell_angle_gamma 90.000000
_cell_volume 923.620585
_symmetry_space_group_name_H-M "P 21/C"
_symmetry_group_IT_number 14
_symmetry_cell_setting 'monoclinic'
loop_
_space_group_symop_operation_xyz
x,y,z
-x,1/2+y,1/2-z
-x,-y,-z
x,1/2-y,1/2+z
loop_
_atom_site_type_symbol
_atom_site_label
_atom_site_fract_x
_atom_site_fract_y
_atom_site_fract_z
Si Si1 0.301718 0.375849 0.174494
Si Si2 0.505744 0.848997 0.687338
Si Si3 0.913807 0.759542 0.011690
Si Si4 0.023518 0.257610 0.155776
Si Si5 0.236327 0.159810 0.395352
Si Si6 0.318785 0.812699 0.881342
O O1 0.393155 0.176805 0.273457
O O2 0.321518 0.629857 0.264665
O O3 0.202898 0.233015 0.109757
O O4 0.291519 0.462769 0.047843
O O5 0.500964 0.641697 0.774592
O O6 0.421701 0.798539 0.521506
O O7 0.961568 0.516472 0.121261
O O8 0.948667 0.744984 0.932989
O O9 0.953529 0.013119 0.110621
O O10 0.126455 0.238154 0.318491
O O11 0.292061 0.417373 0.411948
O O12 0.237831 0.917494 0.317110
#
# Coordination Sequence:
#
# PCOD8127568 Si02
#       6
#     4   4   4   4   4   4
#     4  12  27  46  79 107 142 199 244 292 372 443
#     4  12  25  50  73 106 146 188 239 308 365 430
#     4  10  23  40  72 102 140 190 239 284 364 420
#     4  10  22  44  66 104 146 185 230 306 344 419
#     4  12  26  46  75 105 151 186 247 300 356 435
#     4  12  26  48  72 110 144 190 240 306 364 429
#
# _framework density 25.984694000000001
#
# number of rings (size 3 to 8) (size 9 to 14) (size 15 to 20)
#    0.000    0.667    5.000    1.500    4.667    6.667 
#    0.000    3.333    0.000    0.000    0.000    0.000 
#    0.000    0.000    0.000    0.000    0.000    0.000 
#
# Total GULP energy -297699.696541 kJ/mol
# GULP energy per Si atom -12404.154023 kJ/mol
# Density = 2.592555 g / cm^3
# Si number density = 25.984694 Si / 1000 Ang^3
#
#
#
# Elastic Constant Matrix: (Units=GPa)
#
#
# Indices 1 2 3 4 5 6 
#
# 1 77.1835 31.2827 17.7244 0.0000 32.8764 0.0000
# 2 31.2827 133.2425 14.4002 0.0000 9.1867 0.0000
# 3 17.7244 14.4002 123.4308 0.0000 15.6224 0.0000
# 4 0.0000 0.0000 0.0000 22.9147 0.0000 14.6771
# 5 32.8764 9.1867 15.6224 0.0000 48.8420 0.0000
# 6 0.0000 0.0000 0.0000 14.6771 0.0000 2.1474
#
#
#
# Elastic Compliance Matrix: (Units=1/GPa)
#
#
# Indices 1 2 3 4 5 6 
#
# 1 0.019980 -0.003739 -0.000854 0.000000 -0.012473 0.000000
# 2 -0.003739 0.008368 -0.000582 0.000000 0.001129 0.000000
# 3 -0.000854 -0.000582 0.008552 0.000000 -0.002051 0.000000
# 4 0.000000 0.000000 0.000000 -0.012920 0.000000 0.088304
# 5 -0.012473 0.001129 -0.002051 0.000000 0.029313 0.000000
# 6 0.000000 0.000000 0.000000 0.088304 0.000000 -0.137865
#
#
# Mechanical properties :
#
#
# Convention : Reuss Voigt Hill
#
# Bulk Modulus (GPa) = 37.66527 51.18571 44.42549
# Shear Modulus (GPa) = -76.48752 32.81079 -21.83837
#
# Velocity S-wave (km/s) = -5.43134 3.55730 -2.90217
# Velocity P-wave (km/s) = 4.98057 6.05092 2.42978
#
# Compressibility (1/GPa) = 0.02654966
#
# Stress axis : x y z
#
# Youngs Moduli (GPa) = 50.04903 119.50306 116.93336
#
# Poissons Ratio (x) = 0.44679 0.09990
# Poissons Ratio (y) = 0.18712 0.06809
# Poissons Ratio (z) = 0.04276 0.06958
#
# Static dielectric constant tensor:
#      x y z
#    x 4.824190 0.000000 0.111730 
#    y 0.000000 4.647010 0.000000 
#    z 0.111730 0.000000 4.939730 
# 
# 
# High freq. dielectric constant tensor:
#      x y z
#    x 2.054050 0.000000 0.000130 
#    y 0.000000 2.032620 0.000000 
#    z 0.000130 0.000000 2.057630 
# 
# From -- ./inp_files/49738.got.cif
#   From: 2010.03.12/outbox.cif.g09.slc.cpg/sg14_25_cif.got.tgz:49738.got - 2010.03.31 13:35:05.
