data_PCOD8127827
_publ_section_title
;
Structure prediction by ZEFSAII (Michael W. Deem and Ramdas Pophale) SiO2 
 PCOD8127827
Probable space group: P 21/C
;
_chemical_formula_sum "Si O2"
_cell_formula_units_Z 32
_cell_length_a 20.872530
_cell_length_b 13.409083
_cell_length_c 25.977492
_cell_angle_alpha 90.000000
_cell_angle_beta 167.933793
_cell_angle_gamma 90.000000
_cell_volume 1519.863526
_symmetry_space_group_name_H-M "P 21/C"
_symmetry_group_IT_number 14
_symmetry_cell_setting 'monoclinic'
loop_
_space_group_symop_operation_xyz
x,y,z
-x,1/2+y,1/2-z
-x,-y,-z
x,1/2-y,1/2+z
loop_
_atom_site_type_symbol
_atom_site_label
_atom_site_fract_x
_atom_site_fract_y
_atom_site_fract_z
Si Si1 0.862917 0.693452 0.269553
Si Si2 0.345610 0.101795 0.494835
Si Si3 0.959734 0.748579 0.673816
Si Si4 0.623666 0.154464 0.082649
Si Si5 0.979336 0.884953 0.971238
Si Si6 0.420332 0.618028 0.093097
Si Si7 0.902504 0.982687 0.365412
Si Si8 0.368666 0.850953 0.668397
O O1 0.847707 0.632762 0.310745
O O2 0.189104 0.747383 0.520615
O O3 0.828398 0.615920 0.195879
O O4 0.591343 0.774489 0.052108
O O5 0.162489 0.149246 0.398174
O O6 0.366644 0.984642 0.520794
O O7 0.677244 0.157598 0.753004
O O8 0.693546 0.672040 0.449240
O O9 0.163929 0.776028 0.785318
O O10 0.151757 0.694356 0.869058
O O11 0.837092 0.088846 0.287533
O O12 0.405380 0.083891 0.876492
O O13 0.744267 0.835282 0.827479
O O14 0.000000 0.000000 0.000000
O O15 0.429989 0.598734 0.161348
O O16 0.181669 0.928817 0.555920
O O17 0.000000 0.000000 0.500000
#
# Coordination Sequence:
#
# PCOD8127827 Si02
#       8
#     4   4   4   4   4   4   4   4
#     4  11  22  43  69  96 131 175 222 273 333 404
#     4  11  25  42  71  94 136 173 221 276 342 387
#     4  12  24  43  69  99 135 180 217 281 340 397
#     4  10  24  42  68 101 132 172 234 277 335 412
#     4  10  23  42  65  95 132 172 220 268 331 399
#     4  11  25  44  65 100 134 171 225 276 326 410
#     4  10  24  45  71  97 135 179 227 285 341 399
#     4  11  25  42  66  99 135 172 223 274 338 400
#
# _framework density 21.054521999999999
#
# number of rings (size 3 to 8) (size 9 to 14) (size 15 to 20)
#    0.000    1.250    3.750    0.750    3.500    7.000 
#    2.250    0.000    0.000    0.000    0.000    0.000 
#    0.000    0.000    0.000    0.000    0.000    0.000 
#
# Total GULP energy -396916.634576 kJ/mol
# GULP energy per Si atom -12403.644831 kJ/mol
# Density = 2.100660 g / cm^3
# Si number density = 21.054522 Si / 1000 Ang^3
#
#
#
# Elastic Constant Matrix: (Units=GPa)
#
#
# Indices 1 2 3 4 5 6 
#
# 1 125.0594 16.3233 28.6429 0.0000 -8.5374 0.0000
# 2 16.3233 62.8672 11.9725 0.0000 -4.2951 0.0000
# 3 28.6429 11.9725 92.4377 0.0000 8.5250 0.0000
# 4 0.0000 0.0000 0.0000 32.7250 0.0000 -2.8402
# 5 -8.5374 -4.2951 8.5250 0.0000 35.5771 0.0000
# 6 0.0000 0.0000 0.0000 -2.8402 0.0000 32.4635
#
#
#
# Elastic Compliance Matrix: (Units=1/GPa)
#
#
# Indices 1 2 3 4 5 6 
#
# 1 0.009039 -0.001626 -0.002835 0.000000 0.002652 0.000000
# 2 -0.001626 0.016827 -0.001868 0.000000 0.002089 0.000000
# 3 -0.002835 -0.001868 0.012294 0.000000 -0.003852 0.000000
# 4 0.000000 0.000000 0.000000 0.030792 0.000000 0.002694
# 5 0.002652 0.002089 -0.003852 0.000000 0.029919 0.000000
# 6 0.000000 0.000000 0.000000 0.002694 0.000000 0.031040
#
#
# Mechanical properties :
#
#
# Convention : Reuss Voigt Hill
#
# Bulk Modulus (GPa) = 39.21297 43.80464 41.50881
# Shear Modulus (GPa) = 33.09754 35.04814 34.07284
#
# Velocity S-wave (km/s) = 3.96914 4.08442 4.02719
# Velocity P-wave (km/s) = 6.29844 6.56459 6.43289
#
# Compressibility (1/GPa) = 0.02550177
#
# Stress axis : x y z
#
# Youngs Moduli (GPa) = 110.63527 59.42747 81.34256
#
# Poissons Ratio (x) = 0.09662 0.23059
# Poissons Ratio (y) = 0.17987 0.15198
# Poissons Ratio (z) = 0.31362 0.11103
#
# Static dielectric constant tensor:
#      x y z
#    x 3.765440 0.000000 0.226280 
#    y 0.000000 3.645760 0.000000 
#    z 0.226280 0.000000 4.342800 
# 
# 
# High freq. dielectric constant tensor:
#      x y z
#    x 1.830830 0.000000 0.006330 
#    y 0.000000 1.817950 0.000000 
#    z 0.006330 0.000000 1.839450 
# 
# From -- ./inp_files/80707.got.cif
#   From: 2010.03.12/outbox.cif.g09.slc.cpg/sg14_41_cif.got.tgz:80707.got - 2010.03.31 13:35:05.
