data_PCOD8127410
_publ_section_title
;
Structure prediction by ZEFSAII (Michael W. Deem and Ramdas Pophale) SiO2 
 PCOD8127410
Probable space group: P 21/C
;
_chemical_formula_sum "Si O2"
_cell_formula_units_Z 28
_cell_length_a 5.199576
_cell_length_b 29.937261
_cell_length_c 8.927233
_cell_angle_alpha 90.000000
_cell_angle_beta 56.976868
_cell_angle_gamma 90.000000
_cell_volume 1165.129908
_symmetry_space_group_name_H-M "P 21/C"
_symmetry_group_IT_number 14
_symmetry_cell_setting 'monoclinic'
loop_
_space_group_symop_operation_xyz
x,y,z
-x,1/2+y,1/2-z
-x,-y,-z
x,1/2-y,1/2+z
loop_
_atom_site_type_symbol
_atom_site_label
_atom_site_fract_x
_atom_site_fract_y
_atom_site_fract_z
Si Si1 0.475407 0.272547 0.277679
Si Si2 0.235620 0.591316 0.439773
Si Si3 0.361449 0.359537 0.445551
Si Si4 0.166219 0.296330 0.061319
Si Si5 0.095257 0.463171 0.214134
Si Si6 0.885751 0.113256 0.577241
Si Si7 0.274385 0.942599 0.617356
O O1 0.380568 0.305610 0.446550
O O2 0.294673 0.286716 0.185242
O O3 0.386962 0.223084 0.362001
O O4 0.838294 0.273264 0.137644
O O5 0.989027 0.627035 0.460859
O O6 0.048454 0.551910 0.582262
O O7 0.484994 0.616131 0.461756
O O8 0.403482 0.570134 0.241421
O O9 0.550224 0.369964 0.233258
O O10 0.140663 0.349929 0.041907
O O11 0.937624 0.434525 0.136292
O O12 0.034615 0.516153 0.210717
O O13 0.461030 0.455730 0.085300
O O14 0.891491 0.101715 0.398177
#
# Coordination Sequence:
#
# PCOD8127410 Si02
#       7
#     4   4   4   4   4   4   4
#     4  11  23  46  67 106 132 187 214 292 338 413
#     4  11  23  42  66  99 131 182 223 278 330 409
#     4  10  22  43  66  89 139 175 218 272 347 389
#     4  11  25  43  74  96 142 174 235 270 355 403
#     4  10  22  43  62  96 140 177 220 292 341 394
#     4  10  22  42  66  92 132 186 219 278 341 414
#     4  11  23  39  68  98 131 179 236 275 337 409
#
# _framework density 24.031655000000001
#
# number of rings (size 3 to 8) (size 9 to 14) (size 15 to 20)
#    0.000    1.429    1.429    4.286    4.000    1.143 
#    2.571    2.143    0.000    0.000    0.000    0.000 
#    0.000    0.000    0.000    0.000    0.000    0.000 
#
# Total GULP energy -347102.037953 kJ/mol
# GULP energy per Si atom -12396.501355 kJ/mol
# Density = 2.397696 g / cm^3
# Si number density = 24.031655 Si / 1000 Ang^3
#
#
#
# Elastic Constant Matrix: (Units=GPa)
#
#
# Indices 1 2 3 4 5 6 
#
# 1 89.7426 25.1325 21.2328 0.0000 13.5492 0.0000
# 2 25.1325 76.1756 39.4014 0.0000 23.1066 0.0000
# 3 21.2328 39.4014 86.6494 0.0000 35.6008 0.0000
# 4 0.0000 0.0000 0.0000 27.1410 0.0000 0.8640
# 5 13.5492 23.1066 35.6008 0.0000 36.6892 0.0000
# 6 0.0000 0.0000 0.0000 0.8640 0.0000 28.8654
#
#
#
# Elastic Compliance Matrix: (Units=1/GPa)
#
#
# Indices 1 2 3 4 5 6 
#
# 1 0.012499 -0.003112 -0.000925 0.000000 -0.001758 0.000000
# 2 -0.003112 0.018603 -0.005580 0.000000 -0.005153 0.000000
# 3 -0.000925 -0.005580 0.021154 0.000000 -0.016671 0.000000
# 4 0.000000 0.000000 0.000000 0.036880 0.000000 -0.001104
# 5 -0.001758 -0.005153 -0.016671 0.000000 0.047327 0.000000
# 6 0.000000 0.000000 0.000000 -0.001104 0.000000 0.034677
#
#
# Mechanical properties :
#
#
# Convention : Reuss Voigt Hill
#
# Bulk Modulus (GPa) = 30.28253 47.12234 38.70244
# Shear Modulus (GPa) = 24.82858 29.65914 27.24386
#
# Velocity S-wave (km/s) = 3.21777 3.51689 3.37065
# Velocity P-wave (km/s) = 5.14139 6.01185 5.59358
#
# Compressibility (1/GPa) = 0.03302234
#
# Stress axis : x y z
#
# Youngs Moduli (GPa) = 80.00756 53.75374 47.27213
#
# Poissons Ratio (x) = 0.16727 0.04375
# Poissons Ratio (y) = 0.24897 0.26377
# Poissons Ratio (z) = 0.07404 0.29993
#
# Static dielectric constant tensor:
#      x y z
#    x 4.133680 0.000000 0.076710 
#    y 0.000000 4.744560 0.000000 
#    z 0.076710 0.000000 4.357630 
# 
# 
# High freq. dielectric constant tensor:
#      x y z
#    x 1.949110 0.000000 0.005750 
#    y 0.000000 1.959430 0.000000 
#    z 0.005750 0.000000 1.945150 
# 
# From -- ./inp_files/6888.got.cif
#   From: 2010.03.12/outbox.cif.g09.slc.cpg/sg14_4_cif.got.tgz:6888.got - 2010.03.31 13:35:05.
