data_PCOD8127860
_publ_section_title
;
Structure prediction by ZEFSAII (Michael W. Deem and Ramdas Pophale) SiO2 
 PCOD8127860
Probable space group: P 21/C
;
_chemical_formula_sum "Si O2"
_cell_formula_units_Z 28
_cell_length_a 11.777375
_cell_length_b 4.973041
_cell_length_c 21.797320
_cell_angle_alpha 90.000000
_cell_angle_beta 113.296798
_cell_angle_gamma 90.000000
_cell_volume 1172.567634
_symmetry_space_group_name_H-M "P 21/C"
_symmetry_group_IT_number 14
_symmetry_cell_setting 'monoclinic'
loop_
_space_group_symop_operation_xyz
x,y,z
-x,1/2+y,1/2-z
-x,-y,-z
x,1/2-y,1/2+z
loop_
_atom_site_type_symbol
_atom_site_label
_atom_site_fract_x
_atom_site_fract_y
_atom_site_fract_z
Si Si1 0.514809 0.938697 0.793373
Si Si2 0.385555 0.003104 0.885148
Si Si3 0.597320 0.219181 0.498479
Si Si4 0.991083 0.245972 0.667250
Si Si5 0.145181 0.247915 0.815533
Si Si6 0.099413 0.150699 0.563405
Si Si7 0.744625 0.164778 0.916519
O O1 0.542449 0.661414 0.764529
O O2 0.414569 0.871626 0.825291
O O3 0.639235 0.057655 0.848807
O O4 0.516843 0.059533 0.945147
O O5 0.294554 0.259124 0.855503
O O6 0.326700 0.806262 0.924146
O O7 0.700408 0.166774 0.468227
O O8 0.500000 0.000000 0.500000
O O9 0.889804 0.455717 0.667459
O O10 0.111142 0.276163 0.736722
O O11 0.034019 0.289453 0.607391
O O12 0.926344 0.957998 0.658167
O O13 0.169764 0.406127 0.546532
O O14 0.187414 0.906960 0.605125
O O15 0.000000 0.000000 0.500000
#
# Coordination Sequence:
#
# PCOD8127860 Si02
#       7
#     4   4   4   4   4   4   4
#     4  11  26  45  69 104 139 178 226 277 352 428
#     4  10  25  41  71  99 132 177 226 274 351 399
#     4  10  25  44  68 102 137 176 233 282 337 423
#     4  10  24  44  63  99 131 166 235 269 337 401
#     4  10  23  42  69  94 129 174 215 291 327 395
#     4  12  27  45  70  98 138 187 232 285 350 417
#     4  11  27  45  71 100 141 182 230 291 346 412
#
# _framework density 23.879218000000002
#
# number of rings (size 3 to 8) (size 9 to 14) (size 15 to 20)
#    0.000    1.429    0.000    2.143   20.000    0.000 
#    0.000    0.000    0.000    0.000    0.000    0.000 
#    0.000    0.000    0.000    0.000    0.000    0.000 
#
# Total GULP energy -346886.576039 kJ/mol
# GULP energy per Si atom -12388.806287 kJ/mol
# Density = 2.382487 g / cm^3
# Si number density = 23.879218 Si / 1000 Ang^3
#
#
#
# Elastic Constant Matrix: (Units=GPa)
#
#
# Indices 1 2 3 4 5 6 
#
# 1 63.8780 0.3240 40.9893 0.0000 -6.4165 0.0000
# 2 0.3240 73.4171 20.0910 0.0000 -3.7060 0.0000
# 3 40.9893 20.0910 107.2608 0.0000 -27.5722 0.0000
# 4 0.0000 0.0000 0.0000 26.8008 0.0000 -0.7394
# 5 -6.4165 -3.7060 -27.5722 0.0000 36.3307 0.0000
# 6 0.0000 0.0000 0.0000 -0.7394 0.0000 34.9011
#
#
#
# Elastic Compliance Matrix: (Units=1/GPa)
#
#
# Indices 1 2 3 4 5 6 
#
# 1 0.021362 0.002321 -0.009401 0.000000 -0.003125 0.000000
# 2 0.002321 0.014624 -0.003898 0.000000 -0.001056 0.000000
# 3 -0.009401 -0.003898 0.016296 0.000000 0.010309 0.000000
# 4 0.000000 0.000000 0.000000 0.037334 0.000000 0.000791
# 5 -0.003125 -0.001056 0.010309 0.000000 0.034689 0.000000
# 6 0.000000 0.000000 0.000000 0.000791 0.000000 0.028669
#
#
# Mechanical properties :
#
#
# Convention : Reuss Voigt Hill
#
# Bulk Modulus (GPa) = 32.97608 40.81826 36.89717
# Shear Modulus (GPa) = 27.02132 31.81663 29.41898
#
# Velocity S-wave (km/s) = 3.36755 3.65416 3.51378
# Velocity P-wave (km/s) = 5.38145 5.91055 5.65220
#
# Compressibility (1/GPa) = 0.03032501
#
# Stress axis : x y z
#
# Youngs Moduli (GPa) = 46.81243 68.38153 61.36495
#
# Poissons Ratio (x) = -0.15869 0.57692
# Poissons Ratio (y) = -0.10864 0.23917
# Poissons Ratio (z) = 0.44010 0.26652
#
# Static dielectric constant tensor:
#      x y z
#    x 4.505730 0.000000 0.024590 
#    y 0.000000 4.255430 0.000000 
#    z 0.024590 0.000000 5.143220 
# 
# 
# High freq. dielectric constant tensor:
#      x y z
#    x 1.950200 0.000000 0.001480 
#    y 0.000000 1.940030 0.000000 
#    z 0.001480 0.000000 1.954390 
# 
# From -- ./inp_files/66331.got.cif
#   From: 2010.03.12/outbox.cif.g09.slc.cpg/sg14_34_cif.got.tgz:66331.got - 2010.03.31 13:35:05.
