data_PCOD8127322
_publ_section_title
;
Structure prediction by ZEFSAII (Michael W. Deem and Ramdas Pophale) SiO2 
 PCOD8127322
Probable space group: P 21/C
;
_chemical_formula_sum "Si O2"
_cell_formula_units_Z 28
_cell_length_a 20.479461
_cell_length_b 7.953993
_cell_length_c 12.213643
_cell_angle_alpha 90.000000
_cell_angle_beta 142.080692
_cell_angle_gamma 90.000000
_cell_volume 1222.663458
_symmetry_space_group_name_H-M "P 21/C"
_symmetry_group_IT_number 14
_symmetry_cell_setting 'monoclinic'
loop_
_space_group_symop_operation_xyz
x,y,z
-x,1/2+y,1/2-z
-x,-y,-z
x,1/2-y,1/2+z
loop_
_atom_site_type_symbol
_atom_site_label
_atom_site_fract_x
_atom_site_fract_y
_atom_site_fract_z
Si Si1 0.108049 0.668912 0.319489
Si Si2 0.612438 0.088579 0.265564
Si Si3 0.333289 0.570311 0.628131
Si Si4 0.087436 0.287351 0.306698
Si Si5 0.373897 0.035022 0.946386
Si Si6 0.191750 0.986211 0.322848
Si Si7 0.733612 0.647958 0.286415
O O1 0.223494 0.653466 0.527463
O O2 0.079403 0.476340 0.242933
O O3 0.028154 0.733359 0.305680
O O4 0.120608 0.815429 0.242791
O O5 0.580727 0.283230 0.246579
O O6 0.658221 0.070382 0.203144
O O7 0.698900 0.017179 0.463533
O O8 0.499115 0.000054 0.132155
O O9 0.314226 0.521331 0.477006
O O10 0.352794 0.416770 0.736924
O O11 0.125064 0.153027 0.266232
O O12 0.166324 0.276227 0.515452
O O13 0.334516 0.223418 0.875011
O O14 0.223275 0.002889 0.237515
#
# Coordination Sequence:
#
# PCOD8127322 Si02
#       7
#     4   4   4   4   4   4   4
#     4  10  22  41  68  94 133 176 227 274 340 407
#     4  10  25  43  69  97 134 178 226 282 339 408
#     4  10  25  44  65  99 137 173 226 278 340 412
#     4  11  21  44  66  99 132 179 225 283 337 411
#     4  11  24  44  68 100 133 177 230 278 348 401
#     4  11  23  45  65  96 140 177 222 289 335 407
#     4  11  24  41  69  96 137 176 227 280 345 403
#
# _framework density 22.900822999999999
#
# number of rings (size 3 to 8) (size 9 to 14) (size 15 to 20)
#    0.000    1.429    2.857    1.714    6.000    2.286 
#    0.000    2.857    0.000    0.000    0.000    0.000 
#    0.000    0.000    0.000    0.000    0.000    0.000 
#
# Total GULP energy -346887.446556 kJ/mol
# GULP energy per Si atom -12388.837377 kJ/mol
# Density = 2.284870 g / cm^3
# Si number density = 22.900823 Si / 1000 Ang^3
#
#
#
# Elastic Constant Matrix: (Units=GPa)
#
#
# Indices 1 2 3 4 5 6 
#
# 1 114.3016 42.1188 39.3716 0.0000 -23.2042 0.0000
# 2 42.1188 145.2032 13.9718 0.0000 -11.9544 0.0000
# 3 39.3716 13.9718 47.1689 0.0000 -10.2512 0.0000
# 4 0.0000 0.0000 0.0000 22.7805 0.0000 -0.2285
# 5 -23.2042 -11.9544 -10.2512 0.0000 33.1758 0.0000
# 6 0.0000 0.0000 0.0000 -0.2285 0.0000 29.4782
#
#
#
# Elastic Compliance Matrix: (Units=1/GPa)
#
#
# Indices 1 2 3 4 5 6 
#
# 1 0.014381 -0.002724 -0.009888 0.000000 0.006022 0.000000
# 2 -0.002724 0.007737 0.000187 0.000000 0.000940 0.000000
# 3 -0.009888 0.000187 0.029920 0.000000 0.002396 0.000000
# 4 0.000000 0.000000 0.000000 0.043901 0.000000 0.000340
# 5 0.006022 0.000940 0.002396 0.000000 0.035433 0.000000
# 6 0.000000 0.000000 0.000000 0.000340 0.000000 0.033926
#
#
# Mechanical properties :
#
#
# Convention : Reuss Voigt Hill
#
# Bulk Modulus (GPa) = 36.78448 55.28868 46.03658
# Shear Modulus (GPa) = 25.09906 31.16766 28.13336
#
# Velocity S-wave (km/s) = 3.31416 3.69315 3.50878
# Velocity P-wave (km/s) = 5.54457 6.51006 6.04662
#
# Compressibility (1/GPa) = 0.02718537
#
# Stress axis : x y z
#
# Youngs Moduli (GPa) = 69.53564 129.25641 33.42298
#
# Poissons Ratio (x) = 0.35213 0.33049
# Poissons Ratio (y) = 0.18943 -0.00624
# Poissons Ratio (z) = 0.68758 -0.02412
#
# Static dielectric constant tensor:
#      x y z
#    x 4.227240 0.000000 0.076940 
#    y 0.000000 4.503310 0.000000 
#    z 0.076940 0.000000 3.763460 
# 
# 
# High freq. dielectric constant tensor:
#      x y z
#    x 1.910090 0.000000 0.004900 
#    y 0.000000 1.915480 0.000000 
#    z 0.004900 0.000000 1.880250 
# 
# From -- ./inp_files/34998.got.cif
#   From: 2010.03.12/outbox.cif.g09.slc.cpg/sg14_18_cif.got.tgz:34998.got - 2010.03.31 13:35:05.
