data_PCOD8127004
_publ_section_title
;
Structure prediction by ZEFSAII (Michael W. Deem and Ramdas Pophale) SiO2 
 PCOD8127004
Probable space group: P 21/C
;
_chemical_formula_sum "Si O2"
_cell_formula_units_Z 32
_cell_length_a 25.680753
_cell_length_b 9.145832
_cell_length_c 9.766247
_cell_angle_alpha 90.000000
_cell_angle_beta 47.856877
_cell_angle_gamma 90.000000
_cell_volume 1700.798530
_symmetry_space_group_name_H-M "P 21/C"
_symmetry_group_IT_number 14
_symmetry_cell_setting 'monoclinic'
loop_
_space_group_symop_operation_xyz
x,y,z
-x,1/2+y,1/2-z
-x,-y,-z
x,1/2-y,1/2+z
loop_
_atom_site_type_symbol
_atom_site_label
_atom_site_fract_x
_atom_site_fract_y
_atom_site_fract_z
Si Si1 0.193599 0.656603 0.173529
Si Si2 0.562025 0.904476 0.061349
Si Si3 0.301929 0.089584 0.521298
Si Si4 0.175948 0.584799 0.897133
Si Si5 0.982213 0.420982 0.891058
Si Si6 0.457441 0.148985 0.208447
Si Si7 0.716589 0.841247 0.746189
Si Si8 0.957504 0.417598 0.460291
O O1 0.262185 0.564480 0.094204
O O2 0.202003 0.816073 0.224846
O O3 0.124047 0.582098 0.356784
O O4 0.187363 0.670797 0.020276
O O5 0.538929 0.806740 0.229672
O O6 0.524412 0.059656 0.144028
O O7 0.537929 0.827314 0.962689
O O8 0.645793 0.926827 0.914915
O O9 0.385823 0.062873 0.375331
O O10 0.279167 0.182028 0.693702
O O11 0.280773 0.179860 0.422190
O O12 0.218207 0.434935 0.817199
O O13 0.095481 0.538768 0.022199
O O14 0.989148 0.245605 0.888607
O O15 0.037221 0.488872 0.687365
O O16 0.000000 0.500000 0.000000
O O17 0.000000 0.500000 0.500000
#
# Coordination Sequence:
#
# PCOD8127004 Si02
#       8
#     4   4   4   4   4   4   4   4
#     4  10  22  38  57  78 110 144 177 223 271 321
#     4   9  18  33  53  78 108 143 177 223 266 316
#     4   9  19  36  54  79 108 142 179 224 267 317
#     4  10  22  39  56  79 109 143 179 221 271 324
#     4  11  24  39  61  85 111 148 185 231 282 333
#     4   9  18  33  53  77 110 141 179 221 268 316
#     4   9  19  36  55  78 109 140 181 222 267 319
#     4  11  22  41  59  83 115 144 185 232 278 336
#
# _framework density 18.814692999999998
#
# number of rings (size 3 to 8) (size 9 to 14) (size 15 to 20)
#    0.000    2.250    1.250    0.750    5.250    4.500 
#    0.000    0.000    0.000    0.000    0.000    0.000 
#    0.000    0.000    0.000    0.000    0.000    0.000 
#
# Total GULP energy -396837.386859 kJ/mol
# GULP energy per Si atom -12401.168339 kJ/mol
# Density = 1.877187 g / cm^3
# Si number density = 18.814693 Si / 1000 Ang^3
#
#
#
# Elastic Constant Matrix: (Units=GPa)
#
#
# Indices 1 2 3 4 5 6 
#
# 1 70.6039 14.9833 4.3532 0.0000 -2.1800 0.0000
# 2 14.9833 43.3113 10.3385 0.0000 -1.0935 0.0000
# 3 4.3532 10.3385 57.0423 0.0000 11.7247 0.0000
# 4 0.0000 0.0000 0.0000 36.5012 0.0000 1.7572
# 5 -2.1800 -1.0935 11.7247 0.0000 23.7347 0.0000
# 6 0.0000 0.0000 0.0000 1.7572 0.0000 32.4119
#
#
#
# Elastic Compliance Matrix: (Units=1/GPa)
#
#
# Indices 1 2 3 4 5 6 
#
# 1 0.015332 -0.005140 -0.000533 0.000000 0.001435 0.000000
# 2 -0.005140 0.026142 -0.005005 0.000000 0.003205 0.000000
# 3 -0.000533 -0.005005 0.020631 0.000000 -0.010471 0.000000
# 4 0.000000 0.000000 0.000000 0.027468 0.000000 -0.001489
# 5 0.001435 0.003205 -0.010471 0.000000 0.047584 0.000000
# 6 0.000000 0.000000 0.000000 -0.001489 0.000000 0.030934
#
#
# Mechanical properties :
#
#
# Convention : Reuss Voigt Hill
#
# Bulk Modulus (GPa) = 24.54076 25.58973 25.06525
# Shear Modulus (GPa) = 24.62687 27.94838 26.28763
#
# Velocity S-wave (km/s) = 3.62182 3.85834 3.74195
# Velocity P-wave (km/s) = 5.52828 5.78615 5.65868
#
# Compressibility (1/GPa) = 0.04074853
#
# Stress axis : x y z
#
# Youngs Moduli (GPa) = 65.22482 38.25196 48.47108
#
# Poissons Ratio (x) = 0.19663 0.02585
# Poissons Ratio (y) = 0.33528 0.24257
# Poissons Ratio (z) = 0.03478 0.19143
#
# Static dielectric constant tensor:
#      x y z
#    x 3.760370 0.000000 0.042990 
#    y 0.000000 3.192980 0.000000 
#    z 0.042990 0.000000 3.483930 
# 
# 
# High freq. dielectric constant tensor:
#      x y z
#    x 1.739670 0.000000 0.003910 
#    y 0.000000 1.711180 0.000000 
#    z 0.003910 0.000000 1.739450 
# 
# From -- ./inp_files/18623.got.cif
#   From: 2010.03.12/outbox.cif.g09.slc.cpg/sg14_10_cif.got.tgz:18623.got - 2010.03.31 13:35:05.
