data_PCOD8127020
_publ_section_title
;
Structure prediction by ZEFSAII (Michael W. Deem and Ramdas Pophale) SiO2 
 PCOD8127020
Probable space group: P 21/C
;
_chemical_formula_sum "Si O2"
_cell_formula_units_Z 24
_cell_length_a 10.607498
_cell_length_b 11.840380
_cell_length_c 11.331163
_cell_angle_alpha 90.000000
_cell_angle_beta 58.436896
_cell_angle_gamma 90.000000
_cell_volume 1212.621867
_symmetry_space_group_name_H-M "P 21/C"
_symmetry_group_IT_number 14
_symmetry_cell_setting 'monoclinic'
loop_
_space_group_symop_operation_xyz
x,y,z
-x,1/2+y,1/2-z
-x,-y,-z
x,1/2-y,1/2+z
loop_
_atom_site_type_symbol
_atom_site_label
_atom_site_fract_x
_atom_site_fract_y
_atom_site_fract_z
Si Si1 0.090864 0.329046 0.567933
Si Si2 0.678323 0.489991 0.541297
Si Si3 0.650333 0.059918 0.786148
Si Si4 0.943153 0.114859 0.375223
Si Si5 0.784969 0.272855 0.596597
Si Si6 0.836362 0.591817 0.027166
O O1 0.189620 0.432253 0.472457
O O2 0.194480 0.216945 0.508212
O O3 0.060014 0.351780 0.720464
O O4 0.934405 0.324811 0.579039
O O5 0.526354 0.557230 0.632371
O O6 0.708597 0.463757 0.388996
O O7 0.675203 0.375799 0.620435
O O8 0.705210 0.184546 0.722792
O O9 0.707710 0.960954 0.671040
O O10 0.819865 0.212330 0.453440
O O11 0.015562 0.108705 0.469476
O O12 0.868423 0.990556 0.398150
#
# Coordination Sequence:
#
# PCOD8127020 Si02
#       6
#     4   4   4   4   4   4
#     4  11  21  34  63  91 117 149 199 253 287 343
#     4  11  23  38  62  88 119 156 204 235 293 362
#     4  10  22  42  62  82 120 166 191 237 302 355
#     4   9  18  34  59  83 113 153 193 242 290 342
#     4  10  22  38  61  87 120 153 194 253 293 338
#     4   9  19  36  57  83 115 155 196 234 290 348
#
# _framework density 19.791824999999999
#
# number of rings (size 3 to 8) (size 9 to 14) (size 15 to 20)
#    0.000    2.000    1.667    2.500    4.667    0.000 
#    0.000    0.000    0.000    3.000    0.000    0.000 
#    0.000    0.000    0.000    0.000    0.000    0.000 
#
# Total GULP energy -297411.728490 kJ/mol
# GULP energy per Si atom -12392.155354 kJ/mol
# Density = 1.974678 g / cm^3
# Si number density = 19.791825 Si / 1000 Ang^3
#
#
#
# Elastic Constant Matrix: (Units=GPa)
#
#
# Indices 1 2 3 4 5 6 
#
# 1 63.4340 44.1460 19.3503 0.0000 -11.6593 0.0000
# 2 44.1460 146.6287 58.3343 0.0000 -5.9141 0.0000
# 3 19.3503 58.3343 93.9225 0.0000 -4.9394 0.0000
# 4 0.0000 0.0000 0.0000 31.3747 0.0000 -5.6937
# 5 -11.6593 -5.9141 -4.9394 0.0000 19.9753 0.0000
# 6 0.0000 0.0000 0.0000 -5.6937 0.0000 26.3324
#
#
#
# Elastic Compliance Matrix: (Units=1/GPa)
#
#
# Indices 1 2 3 4 5 6 
#
# 1 0.022126 -0.006154 -0.000155 0.000000 0.011054 0.000000
# 2 -0.006154 0.010804 -0.005535 0.000000 -0.001762 0.000000
# 3 -0.000155 -0.005535 0.014210 0.000000 0.001785 0.000000
# 4 0.000000 0.000000 0.000000 0.033175 0.000000 0.007173
# 5 0.011054 -0.001762 0.001785 0.000000 0.056434 0.000000
# 6 0.000000 0.000000 0.000000 0.007173 0.000000 0.039527
#
#
# Mechanical properties :
#
#
# Convention : Reuss Voigt Hill
#
# Bulk Modulus (GPa) = 42.63892 60.84958 51.74425
# Shear Modulus (GPa) = 24.06374 27.68012 25.87193
#
# Velocity S-wave (km/s) = 3.49068 3.74379 3.61945
# Velocity P-wave (km/s) = 6.15117 7.03559 6.60819
#
# Compressibility (1/GPa) = 0.02345275
#
# Stress axis : x y z
#
# Youngs Moduli (GPa) = 45.19487 92.56100 70.37064
#
# Poissons Ratio (x) = 0.56964 0.01090
# Poissons Ratio (y) = 0.27814 0.38949
# Poissons Ratio (z) = 0.00700 0.51231
#
# Static dielectric constant tensor:
#      x y z
#    x 3.221580 0.000000 -0.062770 
#    y 0.000000 4.064810 0.000000 
#    z -0.062770 0.000000 3.481080 
# 
# 
# High freq. dielectric constant tensor:
#      x y z
#    x 1.733820 0.000000 -0.008510 
#    y 0.000000 1.792610 0.000000 
#    z -0.008510 0.000000 1.768570 
# 
# From -- ./inp_files/28465.got.cif
#   From: 2010.03.12/outbox.cif.g09.slc.cpg/sg14_15_cif.got.tgz:28465.got - 2010.03.31 13:35:05.
