data_PCOD8127901
_publ_section_title
;
Structure prediction by ZEFSAII (Michael W. Deem and Ramdas Pophale) SiO2 
 PCOD8127901
Probable space group: P 21/C
;
_chemical_formula_sum "Si O2"
_cell_formula_units_Z 24
_cell_length_a 31.552662
_cell_length_b 4.968013
_cell_length_c 17.284818
_cell_angle_alpha 90.000000
_cell_angle_beta 155.327418
_cell_angle_gamma 90.000000
_cell_volume 1131.018121
_symmetry_space_group_name_H-M "P 21/C"
_symmetry_group_IT_number 14
_symmetry_cell_setting 'monoclinic'
loop_
_space_group_symop_operation_xyz
x,y,z
-x,1/2+y,1/2-z
-x,-y,-z
x,1/2-y,1/2+z
loop_
_atom_site_type_symbol
_atom_site_label
_atom_site_fract_x
_atom_site_fract_y
_atom_site_fract_z
Si Si1 0.754025 0.887627 0.978730
Si Si2 0.949033 0.128939 0.631736
Si Si3 0.445074 0.510700 0.566105
Si Si4 0.577805 0.495724 0.295902
Si Si5 0.974407 0.744972 0.905173
Si Si6 0.737391 0.101546 0.348964
O O1 0.857535 0.780914 0.187817
O O2 0.683097 0.028534 0.925054
O O3 0.708095 0.619990 0.864256
O O4 0.765300 0.109977 0.930968
O O5 0.836210 0.020911 0.462950
O O6 0.978376 0.369419 0.739131
O O7 0.956633 0.245154 0.557462
O O8 0.397828 0.536974 0.573276
O O9 0.539506 0.707656 0.713830
O O10 0.359339 0.611316 0.366330
O O11 0.491122 0.215867 0.624826
O O12 0.000000 0.500000 0.000000
O O13 0.000000 0.000000 0.000000
#
# Coordination Sequence:
#
# PCOD8127901 Si02
#       6
#     4   4   4   4   4   4
#     4  12  25  43  66  98 132 167 219 273 323 385
#     4  12  23  46  67  93 138 174 212 274 329 394
#     4  10  23  43  65  94 127 172 216 263 335 391
#     4  10  23  44  64  93 134 166 213 277 324 391
#     4  12  26  44  66  99 133 174 221 271 331 390
#     4  12  24  42  68  98 127 174 219 262 330 392
#
# _framework density 21.219819000000001
#
# number of rings (size 3 to 8) (size 9 to 14) (size 15 to 20)
#    0.000    0.667    3.333    4.000    2.333    4.000 
#    6.000    0.000    0.000    0.000    0.000    0.000 
#    0.000    0.000    0.000    0.000    0.000    0.000 
#
# Total GULP energy -297608.181440 kJ/mol
# GULP energy per Si atom -12400.340893 kJ/mol
# Density = 2.117152 g / cm^3
# Si number density = 21.219819 Si / 1000 Ang^3
#
#
#
# Elastic Constant Matrix: (Units=GPa)
#
#
# Indices 1 2 3 4 5 6 
#
# 1 117.1432 17.8196 45.8048 0.0000 4.5757 0.0000
# 2 17.8196 112.7275 35.1494 0.0000 -12.5630 0.0000
# 3 45.8048 35.1494 122.7977 0.0000 -12.4208 0.0000
# 4 0.0000 0.0000 0.0000 28.2451 0.0000 -10.8992
# 5 4.5757 -12.5630 -12.4208 0.0000 27.1259 0.0000
# 6 0.0000 0.0000 0.0000 -10.8992 0.0000 34.7265
#
#
#
# Elastic Compliance Matrix: (Units=1/GPa)
#
#
# Indices 1 2 3 4 5 6 
#
# 1 0.010400 -0.000827 -0.004046 0.000000 -0.003990 0.000000
# 2 -0.000827 0.010113 -0.002200 0.000000 0.003816 0.000000
# 3 -0.004046 -0.002200 0.010746 0.000000 0.004584 0.000000
# 4 0.000000 0.000000 0.000000 0.040283 0.000000 0.012643
# 5 -0.003990 0.003816 0.004584 0.000000 0.041405 0.000000
# 6 0.000000 0.000000 0.000000 0.012643 0.000000 0.032765
#
#
# Mechanical properties :
#
#
# Convention : Reuss Voigt Hill
#
# Bulk Modulus (GPa) = 58.43731 61.13511 59.78621
# Shear Modulus (GPa) = 30.19991 34.94581 32.57286
#
# Velocity S-wave (km/s) = 3.77662 4.06254 3.92218
# Velocity P-wave (km/s) = 6.82758 7.13292 6.98192
#
# Compressibility (1/GPa) = 0.01711236
#
# Stress axis : x y z
#
# Youngs Moduli (GPa) = 96.15006 98.88264 93.05541
#
# Poissons Ratio (x) = 0.08178 0.37653
# Poissons Ratio (y) = 0.07952 0.20475
# Poissons Ratio (z) = 0.38905 0.21757
#
# Static dielectric constant tensor:
#      x y z
#    x 3.965450 0.000000 -0.155600 
#    y 0.000000 3.935990 0.000000 
#    z -0.155600 0.000000 3.701850 
# 
# 
# High freq. dielectric constant tensor:
#      x y z
#    x 1.840210 0.000000 -0.002080 
#    y 0.000000 1.850360 0.000000 
#    z -0.002080 0.000000 1.828870 
# 
# From -- ./inp_files/52128.got.cif
#   From: 2010.03.12/outbox.cif.g09.slc.cpg/sg14_27_cif.got.tgz:52128.got - 2010.03.31 13:35:05.
