data_PCOD8127911
_publ_section_title
;
Structure prediction by ZEFSAII (Michael W. Deem and Ramdas Pophale) SiO2 
 PCOD8127911
Probable space group: P 21/C
;
_chemical_formula_sum "Si O2"
_cell_formula_units_Z 28
_cell_length_a 14.052407
_cell_length_b 8.814689
_cell_length_c 19.450093
_cell_angle_alpha 90.000000
_cell_angle_beta 147.967740
_cell_angle_gamma 90.000000
_cell_volume 1277.850900
_symmetry_space_group_name_H-M "P 21/C"
_symmetry_group_IT_number 14
_symmetry_cell_setting 'monoclinic'
loop_
_space_group_symop_operation_xyz
x,y,z
-x,1/2+y,1/2-z
-x,-y,-z
x,1/2-y,1/2+z
loop_
_atom_site_type_symbol
_atom_site_label
_atom_site_fract_x
_atom_site_fract_y
_atom_site_fract_z
Si Si1 0.048668 0.865074 0.579635
Si Si2 0.230436 0.580016 0.869635
Si Si3 0.632155 0.898031 0.037482
Si Si4 0.572246 0.379327 0.727159
Si Si5 0.622572 0.640660 0.138798
Si Si6 0.059662 0.603193 0.242325
Si Si7 0.322414 0.273379 0.183664
O O1 0.236207 0.792557 0.667047
O O2 0.086718 0.930534 0.678565
O O3 0.873121 0.756766 0.472937
O O4 0.000000 0.000000 0.500000
O O5 0.291343 0.521126 0.831089
O O6 0.093977 0.720064 0.778602
O O7 0.140151 0.444025 0.857755
O O8 0.408544 0.631373 0.019141
O O9 0.674344 0.749917 0.107579
O O10 0.809161 0.997233 0.132759
O O11 0.550276 0.852096 0.914322
O O12 0.500000 0.000000 0.000000
O O13 0.610951 0.556060 0.763552
O O14 0.472943 0.311449 0.732007
O O15 0.708079 0.692910 0.262086
#
# Coordination Sequence:
#
# PCOD8127911 Si02
#       7
#     4   4   4   4   4   4   4
#     4  10  23  43  66  95 134 181 219 273 344 415
#     4  11  26  41  72  99 134 175 230 289 339 403
#     4  12  20  45  73  93 135 178 232 284 336 405
#     4  11  24  43  69  98 137 181 226 282 345 411
#     4  11  24  47  68 100 137 179 228 287 342 409
#     4  12  24  43  68 104 132 176 234 284 345 404
#     4  11  25  43  67 103 137 180 222 279 353 415
#
# _framework density 21.911788999999999
#
# number of rings (size 3 to 8) (size 9 to 14) (size 15 to 20)
#    0.000    0.857    4.286    1.714    8.000    2.286 
#    2.571    1.429    0.000    0.000    0.000    0.000 
#    0.000    0.000    0.000    0.000    0.000    0.000 
#
# Total GULP energy -347182.328148 kJ/mol
# GULP energy per Si atom -12399.368862 kJ/mol
# Density = 2.186192 g / cm^3
# Si number density = 21.911789 Si / 1000 Ang^3
#
#
#
# Elastic Constant Matrix: (Units=GPa)
#
#
# Indices 1 2 3 4 5 6 
#
# 1 107.3414 41.0455 44.7840 0.0000 2.0374 0.0000
# 2 41.0455 78.1078 36.5098 0.0000 10.4704 0.0000
# 3 44.7840 36.5098 102.4543 0.0000 -6.6336 0.0000
# 4 0.0000 0.0000 0.0000 24.2217 0.0000 6.0209
# 5 2.0374 10.4704 -6.6336 0.0000 32.7497 0.0000
# 6 0.0000 0.0000 0.0000 6.0209 0.0000 48.8434
#
#
#
# Elastic Compliance Matrix: (Units=1/GPa)
#
#
# Indices 1 2 3 4 5 6 
#
# 1 0.012804 -0.004935 -0.003838 0.000000 0.000004 0.000000
# 2 -0.004935 0.018569 -0.004888 0.000000 -0.006620 0.000000
# 3 -0.003838 -0.004888 0.013473 0.000000 0.004531 0.000000
# 4 0.000000 0.000000 0.000000 0.042590 0.000000 -0.005250
# 5 0.000004 -0.006620 0.004531 0.000000 0.033568 0.000000
# 6 0.000000 0.000000 0.000000 -0.005250 0.000000 0.021121
#
#
# Mechanical properties :
#
#
# Convention : Reuss Voigt Hill
#
# Bulk Modulus (GPa) = 57.06695 59.17579 58.12137
# Shear Modulus (GPa) = 28.52414 32.20058 30.36236
#
# Velocity S-wave (km/s) = 3.61192 3.83764 3.72649
# Velocity P-wave (km/s) = 6.59508 6.83386 6.71553
#
# Compressibility (1/GPa) = 0.01752328
#
# Stress axis : x y z
#
# Youngs Moduli (GPa) = 78.09818 53.85450 74.22027
#
# Poissons Ratio (x) = 0.26578 0.28486
# Poissons Ratio (y) = 0.38543 0.36281
# Poissons Ratio (z) = 0.29974 0.26326
#
# Static dielectric constant tensor:
#      x y z
#    x 4.068810 0.000000 0.352040 
#    y 0.000000 6.487010 0.000000 
#    z 0.352040 0.000000 4.781040 
# 
# 
# High freq. dielectric constant tensor:
#      x y z
#    x 1.868370 0.000000 0.013320 
#    y 0.000000 1.852790 0.000000 
#    z 0.013320 0.000000 1.869930 
# 
# From -- ./inp_files/46690.got.cif
#   From: 2010.03.12/outbox.cif.g09.slc.cpg/sg14_24_cif.got.tgz:46690.got - 2010.03.31 13:35:05.
