data_PCOD8127071
_publ_section_title
;
Structure prediction by ZEFSAII (Michael W. Deem and Ramdas Pophale) SiO2 
 PCOD8127071
Probable space group: P 21/C
;
_chemical_formula_sum "Si O2"
_cell_formula_units_Z 32
_cell_length_a 24.232889
_cell_length_b 9.204673
_cell_length_c 8.535488
_cell_angle_alpha 90.000000
_cell_angle_beta 121.893423
_cell_angle_gamma 90.000000
_cell_volume 1616.464412
_symmetry_space_group_name_H-M "P 21/C"
_symmetry_group_IT_number 14
_symmetry_cell_setting 'monoclinic'
loop_
_space_group_symop_operation_xyz
x,y,z
-x,1/2+y,1/2-z
-x,-y,-z
x,1/2-y,1/2+z
loop_
_atom_site_type_symbol
_atom_site_label
_atom_site_fract_x
_atom_site_fract_y
_atom_site_fract_z
Si Si1 0.938581 0.910989 0.722964
Si Si2 0.695614 0.590550 0.358247
Si Si3 0.812807 0.090055 0.904988
Si Si4 0.558982 0.908971 0.152959
Si Si5 0.695614 0.909449 0.228596
Si Si6 0.812807 0.409946 0.033432
Si Si7 0.938581 0.910989 0.092778
Si Si8 0.441018 0.408971 0.976013
O O1 0.938739 0.749999 0.658109
O O2 0.873417 0.992056 0.571234
O O3 0.943051 0.901820 0.914577
O O4 0.000000 0.999999 0.747207
O O5 0.749179 0.475272 0.388754
O O6 0.712885 0.750000 0.319328
O O7 0.690925 0.601732 0.536387
O O8 0.627644 0.530075 0.188917
O O9 0.804134 0.093095 0.706201
O O10 0.825232 0.250000 0.987848
O O11 0.873416 0.992056 0.049016
O O12 0.627644 0.969925 0.194015
O O13 0.559257 0.910071 0.338885
O O14 0.548495 0.750000 0.072743
O O15 0.500000 0.000000 0.000000
O O16 0.749179 0.024727 0.358783
O O17 0.500000 0.500000 0.000000
#
# Coordination Sequence:
#
# PCOD8127071 Si02
#       8
#     4   4   4   4   4   4   4   4
#     4  10  22  39  60  87 118 153 194 239 289 346
#     4  11  22  39  61  86 116 153 195 240 291 347
#     4  11  23  39  59  86 118 153 195 242 293 348
#     4  11  22  39  61  88 119 154 195 240 291 347
#     4  11  22  39  61  86 116 153 195 240 291 347
#     4  11  23  39  59  86 118 153 195 242 293 348
#     4  10  22  39  60  87 118 153 194 239 289 346
#     4  11  22  39  61  88 119 154 195 240 291 347
#
# _framework density 19.796289999999999
#
# number of rings (size 3 to 8) (size 9 to 14) (size 15 to 20)
#    0.000    1.250    0.000    8.250    0.000    5.500 
#    0.000    5.000    0.000    0.000    0.000    0.000 
#    0.000    0.000    0.000    0.000    0.000    0.000 
#
# Total GULP energy -396939.062285 kJ/mol
# GULP energy per Si atom -12404.345696 kJ/mol
# Density = 1.975123 g / cm^3
# Si number density = 19.796290 Si / 1000 Ang^3
#
#
#
# Elastic Constant Matrix: (Units=GPa)
#
#
# Indices 1 2 3 4 5 6 
#
# 1 151.7191 85.6589 85.6014 0.0000 18.1077 0.0000
# 2 85.6589 142.5815 65.0623 0.0000 21.1578 0.0000
# 3 85.6014 65.0623 135.0910 0.0000 -1.0260 0.0000
# 4 0.0000 0.0000 0.0000 43.0756 0.0000 7.1470
# 5 18.1077 21.1578 -1.0260 0.0000 43.8988 0.0000
# 6 0.0000 0.0000 0.0000 7.1470 0.0000 50.0334
#
#
#
# Elastic Compliance Matrix: (Units=1/GPa)
#
#
# Indices 1 2 3 4 5 6 
#
# 1 0.012961 -0.004534 -0.006054 0.000000 -0.003303 0.000000
# 2 -0.004534 0.011530 -0.002709 0.000000 -0.003750 0.000000
# 3 -0.006054 -0.002709 0.012574 0.000000 0.004097 0.000000
# 4 0.000000 0.000000 0.000000 0.023779 0.000000 -0.003397
# 5 -0.003303 -0.003750 0.004097 0.000000 0.026045 0.000000
# 6 0.000000 0.000000 0.000000 -0.003397 0.000000 0.020472
#
#
# Mechanical properties :
#
#
# Convention : Reuss Voigt Hill
#
# Bulk Modulus (GPa) = 95.49504 100.22628 97.86066
# Shear Modulus (GPa) = 36.37834 40.27283 38.32559
#
# Velocity S-wave (km/s) = 4.29141 4.51528 4.40477
# Velocity P-wave (km/s) = 8.53807 8.82737 8.68392
#
# Compressibility (1/GPa) = 0.01047175
#
# Stress axis : x y z
#
# Youngs Moduli (GPa) = 77.15503 86.73212 79.52688
#
# Poissons Ratio (x) = 0.39323 0.48148
# Poissons Ratio (y) = 0.34981 0.21540
# Poissons Ratio (z) = 0.46712 0.23492
#
# Static dielectric constant tensor:
#      x y z
#    x 4.035040 0.000000 0.179700 
#    y 0.000000 3.700630 0.000000 
#    z 0.179700 0.000000 3.860090 
# 
# 
# High freq. dielectric constant tensor:
#      x y z
#    x 1.791150 0.000000 0.003250 
#    y 0.000000 1.775940 0.000000 
#    z 0.003250 0.000000 1.787980 
# 
# From -- ./inp_files/19372.got.cif
#   From: 2010.03.12/outbox.cif.g09.slc.cpg/sg14_10_cif.got.tgz:19372.got - 2010.03.31 13:35:05.
