data_PCOD8127830
_publ_section_title
;
Structure prediction by ZEFSAII (Michael W. Deem and Ramdas Pophale) SiO2 
 PCOD8127830
Probable space group: P 21/C
;
_chemical_formula_sum "Si O2"
_cell_formula_units_Z 28
_cell_length_a 23.210264
_cell_length_b 9.216890
_cell_length_c 9.591116
_cell_angle_alpha 90.000000
_cell_angle_beta 40.906370
_cell_angle_gamma 90.000000
_cell_volume 1343.565291
_symmetry_space_group_name_H-M "P 21/C"
_symmetry_group_IT_number 14
_symmetry_cell_setting 'monoclinic'
loop_
_space_group_symop_operation_xyz
x,y,z
-x,1/2+y,1/2-z
-x,-y,-z
x,1/2-y,1/2+z
loop_
_atom_site_type_symbol
_atom_site_label
_atom_site_fract_x
_atom_site_fract_y
_atom_site_fract_z
Si Si1 0.246872 0.532550 0.659756
Si Si2 0.619238 0.862764 0.265726
Si Si3 0.262534 0.081206 0.428923
Si Si4 0.430651 0.648140 0.002962
Si Si5 0.060232 0.398344 0.978094
Si Si6 0.667285 0.306760 0.082533
Si Si7 0.940084 0.884107 0.187059
O O1 0.329460 0.453536 0.442175
O O2 0.257762 0.518480 0.803072
O O3 0.158708 0.454097 0.770208
O O4 0.250718 0.704116 0.615583
O O5 0.679276 0.726403 0.204658
O O6 0.530337 0.808324 0.355602
O O7 0.592141 0.975819 0.437998
O O8 0.163519 0.111326 0.656590
O O9 0.303528 0.975088 0.469717
O O10 0.414267 0.697824 0.875174
O O11 0.366254 0.748372 0.209901
O O12 0.032919 0.255729 0.946837
O O13 0.040639 0.384090 0.180838
O O14 0.000000 0.500000 0.000000
O O15 0.000000 0.000000 0.000000
#
# Coordination Sequence:
#
# PCOD8127830 Si02
#       7
#     4   4   4   4   4   4   4
#     4  10  23  44  64  96 134 168 228 268 337 400
#     4  10  23  42  65  97 133 175 221 275 334 393
#     4  11  24  41  71  95 131 177 221 276 334 403
#     4  10  24  41  66  94 137 174 222 274 330 396
#     4  11  24  46  71  99 135 177 214 284 336 412
#     4  11  23  44  61  98 131 179 221 272 330 388
#     4  11  25  46  68 105 132 174 226 274 346 411
#
# _framework density 20.840074999999999
#
# number of rings (size 3 to 8) (size 9 to 14) (size 15 to 20)
#    0.000    1.429    2.857    0.857    6.000    2.857 
#    5.143    0.000    0.000    0.000    0.000    0.000 
#    0.000    0.000    0.000    0.000    0.000    0.000 
#
# Total GULP energy -346909.380976 kJ/mol
# GULP energy per Si atom -12389.620749 kJ/mol
# Density = 2.079264 g / cm^3
# Si number density = 20.840075 Si / 1000 Ang^3
#
#
#
# Elastic Constant Matrix: (Units=GPa)
#
#
# Indices 1 2 3 4 5 6 
#
# 1 112.5784 44.8430 32.6752 0.0000 -2.7635 0.0000
# 2 44.8430 134.3568 38.1533 0.0000 -11.5359 0.0000
# 3 32.6752 38.1533 80.6642 0.0000 -9.7295 0.0000
# 4 0.0000 0.0000 0.0000 30.8661 0.0000 -3.3349
# 5 -2.7635 -11.5359 -9.7295 0.0000 29.7842 0.0000
# 6 0.0000 0.0000 0.0000 -3.3349 0.0000 34.6175
#
#
#
# Elastic Compliance Matrix: (Units=1/GPa)
#
#
# Indices 1 2 3 4 5 6 
#
# 1 0.010916 -0.002826 -0.003222 0.000000 -0.001134 0.000000
# 2 -0.002826 0.009455 -0.003037 0.000000 0.002408 0.000000
# 3 -0.003222 -0.003037 0.015574 0.000000 0.003612 0.000000
# 4 0.000000 0.000000 0.000000 0.032739 0.000000 0.003154
# 5 -0.001134 0.002408 0.003612 0.000000 0.035582 0.000000
# 6 0.000000 0.000000 0.000000 0.003154 0.000000 0.029191
#
#
# Mechanical properties :
#
#
# Convention : Reuss Voigt Hill
#
# Bulk Modulus (GPa) = 56.25653 62.10469 59.18061
# Shear Modulus (GPa) = 31.73559 33.18208 32.45884
#
# Velocity S-wave (km/s) = 3.90656 3.99460 3.95082
# Velocity P-wave (km/s) = 6.88486 7.15130 7.01934
#
# Compressibility (1/GPa) = 0.01777571
#
# Stress axis : x y z
#
# Youngs Moduli (GPa) = 91.61264 105.76244 64.20769
#
# Poissons Ratio (x) = 0.29884 0.20687
# Poissons Ratio (y) = 0.25886 0.19501
# Poissons Ratio (z) = 0.29517 0.32122
#
# Static dielectric constant tensor:
#      x y z
#    x 3.705330 0.000000 0.040460 
#    y 0.000000 3.815120 0.000000 
#    z 0.040460 0.000000 3.675280 
# 
# 
# High freq. dielectric constant tensor:
#      x y z
#    x 1.819710 0.000000 -0.000630 
#    y 0.000000 1.829450 0.000000 
#    z -0.000630 0.000000 1.815930 
# 
# From -- ./inp_files/18708.got.cif
#   From: 2010.03.12/outbox.cif.g09.slc.cpg/sg14_10_cif.got.tgz:18708.got - 2010.03.31 13:35:05.
