data_PCOD8127088
_publ_section_title
;
Structure prediction by ZEFSAII (Michael W. Deem and Ramdas Pophale) SiO2 
 PCOD8127088
Probable space group: P 21/C
;
_chemical_formula_sum "Si O2"
_cell_formula_units_Z 32
_cell_length_a 25.774864
_cell_length_b 8.758393
_cell_length_c 15.631415
_cell_angle_alpha 90.000000
_cell_angle_beta 154.048330
_cell_angle_gamma 90.000000
_cell_volume 1544.219964
_symmetry_space_group_name_H-M "P 21/C"
_symmetry_group_IT_number 14
_symmetry_cell_setting 'monoclinic'
loop_
_space_group_symop_operation_xyz
x,y,z
-x,1/2+y,1/2-z
-x,-y,-z
x,1/2-y,1/2+z
loop_
_atom_site_type_symbol
_atom_site_label
_atom_site_fract_x
_atom_site_fract_y
_atom_site_fract_z
Si Si1 0.131098 0.054115 0.013136
Si Si2 0.791325 0.592835 0.188211
Si Si3 0.678065 0.856153 0.927009
Si Si4 0.285463 0.181664 0.682684
Si Si5 0.741889 0.352444 0.425919
Si Si6 0.494748 0.708209 0.366712
Si Si7 0.134378 0.949056 0.375020
Si Si8 0.539345 0.989908 0.321446
O O1 0.124013 0.073377 0.105124
O O2 0.173796 0.213686 0.038741
O O3 0.219359 0.919683 0.109612
O O4 0.997231 0.026388 0.782587
O O5 0.859420 0.536164 0.205745
O O6 0.748085 0.769230 0.107589
O O7 0.678407 0.487411 0.045918
O O8 0.657653 0.736241 0.821288
O O9 0.748582 0.008810 0.004156
O O10 0.543239 0.896246 0.748914
O O11 0.230623 0.013134 0.586638
O O12 0.383694 0.196209 0.901248
O O13 0.610985 0.273802 0.229873
O O14 0.838170 0.228988 0.598611
O O15 0.505798 0.817019 0.298880
O O16 0.472356 0.536390 0.297208
#
# Coordination Sequence:
#
# PCOD8127088 Si02
#       8
#     4   4   4   4   4   4   4   4
#     4  11  22  41  64  86 123 167 212 250 307 363
#     4  11  21  39  60  87 119 169 203 249 311 361
#     4   9  21  37  59  86 124 157 197 252 305 373
#     4  10  22  39  62  86 122 167 201 250 319 357
#     4  10  23  39  61  94 121 157 209 259 299 369
#     4  11  22  39  62  93 127 161 204 255 314 370
#     4  11  23  42  60  90 124 162 211 261 298 362
#     4  11  19  36  59  88 127 159 197 250 311 366
#
# _framework density 20.722434
#
# number of rings (size 3 to 8) (size 9 to 14) (size 15 to 20)
#    0.000    1.500    3.750    1.125    1.750    2.000 
#    2.250    1.875    0.000    0.000    0.000    0.000 
#    0.000    0.000    0.000    0.000    0.000    0.000 
#
# Total GULP energy -396444.762255 kJ/mol
# GULP energy per Si atom -12388.898820 kJ/mol
# Density = 2.067527 g / cm^3
# Si number density = 20.722434 Si / 1000 Ang^3
#
#
#
# Elastic Constant Matrix: (Units=GPa)
#
#
# Indices 1 2 3 4 5 6 
#
# 1 85.5250 48.9688 44.3991 0.0000 11.8478 0.0000
# 2 48.9688 107.2379 57.7239 0.0000 -1.8867 0.0000
# 3 44.3991 57.7239 104.6085 0.0000 12.0668 0.0000
# 4 0.0000 0.0000 0.0000 23.7863 0.0000 3.0740
# 5 11.8478 -1.8867 12.0668 0.0000 34.1367 0.0000
# 6 0.0000 0.0000 0.0000 3.0740 0.0000 24.2806
#
#
#
# Elastic Compliance Matrix: (Units=1/GPa)
#
#
# Indices 1 2 3 4 5 6 
#
# 1 0.017890 -0.006413 -0.003437 0.000000 -0.005348 0.000000
# 2 -0.006413 0.015968 -0.006722 0.000000 0.005485 0.000000
# 3 -0.003437 -0.006722 0.015255 0.000000 -0.004571 0.000000
# 4 0.000000 0.000000 0.000000 0.042740 0.000000 -0.005411
# 5 -0.005348 0.005485 -0.004571 0.000000 0.033069 0.000000
# 6 0.000000 0.000000 0.000000 -0.005411 0.000000 0.041870
#
#
# Mechanical properties :
#
#
# Convention : Reuss Voigt Hill
#
# Bulk Modulus (GPa) = 62.62501 66.61721 64.62111
# Shear Modulus (GPa) = 24.35929 26.19270 25.27599
#
# Velocity S-wave (km/s) = 3.43228 3.55910 3.49627
# Velocity P-wave (km/s) = 6.78188 7.00762 6.89568
#
# Compressibility (1/GPa) = 0.01596806
#
# Stress axis : x y z
#
# Youngs Moduli (GPa) = 55.89819 62.62348 65.55214
#
# Poissons Ratio (x) = 0.40160 0.22532
# Poissons Ratio (y) = 0.35847 0.44066
# Poissons Ratio (z) = 0.19213 0.42098
#
# Static dielectric constant tensor:
#      x y z
#    x 3.960520 0.000000 0.150090 
#    y 0.000000 3.998160 0.000000 
#    z 0.150090 0.000000 3.477900 
# 
# 
# High freq. dielectric constant tensor:
#      x y z
#    x 1.823030 0.000000 0.022140 
#    y 0.000000 1.812690 0.000000 
#    z 0.022140 0.000000 1.783460 
# 
# From -- ./inp_files/51403.got.cif
#   From: 2010.03.12/outbox.cif.g09.slc.cpg/sg14_26_cif.got.tgz:51403.got - 2010.03.31 13:35:05.
