data_PCOD8127415
_publ_section_title
;
Structure prediction by ZEFSAII (Michael W. Deem and Ramdas Pophale) SiO2 
 PCOD8127415
Probable space group: P 21/C
;
_chemical_formula_sum "Si O2"
_cell_formula_units_Z 24
_cell_length_a 11.610786
_cell_length_b 15.939091
_cell_length_c 11.493879
_cell_angle_alpha 90.000000
_cell_angle_beta 153.041210
_cell_angle_gamma 90.000000
_cell_volume 964.328400
_symmetry_space_group_name_H-M "P 21/C"
_symmetry_group_IT_number 14
_symmetry_cell_setting 'monoclinic'
loop_
_space_group_symop_operation_xyz
x,y,z
-x,1/2+y,1/2-z
-x,-y,-z
x,1/2-y,1/2+z
loop_
_atom_site_type_symbol
_atom_site_label
_atom_site_fract_x
_atom_site_fract_y
_atom_site_fract_z
Si Si1 0.938906 0.132252 0.634680
Si Si2 0.222401 0.668125 0.257557
Si Si3 0.378468 0.417302 0.040363
Si Si4 0.456187 0.659096 0.039193
Si Si5 0.804770 0.029885 0.085360
Si Si6 0.224881 0.238826 0.515430
O O1 0.765316 0.134416 0.363337
O O2 0.777910 0.113165 0.607348
O O3 0.154721 0.060667 0.818271
O O4 0.055033 0.225575 0.755609
O O5 0.394177 0.750658 0.425637
O O6 0.310102 0.593396 0.422187
O O7 0.933462 0.690756 0.028242
O O8 0.439442 0.408217 0.958646
O O9 0.589454 0.478170 0.289894
O O10 0.426469 0.325975 0.142910
O O11 0.082329 0.440902 0.788427
O O12 0.656711 0.678324 0.320801
#
# Coordination Sequence:
#
# PCOD8127415 Si02
#       6
#     4   4   4   4   4   4
#     4  11  25  41  70  99 137 176 227 277 345 400
#     4  10  22  43  68  99 133 177 231 280 331 397
#     4  11  25  45  70  94 142 176 229 275 338 402
#     4  11  23  40  69  97 130 183 230 278 327 404
#     4  11  26  47  66 104 139 179 216 287 342 397
#     4  10  22  42  67 102 127 182 230 279 329 401
#
# _framework density 24.887786999999999
#
# number of rings (size 3 to 8) (size 9 to 14) (size 15 to 20)
#    0.000    1.333    1.667    2.500   11.667    1.333 
#    0.000    2.500    0.000    0.000    0.000    0.000 
#    0.000    0.000    0.000    0.000    0.000    0.000 
#
# Total GULP energy -297559.943326 kJ/mol
# GULP energy per Si atom -12398.330972 kJ/mol
# Density = 2.483114 g / cm^3
# Si number density = 24.887787 Si / 1000 Ang^3
#
#
#
# Elastic Constant Matrix: (Units=GPa)
#
#
# Indices 1 2 3 4 5 6 
#
# 1 79.7074 10.9300 9.2685 0.0000 -9.1581 0.0000
# 2 10.9300 39.8449 -17.3512 0.0000 0.2491 0.0000
# 3 9.2685 -17.3512 82.3831 0.0000 -0.3115 0.0000
# 4 0.0000 0.0000 0.0000 22.2157 0.0000 -2.3326
# 5 -9.1581 0.2491 -0.3115 0.0000 29.6284 0.0000
# 6 0.0000 0.0000 0.0000 -2.3326 0.0000 19.0182
#
#
#
# Elastic Compliance Matrix: (Units=1/GPa)
#
#
# Indices 1 2 3 4 5 6 
#
# 1 0.014039 -0.005019 -0.002620 0.000000 0.004354 0.000000
# 2 -0.005019 0.029427 0.006756 0.000000 -0.001728 0.000000
# 3 -0.002620 0.006756 0.013853 0.000000 -0.000721 0.000000
# 4 0.000000 0.000000 0.000000 0.045600 0.000000 0.005593
# 5 0.004354 -0.001728 -0.000721 0.000000 0.035104 0.000000
# 6 0.000000 0.000000 0.000000 0.005593 0.000000 0.053267
#
#
# Mechanical properties :
#
#
# Convention : Reuss Voigt Hill
#
# Bulk Modulus (GPa) = 18.00099 23.07000 20.53550
# Shear Modulus (GPa) = 23.63218 27.44500 25.53859
#
# Velocity S-wave (km/s) = 3.08482 3.32437 3.20683
# Velocity P-wave (km/s) = 4.46505 4.90153 4.68837
#
# Compressibility (1/GPa) = 0.05555250
#
# Stress axis : x y z
#
# Youngs Moduli (GPa) = 71.22950 33.98233 72.18446
#
# Poissons Ratio (x) = 0.17057 0.18914
# Poissons Ratio (y) = 0.35753 -0.48768
# Poissons Ratio (z) = 0.18663 -0.22958
#
# Static dielectric constant tensor:
#      x y z
#    x 4.288060 0.000000 -0.032460 
#    y 0.000000 4.482310 0.000000 
#    z -0.032460 0.000000 4.269190 
# 
# 
# High freq. dielectric constant tensor:
#      x y z
#    x 1.983910 0.000000 -0.005000 
#    y 0.000000 1.999490 0.000000 
#    z -0.005000 0.000000 1.983760 
# 
# From -- ./inp_files/21287.got.cif
#   From: 2010.03.12/outbox.cif.g09.slc.cpg/sg14_11_cif.got.tgz:21287.got - 2010.03.31 13:35:05.
