data_PCOD8127236
_publ_section_title
;
Structure prediction by ZEFSAII (Michael W. Deem and Ramdas Pophale) SiO2 
 PCOD8127236
Probable space group: P 21/C
;
_chemical_formula_sum "Si O2"
_cell_formula_units_Z 32
_cell_length_a 9.226050
_cell_length_b 22.433736
_cell_length_c 11.849571
_cell_angle_alpha 90.000000
_cell_angle_beta 39.361058
_cell_angle_gamma 90.000000
_cell_volume 1555.427637
_symmetry_space_group_name_H-M "P 21/C"
_symmetry_group_IT_number 14
_symmetry_cell_setting 'monoclinic'
loop_
_space_group_symop_operation_xyz
x,y,z
-x,1/2+y,1/2-z
-x,-y,-z
x,1/2-y,1/2+z
loop_
_atom_site_type_symbol
_atom_site_label
_atom_site_fract_x
_atom_site_fract_y
_atom_site_fract_z
Si Si1 0.788399 0.813303 0.115659
Si Si2 0.290753 0.861757 0.430887
Si Si3 0.164202 0.477502 0.218208
Si Si4 0.533115 0.013731 0.667824
Si Si5 0.925287 0.681619 0.976546
Si Si6 0.118644 0.889445 0.778105
Si Si7 0.468566 0.609712 0.269063
Si Si8 0.074399 0.856432 0.149250
O O1 0.518830 0.823036 0.285742
O O2 0.902925 0.822716 0.168415
O O3 0.826127 0.746976 0.049281
O O4 0.893895 0.857076 0.958493
O O5 0.330549 0.930009 0.363610
O O6 0.100868 0.831147 0.470023
O O7 0.201985 0.860658 0.611888
O O8 0.303319 0.460146 0.248391
O O9 0.045666 0.541719 0.305609
O O10 0.978481 0.426736 0.311099
O O11 0.330356 0.478409 0.011492
O O12 0.484195 0.961659 0.788791
O O13 0.060405 0.675974 0.777379
O O14 0.720635 0.634826 0.103767
O O15 0.329276 0.882682 0.736876
O O16 0.336006 0.645533 0.447490
#
# Coordination Sequence:
#
# PCOD8127236 Si02
#       8
#     4   4   4   4   4   4   4   4
#     4  11  26  42  68  88 122 174 220 261 309 382
#     4  11  24  43  65  94 131 168 206 268 321 376
#     4   9  16  35  69  99 124 160 211 273 306 370
#     4   9  17  36  66  97 129 161 212 261 318 374
#     4  12  28  43  60  95 134 169 213 260 326 384
#     4   9  22  41  69  99 124 163 220 262 314 368
#     4  10  22  40  69  95 127 173 209 265 316 377
#     4  11  23  44  67  94 126 167 216 267 318 373
#
# _framework density 20.573122000000001
#
# number of rings (size 3 to 8) (size 9 to 14) (size 15 to 20)
#    0.000    1.750    2.500    1.500    7.000    3.000 
#    0.000    0.625    0.000    0.000    0.000    0.000 
#    0.000    0.000    0.000    0.000    0.000    0.000 
#
# Total GULP energy -396838.918522 kJ/mol
# GULP energy per Si atom -12401.216204 kJ/mol
# Density = 2.052630 g / cm^3
# Si number density = 20.573122 Si / 1000 Ang^3
#
#
#
# Elastic Constant Matrix: (Units=GPa)
#
#
# Indices 1 2 3 4 5 6 
#
# 1 53.6135 19.4594 36.4251 0.0000 8.3495 0.0000
# 2 19.4594 81.1523 19.1884 0.0000 14.3314 0.0000
# 3 36.4251 19.1884 82.8046 0.0000 22.0856 0.0000
# 4 0.0000 0.0000 0.0000 31.9414 0.0000 4.2860
# 5 8.3495 14.3314 22.0856 0.0000 22.0095 0.0000
# 6 0.0000 0.0000 0.0000 4.2860 0.0000 16.1808
#
#
#
# Elastic Compliance Matrix: (Units=1/GPa)
#
#
# Indices 1 2 3 4 5 6 
#
# 1 0.028149 -0.004649 -0.012650 0.000000 0.005043 0.000000
# 2 -0.004649 0.014766 0.000980 0.000000 -0.008834 0.000000
# 3 -0.012650 0.000980 0.022263 0.000000 -0.018179 0.000000
# 4 0.000000 0.000000 0.000000 0.032461 0.000000 -0.008598
# 5 0.005043 -0.008834 -0.018179 0.000000 0.067516 0.000000
# 6 0.000000 0.000000 0.000000 -0.008598 0.000000 0.064079
#
#
# Mechanical properties :
#
#
# Convention : Reuss Voigt Hill
#
# Bulk Modulus (GPa) = 30.73303 40.85736 35.79519
# Shear Modulus (GPa) = 18.33396 23.52619 20.93008
#
# Velocity S-wave (km/s) = 2.98847 3.38530 3.19305
# Velocity P-wave (km/s) = 5.18448 5.93153 5.57054
#
# Compressibility (1/GPa) = 0.03253829
#
# Stress axis : x y z
#
# Youngs Moduli (GPa) = 35.52585 67.72430 44.91787
#
# Poissons Ratio (x) = 0.31486 0.56821
# Poissons Ratio (y) = 0.16516 -0.04400
# Poissons Ratio (z) = 0.44940 -0.06634
#
# Static dielectric constant tensor:
#      x y z
#    x 3.406320 0.000000 0.055840 
#    y 0.000000 3.807040 0.000000 
#    z 0.055840 0.000000 3.929200 
# 
# 
# High freq. dielectric constant tensor:
#      x y z
#    x 1.769770 0.000000 -0.001210 
#    y 0.000000 1.813740 0.000000 
#    z -0.001210 0.000000 1.816540 
# 
# From -- ./inp_files/27012.got.cif
#   From: 2010.03.12/outbox.cif.g09.slc.cpg/sg14_14_cif.got.tgz:27012.got - 2010.03.31 13:35:05.
