data_PCOD8127367
_publ_section_title
;
Structure prediction by ZEFSAII (Michael W. Deem and Ramdas Pophale) SiO2 
 PCOD8127367
Probable space group: P 21/C
;
_chemical_formula_sum "Si O2"
_cell_formula_units_Z 32
_cell_length_a 8.785696
_cell_length_b 6.338025
_cell_length_c 29.829716
_cell_angle_alpha 90.000000
_cell_angle_beta 67.192729
_cell_angle_gamma 90.000000
_cell_volume 1531.166866
_symmetry_space_group_name_H-M "P 21/C"
_symmetry_group_IT_number 14
_symmetry_cell_setting 'monoclinic'
loop_
_space_group_symop_operation_xyz
x,y,z
-x,1/2+y,1/2-z
-x,-y,-z
x,1/2-y,1/2+z
loop_
_atom_site_type_symbol
_atom_site_label
_atom_site_fract_x
_atom_site_fract_y
_atom_site_fract_z
Si Si1 0.866230 0.170803 0.633935
Si Si2 0.590679 0.006390 0.146303
Si Si3 0.101059 0.101916 0.528802
Si Si4 0.254540 0.534264 0.721617
Si Si5 0.628747 0.919070 0.042128
Si Si6 0.926200 0.101731 0.215853
Si Si7 0.756321 0.784490 0.693812
Si Si8 0.375620 0.691314 0.018166
O O1 0.685710 0.275520 0.645998
O O2 0.956637 0.269121 0.666675
O O3 0.977362 0.212846 0.577577
O O4 0.849717 0.921475 0.645021
O O5 0.391747 0.016496 0.168113
O O6 0.654784 0.913678 0.092176
O O7 0.618079 0.845343 0.183901
O O8 0.227104 0.279937 0.496721
O O9 0.195788 0.913582 0.544701
O O10 0.000000 0.000000 0.500000
O O11 0.323996 0.440568 0.760637
O O12 0.094025 0.406842 0.724439
O O13 0.209411 0.780126 0.736827
O O14 0.444262 0.830795 0.051680
O O15 0.634016 0.161086 0.024894
O O16 0.877374 0.867326 0.207391
O O17 0.500000 0.500000 0.000000
#
# Coordination Sequence:
#
# PCOD8127367 Si02
#       8
#     4   4   4   4   4   4   4   4
#     4  10  24  41  61  97 126 167 219 263 316 392
#     4  11  25  39  65  94 128 168 214 263 326 386
#     4  11  22  39  67  94 134 175 215 271 324 377
#     4  11  23  40  65  90 124 165 208 266 323 387
#     4  10  22  42  62  96 131 174 221 265 319 388
#     4  10  22  43  63  92 124 164 212 263 324 386
#     4  10  23  42  62  87 129 159 215 263 322 386
#     4   9  21  40  63  88 130 171 215 262 318 376
#
# _framework density 20.899093000000001
#
# number of rings (size 3 to 8) (size 9 to 14) (size 15 to 20)
#    0.000    1.750    1.250    1.500    5.250    9.000 
#    0.000    0.000    0.000    0.000    0.000    0.000 
#    0.000    0.000    0.000    0.000    0.000    0.000 
#
# Total GULP energy -396599.056959 kJ/mol
# GULP energy per Si atom -12393.720530 kJ/mol
# Density = 2.085153 g / cm^3
# Si number density = 20.899093 Si / 1000 Ang^3
#
#
#
# Elastic Constant Matrix: (Units=GPa)
#
#
# Indices 1 2 3 4 5 6 
#
# 1 100.8091 51.2661 41.8115 0.0000 -5.0457 0.0000
# 2 51.2661 119.8144 41.0175 0.0000 -9.0129 0.0000
# 3 41.8115 41.0175 107.6604 0.0000 -9.0916 0.0000
# 4 0.0000 0.0000 0.0000 31.0410 0.0000 4.6630
# 5 -5.0457 -9.0129 -9.0916 0.0000 32.7479 0.0000
# 6 0.0000 0.0000 0.0000 4.6630 0.0000 34.3953
#
#
#
# Elastic Compliance Matrix: (Units=1/GPa)
#
#
# Indices 1 2 3 4 5 6 
#
# 1 0.013778 -0.004681 -0.003581 0.000000 -0.000160 0.000000
# 2 -0.004681 0.011278 -0.002332 0.000000 0.001735 0.000000
# 3 -0.003581 -0.002332 0.011742 0.000000 0.002066 0.000000
# 4 0.000000 0.000000 0.000000 0.032885 0.000000 -0.004458
# 5 -0.000160 0.001735 0.002066 0.000000 0.031563 0.000000
# 6 0.000000 0.000000 0.000000 -0.004458 0.000000 0.029678
#
#
# Mechanical properties :
#
#
# Convention : Reuss Voigt Hill
#
# Bulk Modulus (GPa) = 64.06408 66.27488 65.16948
# Shear Modulus (GPa) = 31.78319 32.58276 32.18298
#
# Velocity S-wave (km/s) = 3.90397 3.95277 3.92844
# Velocity P-wave (km/s) = 7.14435 7.25349 7.19913
#
# Compressibility (1/GPa) = 0.01560937
#
# Stress axis : x y z
#
# Youngs Moduli (GPa) = 72.58205 88.66623 85.16338
#
# Poissons Ratio (x) = 0.41507 0.30494
# Poissons Ratio (y) = 0.33978 0.19863
# Poissons Ratio (z) = 0.25989 0.20680
#
# Static dielectric constant tensor:
#      x y z
#    x 3.976770 0.000000 0.156440 
#    y 0.000000 4.053460 0.000000 
#    z 0.156440 0.000000 3.600600 
# 
# 
# High freq. dielectric constant tensor:
#      x y z
#    x 1.823020 0.000000 0.018670 
#    y 0.000000 1.829070 0.000000 
#    z 0.018670 0.000000 1.802790 
# 
# From -- ./inp_files/79239.got.cif
#   From: 2010.03.12/outbox.cif.g09.slc.cpg/sg14_40_cif.got.tgz:79239.got - 2010.03.31 13:35:05.
