data_PCOD8127432
_publ_section_title
;
Structure prediction by ZEFSAII (Michael W. Deem and Ramdas Pophale) SiO2 
 PCOD8127432
Probable space group: P 21/C
;
_chemical_formula_sum "Si O2"
_cell_formula_units_Z 32
_cell_length_a 14.963661
_cell_length_b 8.667925
_cell_length_c 12.893740
_cell_angle_alpha 90.000000
_cell_angle_beta 69.347442
_cell_angle_gamma 90.000000
_cell_volume 1564.895837
_symmetry_space_group_name_H-M "P 21/C"
_symmetry_group_IT_number 14
_symmetry_cell_setting 'monoclinic'
loop_
_space_group_symop_operation_xyz
x,y,z
-x,1/2+y,1/2-z
-x,-y,-z
x,1/2-y,1/2+z
loop_
_atom_site_type_symbol
_atom_site_label
_atom_site_fract_x
_atom_site_fract_y
_atom_site_fract_z
Si Si1 0.430667 0.232281 0.691471
Si Si2 0.267729 0.415855 0.395424
Si Si3 0.608427 0.029635 0.675138
Si Si4 0.233624 0.761682 0.827874
Si Si5 0.933506 0.130882 0.481148
Si Si6 0.937920 0.900349 0.103261
Si Si7 0.323576 0.186412 0.537376
Si Si8 0.828386 0.466089 0.823994
O O1 0.346561 0.144264 0.784090
O O2 0.531123 0.154306 0.673605
O O3 0.436512 0.410164 0.724659
O O4 0.412425 0.225925 0.575611
O O5 0.267136 0.602568 0.393574
O O6 0.163619 0.354598 0.404929
O O7 0.289749 0.347607 0.499970
O O8 0.694880 0.118236 0.696366
O O9 0.645350 0.939179 0.559812
O O10 0.228576 0.828423 0.712235
O O11 0.126848 0.708479 0.901824
O O12 0.857335 0.075506 0.427978
O O13 0.003850 0.247620 0.394325
O O14 0.000000 0.000000 0.500000
O O15 0.921178 0.990810 0.217713
O O16 0.000000 0.000000 0.000000
O O17 0.238876 0.115994 0.641248
#
# Coordination Sequence:
#
# PCOD8127432 Si02
#       8
#     4   4   4   4   4   4   4   4
#     4  11  23  44  67 102 130 176 217 277 340 401
#     4  10  22  42  68  94 135 170 220 277 332 394
#     4  11  25  44  72  98 138 175 223 277 341 401
#     4  11  23  46  66  96 137 179 224 279 338 399
#     4  12  26  41  65  98 134 174 230 276 330 400
#     4  11  22  43  65  93 133 178 220 271 331 390
#     4  11  22  43  71 101 132 176 221 276 338 406
#     4  11  24  42  69  95 134 179 221 278 337 386
#
# _framework density 20.448644000000002
#
# number of rings (size 3 to 8) (size 9 to 14) (size 15 to 20)
#    0.000    1.000    6.250    1.875    3.500    2.000 
#    0.000    3.125    0.000    0.000    0.000    0.000 
#    0.000    0.000    0.000    0.000    0.000    0.000 
#
# Total GULP energy -396807.466793 kJ/mol
# GULP energy per Si atom -12400.233337 kJ/mol
# Density = 2.040210 g / cm^3
# Si number density = 20.448644 Si / 1000 Ang^3
#
#
#
# Elastic Constant Matrix: (Units=GPa)
#
#
# Indices 1 2 3 4 5 6 
#
# 1 89.9653 35.4010 23.0906 0.0000 6.4318 0.0000
# 2 35.4010 113.7035 26.9573 0.0000 10.2561 0.0000
# 3 23.0906 26.9573 77.5828 0.0000 14.4933 0.0000
# 4 0.0000 0.0000 0.0000 35.8988 0.0000 -0.8552
# 5 6.4318 10.2561 14.4933 0.0000 36.6076 0.0000
# 6 0.0000 0.0000 0.0000 -0.8552 0.0000 48.9821
#
#
#
# Elastic Compliance Matrix: (Units=1/GPa)
#
#
# Indices 1 2 3 4 5 6 
#
# 1 0.013177 -0.003443 -0.002671 0.000000 -0.000293 0.000000
# 2 -0.003443 0.010558 -0.002380 0.000000 -0.001411 0.000000
# 3 -0.002671 -0.002380 0.015441 0.000000 -0.004977 0.000000
# 4 0.000000 0.000000 0.000000 0.027868 0.000000 0.000487
# 5 -0.000293 -0.001411 -0.004977 0.000000 0.029734 0.000000
# 6 0.000000 0.000000 0.000000 0.000487 0.000000 0.020424
#
#
# Mechanical properties :
#
#
# Convention : Reuss Voigt Hill
#
# Bulk Modulus (GPa) = 45.06888 50.23884 47.65386
# Shear Modulus (GPa) = 35.31426 37.35120 36.33273
#
# Velocity S-wave (km/s) = 4.16020 4.27849 4.21976
# Velocity P-wave (km/s) = 6.72043 7.00207 6.86269
#
# Compressibility (1/GPa) = 0.02218826
#
# Stress axis : x y z
#
# Youngs Moduli (GPa) = 75.89236 94.71198 64.76174
#
# Poissons Ratio (x) = 0.32608 0.17296
# Poissons Ratio (y) = 0.26129 0.15416
# Poissons Ratio (z) = 0.20268 0.22546
#
# Static dielectric constant tensor:
#      x y z
#    x 3.395700 0.000000 0.148220 
#    y 0.000000 3.398860 0.000000 
#    z 0.148220 0.000000 3.631570 
# 
# 
# High freq. dielectric constant tensor:
#      x y z
#    x 1.805710 0.000000 -0.004420 
#    y 0.000000 1.804560 0.000000 
#    z -0.004420 0.000000 1.795150 
# 
# From -- ./inp_files/31785.got.cif
#   From: 2010.03.12/outbox.cif.g09.slc.cpg/sg14_16_cif.got.tgz:31785.got - 2010.03.31 13:35:05.
