data_PCOD8127013
_publ_section_title
;
Structure prediction by ZEFSAII (Michael W. Deem and Ramdas Pophale) SiO2 
 PCOD8127013
Probable space group: P 21/C
;
_chemical_formula_sum "Si O2"
_cell_formula_units_Z 28
_cell_length_a 14.219200
_cell_length_b 9.255277
_cell_length_c 9.736167
_cell_angle_alpha 90.000000
_cell_angle_beta 67.635038
_cell_angle_gamma 90.000000
_cell_volume 1184.924035
_symmetry_space_group_name_H-M "P 21/C"
_symmetry_group_IT_number 14
_symmetry_cell_setting 'monoclinic'
loop_
_space_group_symop_operation_xyz
x,y,z
-x,1/2+y,1/2-z
-x,-y,-z
x,1/2-y,1/2+z
loop_
_atom_site_type_symbol
_atom_site_label
_atom_site_fract_x
_atom_site_fract_y
_atom_site_fract_z
Si Si1 0.451350 0.878923 0.228870
Si Si2 0.863151 0.282508 0.948603
Si Si3 0.600544 0.652139 0.137495
Si Si4 0.416004 0.632226 0.057860
Si Si5 0.166343 0.109007 0.471770
Si Si6 0.910005 0.808885 0.205733
Si Si7 0.789139 0.406992 0.717942
O O1 0.568255 0.818575 0.179147
O O2 0.397841 0.792234 0.136044
O O3 0.396366 0.850660 0.406536
O O4 0.439824 0.052225 0.210649
O O5 0.864329 0.441836 0.016488
O O6 0.788663 0.176498 0.073700
O O7 0.827391 0.293367 0.812043
O O8 0.973096 0.208855 0.897644
O O9 0.532893 0.584888 0.044468
O O10 0.717686 0.631897 0.044426
O O11 0.324584 0.539236 0.178342
O O12 0.150457 0.175804 0.330433
O O13 0.101680 0.195268 0.622671
O O14 0.865089 0.957201 0.170444
#
# Coordination Sequence:
#
# PCOD8127013 Si02
#       7
#     4   4   4   4   4   4   4
#     4  10  22  38  60  88 129 171 202 258 302 368
#     4  11  24  44  65  94 129 167 218 271 322 377
#     4  10  24  39  67  91 134 163 213 248 320 372
#     4  10  22  38  66  90 133 160 211 247 317 370
#     4  11  25  42  69  95 132 168 215 261 330 375
#     4  11  25  43  65  95 124 170 221 271 315 380
#     4  11  23  41  70  95 129 170 216 258 329 382
#
# _framework density 23.630206999999999
#
# number of rings (size 3 to 8) (size 9 to 14) (size 15 to 20)
#    0.857    0.571    0.000    5.571    4.000    4.000 
#    0.000    2.857    0.000    0.000    0.000    0.000 
#    0.000    0.000    0.000    0.000    0.000    0.000 
#
# Total GULP energy -346951.523313 kJ/mol
# GULP energy per Si atom -12391.125833 kJ/mol
# Density = 2.357642 g / cm^3
# Si number density = 23.630207 Si / 1000 Ang^3
#
#
#
# Elastic Constant Matrix: (Units=GPa)
#
#
# Indices 1 2 3 4 5 6 
#
# 1 89.9126 13.6987 26.3229 0.0000 -30.2268 0.0000
# 2 13.6987 59.5776 36.4144 0.0000 -9.3533 0.0000
# 3 26.3229 36.4144 78.6049 0.0000 -23.9096 0.0000
# 4 0.0000 0.0000 0.0000 41.8515 0.0000 4.3272
# 5 -30.2268 -9.3533 -23.9096 0.0000 42.2274 0.0000
# 6 0.0000 0.0000 0.0000 4.3272 0.0000 38.0658
#
#
#
# Elastic Compliance Matrix: (Units=1/GPa)
#
#
# Indices 1 2 3 4 5 6 
#
# 1 0.014967 -0.000913 -0.001682 0.000000 0.009559 0.000000
# 2 -0.000913 0.023517 -0.011118 0.000000 -0.001740 0.000000
# 3 -0.001682 -0.011118 0.020924 0.000000 0.008181 0.000000
# 4 0.000000 0.000000 0.000000 0.024178 0.000000 -0.002749
# 5 0.009559 -0.001740 0.008181 0.000000 0.034771 0.000000
# 6 0.000000 0.000000 0.000000 -0.002749 0.000000 0.026583
#
#
# Mechanical properties :
#
#
# Convention : Reuss Voigt Hill
#
# Bulk Modulus (GPa) = 31.26639 42.32970 36.79805
# Shear Modulus (GPa) = 27.31867 34.53954 30.92911
#
# Velocity S-wave (km/s) = 3.40382 3.82733 3.62177
# Velocity P-wave (km/s) = 5.35801 6.12238 5.75290
#
# Compressibility (1/GPa) = 0.03198322
#
# Stress axis : x y z
#
# Youngs Moduli (GPa) = 66.81429 42.52243 47.79225
#
# Poissons Ratio (x) = 0.03882 0.08036
# Poissons Ratio (y) = 0.06099 0.53135
# Poissons Ratio (z) = 0.11235 0.47276
#
# Static dielectric constant tensor:
#      x y z
#    x 4.199570 0.000000 -0.048600 
#    y 0.000000 4.426530 0.000000 
#    z -0.048600 0.000000 4.252830 
# 
# 
# High freq. dielectric constant tensor:
#      x y z
#    x 1.935820 0.000000 -0.006270 
#    y 0.000000 1.938580 0.000000 
#    z -0.006270 0.000000 1.932190 
# 
# From -- ./inp_files/31472.got.cif
#   From: 2010.03.12/outbox.cif.g09.slc.cpg/sg14_16_cif.got.tgz:31472.got - 2010.03.31 13:35:05.
