data_PCOD8127139
_publ_section_title
;
Structure prediction by ZEFSAII (Michael W. Deem and Ramdas Pophale) SiO2 
 PCOD8127139
Probable space group: P 21/C
;
_chemical_formula_sum "Si O2"
_cell_formula_units_Z 28
_cell_length_a 9.330837
_cell_length_b 10.352211
_cell_length_c 13.948286
_cell_angle_alpha 90.000000
_cell_angle_beta 110.559967
_cell_angle_gamma 90.000000
_cell_volume 1261.513696
_symmetry_space_group_name_H-M "P 21/C"
_symmetry_group_IT_number 14
_symmetry_cell_setting 'monoclinic'
loop_
_space_group_symop_operation_xyz
x,y,z
-x,1/2+y,1/2-z
-x,-y,-z
x,1/2-y,1/2+z
loop_
_atom_site_type_symbol
_atom_site_label
_atom_site_fract_x
_atom_site_fract_y
_atom_site_fract_z
Si Si1 0.504854 0.353755 0.797089
Si Si2 0.768981 0.171984 0.886422
Si Si3 0.770635 0.521588 0.803023
Si Si4 0.060353 0.774960 0.732054
Si Si5 0.723448 0.888496 0.928817
Si Si6 0.721561 0.766761 0.129374
Si Si7 0.992913 0.786463 0.428971
O O1 0.600038 0.221123 0.822929
O O2 0.619227 0.476898 0.825946
O O3 0.409351 0.355931 0.676844
O O4 0.393655 0.348448 0.864444
O O5 0.861728 0.155500 0.808137
O O6 0.754646 0.041546 0.943482
O O7 0.863301 0.285720 0.964800
O O8 0.841921 0.403700 0.760987
O O9 0.724725 0.631007 0.716597
O O10 0.894518 0.580788 0.907086
O O11 0.888077 0.795950 0.653058
O O12 0.066104 0.736873 0.843031
O O13 0.883117 0.831052 0.931542
O O14 0.668168 0.834638 0.018617
#
# Coordination Sequence:
#
# PCOD8127139 Si02
#       7
#     4   4   4   4   4   4   4
#     4  11  25  43  65 101 139 175 218 282 343 397
#     4  11  25  43  70 101 132 176 238 274 331 407
#     4  10  23  43  66  95 142 173 221 285 336 399
#     4  10  22  39  68 100 132 177 228 279 341 390
#     4  12  24  42  74  98 137 177 229 283 330 401
#     4  11  23  44  69 100 136 181 228 272 342 402
#     4  11  23  41  70  98 132 179 229 279 335 395
#
# _framework density 22.195557999999998
#
# number of rings (size 3 to 8) (size 9 to 14) (size 15 to 20)
#    0.000    1.143    4.286    2.143    4.000    6.857 
#    0.000    0.714    3.143    0.000    0.000    0.000 
#    0.000    0.000    0.000    0.000    0.000    0.000 
#
# Total GULP energy -347145.869996 kJ/mol
# GULP energy per Si atom -12398.066786 kJ/mol
# Density = 2.214504 g / cm^3
# Si number density = 22.195558 Si / 1000 Ang^3
#
#
#
# Elastic Constant Matrix: (Units=GPa)
#
#
# Indices 1 2 3 4 5 6 
#
# 1 114.6846 20.7519 40.8234 0.0000 6.4006 0.0000
# 2 20.7519 61.7155 16.3164 0.0000 -1.2439 0.0000
# 3 40.8234 16.3164 90.5337 0.0000 -0.5797 0.0000
# 4 0.0000 0.0000 0.0000 26.1565 0.0000 2.1874
# 5 6.4006 -1.2439 -0.5797 0.0000 34.9086 0.0000
# 6 0.0000 0.0000 0.0000 2.1874 0.0000 46.1641
#
#
#
# Elastic Compliance Matrix: (Units=1/GPa)
#
#
# Indices 1 2 3 4 5 6 
#
# 1 0.010887 -0.002523 -0.004468 0.000000 -0.002160 0.000000
# 2 -0.002523 0.017610 -0.002029 0.000000 0.001056 0.000000
# 3 -0.004468 -0.002029 0.013432 0.000000 0.000970 0.000000
# 4 0.000000 0.000000 0.000000 0.038384 0.000000 -0.001819
# 5 -0.002160 0.001056 0.000970 0.000000 0.029096 0.000000
# 6 0.000000 0.000000 0.000000 -0.001819 0.000000 0.021748
#
#
# Mechanical properties :
#
#
# Convention : Reuss Voigt Hill
#
# Bulk Modulus (GPa) = 41.86217 46.96858 44.41538
# Shear Modulus (GPa) = 31.81455 34.04864 32.93160
#
# Velocity S-wave (km/s) = 3.79010 3.92092 3.85606
# Velocity P-wave (km/s) = 6.16885 6.45797 6.31506
#
# Compressibility (1/GPa) = 0.02388792
#
# Stress axis : x y z
#
# Youngs Moduli (GPa) = 91.85056 56.78742 74.44678
#
# Poissons Ratio (x) = 0.14328 0.33266
# Poissons Ratio (y) = 0.23174 0.15107
# Poissons Ratio (z) = 0.41042 0.11523
#
# Static dielectric constant tensor:
#      x y z
#    x 4.262250 0.000000 0.078080 
#    y 0.000000 3.929710 0.000000 
#    z 0.078080 0.000000 4.117100 
# 
# 
# High freq. dielectric constant tensor:
#      x y z
#    x 1.888130 0.000000 0.006420 
#    y 0.000000 1.860980 0.000000 
#    z 0.006420 0.000000 1.873440 
# 
# From -- ./inp_files/40164.got.cif
#   From: 2010.03.12/outbox.cif.g09.slc.cpg/sg14_21_cif.got.tgz:40164.got - 2010.03.31 13:35:05.
