data_PCOD8127454
_publ_section_title
;
Structure prediction by ZEFSAII (Michael W. Deem and Ramdas Pophale) SiO2 
 PCOD8127454
Probable space group: P 21/C
;
_chemical_formula_sum "Si O2"
_cell_formula_units_Z 32
_cell_length_a 20.276892
_cell_length_b 9.343552
_cell_length_c 14.283146
_cell_angle_alpha 90.000000
_cell_angle_beta 153.042117
_cell_angle_gamma 90.000000
_cell_volume 1226.752408
_symmetry_space_group_name_H-M "P 21/C"
_symmetry_group_IT_number 14
_symmetry_cell_setting 'monoclinic'
loop_
_space_group_symop_operation_xyz
x,y,z
-x,1/2+y,1/2-z
-x,-y,-z
x,1/2-y,1/2+z
loop_
_atom_site_type_symbol
_atom_site_label
_atom_site_fract_x
_atom_site_fract_y
_atom_site_fract_z
Si Si1 0.080104 0.748578 0.983115
Si Si2 0.235219 0.363357 0.469754
Si Si3 0.255311 0.681988 0.524603
Si Si4 0.915334 0.102041 0.816077
Si Si5 0.666267 0.892040 0.511664
Si Si6 0.453831 0.571686 0.294377
Si Si7 0.222940 0.168307 0.159883
Si Si8 0.730788 0.518294 0.769111
O O1 0.061319 0.858766 0.045081
O O2 0.167293 0.611511 0.132765
O O3 0.173683 0.828449 0.021058
O O4 0.930275 0.688061 0.751122
O O5 0.261506 0.529282 0.481722
O O6 0.340397 0.272785 0.533827
O O7 0.296076 0.339574 0.651319
O O8 0.168548 0.775962 0.342572
O O9 0.417468 0.755641 0.740669
O O10 0.827792 0.953991 0.692207
O O11 0.073814 0.078527 0.971480
O O12 0.657349 0.890627 0.613717
O O13 0.549126 0.993970 0.311785
O O14 0.601385 0.533336 0.531616
O O15 0.323123 0.505780 0.192416
O O16 0.179727 0.333955 0.125512
#
# Coordination Sequence:
#
# PCOD8127454 Si02
#       8
#     4   4   4   4   4   4   4   4
#     4  11  23  38  65  96 134 167 214 267 327 389
#     4  12  24  37  64  99 133 163 213 266 327 388
#     4  10  23  39  63  92 125 171 214 264 316 382
#     4  11  23  39  63  94 133 169 207 256 331 393
#     4  11  24  42  63  94 133 175 208 267 330 381
#     4   9  21  48  67  84 126 174 221 267 320 379
#     4  12  23  37  65  95 131 166 211 260 329 387
#     4  10  22  42  70  92 121 175 222 266 322 381
#
# _framework density 26.085132000000002
#
# number of rings (size 3 to 8) (size 9 to 14) (size 15 to 20)
#    0.000    1.250    3.750    1.875    3.500    1.000 
#    4.500    0.625    0.000    0.000    0.000    0.000 
#    0.000    0.000    0.000    0.000    0.000    0.000 
#
# Total GULP energy -396790.337871 kJ/mol
# GULP energy per Si atom -12399.698058 kJ/mol
# Density = 2.602576 g / cm^3
# Si number density = 26.085132 Si / 1000 Ang^3
#
#
#
# Elastic Constant Matrix: (Units=GPa)
#
#
# Indices 1 2 3 4 5 6 
#
# 1 60.0072 -9.2140 20.0445 0.0000 -18.0251 0.0000
# 2 -9.2140 121.7017 16.1766 0.0000 -13.1361 0.0000
# 3 20.0445 16.1766 116.2349 0.0000 -26.7967 0.0000
# 4 0.0000 0.0000 0.0000 39.4663 0.0000 -16.6103
# 5 -18.0251 -13.1361 -26.7967 0.0000 41.1821 0.0000
# 6 0.0000 0.0000 0.0000 -16.6103 0.0000 24.0064
#
#
#
# Elastic Compliance Matrix: (Units=1/GPa)
#
#
# Indices 1 2 3 4 5 6 
#
# 1 0.020270 0.002705 -0.001915 0.000000 0.008489 0.000000
# 2 0.002705 0.008914 -0.000916 0.000000 0.003431 0.000000
# 3 -0.001915 -0.000916 0.010354 0.000000 0.005607 0.000000
# 4 0.000000 0.000000 0.000000 0.035748 0.000000 0.024735
# 5 0.008489 0.003431 0.005607 0.000000 0.032740 0.000000
# 6 0.000000 0.000000 0.000000 0.024735 0.000000 0.058770
#
#
# Mechanical properties :
#
#
# Convention : Reuss Voigt Hill
#
# Bulk Modulus (GPa) = 25.45460 39.10647 32.28053
# Shear Modulus (GPa) = 27.75591 38.99340 33.37465
#
# Velocity S-wave (km/s) = 3.26552 3.87053 3.58082
# Velocity P-wave (km/s) = 4.89874 5.91600 5.43124
#
# Compressibility (1/GPa) = 0.03928564
#
# Stress axis : x y z
#
# Youngs Moduli (GPa) = 49.33496 112.18606 96.58552
#
# Poissons Ratio (x) = -0.30351 0.18496
# Poissons Ratio (y) = -0.13347 0.08847
# Poissons Ratio (z) = 0.09448 0.10276
#
# Static dielectric constant tensor:
#      x y z
#    x 4.679960 0.000000 -0.217640 
#    y 0.000000 5.097470 0.000000 
#    z -0.217640 0.000000 4.822940 
# 
# 
# High freq. dielectric constant tensor:
#      x y z
#    x 2.035940 0.000000 -0.014170 
#    y 0.000000 2.065590 0.000000 
#    z -0.014170 0.000000 2.056200 
# 
# From -- ./inp_files/51263.got.cif
#   From: 2010.03.12/outbox.cif.g09.slc.cpg/sg14_26_cif.got.tgz:51263.got - 2010.03.31 13:35:05.
