data_PCOD8127482
_publ_section_title
;
Structure prediction by ZEFSAII (Michael W. Deem and Ramdas Pophale) SiO2 
 PCOD8127482
Probable space group: P 21/C
;
_chemical_formula_sum "Si O2"
_cell_formula_units_Z 20
_cell_length_a 14.777356
_cell_length_b 11.226885
_cell_length_c 12.728738
_cell_angle_alpha 90.000000
_cell_angle_beta 26.364893
_cell_angle_gamma 90.000000
_cell_volume 937.796694
_symmetry_space_group_name_H-M "P 21/C"
_symmetry_group_IT_number 14
_symmetry_cell_setting 'monoclinic'
loop_
_space_group_symop_operation_xyz
x,y,z
-x,1/2+y,1/2-z
-x,-y,-z
x,1/2-y,1/2+z
loop_
_atom_site_type_symbol
_atom_site_label
_atom_site_fract_x
_atom_site_fract_y
_atom_site_fract_z
Si Si1 0.303453 0.239107 0.030559
Si Si2 0.141948 0.501670 0.751220
Si Si3 0.353760 0.390650 0.170871
Si Si4 0.979245 0.617529 0.317681
Si Si5 0.363195 0.746108 0.480383
O O1 0.259866 0.342916 0.159381
O O2 0.521078 0.266075 0.750927
O O3 0.123668 0.235735 0.129411
O O4 0.303294 0.108442 0.087280
O O5 0.002493 0.485316 0.790822
O O6 0.264361 0.623615 0.619368
O O7 0.000000 0.500000 0.000000
O O8 0.482750 0.284583 0.088874
O O9 0.500000 0.500000 0.000000
O O10 0.167249 0.431206 0.437982
O O11 0.195451 0.650469 0.141345
#
# Coordination Sequence:
#
# PCOD8127482 Si02
#       5
#     4   4   4   4   4
#     4   9  23  41  62  94 128 167 211 261 321 374
#     4  10  22  43  63  95 128 167 216 260 318 379
#     4  11  23  41  66  94 128 168 214 262 324 380
#     4   9  23  42  58  97 125 164 212 263 310 383
#     4  11  23  41  66  93 129 167 214 263 319 382
#
# _framework density 21.326585000000001
#
# number of rings (size 3 to 8) (size 9 to 14) (size 15 to 20)
#    1.200    0.800    0.000    2.400    2.800    3.200 
#    3.600    0.000    0.000    0.000    0.000    0.000 
#    0.000    0.000    0.000    0.000    0.000    0.000 
#
# Total GULP energy -247902.048644 kJ/mol
# GULP energy per Si atom -12395.102432 kJ/mol
# Density = 2.127804 g / cm^3
# Si number density = 21.326585 Si / 1000 Ang^3
#
#
#
# Elastic Constant Matrix: (Units=GPa)
#
#
# Indices 1 2 3 4 5 6 
#
# 1 49.1320 -12.3144 28.0609 0.0000 21.2198 0.0000
# 2 -12.3144 57.6782 11.0334 0.0000 21.6259 0.0000
# 3 28.0609 11.0334 125.9715 0.0000 38.8017 0.0000
# 4 0.0000 0.0000 0.0000 39.8885 0.0000 1.9352
# 5 21.2198 21.6259 38.8017 0.0000 43.0741 0.0000
# 6 0.0000 0.0000 0.0000 1.9352 0.0000 39.1984
#
#
#
# Elastic Compliance Matrix: (Units=1/GPa)
#
#
# Indices 1 2 3 4 5 6 
#
# 1 0.036828 0.017709 -0.001976 0.000000 -0.025254 0.000000
# 2 0.017709 0.030238 0.001066 0.000000 -0.024866 0.000000
# 3 -0.001976 0.001066 0.011280 0.000000 -0.009723 0.000000
# 4 0.000000 0.000000 0.000000 0.025130 0.000000 -0.001241
# 5 -0.025254 -0.024866 -0.009723 0.000000 0.056899 0.000000
# 6 0.000000 0.000000 0.000000 -0.001241 0.000000 0.025572
#
#
# Mechanical properties :
#
#
# Convention : Reuss Voigt Hill
#
# Bulk Modulus (GPa) = 8.93306 31.81573 20.37440
# Shear Modulus (GPa) = 26.36252 38.16564 32.26408
#
# Velocity S-wave (km/s) = 3.51968 4.23493 3.89377
# Velocity P-wave (km/s) = 4.55141 6.23407 5.45797
#
# Compressibility (1/GPa) = 0.11194367
#
# Stress axis : x y z
#
# Youngs Moduli (GPa) = 27.15362 33.07115 88.65315
#
# Poissons Ratio (x) = -0.58567 0.17518
# Poissons Ratio (y) = -0.48087 -0.09449
# Poissons Ratio (z) = 0.05366 -0.03525
#
# Static dielectric constant tensor:
#      x y z
#    x 3.870190 0.000000 0.156450 
#    y 0.000000 3.726350 0.000000 
#    z 0.156450 0.000000 3.845470 
# 
# 
# High freq. dielectric constant tensor:
#      x y z
#    x 1.833630 0.000000 0.017370 
#    y 0.000000 1.825130 0.000000 
#    z 0.017370 0.000000 1.840530 
# 
# From -- ./inp_files/48852.got.cif
#   From: 2010.03.12/outbox.cif.g09.slc.cpg/sg14_25_cif.got.tgz:48852.got - 2010.03.31 13:35:05.
