data_PCOD8127074
_publ_section_title
;
Structure prediction by ZEFSAII (Michael W. Deem and Ramdas Pophale) SiO2 
 PCOD8127074
Probable space group: P 21/C
;
_chemical_formula_sum "Si O2"
_cell_formula_units_Z 32
_cell_length_a 20.577354
_cell_length_b 17.297239
_cell_length_c 9.413271
_cell_angle_alpha 90.000000
_cell_angle_beta 150.820418
_cell_angle_gamma 90.000000
_cell_volume 1633.521099
_symmetry_space_group_name_H-M "P 21/C"
_symmetry_group_IT_number 14
_symmetry_cell_setting 'monoclinic'
loop_
_space_group_symop_operation_xyz
x,y,z
-x,1/2+y,1/2-z
-x,-y,-z
x,1/2-y,1/2+z
loop_
_atom_site_type_symbol
_atom_site_label
_atom_site_fract_x
_atom_site_fract_y
_atom_site_fract_z
Si Si1 0.154663 0.500618 0.331989
Si Si2 0.286825 0.745892 0.349531
Si Si3 0.494923 0.134242 0.838625
Si Si4 0.853733 0.171257 0.157015
Si Si5 0.499486 0.641044 0.338225
Si Si6 0.424163 0.497559 0.707279
Si Si7 0.854619 0.829135 0.159187
Si Si8 0.715452 0.748434 0.150374
O O1 0.176458 0.582695 0.454617
O O2 0.262575 0.502426 0.409275
O O3 0.178949 0.417839 0.455268
O O4 0.000000 0.500000 0.000000
O O5 0.392817 0.700069 0.456895
O O6 0.243055 0.692693 0.397232
O O7 0.352938 0.824516 0.532402
O O8 0.165979 0.771497 0.014224
O O9 0.349512 0.170037 0.533109
O O10 0.520305 0.066961 0.777939
O O11 0.497665 0.100143 0.002956
O O12 0.999619 0.180603 0.499016
O O13 0.534613 0.582121 0.283104
O O14 0.607456 0.709613 0.543371
O O15 0.500000 0.500000 0.000000
O O16 0.757849 0.803819 0.102522
O O17 0.837491 0.775444 0.987603
#
# Coordination Sequence:
#
# PCOD8127074 Si02
#       8
#     4   4   4   4   4   4   4   4
#     4  10  22  39  60  89 122 155 198 252 301 360
#     4  11  22  38  61  89 120 159 205 253 310 360
#     4  11  23  38  60  87 126 158 198 258 310 360
#     4  11  22  40  63  88 122 163 207 252 305 371
#     4  11  23  38  60  87 126 158 198 258 310 360
#     4  12  23  39  66  91 118 165 210 250 307 376
#     4  11  22  40  63  88 122 163 207 252 305 371
#     4  11  22  38  61  89 120 159 205 253 310 360
#
# _framework density 19.589585
#
# number of rings (size 3 to 8) (size 9 to 14) (size 15 to 20)
#    0.000    1.000    5.000    2.625    0.000    0.000 
#    0.000    0.000    0.000    0.000    0.000   14.000 
#    0.000    0.000    0.000    0.000    0.000    0.000 
#
# Total GULP energy -396562.781120 kJ/mol
# GULP energy per Si atom -12392.586910 kJ/mol
# Density = 1.954500 g / cm^3
# Si number density = 19.589585 Si / 1000 Ang^3
#
#
#
# Elastic Constant Matrix: (Units=GPa)
#
#
# Indices 1 2 3 4 5 6 
#
# 1 76.7151 13.0290 32.2099 0.0000 -2.4234 0.0000
# 2 13.0290 86.3587 34.4632 0.0000 -5.3465 0.0000
# 3 32.2099 34.4632 96.1518 0.0000 -1.8080 0.0000
# 4 0.0000 0.0000 0.0000 21.9338 0.0000 4.4863
# 5 -2.4234 -5.3465 -1.8080 0.0000 38.6785 0.0000
# 6 0.0000 0.0000 0.0000 4.4863 0.0000 34.1979
#
#
#
# Elastic Compliance Matrix: (Units=1/GPa)
#
#
# Indices 1 2 3 4 5 6 
#
# 1 0.015193 -0.000261 -0.004983 0.000000 0.000683 0.000000
# 2 -0.000261 0.013622 -0.004764 0.000000 0.001644 0.000000
# 3 -0.004983 -0.004764 0.013771 0.000000 -0.000327 0.000000
# 4 0.000000 0.000000 0.000000 0.046849 0.000000 -0.006146
# 5 0.000683 0.001644 -0.000327 0.000000 0.026109 0.000000
# 6 0.000000 0.000000 0.000000 -0.006146 0.000000 0.030048
#
#
# Mechanical properties :
#
#
# Convention : Reuss Voigt Hill
#
# Bulk Modulus (GPa) = 44.30785 46.51441 45.41113
# Shear Modulus (GPa) = 28.87972 30.93028 29.90500
#
# Velocity S-wave (km/s) = 3.84375 3.97787 3.91138
# Velocity P-wave (km/s) = 6.50894 6.70029 6.60531
#
# Compressibility (1/GPa) = 0.02256936
#
# Stress axis : x y z
#
# Youngs Moduli (GPa) = 65.81794 73.41078 72.61687
#
# Poissons Ratio (x) = 0.01919 0.36186
# Poissons Ratio (y) = 0.01720 0.34595
# Poissons Ratio (z) = 0.32798 0.34973
#
# Static dielectric constant tensor:
#      x y z
#    x 3.559910 0.000000 0.113140 
#    y 0.000000 3.798360 0.000000 
#    z 0.113140 0.000000 3.571910 
# 
# 
# High freq. dielectric constant tensor:
#      x y z
#    x 1.754720 0.000000 0.010620 
#    y 0.000000 1.774650 0.000000 
#    z 0.010620 0.000000 1.761360 
# 
# From -- ./inp_files/19185.got.cif
#   From: 2010.03.12/outbox.cif.g09.slc.cpg/sg14_10_cif.got.tgz:19185.got - 2010.03.31 13:35:05.
