data_PCOD8127897
_publ_section_title
;
Structure prediction by ZEFSAII (Michael W. Deem and Ramdas Pophale) SiO2 
 PCOD8127897
Probable space group: P 21/C
;
_chemical_formula_sum "Si O2"
_cell_formula_units_Z 28
_cell_length_a 8.718466
_cell_length_b 11.233681
_cell_length_c 16.372220
_cell_angle_alpha 90.000000
_cell_angle_beta 57.399993
_cell_angle_gamma 90.000000
_cell_volume 1350.874717
_symmetry_space_group_name_H-M "P 21/C"
_symmetry_group_IT_number 14
_symmetry_cell_setting 'monoclinic'
loop_
_space_group_symop_operation_xyz
x,y,z
-x,1/2+y,1/2-z
-x,-y,-z
x,1/2-y,1/2+z
loop_
_atom_site_type_symbol
_atom_site_label
_atom_site_fract_x
_atom_site_fract_y
_atom_site_fract_z
Si Si1 0.374497 0.847273 0.787069
Si Si2 0.531140 0.241018 0.572341
Si Si3 0.206266 0.609343 0.786006
Si Si4 0.981694 0.932552 0.922714
Si Si5 0.821948 0.807213 0.425748
Si Si6 0.662980 0.989235 0.600607
Si Si7 0.321523 0.569600 0.578243
O O1 0.455432 0.835246 0.856070
O O2 0.345902 0.713475 0.767338
O O3 0.500423 0.916589 0.688048
O O4 0.185568 0.916858 0.832763
O O5 0.323813 0.230748 0.600675
O O6 0.656032 0.295370 0.462956
O O7 0.599433 0.109633 0.574343
O O8 0.197715 0.519391 0.865747
O O9 0.305440 0.555465 0.679533
O O10 0.000629 0.649342 0.825319
O O11 0.879161 0.806382 0.963972
O O12 0.867898 0.015332 0.896019
O O13 0.000000 0.000000 0.000000
O O14 0.754661 0.908898 0.505704
O O15 0.500000 0.500000 0.500000
#
# Coordination Sequence:
#
# PCOD8127897 Si02
#       7
#     4   4   4   4   4   4   4
#     4  10  23  43  64  99 133 177 221 276 334 400
#     4  11  23  42  69  98 132 178 225 274 340 404
#     4  10  25  43  64  98 136 169 225 278 333 397
#     4  11  24  41  68  96 134 172 229 275 334 404
#     4  11  24  45  64 101 132 176 224 281 336 403
#     4  11  24  44  71  94 140 178 223 272 351 406
#     4  12  23  44  70  96 132 176 225 281 333 397
#
# _framework density 20.727311
#
# number of rings (size 3 to 8) (size 9 to 14) (size 15 to 20)
#    0.000    1.143    2.857    2.571    2.000    1.143 
#    2.571    0.000    0.000    0.000    0.000    0.000 
#    0.000    0.000    0.000    0.000    0.000    0.000 
#
# Total GULP energy -347073.946971 kJ/mol
# GULP energy per Si atom -12395.498106 kJ/mol
# Density = 2.068013 g / cm^3
# Si number density = 20.727311 Si / 1000 Ang^3
#
#
#
# Elastic Constant Matrix: (Units=GPa)
#
#
# Indices 1 2 3 4 5 6 
#
# 1 143.5707 44.8741 55.8934 0.0000 -0.6933 0.0000
# 2 44.8741 95.3661 50.1700 0.0000 -8.4292 0.0000
# 3 55.8934 50.1700 103.4871 0.0000 6.4945 0.0000
# 4 0.0000 0.0000 0.0000 35.5212 0.0000 6.5863
# 5 -0.6933 -8.4292 6.4945 0.0000 26.3945 0.0000
# 6 0.0000 0.0000 0.0000 6.5863 0.0000 26.4115
#
#
#
# Elastic Compliance Matrix: (Units=1/GPa)
#
#
# Indices 1 2 3 4 5 6 
#
# 1 0.009186 -0.002218 -0.003917 0.000000 0.000497 0.000000
# 2 -0.002218 0.015713 -0.006837 0.000000 0.006642 0.000000
# 3 -0.003917 -0.006837 0.015476 0.000000 -0.006094 0.000000
# 4 0.000000 0.000000 0.000000 0.029517 0.000000 -0.007361
# 5 0.000497 0.006642 -0.006094 0.000000 0.041520 0.000000
# 6 0.000000 0.000000 0.000000 -0.007361 0.000000 0.039698
#
#
# Mechanical properties :
#
#
# Convention : Reuss Voigt Hill
#
# Bulk Modulus (GPa) = 69.29432 71.58877 70.44154
# Shear Modulus (GPa) = 27.49314 30.43120 28.96217
#
# Velocity S-wave (km/s) = 3.64596 3.83583 3.74210
# Velocity P-wave (km/s) = 7.15737 7.36420 7.26152
#
# Compressibility (1/GPa) = 0.01443120
#
# Stress axis : x y z
#
# Youngs Moduli (GPa) = 108.86374 63.64121 64.61754
#
# Poissons Ratio (x) = 0.14113 0.25313
# Poissons Ratio (y) = 0.24141 0.44177
# Poissons Ratio (z) = 0.42646 0.43510
#
# Static dielectric constant tensor:
#      x y z
#    x 3.671750 0.000000 -0.168060 
#    y 0.000000 3.984910 0.000000 
#    z -0.168060 0.000000 3.363620 
# 
# 
# High freq. dielectric constant tensor:
#      x y z
#    x 1.826950 0.000000 0.004050 
#    y 0.000000 1.823620 0.000000 
#    z 0.004050 0.000000 1.803710 
# 
# From -- ./inp_files/39931.got.cif
#   From: 2010.03.12/outbox.cif.g09.slc.cpg/sg14_20_cif.got.tgz:39931.got - 2010.03.31 13:35:05.
