data_PCOD8127394
_publ_section_title
;
Structure prediction by ZEFSAII (Michael W. Deem and Ramdas Pophale) SiO2 
 PCOD8127394
Probable space group: P 21/C
;
_chemical_formula_sum "Si O2"
_cell_formula_units_Z 24
_cell_length_a 8.433853
_cell_length_b 14.450393
_cell_length_c 9.743958
_cell_angle_alpha 90.000000
_cell_angle_beta 103.190092
_cell_angle_gamma 90.000000
_cell_volume 1156.191710
_symmetry_space_group_name_H-M "P 21/C"
_symmetry_group_IT_number 14
_symmetry_cell_setting 'monoclinic'
loop_
_space_group_symop_operation_xyz
x,y,z
-x,1/2+y,1/2-z
-x,-y,-z
x,1/2-y,1/2+z
loop_
_atom_site_type_symbol
_atom_site_label
_atom_site_fract_x
_atom_site_fract_y
_atom_site_fract_z
Si Si1 0.640076 0.925303 0.661428
Si Si2 0.573366 0.595481 0.848203
Si Si3 0.206746 0.680016 0.418492
Si Si4 0.322681 0.022096 0.907888
Si Si5 0.396420 0.768079 0.702215
Si Si6 0.904191 0.909087 0.932801
O O1 0.672790 0.897315 0.509795
O O2 0.495309 0.863054 0.698973
O O3 0.813122 0.920252 0.769505
O O4 0.585870 0.032240 0.659885
O O5 0.684826 0.551478 0.751793
O O6 0.523038 0.696980 0.791593
O O7 0.224608 0.570751 0.410964
O O8 0.329639 0.730074 0.545696
O O9 0.242585 0.720595 0.274593
O O10 0.019240 0.682852 0.436879
O O11 0.500000 0.000000 0.000000
O O12 0.237468 0.104565 0.979845
O O13 0.000000 0.000000 0.000000
#
# Coordination Sequence:
#
# PCOD8127394 Si02
#       6
#     4   4   4   4   4   4
#     4  11  23  41  67 100 130 170 228 276 323 402
#     4  11  22  38  70  98 128 165 230 280 321 376
#     4  11  23  40  61  93 132 173 211 275 340 392
#     4  11  18  39  70  95 120 173 228 264 322 399
#     4  12  22  42  65  95 131 177 226 274 329 404
#     4  10  22  42  65  93 134 171 216 272 337 399
#
# _framework density 20.757802999999999
#
# number of rings (size 3 to 8) (size 9 to 14) (size 15 to 20)
#    0.000    1.000    6.667    1.000    0.000    0.000 
#    6.000    3.333    0.000    0.000    0.000    0.000 
#    0.000    0.000    0.000    0.000    0.000    0.000 
#
# Total GULP energy -297418.077610 kJ/mol
# GULP energy per Si atom -12392.419900 kJ/mol
# Density = 2.071056 g / cm^3
# Si number density = 20.757803 Si / 1000 Ang^3
#
#
#
# Elastic Constant Matrix: (Units=GPa)
#
#
# Indices 1 2 3 4 5 6 
#
# 1 90.2753 15.4661 51.0847 0.0000 -4.9822 0.0000
# 2 15.4661 58.8075 20.9965 0.0000 -0.6169 0.0000
# 3 51.0847 20.9965 160.5479 0.0000 -3.0408 0.0000
# 4 0.0000 0.0000 0.0000 17.8563 0.0000 -16.3163
# 5 -4.9822 -0.6169 -3.0408 0.0000 40.0282 0.0000
# 6 0.0000 0.0000 0.0000 -16.3163 0.0000 25.7302
#
#
#
# Elastic Compliance Matrix: (Units=1/GPa)
#
#
# Indices 1 2 3 4 5 6 
#
# 1 0.013841 -0.002164 -0.004095 0.000000 0.001378 0.000000
# 2 -0.002164 0.018176 -0.001691 0.000000 -0.000118 0.000000
# 3 -0.004095 -0.001691 0.007754 0.000000 0.000053 0.000000
# 4 0.000000 0.000000 0.000000 0.133161 0.000000 0.084441
# 5 0.001378 -0.000118 0.000053 0.000000 0.025156 0.000000
# 6 0.000000 0.000000 0.000000 0.084441 0.000000 0.092411
#
#
# Mechanical properties :
#
#
# Convention : Reuss Voigt Hill
#
# Bulk Modulus (GPa) = 41.88996 53.85838 47.87417
# Shear Modulus (GPa) = 15.90554 31.52849 23.71702
#
# Velocity S-wave (km/s) = 2.77111 3.90150 3.38384
# Velocity P-wave (km/s) = 5.51932 6.80427 6.19520
#
# Compressibility (1/GPa) = 0.02387207
#
# Stress axis : x y z
#
# Youngs Moduli (GPa) = 72.24752 55.01721 128.96851
#
# Poissons Ratio (x) = 0.11904 0.52814
# Poissons Ratio (y) = 0.15632 0.21807
# Poissons Ratio (z) = 0.29586 0.09303
#
# Static dielectric constant tensor:
#      x y z
#    x 4.082300 0.000000 -0.425650 
#    y 0.000000 3.707910 0.000000 
#    z -0.425650 0.000000 4.074910 
# 
# 
# High freq. dielectric constant tensor:
#      x y z
#    x 1.800560 0.000000 -0.016430 
#    y 0.000000 1.799010 0.000000 
#    z -0.016430 0.000000 1.827490 
# 
# From -- ./inp_files/8625.got.cif
#   From: 2010.03.12/outbox.cif.g09.slc.cpg/sg14_5_cif.got.tgz:8625.got - 2010.03.31 13:35:05.
