data_PCOD8127501
_publ_section_title
;
Structure prediction by ZEFSAII (Michael W. Deem and Ramdas Pophale) SiO2 
 PCOD8127501
Probable space group: P 21/C
;
_chemical_formula_sum "Si O2"
_cell_formula_units_Z 28
_cell_length_a 5.169582
_cell_length_b 18.774320
_cell_length_c 14.395313
_cell_angle_alpha 90.000000
_cell_angle_beta 64.140518
_cell_angle_gamma 90.000000
_cell_volume 1257.241812
_symmetry_space_group_name_H-M "P 21/C"
_symmetry_group_IT_number 14
_symmetry_cell_setting 'monoclinic'
loop_
_space_group_symop_operation_xyz
x,y,z
-x,1/2+y,1/2-z
-x,-y,-z
x,1/2-y,1/2+z
loop_
_atom_site_type_symbol
_atom_site_label
_atom_site_fract_x
_atom_site_fract_y
_atom_site_fract_z
Si Si1 0.723032 0.412509 0.833938
Si Si2 0.657940 0.646928 0.270158
Si Si3 0.136421 0.429530 0.231018
Si Si4 0.717817 0.270474 0.171860
Si Si5 0.477015 0.161480 0.544947
Si Si6 0.462415 0.618986 0.667892
Si Si7 0.726512 0.685311 0.452473
O O1 0.548458 0.397097 0.766371
O O2 0.794171 0.495226 0.826255
O O3 0.009328 0.366170 0.802383
O O4 0.542537 0.394119 0.953805
O O5 0.595126 0.731669 0.273023
O O6 0.604382 0.633865 0.389454
O O7 0.194997 0.368992 0.142776
O O8 0.344778 0.417994 0.284987
O O9 0.803954 0.432609 0.317909
O O10 0.727353 0.326556 0.083517
O O11 0.720811 0.312655 0.267998
O O12 0.943851 0.206034 0.123249
O O13 0.428724 0.239085 0.508445
O O14 0.679999 0.638810 0.551533
#
# Coordination Sequence:
#
# PCOD8127501 Si02
#       7
#     4   4   4   4   4   4   4
#     4  12  25  44  70  95 138 185 221 266 328 401
#     4  11  25  42  66 100 132 172 228 270 324 399
#     4  11  25  47  63 100 139 178 224 270 323 412
#     4  10  22  43  67 104 135 162 221 290 329 404
#     4  10  24  39  71 104 131 172 220 281 346 385
#     4  11  25  42  70  95 136 177 216 277 347 378
#     4  11  23  43  71 100 134 166 225 284 342 383
#
# _framework density 22.270976000000001
#
# number of rings (size 3 to 8) (size 9 to 14) (size 15 to 20)
#    0.000    1.143    2.857    2.143    8.000    0.000 
#    0.000    7.857    0.000    0.000    0.000    0.000 
#    0.000    0.000    0.000    0.000    0.000    0.000 
#
# Total GULP energy -346866.449572 kJ/mol
# GULP energy per Si atom -12388.087485 kJ/mol
# Density = 2.222029 g / cm^3
# Si number density = 22.270976 Si / 1000 Ang^3
#
#
#
# Elastic Constant Matrix: (Units=GPa)
#
#
# Indices 1 2 3 4 5 6 
#
# 1 110.9223 7.5978 23.1885 0.0000 -2.2219 0.0000
# 2 7.5978 39.6360 21.9997 0.0000 7.3150 0.0000
# 3 23.1885 21.9997 78.0994 0.0000 7.4236 0.0000
# 4 0.0000 0.0000 0.0000 22.9977 0.0000 0.1531
# 5 -2.2219 7.3150 7.4236 0.0000 29.7842 0.0000
# 6 0.0000 0.0000 0.0000 0.1531 0.0000 24.0817
#
#
#
# Elastic Compliance Matrix: (Units=1/GPa)
#
#
# Indices 1 2 3 4 5 6 
#
# 1 0.009685 -0.000555 -0.002869 0.000000 0.001574 0.000000
# 2 -0.000555 0.030801 -0.007978 0.000000 -0.005618 0.000000
# 3 -0.002869 -0.007978 0.016119 0.000000 -0.002272 0.000000
# 4 0.000000 0.000000 0.000000 0.043484 0.000000 -0.000276
# 5 0.001574 -0.005618 -0.002272 0.000000 0.035638 0.000000
# 6 0.000000 0.000000 0.000000 -0.000276 0.000000 0.041527
#
#
# Mechanical properties :
#
#
# Convention : Reuss Voigt Hill
#
# Bulk Modulus (GPa) = 29.58365 37.13664 33.36014
# Shear Modulus (GPa) = 23.66043 27.09751 25.37897
#
# Velocity S-wave (km/s) = 3.26297 3.49193 3.37939
# Velocity P-wave (km/s) = 5.24483 5.74188 5.49898
#
# Compressibility (1/GPa) = 0.03380246
#
# Stress axis : x y z
#
# Youngs Moduli (GPa) = 103.25721 32.46696 62.03803
#
# Poissons Ratio (x) = 0.01800 0.17798
# Poissons Ratio (y) = 0.05726 0.49491
# Poissons Ratio (z) = 0.29623 0.25901
#
# Static dielectric constant tensor:
#      x y z
#    x 4.171390 0.000000 0.097760 
#    y 0.000000 3.829210 0.000000 
#    z 0.097760 0.000000 3.898780 
# 
# 
# High freq. dielectric constant tensor:
#      x y z
#    x 1.886440 0.000000 0.005240 
#    y 0.000000 1.862360 0.000000 
#    z 0.005240 0.000000 1.871820 
# 
# From -- ./inp_files/37628.got.cif
#   From: 2010.03.12/outbox.cif.g09.slc.cpg/sg14_19_cif.got.tgz:37628.got - 2010.03.31 13:35:05.
