data_PCOD8127360
_publ_section_title
;
Structure prediction by ZEFSAII (Michael W. Deem and Ramdas Pophale) SiO2 
 PCOD8127360
Probable space group: P 21/C
;
_chemical_formula_sum "Si O2"
_cell_formula_units_Z 32
_cell_length_a 11.546987
_cell_length_b 18.587943
_cell_length_c 13.715171
_cell_angle_alpha 90.000000
_cell_angle_beta 149.537948
_cell_angle_gamma 90.000000
_cell_volume 1492.386882
_symmetry_space_group_name_H-M "P 21/C"
_symmetry_group_IT_number 14
_symmetry_cell_setting 'monoclinic'
loop_
_space_group_symop_operation_xyz
x,y,z
-x,1/2+y,1/2-z
-x,-y,-z
x,1/2-y,1/2+z
loop_
_atom_site_type_symbol
_atom_site_label
_atom_site_fract_x
_atom_site_fract_y
_atom_site_fract_z
Si Si1 0.319903 0.722506 0.864993
Si Si2 0.242861 0.136897 0.294393
Si Si3 0.768827 0.467860 0.789931
Si Si4 0.432930 0.823009 0.794104
Si Si5 0.351845 0.568241 0.509418
Si Si6 0.784905 0.283492 0.514407
Si Si7 0.884504 0.651525 0.514890
Si Si8 0.997813 0.000836 0.882900
O O1 0.420999 0.798076 0.898728
O O2 0.240500 0.725120 0.918929
O O3 0.084313 0.707776 0.635865
O O4 0.512115 0.661177 0.987971
O O5 0.044590 0.189893 0.189395
O O6 0.249068 0.135897 0.181733
O O7 0.195900 0.054743 0.297141
O O8 0.682205 0.401900 0.796276
O O9 0.599925 0.535812 0.669235
O O10 0.796241 0.439108 0.698474
O O11 0.000000 0.500000 0.000000
O O12 0.305350 0.758174 0.645501
O O13 0.697507 0.823283 0.956708
O O14 0.372924 0.649445 0.566012
O O15 0.239957 0.523488 0.515757
O O16 0.026564 0.584024 0.664645
O O17 0.000000 0.000000 0.000000
#
# Coordination Sequence:
#
# PCOD8127360 Si02
#       8
#     4   4   4   4   4   4   4   4
#     4  12  24  40  66  97 131 174 223 280 340 406
#     4  10  22  42  61  95 129 172 224 271 341 404
#     4  11  25  44  72 100 132 179 235 283 337 410
#     4  12  24  44  69 101 135 180 231 279 345 414
#     4  10  22  46  67  96 135 181 220 287 346 394
#     4  11  23  43  69  93 136 176 220 285 341 410
#     4  11  22  41  65  92 132 174 215 282 340 400
#     4   9  20  40  67  88 132 174 218 277 336 398
#
# _framework density 21.442163000000001
#
# number of rings (size 3 to 8) (size 9 to 14) (size 15 to 20)
#    0.000    1.250    5.000    0.750    0.000    3.500 
#    4.500    0.000    0.000    0.000    0.000    0.000 
#    0.000    0.000    0.000    0.000    0.000    0.000 
#
# Total GULP energy -396526.726319 kJ/mol
# GULP energy per Si atom -12391.460197 kJ/mol
# Density = 2.139336 g / cm^3
# Si number density = 21.442163 Si / 1000 Ang^3
#
#
#
# Elastic Constant Matrix: (Units=GPa)
#
#
# Indices 1 2 3 4 5 6 
#
# 1 105.6513 29.7016 39.2266 0.0000 16.5286 0.0000
# 2 29.7016 97.7839 40.8907 0.0000 11.0145 0.0000
# 3 39.2266 40.8907 100.5035 0.0000 19.6141 0.0000
# 4 0.0000 0.0000 0.0000 26.5219 0.0000 4.5753
# 5 16.5286 11.0145 19.6141 0.0000 31.9157 0.0000
# 6 0.0000 0.0000 0.0000 4.5753 0.0000 41.8180
#
#
#
# Elastic Compliance Matrix: (Units=1/GPa)
#
#
# Indices 1 2 3 4 5 6 
#
# 1 0.011694 -0.001850 -0.003130 0.000000 -0.003494 0.000000
# 2 -0.001850 0.012666 -0.004278 0.000000 -0.000784 0.000000
# 3 -0.003130 -0.004278 0.013985 0.000000 -0.005497 0.000000
# 4 0.000000 0.000000 0.000000 0.038430 0.000000 -0.004205
# 5 -0.003494 -0.000784 -0.005497 0.000000 0.036791 0.000000
# 6 0.000000 0.000000 0.000000 -0.004205 0.000000 0.024373
#
#
# Mechanical properties :
#
#
# Convention : Reuss Voigt Hill
#
# Bulk Modulus (GPa) = 50.43010 58.17518 54.30264
# Shear Modulus (GPa) = 30.66289 32.99244 31.82767
#
# Velocity S-wave (km/s) = 3.78567 3.92685 3.85691
# Velocity P-wave (km/s) = 6.53289 6.91016 6.72417
#
# Compressibility (1/GPa) = 0.01982943
#
# Stress axis : x y z
#
# Youngs Moduli (GPa) = 85.51605 78.95256 71.50574
#
# Poissons Ratio (x) = 0.14603 0.22378
# Poissons Ratio (y) = 0.15817 0.30592
# Poissons Ratio (z) = 0.26763 0.33778
#
# Static dielectric constant tensor:
#      x y z
#    x 4.061500 0.000000 0.050060 
#    y 0.000000 4.178190 0.000000 
#    z 0.050060 0.000000 3.429530 
# 
# 
# High freq. dielectric constant tensor:
#      x y z
#    x 1.865030 0.000000 0.011300 
#    y 0.000000 1.852540 0.000000 
#    z 0.011300 0.000000 1.802520 
# 
# From -- ./inp_files/45394.got.cif
#   From: 2010.03.12/outbox.cif.g09.slc.cpg/sg14_23_cif.got.tgz:45394.got - 2010.03.31 13:35:05.
