data_PCOD8127181
_publ_section_title
;
Structure prediction by ZEFSAII (Michael W. Deem and Ramdas Pophale) SiO2 
 PCOD8127181
Probable space group: P 21/C
;
_chemical_formula_sum "Si O2"
_cell_formula_units_Z 28
_cell_length_a 9.759662
_cell_length_b 7.449010
_cell_length_c 19.414500
_cell_angle_alpha 90.000000
_cell_angle_beta 59.773693
_cell_angle_gamma 90.000000
_cell_volume 1219.537837
_symmetry_space_group_name_H-M "P 21/C"
_symmetry_group_IT_number 14
_symmetry_cell_setting 'monoclinic'
loop_
_space_group_symop_operation_xyz
x,y,z
-x,1/2+y,1/2-z
-x,-y,-z
x,1/2-y,1/2+z
loop_
_atom_site_type_symbol
_atom_site_label
_atom_site_fract_x
_atom_site_fract_y
_atom_site_fract_z
Si Si1 0.223311 0.634092 0.429901
Si Si2 0.234125 0.500790 0.000123
Si Si3 0.083613 0.364995 0.569797
Si Si4 0.193992 0.606277 0.158218
Si Si5 0.490002 0.605522 0.158123
Si Si6 0.557240 0.700741 0.290160
Si Si7 0.137892 0.298959 0.709396
O O1 0.189945 0.843322 0.456957
O O2 0.199519 0.498989 0.499596
O O3 0.400834 0.597872 0.357288
O O4 0.099039 0.584875 0.400739
O O5 0.103737 0.344589 0.043249
O O6 0.261686 0.608843 0.063821
O O7 0.389553 0.393264 0.936370
O O8 0.116401 0.401992 0.642148
O O9 0.326130 0.699864 0.174167
O O10 0.176691 0.403603 0.185359
O O11 0.024355 0.701964 0.205831
O O12 0.565526 0.701200 0.205187
O O13 0.452058 0.403495 0.186135
O O14 0.717231 0.613821 0.282921
#
# Coordination Sequence:
#
# PCOD8127181 Si02
#       7
#     4   4   4   4   4   4   4
#     4  10  22  40  63  91 123 161 205 254 309 369
#     4  10  22  40  64  94 122 164 206 260 308 370
#     4  10  22  40  63  91 123 161 205 254 309 369
#     4  10  22  41  63  89 125 162 203 256 310 368
#     4  10  22  41  63  89 125 162 203 256 310 368
#     4  10  23  40  60  90 123 160 206 251 308 372
#     4  10  23  40  60  90 123 160 206 251 308 372
#
# _framework density 22.959517999999999
#
# number of rings (size 3 to 8) (size 9 to 14) (size 15 to 20)
#    0.000    2.000    0.000    1.714    4.000    8.571 
#    0.000    0.000    0.000    0.000    0.000    0.000 
#    0.000    0.000    0.000    0.000    0.000    0.000 
#
# Total GULP energy -347094.050130 kJ/mol
# GULP energy per Si atom -12396.216076 kJ/mol
# Density = 2.290726 g / cm^3
# Si number density = 22.959518 Si / 1000 Ang^3
#
#
#
# Elastic Constant Matrix: (Units=GPa)
#
#
# Indices 1 2 3 4 5 6 
#
# 1 186.7413 -2.8607 74.2145 0.0000 -12.5846 0.0000
# 2 -2.8607 26.1488 -5.2155 0.0000 -0.2702 0.0000
# 3 74.2145 -5.2155 129.7043 0.0000 6.3600 0.0000
# 4 0.0000 0.0000 0.0000 30.8927 0.0000 0.8490
# 5 -12.5846 -0.2702 6.3600 0.0000 12.3228 0.0000
# 6 0.0000 0.0000 0.0000 0.8490 0.0000 24.2989
#
#
#
# Elastic Compliance Matrix: (Units=1/GPa)
#
#
# Indices 1 2 3 4 5 6 
#
# 1 0.008172 -0.000033 -0.005219 0.000000 0.011039 0.000000
# 2 -0.000033 0.038552 0.001569 0.000000 0.000002 0.000000
# 3 -0.005219 0.001569 0.011305 0.000000 -0.011130 0.000000
# 4 0.000000 0.000000 0.000000 0.032401 0.000000 -0.001132
# 5 0.011039 0.000002 -0.011130 0.000000 0.098168 0.000000
# 6 0.000000 0.000000 0.000000 -0.001132 0.000000 0.041194
#
#
# Mechanical properties :
#
#
# Convention : Reuss Voigt Hill
#
# Bulk Modulus (GPa) = 19.73793 52.76343 36.25068
# Shear Modulus (GPa) = 19.68149 31.93327 25.80738
#
# Velocity S-wave (km/s) = 2.93102 3.73346 3.35631
# Velocity P-wave (km/s) = 4.47995 6.45104 5.55364
#
# Compressibility (1/GPa) = 0.05066389
#
# Stress axis : x y z
#
# Youngs Moduli (GPa) = 122.36252 25.93901 88.45840
#
# Poissons Ratio (x) = 0.00085 0.46164
# Poissons Ratio (y) = 0.00401 -0.13878
# Poissons Ratio (z) = 0.63858 -0.04069
#
# Static dielectric constant tensor:
#      x y z
#    x -0.964630 0.000000 0.782470 
#    y 0.000000 3.891320 0.000000 
#    z 0.782470 0.000000 4.450220 
# 
# 
# High freq. dielectric constant tensor:
#      x y z
#    x 1.910390 0.000000 -0.000030 
#    y 0.000000 1.894330 0.000000 
#    z -0.000030 0.000000 1.908610 
# 
# From -- ./inp_files/64978.got.cif
#   From: 2010.03.12/outbox.cif.g09.slc.cpg/sg14_33_cif.got.tgz:64978.got - 2010.03.31 13:35:05.
