data_PCOD8127028
_publ_section_title
;
Structure prediction by ZEFSAII (Michael W. Deem and Ramdas Pophale) SiO2 
 PCOD8127028
Probable space group: P 21/C
;
_chemical_formula_sum "Si O2"
_cell_formula_units_Z 24
_cell_length_a 21.651770
_cell_length_b 5.439259
_cell_length_c 21.014746
_cell_angle_alpha 90.000000
_cell_angle_beta 26.552210
_cell_angle_gamma 90.000000
_cell_volume 1106.311848
_symmetry_space_group_name_H-M "P 21/C"
_symmetry_group_IT_number 14
_symmetry_cell_setting 'monoclinic'
loop_
_space_group_symop_operation_xyz
x,y,z
-x,1/2+y,1/2-z
-x,-y,-z
x,1/2-y,1/2+z
loop_
_atom_site_type_symbol
_atom_site_label
_atom_site_fract_x
_atom_site_fract_y
_atom_site_fract_z
Si Si1 0.330184 0.849706 0.479054
Si Si2 0.608427 0.162510 0.824818
Si Si3 0.633549 0.843620 0.224591
Si Si4 0.846638 0.016277 0.937615
Si Si5 0.313089 0.997971 0.115713
Si Si6 0.881636 0.762611 0.283134
O O1 0.492200 0.890757 0.315400
O O2 0.260749 0.733011 0.480372
O O3 0.323743 0.688311 0.548040
O O4 0.250937 0.098991 0.566317
O O5 0.635223 0.913606 0.760345
O O6 0.696482 0.143832 0.808746
O O7 0.656976 0.415168 0.747205
O O8 0.445833 0.180575 0.992455
O O9 0.759734 0.819204 0.058392
O O10 0.977375 0.092593 0.860981
O O11 0.916121 0.929775 0.807545
O O12 0.169635 0.145396 0.236217
#
# Coordination Sequence:
#
# PCOD8127028 Si02
#       6
#     4   4   4   4   4   4
#     4  10  22  38  63  89 124 163 212 255 318 368
#     4  10  22  41  65  95 125 163 214 264 316 363
#     4  11  25  40  64  97 127 163 206 269 320 367
#     4  11  25  38  63  91 131 167 210 264 318 388
#     4   9  21  38  66  90 120 167 215 260 304 385
#     4  11  21  41  59  92 120 173 209 253 318 380
#
# _framework density 21.693702999999999
#
# number of rings (size 3 to 8) (size 9 to 14) (size 15 to 20)
#    0.000    1.667    3.333    0.000    7.000    2.000 
#    0.000    1.667    0.000    0.000    0.000    0.000 
#    0.000    0.000    0.000    0.000    0.000    0.000 
#
# Total GULP energy -297469.283119 kJ/mol
# GULP energy per Si atom -12394.553463 kJ/mol
# Density = 2.164433 g / cm^3
# Si number density = 21.693703 Si / 1000 Ang^3
#
#
#
# Elastic Constant Matrix: (Units=GPa)
#
#
# Indices 1 2 3 4 5 6 
#
# 1 97.0479 7.7058 30.4161 0.0000 -27.4609 0.0000
# 2 7.7058 64.1929 3.1112 0.0000 -9.2061 0.0000
# 3 30.4161 3.1112 93.0347 0.0000 -24.1719 0.0000
# 4 0.0000 0.0000 0.0000 27.0026 0.0000 -4.7660
# 5 -27.4609 -9.2061 -24.1719 0.0000 29.6524 0.0000
# 6 0.0000 0.0000 0.0000 -4.7660 0.0000 23.6142
#
#
#
# Elastic Compliance Matrix: (Units=1/GPa)
#
#
# Indices 1 2 3 4 5 6 
#
# 1 0.014137 0.000078 -0.001544 0.000000 0.011859 0.000000
# 2 0.000078 0.016375 0.000972 0.000000 0.005949 0.000000
# 3 -0.001544 0.000972 0.013864 0.000000 0.010174 0.000000
# 4 0.000000 0.000000 0.000000 0.038401 0.000000 0.007751
# 5 0.011859 0.005949 0.010174 0.000000 0.054847 0.000000
# 6 0.000000 0.000000 0.000000 0.007751 0.000000 0.043912
#
#
# Mechanical properties :
#
#
# Convention : Reuss Voigt Hill
#
# Bulk Modulus (GPa) = 23.04632 37.41576 30.23104
# Shear Modulus (GPa) = 25.38262 30.25667 27.81964
#
# Velocity S-wave (km/s) = 3.42430 3.73865 3.58492
# Velocity P-wave (km/s) = 5.12650 5.99345 5.57685
#
# Compressibility (1/GPa) = 0.04339088
#
# Stress axis : x y z
#
# Youngs Moduli (GPa) = 70.73514 61.06988 72.12806
#
# Poissons Ratio (x) = -0.00479 0.11133
# Poissons Ratio (y) = -0.00555 -0.07014
# Poissons Ratio (z) = 0.10918 -0.05939
#
# Static dielectric constant tensor:
#      x y z
#    x 4.236380 0.000000 -0.302270 
#    y 0.000000 3.883500 0.000000 
#    z -0.302270 0.000000 3.722070 
# 
# 
# High freq. dielectric constant tensor:
#      x y z
#    x 1.855600 0.000000 -0.017760 
#    y 0.000000 1.850560 0.000000 
#    z -0.017760 0.000000 1.826550 
# 
# From -- ./inp_files/69573.got.cif
#   From: 2010.03.12/outbox.cif.g09.slc.cpg/sg14_35_cif.got.tgz:69573.got - 2010.03.31 13:35:05.
