data_PCOD8127108
_publ_section_title
;
Structure prediction by ZEFSAII (Michael W. Deem and Ramdas Pophale) SiO2 
 PCOD8127108
Probable space group: P 21/C
;
_chemical_formula_sum "Si O2"
_cell_formula_units_Z 28
_cell_length_a 9.029734
_cell_length_b 13.590505
_cell_length_c 13.795124
_cell_angle_alpha 90.000000
_cell_angle_beta 126.330102
_cell_angle_gamma 90.000000
_cell_volume 1363.844503
_symmetry_space_group_name_H-M "P 21/C"
_symmetry_group_IT_number 14
_symmetry_cell_setting 'monoclinic'
loop_
_space_group_symop_operation_xyz
x,y,z
-x,1/2+y,1/2-z
-x,-y,-z
x,1/2-y,1/2+z
loop_
_atom_site_type_symbol
_atom_site_label
_atom_site_fract_x
_atom_site_fract_y
_atom_site_fract_z
Si Si1 0.898685 0.646083 0.233771
Si Si2 0.625765 0.348718 0.864434
Si Si3 0.269578 0.239414 0.669042
Si Si4 0.110977 0.964879 0.134440
Si Si5 0.968633 0.243387 0.393677
Si Si6 0.483033 0.115434 0.503608
Si Si7 0.521505 0.937405 0.291143
O O1 0.884312 0.727245 0.313218
O O2 0.929171 0.537605 0.290589
O O3 0.717439 0.650529 0.100301
O O4 0.049118 0.678572 0.212071
O O5 0.437914 0.317450 0.736246
O O6 0.801186 0.289790 0.896486
O O7 0.617059 0.330279 0.978052
O O8 0.645432 0.466269 0.856875
O O9 0.359609 0.133382 0.733109
O O10 0.163369 0.231507 0.525179
O O11 0.051783 0.856863 0.144576
O O12 0.320834 0.968473 0.176921
O O13 0.000000 0.000000 0.000000
O O14 0.520155 0.134515 0.631282
O O15 0.500000 0.000000 0.500000
#
# Coordination Sequence:
#
# PCOD8127108 Si02
#       7
#     4   4   4   4   4   4   4
#     4  11  23  41  64  95 135 166 226 275 329 404
#     4  10  22  39  63  97 128 168 226 270 330 393
#     4  11  22  42  63  96 132 171 220 274 333 397
#     4  12  23  43  66  92 136 183 212 267 353 394
#     4  12  25  40  67  99 128 177 227 277 327 408
#     4   9  17  37  63  89 117 169 211 264 326 380
#     4  11  20  40  70  88 131 175 219 276 330 395
#
# _framework density 20.530201000000002
#
# number of rings (size 3 to 8) (size 9 to 14) (size 15 to 20)
#    0.000    1.143    8.571    0.000    0.000    2.857 
#    0.000    1.429    0.000    3.429    0.000    0.000 
#    0.000    0.000    0.000    0.000    0.000    0.000 
#
# Total GULP energy -346899.936966 kJ/mol
# GULP energy per Si atom -12389.283463 kJ/mol
# Density = 2.048347 g / cm^3
# Si number density = 20.530201 Si / 1000 Ang^3
#
#
#
# Elastic Constant Matrix: (Units=GPa)
#
#
# Indices 1 2 3 4 5 6 
#
# 1 94.6027 46.2865 35.4333 0.0000 -9.2044 0.0000
# 2 46.2865 105.4227 32.8586 0.0000 -8.7354 0.0000
# 3 35.4333 32.8586 86.0712 0.0000 -2.4669 0.0000
# 4 0.0000 0.0000 0.0000 29.4783 0.0000 -3.1129
# 5 -9.2044 -8.7354 -2.4669 0.0000 23.2297 0.0000
# 6 0.0000 0.0000 0.0000 -3.1129 0.0000 38.7529
#
#
#
# Elastic Compliance Matrix: (Units=1/GPa)
#
#
# Indices 1 2 3 4 5 6 
#
# 1 0.014893 -0.004951 -0.004138 0.000000 0.003600 0.000000
# 2 -0.004951 0.012725 -0.002747 0.000000 0.002532 0.000000
# 3 -0.004138 -0.002747 0.014338 0.000000 -0.001150 0.000000
# 4 0.000000 0.000000 0.000000 0.034214 0.000000 0.002748
# 5 0.003600 0.002532 -0.001150 0.000000 0.045305 0.000000
# 6 0.000000 0.000000 0.000000 0.002748 0.000000 0.026025
#
#
# Mechanical properties :
#
#
# Convention : Reuss Voigt Hill
#
# Bulk Modulus (GPa) = 54.69297 57.25037 55.97167
# Shear Modulus (GPa) = 28.20619 29.72673 28.96646
#
# Velocity S-wave (km/s) = 3.71062 3.80932 3.76030
# Velocity P-wave (km/s) = 6.71240 6.87709 6.79525
#
# Compressibility (1/GPa) = 0.01828388
#
# Stress axis : x y z
#
# Youngs Moduli (GPa) = 67.14609 78.58284 69.74668
#
# Poissons Ratio (x) = 0.38905 0.28860
# Poissons Ratio (y) = 0.33243 0.19162
# Poissons Ratio (z) = 0.27784 0.21590
#
# Static dielectric constant tensor:
#      x y z
#    x 4.034690 0.000000 -0.404200 
#    y 0.000000 3.899000 0.000000 
#    z -0.404200 0.000000 4.029530 
# 
# 
# High freq. dielectric constant tensor:
#      x y z
#    x 1.784740 0.000000 0.001170 
#    y 0.000000 1.805920 0.000000 
#    z 0.001170 0.000000 1.800500 
# 
# From -- ./inp_files/41282.got.cif
#   From: 2010.03.12/outbox.cif.g09.slc.cpg/sg14_21_cif.got.tgz:41282.got - 2010.03.31 13:35:05.
