data_PCOD8127530
_publ_section_title
;
Structure prediction by ZEFSAII (Michael W. Deem and Ramdas Pophale) SiO2 
 PCOD8127530
Probable space group: P 21/C
;
_chemical_formula_sum "Si O2"
_cell_formula_units_Z 28
_cell_length_a 12.250665
_cell_length_b 9.888517
_cell_length_c 22.181816
_cell_angle_alpha 90.000000
_cell_angle_beta 150.483145
_cell_angle_gamma 90.000000
_cell_volume 1323.891781
_symmetry_space_group_name_H-M "P 21/C"
_symmetry_group_IT_number 14
_symmetry_cell_setting 'monoclinic'
loop_
_space_group_symop_operation_xyz
x,y,z
-x,1/2+y,1/2-z
-x,-y,-z
x,1/2-y,1/2+z
loop_
_atom_site_type_symbol
_atom_site_label
_atom_site_fract_x
_atom_site_fract_y
_atom_site_fract_z
Si Si1 0.460204 0.892369 0.823133
Si Si2 0.621729 0.717643 0.570995
Si Si3 0.571272 0.887618 0.431338
Si Si4 0.791690 0.616162 0.257615
Si Si5 0.981844 0.901010 0.546944
Si Si6 0.269281 0.965667 0.946546
Si Si7 0.160677 0.373077 0.582462
O O1 0.472016 0.737901 0.848461
O O2 0.601449 0.913404 0.830324
O O3 0.205207 0.922498 0.691011
O O4 0.551491 0.993645 0.917146
O O5 0.626020 0.843114 0.526326
O O6 0.741913 0.758642 0.690359
O O7 0.761745 0.590268 0.614076
O O8 0.367592 0.667787 0.460704
O O9 0.788554 0.941095 0.500809
O O10 0.391052 0.004342 0.344353
O O11 0.788016 0.668701 0.324303
O O12 0.034848 0.559019 0.363507
O O13 0.951665 0.748415 0.508554
O O14 0.000000 0.000000 0.500000
O O15 0.000000 0.500000 0.500000
#
# Coordination Sequence:
#
# PCOD8127530 Si02
#       7
#     4   4   4   4   4   4   4
#     4  10  22  43  70  92 140 175 222 277 346 410
#     4  10  25  44  63 102 132 177 230 277 341 405
#     4  10  24  43  67  98 133 184 224 275 348 405
#     4  12  24  42  72  96 137 171 232 285 334 412
#     4  11  25  42  68 103 135 178 226 287 345 412
#     4  10  24  44  68  99 129 180 224 278 347 401
#     4  11  23  43  66 101 133 179 227 274 347 409
#
# _framework density 21.149766
#
# number of rings (size 3 to 8) (size 9 to 14) (size 15 to 20)
#    0.000    1.429    1.429    2.143    8.000    5.714 
#    0.000    0.000    0.000    0.000    0.000    0.000 
#    0.000    0.000    0.000    0.000    0.000    0.000 
#
# Total GULP energy -347266.875957 kJ/mol
# GULP energy per Si atom -12402.388427 kJ/mol
# Density = 2.110163 g / cm^3
# Si number density = 21.149766 Si / 1000 Ang^3
#
#
#
# Elastic Constant Matrix: (Units=GPa)
#
#
# Indices 1 2 3 4 5 6 
#
# 1 130.8037 28.5743 41.5172 0.0000 -4.3897 0.0000
# 2 28.5743 64.4659 31.0403 0.0000 1.2194 0.0000
# 3 41.5172 31.0403 108.1301 0.0000 -1.1357 0.0000
# 4 0.0000 0.0000 0.0000 20.1909 0.0000 -5.0653
# 5 -4.3897 1.2194 -1.1357 0.0000 44.8480 0.0000
# 6 0.0000 0.0000 0.0000 -5.0653 0.0000 35.7965
#
#
#
# Elastic Compliance Matrix: (Units=1/GPa)
#
#
# Indices 1 2 3 4 5 6 
#
# 1 0.009138 -0.002765 -0.002705 0.000000 0.000901 0.000000
# 2 -0.002765 0.018854 -0.004360 0.000000 -0.000894 0.000000
# 3 -0.002705 -0.004360 0.011540 0.000000 0.000146 0.000000
# 4 0.000000 0.000000 0.000000 0.051350 0.000000 0.007266
# 5 0.000901 -0.000894 0.000146 0.000000 0.022414 0.000000
# 6 0.000000 0.000000 0.000000 0.007266 0.000000 0.028964
#
#
# Mechanical properties :
#
#
# Convention : Reuss Voigt Hill
#
# Bulk Modulus (GPa) = 50.32396 56.18481 53.25438
# Shear Modulus (GPa) = 29.66585 33.65161 31.65873
#
# Velocity S-wave (km/s) = 3.74927 3.99320 3.87315
# Velocity P-wave (km/s) = 6.52598 6.91981 6.72578
#
# Compressibility (1/GPa) = 0.01987125
#
# Stress axis : x y z
#
# Youngs Moduli (GPa) = 109.43363 53.03958 86.65469
#
# Poissons Ratio (x) = 0.14664 0.23444
# Poissons Ratio (y) = 0.30256 0.37782
# Poissons Ratio (z) = 0.29607 0.23126
#
# Static dielectric constant tensor:
#      x y z
#    x 4.283100 0.000000 -0.276360 
#    y 0.000000 3.955070 0.000000 
#    z -0.276360 0.000000 4.693230 
# 
# 
# High freq. dielectric constant tensor:
#      x y z
#    x 1.852770 0.000000 -0.002590 
#    y 0.000000 1.826500 0.000000 
#    z -0.002590 0.000000 1.826040 
# 
# From -- ./inp_files/35156.got.cif
#   From: 2010.03.12/outbox.cif.g09.slc.cpg/sg14_18_cif.got.tgz:35156.got - 2010.03.31 13:35:05.
