data_PCOD8127325
_publ_section_title
;
Structure prediction by ZEFSAII (Michael W. Deem and Ramdas Pophale) SiO2 
 PCOD8127325
Probable space group: P 21/C
;
_chemical_formula_sum "Si O2"
_cell_formula_units_Z 28
_cell_length_a 22.070018
_cell_length_b 9.317399
_cell_length_c 20.216871
_cell_angle_alpha 90.000000
_cell_angle_beta 18.485869
_cell_angle_gamma 90.000000
_cell_volume 1318.158134
_symmetry_space_group_name_H-M "P 21/C"
_symmetry_group_IT_number 14
_symmetry_cell_setting 'monoclinic'
loop_
_space_group_symop_operation_xyz
x,y,z
-x,1/2+y,1/2-z
-x,-y,-z
x,1/2-y,1/2+z
loop_
_atom_site_type_symbol
_atom_site_label
_atom_site_fract_x
_atom_site_fract_y
_atom_site_fract_z
Si Si1 0.717040 0.051869 0.277295
Si Si2 0.017540 0.527597 0.904891
Si Si3 0.008993 0.150228 0.072718
Si Si4 0.831877 0.256894 0.041045
Si Si5 0.713186 0.451975 0.484224
Si Si6 0.032684 0.473055 0.260646
Si Si7 0.617130 0.342550 0.139710
O O1 0.791666 0.118014 0.270361
O O2 0.748781 0.171098 0.188728
O O3 0.500000 0.000000 0.500000
O O4 0.843795 0.911313 0.133301
O O5 0.939191 0.684993 0.972910
O O6 0.230432 0.518970 0.651305
O O7 0.000000 0.500000 0.000000
O O8 0.880464 0.416395 0.011229
O O9 0.051671 0.089168 0.101039
O O10 0.666297 0.267530 0.158193
O O11 0.019205 0.179027 0.814321
O O12 0.586202 0.580985 0.644189
O O13 0.620045 0.291215 0.584823
O O14 0.909563 0.459894 0.321983
O O15 0.243859 0.525373 0.023722
#
# Coordination Sequence:
#
# PCOD8127325 Si02
#       7
#     4   4   4   4   4   4   4
#     4  10  22  44  67  96 131 175 227 266 325 405
#     4  12  23  43  65  96 140 176 218 270 338 398
#     4  10  22  41  68  96 127 178 218 270 331 400
#     4  10  23  42  66  96 132 177 219 277 340 391
#     4  11  26  42  68 100 133 176 223 279 337 396
#     4  10  22  44  68  93 129 173 224 278 334 396
#     4  11  24  43  67 100 130 172 227 279 340 391
#
# _framework density 21.241759999999999
#
# number of rings (size 3 to 8) (size 9 to 14) (size 15 to 20)
#    0.000    1.429    4.286    0.000    2.000    5.714 
#    2.571    1.429    0.000    0.000    0.000    0.000 
#    0.000    0.000    0.000    0.000    0.000    0.000 
#
# Total GULP energy -346978.496963 kJ/mol
# GULP energy per Si atom -12392.089177 kJ/mol
# Density = 2.119341 g / cm^3
# Si number density = 21.241760 Si / 1000 Ang^3
#
#
#
# Elastic Constant Matrix: (Units=GPa)
#
#
# Indices 1 2 3 4 5 6 
#
# 1 61.8810 32.8389 30.8992 0.0000 18.7977 0.0000
# 2 32.8389 135.7569 43.6115 0.0000 2.5727 0.0000
# 3 30.8992 43.6115 109.2338 0.0000 9.8507 0.0000
# 4 0.0000 0.0000 0.0000 31.0452 0.0000 -0.5583
# 5 18.7977 2.5727 9.8507 0.0000 30.2679 0.0000
# 6 0.0000 0.0000 0.0000 -0.5583 0.0000 28.2924
#
#
#
# Elastic Compliance Matrix: (Units=1/GPa)
#
#
# Indices 1 2 3 4 5 6 
#
# 1 0.024631 -0.004424 -0.003972 0.000000 -0.013628 0.000000
# 2 -0.004424 0.009249 -0.002697 0.000000 0.002839 0.000000
# 3 -0.003972 -0.002697 0.011448 0.000000 -0.001030 0.000000
# 4 0.000000 0.000000 0.000000 0.032223 0.000000 0.000636
# 5 -0.013628 0.002839 -0.001030 0.000000 0.041596 0.000000
# 6 0.000000 0.000000 0.000000 0.000636 0.000000 0.035358
#
#
# Mechanical properties :
#
#
# Convention : Reuss Voigt Hill
#
# Bulk Modulus (GPa) = 43.21279 57.95232 50.58255
# Shear Modulus (GPa) = 27.11436 31.22257 29.16846
#
# Velocity S-wave (km/s) = 3.57664 3.83804 3.70965
# Velocity P-wave (km/s) = 6.11915 6.85436 6.49716
#
# Compressibility (1/GPa) = 0.02314130
#
# Stress axis : x y z
#
# Youngs Moduli (GPa) = 40.59935 108.12119 87.35120
#
# Poissons Ratio (x) = 0.47830 0.34698
# Poissons Ratio (y) = 0.17960 0.23561
# Poissons Ratio (z) = 0.16127 0.29163
#
# Static dielectric constant tensor:
#      x y z
#    x 4.000900 0.000000 0.369520 
#    y 0.000000 3.997670 0.000000 
#    z 0.369520 0.000000 3.744110 
# 
# 
# High freq. dielectric constant tensor:
#      x y z
#    x 1.829430 0.000000 0.026620 
#    y 0.000000 1.853340 0.000000 
#    z 0.026620 0.000000 1.811620 
# 
# From -- ./inp_files/70186.got.cif
#   From: 2010.03.12/outbox.cif.g09.slc.cpg/sg14_36_cif.got.tgz:70186.got - 2010.03.31 13:35:05.
