data_PCOD8127304
_publ_section_title
;
Structure prediction by ZEFSAII (Michael W. Deem and Ramdas Pophale) SiO2 
 PCOD8127304
Probable space group: P 21/C
;
_chemical_formula_sum "Si O2"
_cell_formula_units_Z 28
_cell_length_a 9.951213
_cell_length_b 14.912489
_cell_length_c 7.892802
_cell_angle_alpha 90.000000
_cell_angle_beta 113.467137
_cell_angle_gamma 90.000000
_cell_volume 1074.393515
_symmetry_space_group_name_H-M "P 21/C"
_symmetry_group_IT_number 14
_symmetry_cell_setting 'monoclinic'
loop_
_space_group_symop_operation_xyz
x,y,z
-x,1/2+y,1/2-z
-x,-y,-z
x,1/2-y,1/2+z
loop_
_atom_site_type_symbol
_atom_site_label
_atom_site_fract_x
_atom_site_fract_y
_atom_site_fract_z
Si Si1 0.295531 0.909893 0.365105
Si Si2 0.762830 0.705491 0.634714
Si Si3 0.820618 0.371145 0.663521
Si Si4 0.073345 0.792417 0.441348
Si Si5 0.244060 0.463016 0.555867
Si Si6 0.556807 0.805399 0.315427
Si Si7 0.454953 0.608258 0.276983
O O1 0.157056 0.846377 0.335526
O O2 0.417691 0.863287 0.305421
O O3 0.367332 0.939599 0.578920
O O4 0.230824 0.998902 0.240806
O O5 0.812757 0.638126 0.506148
O O6 0.686319 0.795308 0.522613
O O7 0.638805 0.654968 0.689244
O O8 0.904909 0.727059 0.815790
O O9 0.848380 0.305350 0.517678
O O10 0.849482 0.472809 0.617315
O O11 0.648961 0.367629 0.618162
O O12 0.919148 0.341655 0.873553
O O13 0.418181 0.459540 0.603073
O O14 0.511381 0.704356 0.239119
#
# Coordination Sequence:
#
# PCOD8127304 Si02
#       7
#     4   4   4   4   4   4   4
#     4  11  23  41  70  99 133 178 229 273 329 409
#     4  11  26  45  67 100 138 178 220 285 340 396
#     4  11  23  40  69  99 131 179 225 276 329 406
#     4  11  24  45  69  96 134 183 233 266 334 412
#     4  11  26  40  67 104 143 169 221 289 346 379
#     4  11  22  41  68  98 130 176 228 273 331 398
#     4  10  22  41  66 104 132 173 222 286 327 391
#
# _framework density 26.061212999999999
#
# number of rings (size 3 to 8) (size 9 to 14) (size 15 to 20)
#    0.000    1.143    2.857    2.571    8.000    1.143 
#    0.000    1.429    0.000    0.000    0.000    0.000 
#    0.000    0.000    0.000    0.000    0.000    0.000 
#
# Total GULP energy -346914.804869 kJ/mol
# GULP energy per Si atom -12389.814460 kJ/mol
# Density = 2.600190 g / cm^3
# Si number density = 26.061213 Si / 1000 Ang^3
#
#
#
# Elastic Constant Matrix: (Units=GPa)
#
#
# Indices 1 2 3 4 5 6 
#
# 1 60.1159 -10.5449 3.1766 0.0000 1.1310 0.0000
# 2 -10.5449 48.8328 7.6668 0.0000 -5.5902 0.0000
# 3 3.1766 7.6668 84.8378 0.0000 2.9495 0.0000
# 4 0.0000 0.0000 0.0000 24.6313 0.0000 -9.4974
# 5 1.1310 -5.5902 2.9495 0.0000 28.3453 0.0000
# 6 0.0000 0.0000 0.0000 -9.4974 0.0000 15.1173
#
#
#
# Elastic Compliance Matrix: (Units=1/GPa)
#
#
# Indices 1 2 3 4 5 6 
#
# 1 0.017374 0.003932 -0.001012 0.000000 0.000188 0.000000
# 2 0.003932 0.022200 -0.002309 0.000000 0.004462 0.000000
# 3 -0.001012 -0.002309 0.012092 0.000000 -0.001673 0.000000
# 4 0.000000 0.000000 0.000000 0.053577 0.000000 0.033660
# 5 0.000188 0.004462 -0.001673 0.000000 0.036326 0.000000
# 6 0.000000 0.000000 0.000000 0.033660 0.000000 0.087296
#
#
# Mechanical properties :
#
#
# Convention : Reuss Voigt Hill
#
# Bulk Modulus (GPa) = 18.90755 21.59815 20.25285
# Shear Modulus (GPa) = 20.38546 26.51797 23.45172
#
# Velocity S-wave (km/s) = 2.79984 3.19333 3.00304
# Velocity P-wave (km/s) = 4.20987 4.67995 4.45112
#
# Compressibility (1/GPa) = 0.05288893
#
# Stress axis : x y z
#
# Youngs Moduli (GPa) = 57.55642 45.04429 82.69996
#
# Poissons Ratio (x) = -0.17712 0.08373
# Poissons Ratio (y) = -0.22632 0.19092
# Poissons Ratio (z) = 0.05827 0.10399
#
# Static dielectric constant tensor:
#      x y z
#    x 4.643130 0.000000 -0.066910 
#    y 0.000000 4.470810 0.000000 
#    z -0.066910 0.000000 4.784630 
# 
# 
# High freq. dielectric constant tensor:
#      x y z
#    x 2.037570 0.000000 -0.001360 
#    y 0.000000 2.017590 0.000000 
#    z -0.001360 0.000000 2.055450 
# 
# From -- ./inp_files/13406.got.cif
#   From: 2010.03.12/outbox.cif.g09.slc.cpg/sg14_7_cif.got.tgz:13406.got - 2010.03.31 13:35:05.
