data_PCOD8127494
_publ_section_title
;
Structure prediction by ZEFSAII (Michael W. Deem and Ramdas Pophale) SiO2 
 PCOD8127494
Probable space group: P 21/C
;
_chemical_formula_sum "Si O2"
_cell_formula_units_Z 32
_cell_length_a 17.269880
_cell_length_b 15.210089
_cell_length_c 11.855026
_cell_angle_alpha 90.000000
_cell_angle_beta 151.358200
_cell_angle_gamma 90.000000
_cell_volume 1492.657769
_symmetry_space_group_name_H-M "P 21/C"
_symmetry_group_IT_number 14
_symmetry_cell_setting 'monoclinic'
loop_
_space_group_symop_operation_xyz
x,y,z
-x,1/2+y,1/2-z
-x,-y,-z
x,1/2-y,1/2+z
loop_
_atom_site_type_symbol
_atom_site_label
_atom_site_fract_x
_atom_site_fract_y
_atom_site_fract_z
Si Si1 0.940511 0.329713 0.616001
Si Si2 0.188319 0.949732 0.865644
Si Si3 0.714901 0.117615 0.638925
Si Si4 0.529332 0.789219 0.513099
Si Si5 0.718676 0.858675 0.371307
Si Si6 0.554028 0.938808 0.367129
Si Si7 0.146461 0.524125 0.059449
Si Si8 0.748841 0.321867 0.942282
O O1 0.858871 0.361733 0.628548
O O2 0.867240 0.384442 0.418027
O O3 0.891876 0.227384 0.556693
O O4 0.131413 0.339800 0.853801
O O5 0.184305 0.931442 0.727353
O O6 0.369238 0.975364 0.136931
O O7 0.048196 0.022158 0.713167
O O8 0.563497 0.162562 0.505280
O O9 0.765521 0.177980 0.598236
O O10 0.672557 0.019168 0.546054
O O11 0.672239 0.732350 0.751387
O O12 0.592413 0.863101 0.507574
O O13 0.422083 0.719706 0.307863
O O14 0.580347 0.899276 0.275090
O O15 0.776062 0.926526 0.347560
O O16 0.239435 0.577764 0.082521
#
# Coordination Sequence:
#
# PCOD8127494 Si02
#       8
#     4   4   4   4   4   4   4   4
#     4  10  25  44  64  96 140 177 222 282 334 412
#     4  10  22  43  66  95 136 175 222 277 341 389
#     4  11  24  43  69  98 135 180 226 275 350 401
#     4  11  25  41  66 101 136 178 223 282 346 397
#     4  11  25  46  64 104 134 170 236 278 332 406
#     4  12  23  44  70 100 137 178 224 291 335 410
#     4  10  23  43  69  99 132 181 226 279 327 408
#     4  11  22  42  68  99 130 185 220 274 346 394
#
# _framework density 21.438269999999999
#
# number of rings (size 3 to 8) (size 9 to 14) (size 15 to 20)
#    0.000    1.250    3.750    1.875    5.250    3.500 
#    6.750    0.000    0.000    0.000    0.000    0.000 
#    0.000    0.000    0.000    0.000    0.000    0.000 
#
# Total GULP energy -396759.541837 kJ/mol
# GULP energy per Si atom -12398.735682 kJ/mol
# Density = 2.138948 g / cm^3
# Si number density = 21.438270 Si / 1000 Ang^3
#
#
#
# Elastic Constant Matrix: (Units=GPa)
#
#
# Indices 1 2 3 4 5 6 
#
# 1 93.5047 25.0705 28.3524 0.0000 -17.7031 0.0000
# 2 25.0705 87.2224 52.3247 0.0000 -7.8207 0.0000
# 3 28.3524 52.3247 117.6761 0.0000 -5.8328 0.0000
# 4 0.0000 0.0000 0.0000 31.3462 0.0000 -10.0032
# 5 -17.7031 -7.8207 -5.8328 0.0000 31.3280 0.0000
# 6 0.0000 0.0000 0.0000 -10.0032 0.0000 30.2763
#
#
#
# Elastic Compliance Matrix: (Units=1/GPa)
#
#
# Indices 1 2 3 4 5 6 
#
# 1 0.013052 -0.002011 -0.001928 0.000000 0.006514 0.000000
# 2 -0.002011 0.016164 -0.006620 0.000000 0.001666 0.000000
# 3 -0.001928 -0.006620 0.011880 0.000000 -0.000530 0.000000
# 4 0.000000 0.000000 0.000000 0.035662 0.000000 0.011783
# 5 0.006514 0.001666 -0.000530 0.000000 0.035919 0.000000
# 6 0.000000 0.000000 0.000000 0.011783 0.000000 0.036922
#
#
# Mechanical properties :
#
#
# Convention : Reuss Voigt Hill
#
# Bulk Modulus (GPa) = 50.05560 56.65539 53.35549
# Shear Modulus (GPa) = 28.18895 31.43380 29.81138
#
# Velocity S-wave (km/s) = 3.63007 3.83331 3.73308
# Velocity P-wave (km/s) = 6.40073 6.78800 6.59721
#
# Compressibility (1/GPa) = 0.01997779
#
# Stress axis : x y z
#
# Youngs Moduli (GPa) = 76.61854 61.86676 84.17749
#
# Poissons Ratio (x) = 0.12442 0.16225
# Poissons Ratio (y) = 0.15408 0.55726
# Poissons Ratio (z) = 0.14768 0.40956
#
# Static dielectric constant tensor:
#      x y z
#    x 3.800850 0.000000 -0.019110 
#    y 0.000000 3.815370 0.000000 
#    z -0.019110 0.000000 3.883210 
# 
# 
# High freq. dielectric constant tensor:
#      x y z
#    x 1.847210 0.000000 -0.004140 
#    y 0.000000 1.838160 0.000000 
#    z -0.004140 0.000000 1.837550 
# 
# From -- ./inp_files/34177.got.cif
#   From: 2010.03.12/outbox.cif.g09.slc.cpg/sg14_18_cif.got.tgz:34177.got - 2010.03.31 13:35:05.
