data_PCOD8127296
_publ_section_title
;
Structure prediction by ZEFSAII (Michael W. Deem and Ramdas Pophale) SiO2 
 PCOD8127296
Probable space group: P 21/C
;
_chemical_formula_sum "Si O2"
_cell_formula_units_Z 32
_cell_length_a 12.336994
_cell_length_b 14.855614
_cell_length_c 17.616723
_cell_angle_alpha 90.000000
_cell_angle_beta 151.887342
_cell_angle_gamma 90.000000
_cell_volume 1521.376105
_symmetry_space_group_name_H-M "P 21/C"
_symmetry_group_IT_number 14
_symmetry_cell_setting 'monoclinic'
loop_
_space_group_symop_operation_xyz
x,y,z
-x,1/2+y,1/2-z
-x,-y,-z
x,1/2-y,1/2+z
loop_
_atom_site_type_symbol
_atom_site_label
_atom_site_fract_x
_atom_site_fract_y
_atom_site_fract_z
Si Si1 0.438711 0.623415 0.733632
Si Si2 0.053521 0.920026 0.379887
Si Si3 0.878999 0.297812 0.219261
Si Si4 0.548458 0.922992 0.723741
Si Si5 0.376411 0.343476 0.877192
Si Si6 0.760405 0.819768 0.307617
Si Si7 0.990423 0.813623 0.035296
Si Si8 0.167648 0.378775 0.904759
O O1 0.426252 0.516674 0.718999
O O2 0.517385 0.659056 0.698881
O O3 0.180533 0.654351 0.592032
O O4 0.621768 0.652694 0.911343
O O5 0.007488 0.859754 0.276185
O O6 0.284893 0.887566 0.567298
O O7 0.846156 0.905183 0.311788
O O8 0.063612 0.025784 0.366550
O O9 0.925631 0.340698 0.329985
O O10 0.972508 0.196607 0.280480
O O11 0.607872 0.292171 0.042696
O O12 0.584592 0.929216 0.654381
O O13 0.734989 0.856106 0.872846
O O14 0.235441 0.266617 0.745644
O O15 0.253494 0.388088 0.872105
O O16 0.943935 0.792430 0.488090
#
# Coordination Sequence:
#
# PCOD8127296 Si02
#       8
#     4   4   4   4   4   4   4   4
#     4  11  23  40  64  98 130 166 214 268 320 381
#     4  10  24  42  68  93 131 170 213 264 326 383
#     4  11  22  42  65  93 129 166 217 269 313 378
#     4   9  23  40  64  95 124 166 215 269 317 373
#     4  10  22  41  65  90 129 172 217 258 320 386
#     4  11  24  42  63  95 132 171 210 261 328 390
#     4  11  23  39  67  93 125 168 216 264 318 377
#     4  11  22  41  66  97 126 172 213 265 327 378
#
# _framework density 21.033588000000002
#
# number of rings (size 3 to 8) (size 9 to 14) (size 15 to 20)
#    0.000    1.500    3.750    0.375    7.000    3.500 
#    2.250    0.625    0.000    0.000    0.000    0.000 
#    0.000    0.000    0.000    0.000    0.000    0.000 
#
# Total GULP energy -396506.556438 kJ/mol
# GULP energy per Si atom -12390.829889 kJ/mol
# Density = 2.098571 g / cm^3
# Si number density = 21.033588 Si / 1000 Ang^3
#
#
#
# Elastic Constant Matrix: (Units=GPa)
#
#
# Indices 1 2 3 4 5 6 
#
# 1 112.8027 29.4529 18.6404 0.0000 9.5237 0.0000
# 2 29.4529 88.5630 22.3455 0.0000 1.9060 0.0000
# 3 18.6404 22.3455 67.8318 0.0000 1.3972 0.0000
# 4 0.0000 0.0000 0.0000 27.1324 0.0000 1.5991
# 5 9.5237 1.9060 1.3972 0.0000 24.3314 0.0000
# 6 0.0000 0.0000 0.0000 1.5991 0.0000 36.0262
#
#
#
# Elastic Compliance Matrix: (Units=1/GPa)
#
#
# Indices 1 2 3 4 5 6 
#
# 1 0.010220 -0.002869 -0.001788 0.000000 -0.003673 0.000000
# 2 -0.002869 0.013133 -0.003544 0.000000 0.000298 0.000000
# 3 -0.001788 -0.003544 0.016400 0.000000 0.000036 0.000000
# 4 0.000000 0.000000 0.000000 0.036953 0.000000 -0.001640
# 5 -0.003673 0.000298 0.000036 0.000000 0.042511 0.000000
# 6 0.000000 0.000000 0.000000 -0.001640 0.000000 0.027830
#
#
# Mechanical properties :
#
#
# Convention : Reuss Voigt Hill
#
# Bulk Modulus (GPa) = 42.82263 45.56388 44.19326
# Shear Modulus (GPa) = 29.19997 30.74857 29.97427
#
# Velocity S-wave (km/s) = 3.72997 3.82760 3.77910
# Velocity P-wave (km/s) = 6.24128 6.42211 6.33234
#
# Compressibility (1/GPa) = 0.02335214
#
# Stress axis : x y z
#
# Youngs Moduli (GPa) = 97.85199 76.14273 60.97389
#
# Poissons Ratio (x) = 0.21842 0.10901
# Poissons Ratio (y) = 0.28069 0.21611
# Poissons Ratio (z) = 0.17493 0.26987
#
# Static dielectric constant tensor:
#      x y z
#    x 4.016370 0.000000 -0.129650 
#    y 0.000000 3.628550 0.000000 
#    z -0.129650 0.000000 3.897130 
# 
# 
# High freq. dielectric constant tensor:
#      x y z
#    x 1.832340 0.000000 -0.002820 
#    y 0.000000 1.812730 0.000000 
#    z -0.002820 0.000000 1.819980 
# 
# From -- ./inp_files/57960.got.cif
#   From: 2010.03.12/outbox.cif.g09.slc.cpg/sg14_29_cif.got.tgz:57960.got - 2010.03.31 13:35:05.
