data_PCOD8127023
_publ_section_title
;
Structure prediction by ZEFSAII (Michael W. Deem and Ramdas Pophale) SiO2 
 PCOD8127023
Probable space group: P 21/C
;
_chemical_formula_sum "Si O2"
_cell_formula_units_Z 28
_cell_length_a 7.181699
_cell_length_b 7.756836
_cell_length_c 29.684352
_cell_angle_alpha 90.000000
_cell_angle_beta 123.233638
_cell_angle_gamma 90.000000
_cell_volume 1383.170047
_symmetry_space_group_name_H-M "P 21/C"
_symmetry_group_IT_number 14
_symmetry_cell_setting 'monoclinic'
loop_
_space_group_symop_operation_xyz
x,y,z
-x,1/2+y,1/2-z
-x,-y,-z
x,1/2-y,1/2+z
loop_
_atom_site_type_symbol
_atom_site_label
_atom_site_fract_x
_atom_site_fract_y
_atom_site_fract_z
Si Si1 0.463382 0.104745 0.949054
Si Si2 0.328889 0.481892 0.611161
Si Si3 0.960492 0.182201 0.867969
Si Si4 0.180798 0.122517 0.576803
Si Si5 0.312220 0.391031 0.703691
Si Si6 0.305388 0.556059 0.006436
Si Si7 0.296778 0.008783 0.684668
O O1 0.651060 0.250419 0.971648
O O2 0.218366 0.186022 0.915198
O O3 0.498196 0.000316 0.906994
O O4 0.500000 0.000000 0.000000
O O5 0.182224 0.652804 0.604271
O O6 0.157809 0.329029 0.575570
O O7 0.448112 0.419439 0.674083
O O8 0.893020 0.361611 0.834510
O O9 0.901625 0.020611 0.826613
O O10 0.933622 0.044029 0.549385
O O11 0.305602 0.074498 0.547792
O O12 0.330684 0.043944 0.636349
O O13 0.470214 0.438160 0.766007
O O14 0.230462 0.192191 0.699021
O O15 0.500000 0.500000 0.000000
#
# Coordination Sequence:
#
# PCOD8127023 Si02
#       7
#     4   4   4   4   4   4   4
#     4  12  24  38  63  88 126 165 207 255 305 371
#     4   9  21  40  59  86 125 155 207 250 306 360
#     4  10  22  39  63  90 124 161 201 252 310 359
#     4  10  22  38  62  88 124 165 203 256 307 363
#     4   9  20  37  67  90 121 161 203 256 307 369
#     4  11  23  38  57  91 125 162 209 253 307 363
#     4  11  18  38  69  91 119 164 204 250 315 366
#
# _framework density 20.243354
#
# number of rings (size 3 to 8) (size 9 to 14) (size 15 to 20)
#    0.857    0.857    1.429    3.429    0.000    4.571 
#    2.571    0.000   12.571    0.000    0.000    0.000 
#    0.000    0.000    0.000    0.000    0.000    0.000 
#
# Total GULP energy -346878.323777 kJ/mol
# GULP energy per Si atom -12388.511563 kJ/mol
# Density = 2.019728 g / cm^3
# Si number density = 20.243354 Si / 1000 Ang^3
#
#
#
# Elastic Constant Matrix: (Units=GPa)
#
#
# Indices 1 2 3 4 5 6 
#
# 1 92.2329 17.0435 42.1615 0.0000 -2.1879 0.0000
# 2 17.0435 121.8348 35.1392 0.0000 -0.2499 0.0000
# 3 42.1615 35.1392 122.4106 0.0000 2.4481 0.0000
# 4 0.0000 0.0000 0.0000 34.2158 0.0000 2.8071
# 5 -2.1879 -0.2499 2.4481 0.0000 17.8137 0.0000
# 6 0.0000 0.0000 0.0000 2.8071 0.0000 26.8231
#
#
#
# Elastic Compliance Matrix: (Units=1/GPa)
#
#
# Indices 1 2 3 4 5 6 
#
# 1 0.012989 -0.000556 -0.004358 0.000000 0.002186 0.000000
# 2 -0.000556 0.008977 -0.002393 0.000000 0.000387 0.000000
# 3 -0.004358 -0.002393 0.010397 0.000000 -0.001998 0.000000
# 4 0.000000 0.000000 0.000000 0.029479 0.000000 -0.003085
# 5 0.002186 0.000387 -0.001998 0.000000 0.056685 0.000000
# 6 0.000000 0.000000 0.000000 -0.003085 0.000000 0.037604
#
#
# Mechanical properties :
#
#
# Convention : Reuss Voigt Hill
#
# Bulk Modulus (GPa) = 56.34097 58.35183 57.34640
# Shear Modulus (GPa) = 28.30285 31.91281 30.10783
#
# Velocity S-wave (km/s) = 3.74321 3.97477 3.86073
# Velocity P-wave (km/s) = 6.82455 7.06773 6.94720
#
# Compressibility (1/GPa) = 0.01774907
#
# Stress axis : x y z
#
# Youngs Moduli (GPa) = 76.98979 111.40091 96.18031
#
# Poissons Ratio (x) = 0.06190 0.41914
# Poissons Ratio (y) = 0.04278 0.23018
# Poissons Ratio (z) = 0.33551 0.26660
#
# Static dielectric constant tensor:
#      x y z
#    x 3.163310 0.000000 -0.084270 
#    y 0.000000 4.079980 0.000000 
#    z -0.084270 0.000000 3.755420 
# 
# 
# High freq. dielectric constant tensor:
#      x y z
#    x 1.740570 0.000000 -0.004320 
#    y 0.000000 1.813190 0.000000 
#    z -0.004320 0.000000 1.797590 
# 
# From -- ./inp_files/78862.got.cif
#   From: 2010.03.12/outbox.cif.g09.slc.cpg/sg14_40_cif.got.tgz:78862.got - 2010.03.31 13:35:05.
