data_PCOD8127788
_publ_section_title
;
Structure prediction by ZEFSAII (Michael W. Deem and Ramdas Pophale) SiO2 
 PCOD8127788
Probable space group: P 21/C
;
_chemical_formula_sum "Si O2"
_cell_formula_units_Z 32
_cell_length_a 10.885186
_cell_length_b 18.488790
_cell_length_c 14.257490
_cell_angle_alpha 90.000000
_cell_angle_beta 149.651031
_cell_angle_gamma 90.000000
_cell_volume 1449.796152
_symmetry_space_group_name_H-M "P 21/C"
_symmetry_group_IT_number 14
_symmetry_cell_setting 'monoclinic'
loop_
_space_group_symop_operation_xyz
x,y,z
-x,1/2+y,1/2-z
-x,-y,-z
x,1/2-y,1/2+z
loop_
_atom_site_type_symbol
_atom_site_label
_atom_site_fract_x
_atom_site_fract_y
_atom_site_fract_z
Si Si1 0.837020 0.798667 0.199196
Si Si2 0.384744 0.621854 0.331778
Si Si3 0.581285 0.480328 0.389846
Si Si4 0.665317 0.317284 0.896783
Si Si5 0.135527 0.023379 0.291974
Si Si6 0.608189 0.821406 0.240476
Si Si7 0.548811 0.952373 0.670773
Si Si8 0.077173 0.340544 0.870058
O O1 0.728079 0.781520 0.230201
O O2 0.875476 0.728543 0.161769
O O3 0.098481 0.835146 0.385392
O O4 0.660239 0.852661 0.028512
O O5 0.396797 0.535132 0.322135
O O6 0.273404 0.663635 0.169792
O O7 0.210478 0.642307 0.304207
O O8 0.504973 0.398564 0.364230
O O9 0.561678 0.491832 0.265551
O O10 0.852466 0.496613 0.605376
O O11 0.600345 0.232550 0.860027
O O12 0.449193 0.369962 0.789649
O O13 0.214319 0.035990 0.236374
O O14 0.196479 0.094147 0.392459
O O15 0.300887 0.961419 0.447405
O O16 0.804012 0.833029 0.450260
#
# Coordination Sequence:
#
# PCOD8127788 Si02
#       8
#     4   4   4   4   4   4   4   4
#     4  12  24  44  69  94 135 178 224 280 345 402
#     4  11  25  44  70 100 134 177 231 277 342 407
#     4  11  24  44  70 100 137 179 230 281 339 404
#     4  11  23  43  66  97 132 175 227 281 341 403
#     4  11  22  42  67  98 139 177 225 278 341 401
#     4  12  25  45  70 100 137 182 229 283 344 404
#     4  10  23  41  67 100 133 179 226 279 336 410
#     4  12  25  45  68 103 137 181 229 283 340 411
#
# _framework density 22.072068000000002
#
# number of rings (size 3 to 8) (size 9 to 14) (size 15 to 20)
#    0.000    0.750    3.750    4.125    0.000    3.500 
#    0.000    1.250    0.000    0.000    0.000    0.000 
#    0.000    0.000    0.000    0.000    0.000    0.000 
#
# Total GULP energy -396847.450376 kJ/mol
# GULP energy per Si atom -12401.482824 kJ/mol
# Density = 2.202183 g / cm^3
# Si number density = 22.072068 Si / 1000 Ang^3
#
#
#
# Elastic Constant Matrix: (Units=GPa)
#
#
# Indices 1 2 3 4 5 6 
#
# 1 108.4670 51.8745 13.6451 0.0000 -4.9155 0.0000
# 2 51.8745 120.2723 19.9489 0.0000 2.6820 0.0000
# 3 13.6451 19.9489 102.2410 0.0000 0.9989 0.0000
# 4 0.0000 0.0000 0.0000 18.5611 0.0000 6.3904
# 5 -4.9155 2.6820 0.9989 0.0000 32.2431 0.0000
# 6 0.0000 0.0000 0.0000 6.3904 0.0000 24.3266
#
#
#
# Elastic Compliance Matrix: (Units=1/GPa)
#
#
# Indices 1 2 3 4 5 6 
#
# 1 0.011809 -0.005041 -0.000614 0.000000 0.002239 0.000000
# 2 -0.005041 0.010759 -0.001411 0.000000 -0.001620 0.000000
# 3 -0.000614 -0.001411 0.010141 0.000000 -0.000290 0.000000
# 4 0.000000 0.000000 0.000000 0.059233 0.000000 -0.015560
# 5 0.002239 -0.001620 -0.000290 0.000000 0.031499 0.000000
# 6 0.000000 0.000000 0.000000 -0.015560 0.000000 0.045195
#
#
# Mechanical properties :
#
#
# Convention : Reuss Voigt Hill
#
# Bulk Modulus (GPa) = 53.83167 55.76859 54.80013
# Shear Modulus (GPa) = 26.46046 31.39363 28.92704
#
# Velocity S-wave (km/s) = 3.46616 3.77546 3.62411
# Velocity P-wave (km/s) = 6.36089 6.65785 6.51106
#
# Compressibility (1/GPa) = 0.01857643
#
# Stress axis : x y z
#
# Youngs Moduli (GPa) = 84.67975 92.94564 98.61099
#
# Poissons Ratio (x) = 0.46858 0.06057
# Poissons Ratio (y) = 0.42691 0.13910
# Poissons Ratio (z) = 0.05202 0.13111
#
# Static dielectric constant tensor:
#      x y z
#    x 3.966860 0.000000 -0.151090 
#    y 0.000000 3.822880 0.000000 
#    z -0.151090 0.000000 4.024990 
# 
# 
# High freq. dielectric constant tensor:
#      x y z
#    x 1.872760 0.000000 -0.013470 
#    y 0.000000 1.864640 0.000000 
#    z -0.013470 0.000000 1.880910 
# 
# From -- ./inp_files/45465.got.cif
#   From: 2010.03.12/outbox.cif.g09.slc.cpg/sg14_23_cif.got.tgz:45465.got - 2010.03.31 13:35:05.
