data_PCOD8127414
_publ_section_title
;
Structure prediction by ZEFSAII (Michael W. Deem and Ramdas Pophale) SiO2 
 PCOD8127414
Probable space group: P 21/C
;
_chemical_formula_sum "Si O2"
_cell_formula_units_Z 28
_cell_length_a 7.767916
_cell_length_b 12.128065
_cell_length_c 25.482956
_cell_angle_alpha 90.000000
_cell_angle_beta 146.759626
_cell_angle_gamma 90.000000
_cell_volume 1315.974322
_symmetry_space_group_name_H-M "P 21/C"
_symmetry_group_IT_number 14
_symmetry_cell_setting 'monoclinic'
loop_
_space_group_symop_operation_xyz
x,y,z
-x,1/2+y,1/2-z
-x,-y,-z
x,1/2-y,1/2+z
loop_
_atom_site_type_symbol
_atom_site_label
_atom_site_fract_x
_atom_site_fract_y
_atom_site_fract_z
Si Si1 0.161792 0.327987 0.029561
Si Si2 0.723259 0.602570 0.563107
Si Si3 0.122423 0.604575 0.562331
Si Si4 0.716934 0.489574 0.860227
Si Si5 0.285611 0.756452 0.894026
Si Si6 0.032048 0.476233 0.726719
Si Si7 0.805584 0.927612 0.270188
O O1 0.178928 0.394242 0.088199
O O2 0.512894 0.309870 0.097591
O O3 0.994051 0.212055 0.998705
O O4 0.967811 0.395341 0.936679
O O5 0.500000 0.500000 0.500000
O O6 0.507728 0.712676 0.501122
O O7 0.991889 0.603891 0.587735
O O8 0.899155 0.587322 0.663638
O O9 0.497555 0.607637 0.659613
O O10 0.000000 0.500000 0.500000
O O11 0.384287 0.451257 0.798375
O O12 0.706695 0.500415 0.794984
O O13 0.174399 0.869614 0.839090
O O14 0.996426 0.680355 0.837927
O O15 0.017809 0.498076 0.785393
#
# Coordination Sequence:
#
# PCOD8127414 Si02
#       7
#     4   4   4   4   4   4   4
#     4  10  23  46  65  95 143 177 222 283 341 403
#     4   9  19  38  64  89 133 168 208 284 332 381
#     4  11  22  41  67 105 129 175 233 275 335 402
#     4  11  24  45  69  95 140 181 222 279 340 410
#     4  10  22  42  66  98 130 179 225 273 343 397
#     4  11  22  45  64  98 137 168 226 286 327 403
#     4  12  24  41  69 101 129 179 232 267 343 408
#
# _framework density 21.277011000000002
#
# number of rings (size 3 to 8) (size 9 to 14) (size 15 to 20)
#    0.000    1.429    2.857    3.429    0.000    4.000 
#   12.857    0.000    0.000    0.000    0.000    0.000 
#    0.000    0.000    0.000    0.000    0.000    0.000 
#
# Total GULP energy -347209.908943 kJ/mol
# GULP energy per Si atom -12400.353891 kJ/mol
# Density = 2.122858 g / cm^3
# Si number density = 21.277011 Si / 1000 Ang^3
#
#
#
# Elastic Constant Matrix: (Units=GPa)
#
#
# Indices 1 2 3 4 5 6 
#
# 1 116.5560 34.0202 41.1755 0.0000 8.3794 0.0000
# 2 34.0202 107.5540 38.0156 0.0000 8.7725 0.0000
# 3 41.1755 38.0156 96.1748 0.0000 15.3923 0.0000
# 4 0.0000 0.0000 0.0000 35.9985 0.0000 9.1241
# 5 8.3794 8.7725 15.3923 0.0000 32.6525 0.0000
# 6 0.0000 0.0000 0.0000 9.1241 0.0000 22.0991
#
#
#
# Elastic Compliance Matrix: (Units=1/GPa)
#
#
# Indices 1 2 3 4 5 6 
#
# 1 0.010474 -0.001996 -0.003625 0.000000 -0.000443 0.000000
# 2 -0.001996 0.011216 -0.003438 0.000000 -0.000880 0.000000
# 3 -0.003625 -0.003438 0.014074 0.000000 -0.004780 0.000000
# 4 0.000000 0.000000 0.000000 0.031026 0.000000 -0.012810
# 5 -0.000443 -0.000880 -0.004780 0.000000 0.033229 0.000000
# 6 0.000000 0.000000 0.000000 -0.012810 0.000000 0.050540
#
#
# Mechanical properties :
#
#
# Convention : Reuss Voigt Hill
#
# Bulk Modulus (GPa) = 56.66667 60.74528 58.70597
# Shear Modulus (GPa) = 28.64381 31.95490 30.29936
#
# Velocity S-wave (km/s) = 3.67309 3.87958 3.77774
# Velocity P-wave (km/s) = 6.68426 6.97710 6.83225
#
# Compressibility (1/GPa) = 0.01764706
#
# Stress axis : x y z
#
# Youngs Moduli (GPa) = 95.47054 89.15865 71.05506
#
# Poissons Ratio (x) = 0.17795 0.25755
# Poissons Ratio (y) = 0.19055 0.24429
# Poissons Ratio (z) = 0.34604 0.30653
#
# Static dielectric constant tensor:
#      x y z
#    x 3.835710 0.000000 0.079640 
#    y 0.000000 3.828390 0.000000 
#    z 0.079640 0.000000 4.089260 
# 
# 
# High freq. dielectric constant tensor:
#      x y z
#    x 1.833000 0.000000 0.016760 
#    y 0.000000 1.828100 0.000000 
#    z 0.016760 0.000000 1.841680 
# 
# From -- ./inp_files/76656.got.cif
#   From: 2010.03.12/outbox.cif.g09.slc.cpg/sg14_39_cif.got.tgz:76656.got - 2010.03.31 13:35:05.
