data_PCOD8127803
_publ_section_title
;
Structure prediction by ZEFSAII (Michael W. Deem and Ramdas Pophale) SiO2 
 PCOD8127803
Probable space group: P 21/C
;
_chemical_formula_sum "Si O2"
_cell_formula_units_Z 16
_cell_length_a 5.261697
_cell_length_b 20.712021
_cell_length_c 9.665161
_cell_angle_alpha 90.000000
_cell_angle_beta 134.554128
_cell_angle_gamma 90.000000
_cell_volume 750.578110
_symmetry_space_group_name_H-M "P 21/C"
_symmetry_group_IT_number 14
_symmetry_cell_setting 'monoclinic'
loop_
_space_group_symop_operation_xyz
x,y,z
-x,1/2+y,1/2-z
-x,-y,-z
x,1/2-y,1/2+z
loop_
_atom_site_type_symbol
_atom_site_label
_atom_site_fract_x
_atom_site_fract_y
_atom_site_fract_z
Si Si1 0.705994 0.857572 0.342040
Si Si2 0.279889 0.542100 0.523308
Si Si3 0.023994 0.156316 0.267611
Si Si4 0.272250 0.710014 0.886310
O O1 0.985695 0.867718 0.575873
O O2 0.366162 0.815925 0.267285
O O3 0.897327 0.820104 0.290209
O O4 0.565918 0.926668 0.236946
O O5 0.500000 0.500000 0.500000
O O6 0.000000 0.500000 0.500000
O O7 0.051558 0.596891 0.360194
O O8 0.416345 0.187140 0.389134
O O9 0.737221 0.212403 0.126816
#
# Coordination Sequence:
#
# PCOD8127803 Si02
#       4
#     4   4   4   4
#     4  10  25  44  66 100 133 170 220 275 330 394
#     4  12  28  45  68  96 137 186 228 262 322 403
#     4  10  26  42  71  98 137 170 221 280 341 391
#     4  10  23  41  72  98 132 164 218 283 349 381
#
# _framework density 21.3169
#
# number of rings (size 3 to 8) (size 9 to 14) (size 15 to 20)
#    1.500    0.000    0.000    3.000   10.500    2.000 
#    0.000    0.000    0.000    0.000    0.000    0.000 
#    0.000    0.000    0.000    0.000    0.000    0.000 
#
# Total GULP energy -198300.484538 kJ/mol
# GULP energy per Si atom -12393.780284 kJ/mol
# Density = 2.126838 g / cm^3
# Si number density = 21.316900 Si / 1000 Ang^3
#
#
#
# Elastic Constant Matrix: (Units=GPa)
#
#
# Indices 1 2 3 4 5 6 
#
# 1 166.3790 76.9783 45.8743 0.0000 -19.3221 0.0000
# 2 76.9783 178.0379 79.4272 0.0000 -1.0389 0.0000
# 3 45.8743 79.4272 109.4583 0.0000 5.4876 0.0000
# 4 0.0000 0.0000 0.0000 57.6639 0.0000 3.1915
# 5 -19.3221 -1.0389 5.4876 0.0000 23.4898 0.0000
# 6 0.0000 0.0000 0.0000 3.1915 0.0000 34.1808
#
#
#
# Elastic Compliance Matrix: (Units=1/GPa)
#
#
# Indices 1 2 3 4 5 6 
#
# 1 0.008752 -0.002862 -0.001969 0.000000 0.007533 0.000000
# 2 -0.002862 0.009317 -0.005529 0.000000 -0.000650 0.000000
# 3 -0.001969 -0.005529 0.014233 0.000000 -0.005189 0.000000
# 4 0.000000 0.000000 0.000000 0.017432 0.000000 -0.001628
# 5 0.007533 -0.000650 -0.005189 0.000000 0.049951 0.000000
# 6 0.000000 0.000000 0.000000 -0.001628 0.000000 0.029408
#
#
# Mechanical properties :
#
#
# Convention : Reuss Voigt Hill
#
# Bulk Modulus (GPa) = 86.33302 95.38165 90.85733
# Shear Modulus (GPa) = 32.53652 39.83995 36.18823
#
# Velocity S-wave (km/s) = 3.91106 4.32781 4.12470
# Velocity P-wave (km/s) = 7.80915 8.35554 8.08696
#
# Compressibility (1/GPa) = 0.01158305
#
# Stress axis : x y z
#
# Youngs Moduli (GPa) = 114.25785 107.33305 70.25866
#
# Poissons Ratio (x) = 0.30716 0.13835
# Poissons Ratio (y) = 0.32698 0.38844
# Poissons Ratio (z) = 0.22498 0.59341
#
# Static dielectric constant tensor:
#      x y z
#    x 3.708710 0.000000 -0.041190 
#    y 0.000000 3.739200 0.000000 
#    z -0.041190 0.000000 3.715030 
# 
# 
# High freq. dielectric constant tensor:
#      x y z
#    x 1.837740 0.000000 -0.001770 
#    y 0.000000 1.833150 0.000000 
#    z -0.001770 0.000000 1.833530 
# 
# From -- ./inp_files/5250.got.cif
#   From: 2010.03.12/outbox.cif.g09.slc.cpg/sg14_3_cif.got.tgz:5250.got - 2010.03.31 13:35:05.
