data_PCOD8127533
_publ_section_title
;
Structure prediction by ZEFSAII (Michael W. Deem and Ramdas Pophale) SiO2 
 PCOD8127533
Probable space group: P 21/C
;
_chemical_formula_sum "Si O2"
_cell_formula_units_Z 24
_cell_length_a 11.031754
_cell_length_b 9.520430
_cell_length_c 10.350503
_cell_angle_alpha 90.000000
_cell_angle_beta 76.166591
_cell_angle_gamma 90.000000
_cell_volume 1055.551906
_symmetry_space_group_name_H-M "P 21/C"
_symmetry_group_IT_number 14
_symmetry_cell_setting 'monoclinic'
loop_
_space_group_symop_operation_xyz
x,y,z
-x,1/2+y,1/2-z
-x,-y,-z
x,1/2-y,1/2+z
loop_
_atom_site_type_symbol
_atom_site_label
_atom_site_fract_x
_atom_site_fract_y
_atom_site_fract_z
Si Si1 0.122324 0.016781 0.833926
Si Si2 0.322539 0.405458 0.491453
Si Si3 0.700841 0.154956 0.563257
Si Si4 0.027454 0.763578 0.993880
Si Si5 0.796164 0.614392 0.952260
Si Si6 0.402175 0.841738 0.132256
O O1 0.229434 0.022694 0.914816
O O2 0.186173 0.022924 0.680199
O O3 0.047007 0.870701 0.868055
O O4 0.026380 0.146630 0.872262
O O5 0.267905 0.262109 0.563437
O O6 0.451646 0.371842 0.386131
O O7 0.337107 0.513330 0.605635
O O8 0.842961 0.196880 0.497996
O O9 0.615450 0.221743 0.472441
O O10 0.653408 0.207100 0.715608
O O11 0.702836 0.983872 0.560877
O O12 0.930053 0.640663 0.984496
#
# Coordination Sequence:
#
# PCOD8127533 Si02
#       6
#     4   4   4   4   4   4
#     4  10  22  43  70  97 139 182 229 289 350 417
#     4  10  25  48  68 102 136 191 231 290 356 414
#     4  12  26  45  69 109 136 187 234 292 352 419
#     4  10  23  42  64 100 137 180 225 287 351 412
#     4  11  26  40  73 102 138 181 237 292 348 423
#     4  11  27  46  75  96 147 185 237 292 348 425
#
# _framework density 22.736919
#
# number of rings (size 3 to 8) (size 9 to 14) (size 15 to 20)
#    0.000    1.333    1.667    1.500   11.667    2.000 
#    0.000    0.000    0.000    0.000    0.000    0.000 
#    0.000    0.000    0.000    0.000    0.000    0.000 
#
# Total GULP energy -297651.579271 kJ/mol
# GULP energy per Si atom -12402.149136 kJ/mol
# Density = 2.268517 g / cm^3
# Si number density = 22.736919 Si / 1000 Ang^3
#
#
#
# Elastic Constant Matrix: (Units=GPa)
#
#
# Indices 1 2 3 4 5 6 
#
# 1 69.3703 24.7741 11.9857 0.0000 -14.7591 0.0000
# 2 24.7741 98.6104 22.1727 0.0000 4.9883 0.0000
# 3 11.9857 22.1727 107.6750 0.0000 2.0724 0.0000
# 4 0.0000 0.0000 0.0000 29.3186 0.0000 -7.6090
# 5 -14.7591 4.9883 2.0724 0.0000 20.6062 0.0000
# 6 0.0000 0.0000 0.0000 -7.6090 0.0000 30.4373
#
#
#
# Elastic Compliance Matrix: (Units=1/GPa)
#
#
# Indices 1 2 3 4 5 6 
#
# 1 0.019980 -0.005505 -0.001394 0.000000 0.015784 0.000000
# 2 -0.005505 0.012265 -0.001783 0.000000 -0.006732 0.000000
# 3 -0.001394 -0.001783 0.009840 0.000000 -0.001557 0.000000
# 4 0.000000 0.000000 0.000000 0.036474 0.000000 0.009118
# 5 0.015784 -0.006732 -0.001557 0.000000 0.061620 0.000000
# 6 0.000000 0.000000 0.000000 0.009118 0.000000 0.035134
#
#
# Mechanical properties :
#
#
# Convention : Reuss Voigt Hill
#
# Bulk Modulus (GPa) = 40.45208 43.72451 42.08830
# Shear Modulus (GPa) = 24.88568 30.52063 27.70316
#
# Velocity S-wave (km/s) = 3.31192 3.66777 3.49438
# Velocity P-wave (km/s) = 5.69694 6.09992 5.90187
#
# Compressibility (1/GPa) = 0.02472061
#
# Stress axis : x y z
#
# Youngs Moduli (GPa) = 50.04950 81.53006 101.62992
#
# Poissons Ratio (x) = 0.44879 0.14171
# Poissons Ratio (y) = 0.27550 0.18125
# Poissons Ratio (z) = 0.06979 0.14540
#
# Static dielectric constant tensor:
#      x y z
#    x 4.151980 0.000000 -0.156570 
#    y 0.000000 4.377660 0.000000 
#    z -0.156570 0.000000 3.762290 
# 
# 
# High freq. dielectric constant tensor:
#      x y z
#    x 1.899230 0.000000 -0.011630 
#    y 0.000000 1.913650 0.000000 
#    z -0.011630 0.000000 1.880020 
# 
# From -- ./inp_files/28046.got.cif
#   From: 2010.03.12/outbox.cif.g09.slc.cpg/sg14_15_cif.got.tgz:28046.got - 2010.03.31 13:35:05.
