data_PCOD8127068
_publ_section_title
;
Structure prediction by ZEFSAII (Michael W. Deem and Ramdas Pophale) SiO2 
 PCOD8127068
Probable space group: P 21/C
;
_chemical_formula_sum "Si O2"
_cell_formula_units_Z 24
_cell_length_a 7.264418
_cell_length_b 14.214478
_cell_length_c 14.126130
_cell_angle_alpha 90.000000
_cell_angle_beta 120.948303
_cell_angle_gamma 90.000000
_cell_volume 1250.995496
_symmetry_space_group_name_H-M "P 21/C"
_symmetry_group_IT_number 14
_symmetry_cell_setting 'monoclinic'
loop_
_space_group_symop_operation_xyz
x,y,z
-x,1/2+y,1/2-z
-x,-y,-z
x,1/2-y,1/2+z
loop_
_atom_site_type_symbol
_atom_site_label
_atom_site_fract_x
_atom_site_fract_y
_atom_site_fract_z
Si Si1 0.365924 0.793546 0.878181
Si Si2 0.175995 0.125929 0.023792
Si Si3 0.081971 0.546040 0.377175
Si Si4 0.890418 0.293549 0.878155
Si Si5 0.827619 0.546039 0.122831
Si Si6 0.371570 0.874083 0.523803
O O1 0.261736 0.873818 0.915800
O O2 0.214142 0.769433 0.750013
O O3 0.394454 0.699853 0.945680
O O4 0.595722 0.825913 0.900694
O O5 0.996824 0.199847 0.945651
O O6 0.195793 0.046268 0.948773
O O7 0.109564 0.080476 0.105791
O O8 0.985699 0.519938 0.250003
O O9 0.069900 0.373798 0.915785
O O10 0.705655 0.325948 0.900661
O O11 0.798286 0.453733 0.051234
O O12 0.601992 0.580449 0.105787
#
# Coordination Sequence:
#
# PCOD8127068 Si02
#       6
#     4   4   4   4   4   4
#     4  11  22  38  60  88 119 154 196 239 289 345
#     4  11  21  39  61  86 119 155 195 238 291 343
#     4  10  22  39  60  85 118 155 195 241 288 343
#     4  11  22  38  60  88 119 154 196 239 289 345
#     4  10  22  39  60  85 118 155 195 241 288 343
#     4  11  21  39  61  86 119 155 195 238 291 343
#
# _framework density 19.184722000000001
#
# number of rings (size 3 to 8) (size 9 to 14) (size 15 to 20)
#    0.000    1.333    3.333    3.000    0.000    0.000 
#    0.000    0.000    0.000    0.000    0.000    0.000 
#    0.000    0.000    0.000    0.000    0.000    0.000 
#
# Total GULP energy -297756.877519 kJ/mol
# GULP energy per Si atom -12406.536563 kJ/mol
# Density = 1.914106 g / cm^3
# Si number density = 19.184722 Si / 1000 Ang^3
#
#
#
# Elastic Constant Matrix: (Units=GPa)
#
#
# Indices 1 2 3 4 5 6 
#
# 1 57.8054 -0.1044 3.1601 0.0000 -0.2033 0.0000
# 2 -0.1044 64.7215 9.8148 0.0000 -0.6523 0.0000
# 3 3.1601 9.8148 45.3907 0.0000 1.0183 0.0000
# 4 0.0000 0.0000 0.0000 9.4666 0.0000 1.6694
# 5 -0.2033 -0.6523 1.0183 0.0000 28.8032 0.0000
# 6 0.0000 0.0000 0.0000 1.6694 0.0000 34.9146
#
#
#
# Elastic Compliance Matrix: (Units=1/GPa)
#
#
# Indices 1 2 3 4 5 6 
#
# 1 0.017369 0.000221 -0.001261 0.000000 0.000172 0.000000
# 2 0.000221 0.015984 -0.003483 0.000000 0.000487 0.000000
# 3 -0.001261 -0.003483 0.022892 0.000000 -0.000897 0.000000
# 4 0.000000 0.000000 0.000000 0.106533 0.000000 -0.005094
# 5 0.000172 0.000487 -0.000897 0.000000 0.034762 0.000000
# 6 0.000000 0.000000 0.000000 -0.005094 0.000000 0.028885
#
#
# Mechanical properties :
#
#
# Convention : Reuss Voigt Hill
#
# Bulk Modulus (GPa) = 21.18625 21.51764 21.35195
# Shear Modulus (GPa) = 19.90410 24.97333 22.43872
#
# Velocity S-wave (km/s) = 3.22452 3.61186 3.42367
# Velocity P-wave (km/s) = 4.99306 5.35112 5.17518
#
# Compressibility (1/GPa) = 0.04720042
#
# Stress axis : x y z
#
# Youngs Moduli (GPa) = 57.57270 62.56178 43.68356
#
# Poissons Ratio (x) = -0.01382 0.05508
# Poissons Ratio (y) = -0.01272 0.15213
# Poissons Ratio (z) = 0.07259 0.21788
#
# Static dielectric constant tensor:
#      x y z
#    x 3.477480 0.000000 0.007620 
#    y 0.000000 3.592440 0.000000 
#    z 0.007620 0.000000 3.359980 
# 
# 
# High freq. dielectric constant tensor:
#      x y z
#    x 1.752150 0.000000 0.000280 
#    y 0.000000 1.756940 0.000000 
#    z 0.000280 0.000000 1.747900 
# 
# From -- ./inp_files/35789.got.cif
#   From: 2010.03.12/outbox.cif.g09.slc.cpg/sg14_18_cif.got.tgz:35789.got - 2010.03.31 13:35:05.
