data_PCOD8127610
_publ_section_title
;
Structure prediction by ZEFSAII (Michael W. Deem and Ramdas Pophale) SiO2 
 PCOD8127610
Probable space group: P 21/C
;
_chemical_formula_sum "Si O2"
_cell_formula_units_Z 32
_cell_length_a 17.056345
_cell_length_b 12.834148
_cell_length_c 11.529615
_cell_angle_alpha 90.000000
_cell_angle_beta 141.501100
_cell_angle_gamma 90.000000
_cell_volume 1571.111130
_symmetry_space_group_name_H-M "P 21/C"
_symmetry_group_IT_number 14
_symmetry_cell_setting 'monoclinic'
loop_
_space_group_symop_operation_xyz
x,y,z
-x,1/2+y,1/2-z
-x,-y,-z
x,1/2-y,1/2+z
loop_
_atom_site_type_symbol
_atom_site_label
_atom_site_fract_x
_atom_site_fract_y
_atom_site_fract_z
Si Si1 0.801435 0.968578 0.802471
Si Si2 0.951136 0.134903 0.845077
Si Si3 0.116714 0.873648 0.712060
Si Si4 0.431261 0.357418 0.088033
Si Si5 0.431786 0.385432 0.553961
Si Si6 0.648774 0.541947 0.781187
Si Si7 0.682779 0.032104 0.898976
Si Si8 0.086704 0.966276 0.432255
O O1 0.679789 0.910688 0.612611
O O2 0.834841 0.070765 0.765898
O O3 0.777445 0.003001 0.906429
O O4 0.920306 0.890314 0.936914
O O5 0.924407 0.255707 0.823903
O O6 0.970641 0.108456 0.732148
O O7 0.130996 0.898201 0.592883
O O8 0.249198 0.891453 0.930171
O O9 0.013343 0.947055 0.650057
O O10 0.443212 0.237217 0.073975
O O11 0.409270 0.371981 0.199952
O O12 0.562698 0.410267 0.204477
O O13 0.570418 0.434785 0.702003
O O14 0.350216 0.414158 0.347253
O O15 0.360056 0.427331 0.584343
O O16 0.792147 0.522139 0.983271
#
# Coordination Sequence:
#
# PCOD8127610 Si02
#       8
#     4   4   4   4   4   4   4   4
#     4  11  25  46  61  99 134 167 216 269 317 390
#     4  11  26  43  70  93 134 173 213 269 324 385
#     4  11  26  41  70  99 126 176 214 267 331 377
#     4  11  25  40  69  94 128 178 211 262 332 380
#     4  10  24  42  66  95 128 172 214 271 318 383
#     4  10  22  45  64  93 131 165 221 272 314 384
#     4  11  24  45  62  98 135 162 218 270 312 393
#     4  11  23  46  65  97 131 166 224 270 313 393
#
# _framework density 20.367751999999999
#
# number of rings (size 3 to 8) (size 9 to 14) (size 15 to 20)
#    0.000    1.250    3.750    0.375    7.000    0.000 
#    0.000    0.000    0.000    0.000    0.000    0.000 
#    0.000    0.000    0.000    0.000    0.000    0.000 
#
# Total GULP energy -396973.676051 kJ/mol
# GULP energy per Si atom -12405.427377 kJ/mol
# Density = 2.032139 g / cm^3
# Si number density = 20.367752 Si / 1000 Ang^3
#
#
#
# Elastic Constant Matrix: (Units=GPa)
#
#
# Indices 1 2 3 4 5 6 
#
# 1 86.7893 37.1149 19.8028 0.0000 -8.7944 0.0000
# 2 37.1149 133.6209 38.6414 0.0000 -10.1385 0.0000
# 3 19.8028 38.6414 108.5038 0.0000 2.2551 0.0000
# 4 0.0000 0.0000 0.0000 8.6798 0.0000 -7.3160
# 5 -8.7944 -10.1385 2.2551 0.0000 34.5656 0.0000
# 6 0.0000 0.0000 0.0000 -7.3160 0.0000 18.4750
#
#
#
# Elastic Compliance Matrix: (Units=1/GPa)
#
#
# Indices 1 2 3 4 5 6 
#
# 1 0.013443 -0.003135 -0.001391 0.000000 0.002591 0.000000
# 2 -0.003135 0.009323 -0.002792 0.000000 0.002119 0.000000
# 3 -0.001391 -0.002792 0.010503 0.000000 -0.001858 0.000000
# 4 0.000000 0.000000 0.000000 0.172930 0.000000 0.068479
# 5 0.002591 0.002119 -0.001858 0.000000 0.030333 0.000000
# 6 0.000000 0.000000 0.000000 0.068479 0.000000 0.081244
#
#
# Mechanical properties :
#
#
# Convention : Reuss Voigt Hill
#
# Bulk Modulus (GPa) = 53.66842 57.78134 55.72488
# Shear Modulus (GPa) = 14.76572 27.90109 21.33340
#
# Velocity S-wave (km/s) = 2.69542 3.70519 3.23988
# Velocity P-wave (km/s) = 6.00783 6.83631 6.43541
#
# Compressibility (1/GPa) = 0.01863293
#
# Stress axis : x y z
#
# Youngs Moduli (GPa) = 74.38938 107.26324 95.21065
#
# Poissons Ratio (x) = 0.33628 0.13242
# Poissons Ratio (y) = 0.23322 0.26583
# Poissons Ratio (z) = 0.10346 0.29948
#
# Static dielectric constant tensor:
#      x y z
#    x 3.819270 0.000000 -0.067260 
#    y 0.000000 3.486590 0.000000 
#    z -0.067260 0.000000 3.882070 
# 
# 
# High freq. dielectric constant tensor:
#      x y z
#    x 1.807900 0.000000 -0.001570 
#    y 0.000000 1.784160 0.000000 
#    z -0.001570 0.000000 1.812140 
# 
# From -- ./inp_files/33941.got.cif
#   From: 2010.03.12/outbox.cif.g09.slc.cpg/sg14_17_cif.got.tgz:33941.got - 2010.03.31 13:35:05.
